REMARK SMILES O=C(NCCCCNC(=O)[C@H]1CC[N@@H+]1CCc1ccccc1)c1ccc(-c2c3nc(c(-c4c(F)c(F)c(F)c(F)c4F)c4ccc([nH]4)c(-c4c(F)c(F)c(F)c(F)c4F)c4nc(c(-c5c(F)c(F)c(F)c(F)c5F)c5ccc2[nH]5)C=C4)C=C3)cc1
REMARK SMILES IDX 6 1 5 2 4 3 3 4 1 5 2 6 23 8 24 9 85 10 25 11 84 12 26 13
REMARK SMILES IDX 27 14 28 15 78 16 29 17 83 18 77 19 79 20 30 21 82 22 76 23
REMARK SMILES IDX 75 24 31 26 63 27 43 28 62 29 44 30 47 31 61 32 80 33 45 34
REMARK SMILES IDX 46 35 60 37 81 38 48 39 32 40 33 41 41 42 34 43 35 44 39 45
REMARK SMILES IDX 42 46 36 47 37 48 40 49 38 50 64 51 65 52 73 53 66 54 67 55
REMARK SMILES IDX 71 56 74 57 68 58 69 59 72 60 70 61 49 62 50 63 58 64 51 65
REMARK SMILES IDX 52 66 56 67 59 68 53 69 54 70 57 71 55 72 7 73 8 74 9 75
REMARK SMILES IDX 10 77 11 78 12 79 14 80 13 81 15 83 16 84 17 85 18 86 22 87
REMARK SMILES IDX 19 88 21 89 20 90
REMARK H PARENT 3 7 79 25 47 36 8 76 14 82
REMARK Flexibility Score: inf
ROOT
ATOM      1  C   UNL     1       9.904  -1.938  -5.068  1.00  0.00     0.023 C 
ENDROOT
BRANCH   1   2
ATOM      2  C   UNL     1      11.292  -1.878  -5.709  1.00  0.00     0.023 C 
BRANCH   2   3
ATOM      3  C   UNL     1      12.050  -0.574  -5.499  1.00  0.00     0.116 C 
BRANCH   3   4
ATOM      4  N   UNL     1      12.378  -0.332  -4.104  1.00  0.00    -0.352 N 
ATOM      5  O   UNL     1      13.729  -0.021  -2.323  1.00  0.00    -0.269 OA
ATOM      6  C   UNL     1      13.601  -0.055  -3.537  1.00  0.00     0.251 C 
ATOM      7  H   UNL     1      11.620  -0.372  -3.477  1.00  0.00     0.163 HD
BRANCH   6   8
ATOM      8  C   UNL     1      14.772   0.176  -4.413  1.00  0.00     0.039 A 
ATOM      9  C   UNL     1      14.677   1.023  -5.519  1.00  0.00     0.014 A 
ATOM     10  C   UNL     1      15.978  -0.469  -4.121  1.00  0.00     0.014 A 
ATOM     11  C   UNL     1      15.740   1.116  -6.410  1.00  0.00     0.010 A 
ATOM     12  C   UNL     1      17.073  -0.309  -4.975  1.00  0.00     0.010 A 
ATOM     13  C   UNL     1      16.953   0.461  -6.141  1.00  0.00    -0.014 A 
BRANCH  13  14
ATOM     14  C   UNL     1      18.100   0.654  -7.064  1.00  0.00     0.031 A 
ATOM     15  C   UNL     1      18.658  -0.487  -7.866  1.00  0.00     0.074 A 
ATOM     16  C   UNL     1      18.622   1.889  -7.189  1.00  0.00     0.049 A 
ATOM     17  N   UNL     1      19.647  -0.483  -8.727  1.00  0.00    -0.248 NA
ATOM     18  C   UNL     1      18.036  -1.805  -7.676  1.00  0.00     0.031 C 
ATOM     19  C   UNL     1      18.172   3.069  -6.447  1.00  0.00     0.029 A 
ATOM     20  N   UNL     1      19.628   2.364  -7.990  1.00  0.00    -0.354 N 
ATOM     21  C   UNL     1      19.778  -1.794  -9.164  1.00  0.00     0.074 A 
ATOM     22  C   UNL     1      18.782  -2.574  -8.459  1.00  0.00     0.031 C 
ATOM     23  C   UNL     1      18.869   4.138  -6.856  1.00  0.00     0.029 A 
ATOM     24  C   UNL     1      19.853   3.711  -7.844  1.00  0.00     0.049 A 
ATOM     25  H   UNL     1      20.139   1.795  -8.610  1.00  0.00     0.167 HD
ATOM     26  C   UNL     1      20.647  -2.296 -10.075  1.00  0.00     0.037 A 
ATOM     27  C   UNL     1      20.762   4.513  -8.428  1.00  0.00     0.037 A 
ATOM     28  C   UNL     1      21.621  -1.508 -10.788  1.00  0.00     0.049 A 
ATOM     29  C   UNL     1      21.714   3.928  -9.430  1.00  0.00     0.074 A 
ATOM     30  C   UNL     1      22.515  -1.917 -11.764  1.00  0.00     0.029 A 
ATOM     31  N   UNL     1      21.832  -0.150 -10.600  1.00  0.00    -0.354 N 
ATOM     32  N   UNL     1      21.803   2.693  -9.860  1.00  0.00    -0.248 NA
ATOM     33  C   UNL     1      22.692   4.846 -10.025  1.00  0.00     0.031 C 
ATOM     34  C   UNL     1      23.296  -0.817 -12.133  1.00  0.00     0.029 A 
ATOM     35  C   UNL     1      22.857   0.289 -11.424  1.00  0.00     0.049 A 
ATOM     36  H   UNL     1      21.328   0.418  -9.974  1.00  0.00     0.167 HD
ATOM     37  C   UNL     1      22.837   2.686 -10.783  1.00  0.00     0.074 A 
ATOM     38  C   UNL     1      23.329   4.047 -10.869  1.00  0.00     0.031 C 
ATOM     39  C   UNL     1      23.337   1.646 -11.493  1.00  0.00     0.037 A 
BRANCH  26  40
ATOM     40  C   UNL     1      20.602  -3.772 -10.348  1.00  0.00     0.064 A 
ATOM     41  C   UNL     1      19.554  -4.356 -11.075  1.00  0.00     0.173 A 
ATOM     42  C   UNL     1      21.654  -4.602  -9.931  1.00  0.00     0.173 A 
ATOM     43  F   UNL     1      18.520  -3.609 -11.489  1.00  0.00    -0.203 F 
ATOM     44  C   UNL     1      19.552  -5.721 -11.358  1.00  0.00     0.198 A 
ATOM     45  C   UNL     1      21.661  -5.960 -10.237  1.00  0.00     0.198 A 
ATOM     46  F   UNL     1      22.684  -4.092  -9.239  1.00  0.00    -0.203 F 
ATOM     47  F   UNL     1      18.524  -6.264 -12.024  1.00  0.00    -0.200 F 
ATOM     48  C   UNL     1      20.609  -6.520 -10.946  1.00  0.00     0.200 A 
ATOM     49  F   UNL     1      22.689  -6.728  -9.850  1.00  0.00    -0.200 F 
ATOM     50  F   UNL     1      20.611  -7.830 -11.229  1.00  0.00    -0.200 F 
ENDBRANCH  26  40
BRANCH  27  51
ATOM     51  C   UNL     1      20.806   5.952  -8.067  1.00  0.00     0.064 A 
ATOM     52  C   UNL     1      20.413   6.938  -8.981  1.00  0.00     0.173 A 
ATOM     53  C   UNL     1      21.216   6.367  -6.791  1.00  0.00     0.173 A 
ATOM     54  F   UNL     1      20.030   6.591 -10.218  1.00  0.00    -0.203 F 
ATOM     55  C   UNL     1      20.438   8.288  -8.635  1.00  0.00     0.198 A 
ATOM     56  C   UNL     1      21.212   7.713  -6.437  1.00  0.00     0.198 A 
ATOM     57  F   UNL     1      21.595   5.459  -5.879  1.00  0.00    -0.203 F 
ATOM     58  F   UNL     1      20.091   9.215  -9.538  1.00  0.00    -0.200 F 
ATOM     59  C   UNL     1      20.829   8.673  -7.361  1.00  0.00     0.200 A 
ATOM     60  F   UNL     1      21.573   8.079  -5.199  1.00  0.00    -0.200 F 
ATOM     61  F   UNL     1      20.841   9.970  -7.025  1.00  0.00    -0.200 F 
ENDBRANCH  27  51
BRANCH  39  62
ATOM     62  C   UNL     1      24.464   1.946 -12.436  1.00  0.00     0.064 A 
ATOM     63  C   UNL     1      25.756   2.227 -11.969  1.00  0.00     0.173 A 
ATOM     64  C   UNL     1      24.255   1.928 -13.823  1.00  0.00     0.173 A 
ATOM     65  F   UNL     1      26.002   2.273 -10.650  1.00  0.00    -0.203 F 
ATOM     66  C   UNL     1      26.792   2.507 -12.856  1.00  0.00     0.198 A 
ATOM     67  C   UNL     1      25.299   2.181 -14.708  1.00  0.00     0.198 A 
ATOM     68  F   UNL     1      23.038   1.660 -14.320  1.00  0.00    -0.203 F 
ATOM     69  F   UNL     1      28.007   2.822 -12.386  1.00  0.00    -0.200 F 
ATOM     70  C   UNL     1      26.564   2.477 -14.223  1.00  0.00     0.200 A 
ATOM     71  F   UNL     1      25.080   2.142 -16.029  1.00  0.00    -0.200 F 
ATOM     72  F   UNL     1      27.563   2.744 -15.076  1.00  0.00    -0.200 F 
ENDBRANCH  39  62
ENDBRANCH  13  14
ENDBRANCH   6   8
ENDBRANCH   3   4
ENDBRANCH   2   3
ENDBRANCH   1   2
BRANCH   1  73
ATOM     73  C   UNL     1       8.968  -0.785  -5.428  1.00  0.00     0.116 C 
BRANCH  73  74
ATOM     74  N   UNL     1       8.813  -0.638  -6.858  1.00  0.00    -0.351 N 
ATOM     75  C   UNL     1       7.658  -0.546  -7.598  1.00  0.00     0.278 C 
ATOM     76  H   UNL     1       9.652  -0.599  -7.373  1.00  0.00     0.163 HD
ATOM     77  O   UNL     1       7.808  -0.449  -8.823  1.00  0.00    -0.268 OA
BRANCH  75  78
ATOM     78  C   UNL     1       6.269  -0.531  -6.844  1.00  0.00     0.279 C 
ATOM     79  C   UNL     1       5.088   0.021  -7.676  1.00  0.00     0.137 C 
ATOM     80  N   UNL     1       5.623  -1.864  -6.845  1.00  0.00    -0.324 N 
ATOM     81  C   UNL     1       4.611  -1.425  -7.813  1.00  0.00     0.269 C 
ATOM     82  H   UNL     1       6.205  -2.679  -7.040  1.00  0.00     0.348 HD
BRANCH  80  83
ATOM     83  C   UNL     1       5.063  -2.321  -5.566  1.00  0.00     0.267 C 
BRANCH  83  84
ATOM     84  C   UNL     1       4.489  -1.384  -4.476  1.00  0.00     0.097 C 
BRANCH  84  85
ATOM     85  C   UNL     1       3.282  -0.558  -4.835  1.00  0.00    -0.042 A 
ATOM     86  C   UNL     1       3.313   0.835  -4.670  1.00  0.00     0.004 A 
ATOM     87  C   UNL     1       2.115  -1.151  -5.333  1.00  0.00     0.004 A 
ATOM     88  C   UNL     1       2.235   1.623  -5.075  1.00  0.00     0.000 A 
ATOM     89  C   UNL     1       1.038  -0.362  -5.741  1.00  0.00     0.000 A 
ATOM     90  C   UNL     1       1.104   1.025  -5.625  1.00  0.00     0.000 A 
ENDBRANCH  84  85
ENDBRANCH  83  84
ENDBRANCH  80  83
ENDBRANCH  75  78
ENDBRANCH  73  74
ENDBRANCH   1  73
TORSDOF 14
