REMARK SMILES O=C(NCCCCNC(=O)[C@H]1[C@@H](C(=O)Nc2ccccc2-c2ccccc2)[C@@H]2C=C[C@H]1O2)c1ccc(-c2c3nc(c(-c4c(F)c(F)c(F)c(F)c4F)c4ccc([nH]4)c(-c4c(F)c(F)c(F)c(F)c4F)c4nc(c(-c5c(F)c(F)c(F)c(F)c5F)c5ccc2[nH]5)C=C4)C=C3)cc1
REMARK SMILES IDX 6 1 5 2 4 3 3 4 1 5 2 6 33 8 34 9 95 10 35 11 94 12 36 13
REMARK SMILES IDX 37 14 38 15 88 16 39 17 93 18 87 19 89 20 40 21 92 22 86 23
REMARK SMILES IDX 85 24 41 26 73 27 53 28 72 29 54 30 57 31 71 32 90 33 55 34
REMARK SMILES IDX 56 35 70 37 91 38 58 39 42 40 43 41 51 42 44 43 45 44 49 45
REMARK SMILES IDX 52 46 46 47 47 48 50 49 48 50 74 51 75 52 83 53 76 54 77 55
REMARK SMILES IDX 81 56 84 57 78 58 79 59 82 60 80 61 59 62 60 63 68 64 61 65
REMARK SMILES IDX 62 66 66 67 69 68 63 69 64 70 67 71 65 72 7 73 8 74 9 75
REMARK SMILES IDX 10 77 11 78 12 79 31 80 28 81 30 82 32 83 29 84 13 85 14 86
REMARK SMILES IDX 15 87 16 89 17 90 21 91 18 92 20 93 19 94 22 95 23 96 27 97
REMARK SMILES IDX 24 98 26 99 25 100
REMARK H PARENT 3 7 89 25 57 36 8 76 15 88
REMARK Flexibility Score: inf
ROOT
ATOM      1  C   UNL     1       8.774  -0.364   9.099  1.00  0.00     0.023 C 
ENDROOT
BRANCH   1   2
ATOM      2  C   UNL     1       9.304  -0.889  10.434  1.00  0.00     0.023 C 
BRANCH   2   3
ATOM      3  C   UNL     1      10.785  -0.637  10.638  1.00  0.00     0.116 C 
BRANCH   3   4
ATOM      4  N   UNL     1      11.123   0.776  10.709  1.00  0.00    -0.352 N 
ATOM      5  O   UNL     1      12.388   2.535  11.378  1.00  0.00    -0.269 OA
ATOM      6  C   UNL     1      12.255   1.327  11.265  1.00  0.00     0.251 C 
ATOM      7  H   UNL     1      10.473   1.404  10.319  1.00  0.00     0.163 HD
BRANCH   6   8
ATOM      8  C   UNL     1      13.289   0.403  11.770  1.00  0.00     0.039 A 
ATOM      9  C   UNL     1      13.768  -0.619  10.948  1.00  0.00     0.014 A 
ATOM     10  C   UNL     1      13.714   0.516  13.095  1.00  0.00     0.014 A 
ATOM     11  C   UNL     1      14.569  -1.612  11.489  1.00  0.00     0.010 A 
ATOM     12  C   UNL     1      14.601  -0.430  13.610  1.00  0.00     0.010 A 
ATOM     13  C   UNL     1      15.016  -1.511  12.816  1.00  0.00    -0.014 A 
BRANCH  13  14
ATOM     14  C   UNL     1      16.004  -2.494  13.318  1.00  0.00     0.031 A 
ATOM     15  C   UNL     1      15.678  -3.422  14.448  1.00  0.00     0.074 A 
ATOM     16  C   UNL     1      17.214  -2.526  12.728  1.00  0.00     0.049 A 
ATOM     17  N   UNL     1      16.446  -4.305  15.035  1.00  0.00    -0.248 NA
ATOM     18  C   UNL     1      14.319  -3.345  15.003  1.00  0.00     0.031 C 
ATOM     19  C   UNL     1      17.634  -1.650  11.630  1.00  0.00     0.029 A 
ATOM     20  N   UNL     1      18.307  -3.317  12.957  1.00  0.00    -0.354 N 
ATOM     21  C   UNL     1      15.677  -4.868  16.044  1.00  0.00     0.074 A 
ATOM     22  C   UNL     1      14.385  -4.217  16.001  1.00  0.00     0.031 C 
ATOM     23  C   UNL     1      18.878  -1.974  11.260  1.00  0.00     0.029 A 
ATOM     24  C   UNL     1      19.371  -3.023  12.142  1.00  0.00     0.049 A 
ATOM     25  H   UNL     1      18.328  -4.027  13.639  1.00  0.00     0.167 HD
ATOM     26  C   UNL     1      16.028  -5.840  16.922  1.00  0.00     0.037 A 
ATOM     27  C   UNL     1      20.622  -3.517  12.129  1.00  0.00     0.037 A 
ATOM     28  C   UNL     1      17.318  -6.484  16.938  1.00  0.00     0.049 A 
ATOM     29  C   UNL     1      20.985  -4.581  13.119  1.00  0.00     0.074 A 
ATOM     30  C   UNL     1      17.760  -7.513  17.751  1.00  0.00     0.029 A 
ATOM     31  N   UNL     1      18.377  -6.154  16.102  1.00  0.00    -0.354 N 
ATOM     32  N   UNL     1      20.240  -5.130  14.047  1.00  0.00    -0.248 NA
ATOM     33  C   UNL     1      22.358  -5.092  13.064  1.00  0.00     0.031 C 
ATOM     34  C   UNL     1      19.101  -7.769  17.444  1.00  0.00     0.029 A 
ATOM     35  C   UNL     1      19.480  -6.939  16.401  1.00  0.00     0.049 A 
ATOM     36  H   UNL     1      18.349  -5.464  15.400  1.00  0.00     0.167 HD
ATOM     37  C   UNL     1      21.049  -6.056  14.685  1.00  0.00     0.074 A 
ATOM     38  C   UNL     1      22.337  -6.011  14.019  1.00  0.00     0.031 C 
ATOM     39  C   UNL     1      20.755  -6.868  15.731  1.00  0.00     0.037 A 
BRANCH  26  40
ATOM     40  C   UNL     1      15.018  -6.242  17.959  1.00  0.00     0.064 A 
ATOM     41  C   UNL     1      13.858  -6.958  17.627  1.00  0.00     0.173 A 
ATOM     42  C   UNL     1      15.232  -5.936  19.312  1.00  0.00     0.173 A 
ATOM     43  F   UNL     1      13.598  -7.268  16.348  1.00  0.00    -0.203 F 
ATOM     44  C   UNL     1      12.937  -7.327  18.607  1.00  0.00     0.198 A 
ATOM     45  C   UNL     1      14.324  -6.331  20.292  1.00  0.00     0.198 A 
ATOM     46  F   UNL     1      16.328  -5.259  19.687  1.00  0.00    -0.203 F 
ATOM     47  F   UNL     1      11.812  -7.968  18.259  1.00  0.00    -0.200 F 
ATOM     48  C   UNL     1      13.174  -7.018  19.938  1.00  0.00     0.200 A 
ATOM     49  F   UNL     1      14.561  -6.042  21.579  1.00  0.00    -0.200 F 
ATOM     50  F   UNL     1      12.289  -7.376  20.879  1.00  0.00    -0.200 F 
ENDBRANCH  26  40
BRANCH  27  51
ATOM     51  C   UNL     1      21.604  -2.977  11.156  1.00  0.00     0.064 A 
ATOM     52  C   UNL     1      22.050  -3.747  10.075  1.00  0.00     0.173 A 
ATOM     53  C   UNL     1      22.069  -1.656  11.255  1.00  0.00     0.173 A 
ATOM     54  F   UNL     1      21.642  -5.018   9.945  1.00  0.00    -0.203 F 
ATOM     55  C   UNL     1      22.929  -3.219   9.132  1.00  0.00     0.198 A 
ATOM     56  C   UNL     1      22.922  -1.119  10.296  1.00  0.00     0.198 A 
ATOM     57  F   UNL     1      21.660  -0.875  12.265  1.00  0.00    -0.203 F 
ATOM     58  F   UNL     1      23.362  -3.984   8.121  1.00  0.00    -0.200 F 
ATOM     59  C   UNL     1      23.356  -1.903   9.237  1.00  0.00     0.200 A 
ATOM     60  F   UNL     1      23.311   0.159  10.388  1.00  0.00    -0.200 F 
ATOM     61  F   UNL     1      24.184  -1.389   8.318  1.00  0.00    -0.200 F 
ENDBRANCH  27  51
BRANCH  39  62
ATOM     62  C   UNL     1      21.846  -7.781  16.204  1.00  0.00     0.064 A 
ATOM     63  C   UNL     1      22.954  -7.293  16.913  1.00  0.00     0.173 A 
ATOM     64  C   UNL     1      21.769  -9.161  15.968  1.00  0.00     0.173 A 
ATOM     65  F   UNL     1      23.082  -5.978  17.145  1.00  0.00    -0.203 F 
ATOM     66  C   UNL     1      23.958  -8.153  17.348  1.00  0.00     0.198 A 
ATOM     67  C   UNL     1      22.760 -10.022  16.430  1.00  0.00     0.198 A 
ATOM     68  F   UNL     1      20.728  -9.676  15.297  1.00  0.00    -0.203 F 
ATOM     69  F   UNL     1      25.032  -7.661  17.981  1.00  0.00    -0.200 F 
ATOM     70  C   UNL     1      23.857  -9.517  17.113  1.00  0.00     0.200 A 
ATOM     71  F   UNL     1      22.656 -11.340  16.212  1.00  0.00    -0.200 F 
ATOM     72  F   UNL     1      24.822 -10.344  17.537  1.00  0.00    -0.200 F 
ENDBRANCH  39  62
ENDBRANCH  13  14
ENDBRANCH   6   8
ENDBRANCH   3   4
ENDBRANCH   2   3
ENDBRANCH   1   2
BRANCH   1  73
ATOM     73  C   UNL     1       9.303  -1.129   7.884  1.00  0.00     0.116 C 
BRANCH  73  74
ATOM     74  N   UNL     1       8.628  -2.398   7.747  1.00  0.00    -0.356 N 
ATOM     75  C   UNL     1       7.504  -2.740   7.067  1.00  0.00     0.227 C 
ATOM     76  H   UNL     1       9.056  -3.143   8.228  1.00  0.00     0.163 HD
ATOM     77  O   UNL     1       7.194  -3.935   7.104  1.00  0.00    -0.275 OA
BRANCH  75  78
ATOM     78  C   UNL     1       6.800  -1.797   6.120  1.00  0.00     0.127 C 
ATOM     79  C   UNL     1       5.321  -2.174   5.820  1.00  0.00     0.127 C 
ATOM     80  C   UNL     1       6.659  -0.289   6.372  1.00  0.00     0.155 C 
ATOM     81  C   UNL     1       4.639  -0.809   5.770  1.00  0.00     0.155 C 
ATOM     82  C   UNL     1       6.429   0.406   5.058  1.00  0.00     0.004 C 
ATOM     83  O   UNL     1       5.323  -0.193   6.877  1.00  0.00    -0.365 OA
ATOM     84  C   UNL     1       5.191   0.060   4.674  1.00  0.00     0.004 C 
BRANCH  79  85
ATOM     85  C   UNL     1       4.479  -3.113   6.682  1.00  0.00     0.231 C 
ATOM     86  O   UNL     1       3.787  -3.952   6.074  1.00  0.00    -0.274 OA
ATOM     87  N   UNL     1       4.269  -3.099   8.025  1.00  0.00    -0.325 N 
ATOM     88  H   UNL     1       3.411  -3.507   8.284  1.00  0.00     0.169 HD
BRANCH  87  89
ATOM     89  C   UNL     1       5.008  -2.629   9.128  1.00  0.00     0.049 A 
ATOM     90  C   UNL     1       5.789  -3.607   9.776  1.00  0.00     0.027 A 
ATOM     91  C   UNL     1       4.769  -1.393   9.779  1.00  0.00     0.005 A 
ATOM     92  C   UNL     1       6.416  -3.359  10.995  1.00  0.00     0.002 A 
ATOM     93  C   UNL     1       5.421  -1.171  11.018  1.00  0.00     0.011 A 
ATOM     94  C   UNL     1       6.235  -2.134  11.617  1.00  0.00     0.001 A 
BRANCH  91  95
ATOM     95  C   UNL     1       3.861  -0.335   9.280  1.00  0.00    -0.016 A 
ATOM     96  C   UNL     1       4.301   1.005   9.210  1.00  0.00     0.009 A 
ATOM     97  C   UNL     1       2.569  -0.616   8.813  1.00  0.00     0.009 A 
ATOM     98  C   UNL     1       3.524   1.997   8.608  1.00  0.00     0.001 A 
ATOM     99  C   UNL     1       1.785   0.378   8.218  1.00  0.00     0.001 A 
ATOM    100  C   UNL     1       2.271   1.677   8.097  1.00  0.00     0.000 A 
ENDBRANCH  91  95
ENDBRANCH  87  89
ENDBRANCH  79  85
ENDBRANCH  75  78
ENDBRANCH  73  74
ENDBRANCH   1  73
TORSDOF 14
