REMARK SMILES O=C(COc1ccc(C(=O)NCCCCNC(=O)c2ccc(-c3c4nc(c(-c5c(F)c(F)c(F)c(F)c5F)c5ccc([nH]5)c(-c5c(F)c(F)c(F)c(F)c5F)c5nc(c(-c6c(F)c(F)c(F)c(F)c6F)c6ccc3[nH]6)C=C5)C=C4)cc2)nc1)Nc1ccccc1F
REMARK SMILES IDX 12 1 11 2 9 3 10 4 8 6 5 7 6 8 83 9 7 10 82 11 4 12 3 13
REMARK SMILES IDX 2 14 1 15 84 16 85 18 86 19 90 20 87 21 89 22 91 23 88 24
REMARK SMILES IDX 13 25 14 26 15 27 16 28 17 29 18 31 19 32 20 33 81 34 21 35
REMARK SMILES IDX 80 36 22 37 23 38 24 39 74 40 25 41 79 42 73 43 75 44 26 45
REMARK SMILES IDX 78 46 72 47 71 48 27 50 59 51 39 52 58 53 40 54 43 55 57 56
REMARK SMILES IDX 76 57 41 58 42 59 56 61 77 62 44 63 28 64 29 65 37 66 30 67
REMARK SMILES IDX 31 68 35 69 38 70 32 71 33 72 36 73 34 74 60 75 61 76 69 77
REMARK SMILES IDX 62 78 63 79 67 80 70 81 64 82 65 83 68 84 66 85 45 86 46 87
REMARK SMILES IDX 54 88 47 89 48 90 52 91 55 92 49 93 50 94 53 95 51 96
REMARK H PARENT 11 5 84 17 16 30 75 49 43 60
REMARK Flexibility Score: inf
ROOT
ATOM      1  C   UNL     1      -0.148   5.769  -1.836  1.00  0.00     0.116 C 
ENDROOT
BRANCH   1   2
ATOM      2  N   UNL     1       0.781   6.061  -2.910  1.00  0.00    -0.351 N 
ATOM      3  C   UNL     1       1.849   5.355  -3.429  1.00  0.00     0.269 C 
ATOM      4  O   UNL     1       2.391   5.841  -4.424  1.00  0.00    -0.268 OA
ATOM      5  H   UNL     1       0.621   6.926  -3.353  1.00  0.00     0.163 HD
BRANCH   3   6
ATOM      6  C   UNL     1       2.364   4.062  -2.845  1.00  0.00     0.128 A 
ATOM      7  C   UNL     1       3.468   1.710  -1.896  1.00  0.00     0.138 A 
ATOM      8  C   UNL     1       2.764   2.535  -1.035  1.00  0.00     0.050 A 
ATOM      9  C   UNL     1       3.624   2.135  -3.205  1.00  0.00     0.158 A 
ATOM     10  C   UNL     1       2.215   3.722  -1.509  1.00  0.00     0.038 A 
ATOM     11  N   UNL     1       3.077   3.275  -3.698  1.00  0.00    -0.247 NA
BRANCH   7  12
ATOM     12  O   UNL     1       4.104   0.595  -1.431  1.00  0.00    -0.482 OA
BRANCH  12  13
ATOM     13  C   UNL     1       3.215  -0.519  -1.295  1.00  0.00     0.329 C 
BRANCH  13  14
ATOM     14  C   UNL     1       2.307  -0.484  -0.056  1.00  0.00     0.262 C 
ATOM     15  O   UNL     1       1.128  -0.810  -0.137  1.00  0.00    -0.271 OA
ATOM     16  N   UNL     1       2.960   0.015   1.063  1.00  0.00    -0.321 N 
ATOM     17  H   UNL     1       3.929   0.168   0.984  1.00  0.00     0.170 HD
BRANCH  16  18
ATOM     18  C   UNL     1       2.362   0.324   2.307  1.00  0.00     0.077 A 
ATOM     19  C   UNL     1       2.964   1.347   3.055  1.00  0.00     0.029 A 
ATOM     20  C   UNL     1       1.213  -0.286   2.821  1.00  0.00     0.146 A 
ATOM     21  C   UNL     1       2.387   1.793   4.249  1.00  0.00     0.002 A 
ATOM     22  C   UNL     1       0.643   0.148   4.018  1.00  0.00     0.041 A 
ATOM     23  F   UNL     1       0.664  -1.357   2.234  1.00  0.00    -0.205 F 
ATOM     24  C   UNL     1       1.221   1.199   4.727  1.00  0.00     0.003 A 
ENDBRANCH  16  18
ENDBRANCH  13  14
ENDBRANCH  12  13
ENDBRANCH   7  12
ENDBRANCH   3   6
ENDBRANCH   1   2
BRANCH   1  25
ATOM     25  C   UNL     1       0.282   6.436  -0.525  1.00  0.00     0.023 C 
BRANCH  25  26
ATOM     26  C   UNL     1      -0.147   7.895  -0.369  1.00  0.00     0.023 C 
BRANCH  26  27
ATOM     27  C   UNL     1      -1.653   8.127  -0.330  1.00  0.00     0.116 C 
BRANCH  27  28
ATOM     28  N   UNL     1      -2.333   7.384   0.719  1.00  0.00    -0.352 N 
ATOM     29  C   UNL     1      -3.470   7.729   1.417  1.00  0.00     0.251 C 
ATOM     30  H   UNL     1      -1.928   6.520   0.963  1.00  0.00     0.163 HD
ATOM     31  O   UNL     1      -3.875   7.036   2.332  1.00  0.00    -0.269 OA
BRANCH  29  32
ATOM     32  C   UNL     1      -4.161   8.991   1.072  1.00  0.00     0.039 A 
ATOM     33  C   UNL     1      -4.436   9.901   2.094  1.00  0.00     0.014 A 
ATOM     34  C   UNL     1      -4.476   9.295  -0.255  1.00  0.00     0.014 A 
ATOM     35  C   UNL     1      -4.945  11.160   1.774  1.00  0.00     0.010 A 
ATOM     36  C   UNL     1      -4.923  10.572  -0.578  1.00  0.00     0.010 A 
ATOM     37  C   UNL     1      -5.144  11.521   0.431  1.00  0.00    -0.014 A 
BRANCH  37  38
ATOM     38  C   UNL     1      -5.532  12.903   0.059  1.00  0.00     0.031 A 
ATOM     39  C   UNL     1      -6.858  13.172  -0.588  1.00  0.00     0.074 A 
ATOM     40  C   UNL     1      -4.644  13.903   0.230  1.00  0.00     0.049 A 
ATOM     41  N   UNL     1      -7.338  14.298  -1.052  1.00  0.00    -0.248 NA
ATOM     42  C   UNL     1      -7.753  12.018  -0.763  1.00  0.00     0.031 C 
ATOM     43  C   UNL     1      -3.301  13.754   0.793  1.00  0.00     0.029 A 
ATOM     44  N   UNL     1      -4.732  15.239  -0.069  1.00  0.00    -0.354 N 
ATOM     45  C   UNL     1      -8.582  13.987  -1.583  1.00  0.00     0.074 A 
ATOM     46  C   UNL     1      -8.765  12.560  -1.426  1.00  0.00     0.031 C 
ATOM     47  C   UNL     1      -2.697  14.953   0.813  1.00  0.00     0.029 A 
ATOM     48  C   UNL     1      -3.595  15.947   0.234  1.00  0.00     0.049 A 
ATOM     49  H   UNL     1      -5.534  15.652  -0.464  1.00  0.00     0.167 HD
ATOM     50  C   UNL     1      -9.496  14.822  -2.132  1.00  0.00     0.037 A 
ATOM     51  C   UNL     1      -3.306  17.250   0.057  1.00  0.00     0.037 A 
ATOM     52  C   UNL     1      -9.320  16.244  -2.261  1.00  0.00     0.049 A 
ATOM     53  C   UNL     1      -4.340  18.154  -0.555  1.00  0.00     0.074 A 
ATOM     54  C   UNL     1     -10.221  17.186  -2.726  1.00  0.00     0.029 A 
ATOM     55  N   UNL     1      -8.161  16.930  -1.928  1.00  0.00    -0.354 N 
ATOM     56  N   UNL     1      -5.545  17.863  -0.978  1.00  0.00    -0.248 NA
ATOM     57  C   UNL     1      -3.972  19.568  -0.713  1.00  0.00     0.031 C 
ATOM     58  C   UNL     1      -9.592  18.436  -2.715  1.00  0.00     0.029 A 
ATOM     59  C   UNL     1      -8.314  18.279  -2.204  1.00  0.00     0.049 A 
ATOM     60  H   UNL     1      -7.349  16.518  -1.552  1.00  0.00     0.167 HD
ATOM     61  C   UNL     1      -6.087  19.056  -1.436  1.00  0.00     0.074 A 
ATOM     62  C   UNL     1      -5.085  20.080  -1.220  1.00  0.00     0.031 C 
ATOM     63  C   UNL     1      -7.303  19.283  -1.988  1.00  0.00     0.037 A 
BRANCH  50  64
ATOM     64  C   UNL     1     -10.775  14.218  -2.628  1.00  0.00     0.064 A 
ATOM     65  C   UNL     1     -11.750  13.734  -1.742  1.00  0.00     0.173 A 
ATOM     66  C   UNL     1     -11.050  14.160  -4.003  1.00  0.00     0.173 A 
ATOM     67  F   UNL     1     -11.530  13.756  -0.419  1.00  0.00    -0.203 F 
ATOM     68  C   UNL     1     -12.941  13.191  -2.216  1.00  0.00     0.198 A 
ATOM     69  C   UNL     1     -12.254  13.640  -4.471  1.00  0.00     0.198 A 
ATOM     70  F   UNL     1     -10.153  14.614  -4.891  1.00  0.00    -0.203 F 
ATOM     71  F   UNL     1     -13.839  12.695  -1.353  1.00  0.00    -0.200 F 
ATOM     72  C   UNL     1     -13.195  13.151  -3.579  1.00  0.00     0.200 A 
ATOM     73  F   UNL     1     -12.502  13.612  -5.788  1.00  0.00    -0.200 F 
ATOM     74  F   UNL     1     -14.346  12.635  -4.032  1.00  0.00    -0.200 F 
ENDBRANCH  50  64
BRANCH  51  75
ATOM     75  C   UNL     1      -1.985  17.780   0.480  1.00  0.00     0.064 A 
ATOM     76  C   UNL     1      -1.874  18.629   1.589  1.00  0.00     0.173 A 
ATOM     77  C   UNL     1      -0.810  17.451  -0.212  1.00  0.00     0.173 A 
ATOM     78  F   UNL     1      -2.973  18.988   2.269  1.00  0.00    -0.203 F 
ATOM     79  C   UNL     1      -0.640  19.144   1.981  1.00  0.00     0.198 A 
ATOM     80  C   UNL     1       0.427  17.946   0.196  1.00  0.00     0.198 A 
ATOM     81  F   UNL     1      -0.863  16.638  -1.277  1.00  0.00    -0.203 F 
ATOM     82  F   UNL     1      -0.568  19.986   3.021  1.00  0.00    -0.200 F 
ATOM     83  C   UNL     1       0.510  18.798   1.288  1.00  0.00     0.200 A 
ATOM     84  F   UNL     1       1.537  17.599  -0.468  1.00  0.00    -0.200 F 
ATOM     85  F   UNL     1       1.697  19.290   1.668  1.00  0.00    -0.200 F 
ENDBRANCH  51  75
BRANCH  63  86
ATOM     86  C   UNL     1      -7.620  20.693  -2.389  1.00  0.00     0.064 A 
ATOM     87  C   UNL     1      -7.030  21.282  -3.517  1.00  0.00     0.173 A 
ATOM     88  C   UNL     1      -8.549  21.450  -1.660  1.00  0.00     0.173 A 
ATOM     89  F   UNL     1      -6.123  20.603  -4.235  1.00  0.00    -0.203 F 
ATOM     90  C   UNL     1      -7.344  22.586  -3.888  1.00  0.00     0.198 A 
ATOM     91  C   UNL     1      -8.880  22.744  -2.050  1.00  0.00     0.198 A 
ATOM     92  F   UNL     1      -9.143  20.929  -0.576  1.00  0.00    -0.203 F 
ATOM     93  F   UNL     1      -6.736  23.144  -4.944  1.00  0.00    -0.200 F 
ATOM     94  C   UNL     1      -8.273  23.313  -3.159  1.00  0.00     0.200 A 
ATOM     95  F   UNL     1      -9.786  23.442  -1.351  1.00  0.00    -0.200 F 
ATOM     96  F   UNL     1      -8.578  24.567  -3.522  1.00  0.00    -0.200 F 
ENDBRANCH  63  86
ENDBRANCH  37  38
ENDBRANCH  29  32
ENDBRANCH  27  28
ENDBRANCH  26  27
ENDBRANCH  25  26
ENDBRANCH   1  25
TORSDOF 15
