REMARK SMILES C[N@H+](C[C@H]1CCC[N@@H+]1C)C[C@]([NH3+])(C(=O)NCCCCNC(=O)c1ccc(-c2c3nc(c(-c4c(F)c(F)c(F)c(F)c4F)c4ccc([nH]4)c(-c4c(F)c(F)c(F)c(F)c4F)c4nc(c(-c5c(F)c(F)c(F)c(F)c5F)c5ccc2[nH]5)C=C4)C=C3)cc1)c1ccccc1
REMARK SMILES IDX 16 1 15 2 13 3 14 4 11 6 10 7 2 8 1 9 3 11 4 12 5 13 8 14
REMARK SMILES IDX 6 15 7 16 9 17 86 19 87 20 91 21 88 22 90 23 89 24 12 25
REMARK SMILES IDX 17 29 18 30 19 31 20 32 21 33 22 35 23 36 24 37 85 38 25 39
REMARK SMILES IDX 84 40 26 41 27 42 28 43 78 44 29 45 83 46 77 47 79 48 30 49
REMARK SMILES IDX 82 50 76 51 75 52 31 54 63 55 43 56 62 57 44 58 47 59 61 60
REMARK SMILES IDX 80 61 45 62 46 63 60 65 81 66 48 67 32 68 33 69 41 70 34 71
REMARK SMILES IDX 35 72 39 73 42 74 36 75 37 76 40 77 38 78 64 79 65 80 73 81
REMARK SMILES IDX 66 82 67 83 71 84 74 85 68 86 69 87 72 88 70 89 49 90 50 91
REMARK SMILES IDX 58 92 51 93 52 94 56 95 59 96 53 97 54 98 57 99 55 100
REMARK H PARENT 15 5 2 10 8 18 12 26 12 27 12 28 20 34 79 53 47 64
REMARK Flexibility Score: inf
ROOT
ATOM      1  C   UNL     1       3.538  -0.864   3.739  1.00  0.00     0.116 C 
ENDROOT
BRANCH   1   2
ATOM      2  N   UNL     1       2.446  -1.047   4.688  1.00  0.00    -0.350 N 
ATOM      3  C   UNL     1       1.107  -1.382   4.474  1.00  0.00     0.292 C 
ATOM      4  O   UNL     1       0.518  -1.905   5.426  1.00  0.00    -0.267 OA
ATOM      5  H   UNL     1       2.692  -0.912   5.632  1.00  0.00     0.163 HD
BRANCH   3   6
ATOM      6  C   UNL     1       0.342  -0.869   3.182  1.00  0.00     0.248 C 
BRANCH   6   7
ATOM      7  C   UNL     1       0.855  -1.416   1.779  1.00  0.00     0.347 C 
BRANCH   7   8
ATOM      8  N   UNL     1       0.933  -0.403   0.685  1.00  0.00    -0.326 N 
ATOM      9  C   UNL     1       0.096  -0.610  -0.470  1.00  0.00     0.333 C 
ATOM     10  H   UNL     1       0.428   0.293   1.234  1.00  0.00     0.348 HD
BRANCH   8  11
ATOM     11  C   UNL     1       2.074   0.514   0.557  1.00  0.00     0.327 C 
BRANCH  11  12
ATOM     12  C   UNL     1       1.918   2.098   0.741  1.00  0.00     0.239 C 
ATOM     13  C   UNL     1       1.435   2.788  -0.532  1.00  0.00     0.077 C 
ATOM     14  N   UNL     1       0.986   2.595   1.769  1.00  0.00    -0.330 N 
ATOM     15  C   UNL     1      -0.020   3.144  -0.302  1.00  0.00     0.068 C 
ATOM     16  C   UNL     1      -0.192   3.215   1.194  1.00  0.00     0.262 C 
ATOM     17  C   UNL     1       1.533   3.323   2.909  1.00  0.00     0.333 C 
ATOM     18  H   UNL     1       0.701   1.730   2.227  1.00  0.00     0.348 HD
ENDBRANCH  11  12
ENDBRANCH   8  11
ENDBRANCH   7   8
ENDBRANCH   6   7
BRANCH   6  19
ATOM     19  C   UNL     1      -1.224  -0.933   3.280  1.00  0.00     0.028 A 
ATOM     20  C   UNL     1      -1.988   0.161   3.760  1.00  0.00     0.011 A 
ATOM     21  C   UNL     1      -1.964  -2.042   2.824  1.00  0.00     0.011 A 
ATOM     22  C   UNL     1      -3.383   0.199   3.679  1.00  0.00     0.001 A 
ATOM     23  C   UNL     1      -3.368  -2.007   2.748  1.00  0.00     0.001 A 
ATOM     24  C   UNL     1      -4.075  -0.879   3.152  1.00  0.00     0.000 A 
ENDBRANCH   6  19
BRANCH   6  25
ATOM     25  N   UNL     1       0.740   0.526   3.217  1.00  0.00    -0.336 N 
ATOM     26  H   UNL     1       0.440   0.944   4.098  1.00  0.00     0.345 HD
ATOM     27  H   UNL     1       0.305   1.023   2.439  1.00  0.00     0.345 HD
ATOM     28  H   UNL     1       1.755   0.592   3.137  1.00  0.00     0.345 HD
ENDBRANCH   6  25
ENDBRANCH   3   6
ENDBRANCH   1   2
BRANCH   1  29
ATOM     29  C   UNL     1       4.123   0.538   3.545  1.00  0.00     0.023 C 
BRANCH  29  30
ATOM     30  C   UNL     1       4.941   1.114   4.691  1.00  0.00     0.023 C 
BRANCH  30  31
ATOM     31  C   UNL     1       6.147   0.269   5.068  1.00  0.00     0.116 C 
BRANCH  31  32
ATOM     32  N   UNL     1       7.093   0.076   3.977  1.00  0.00    -0.352 N 
ATOM     33  C   UNL     1       8.465  -0.072   4.041  1.00  0.00     0.251 C 
ATOM     34  H   UNL     1       6.703   0.048   3.073  1.00  0.00     0.163 HD
ATOM     35  O   UNL     1       9.137  -0.127   3.036  1.00  0.00    -0.269 OA
BRANCH  33  36
ATOM     36  C   UNL     1       9.103  -0.113   5.377  1.00  0.00     0.039 A 
ATOM     37  C   UNL     1      10.217   0.694   5.615  1.00  0.00     0.014 A 
ATOM     38  C   UNL     1       8.560  -0.893   6.399  1.00  0.00     0.014 A 
ATOM     39  C   UNL     1      10.739   0.775   6.907  1.00  0.00     0.010 A 
ATOM     40  C   UNL     1       9.015  -0.734   7.699  1.00  0.00     0.010 A 
ATOM     41  C   UNL     1      10.114   0.096   7.965  1.00  0.00    -0.014 A 
BRANCH  41  42
ATOM     42  C   UNL     1      10.596   0.228   9.361  1.00  0.00     0.031 A 
ATOM     43  C   UNL     1      11.093  -0.984  10.097  1.00  0.00     0.074 A 
ATOM     44  C   UNL     1      10.512   1.419   9.986  1.00  0.00     0.049 A 
ATOM     45  N   UNL     1      11.481  -1.096  11.342  1.00  0.00    -0.248 NA
ATOM     46  C   UNL     1      11.124  -2.249   9.345  1.00  0.00     0.031 C 
ATOM     47  C   UNL     1       9.987   2.651   9.393  1.00  0.00     0.029 A 
ATOM     48  N   UNL     1      10.855   1.786  11.262  1.00  0.00    -0.354 N 
ATOM     49  C   UNL     1      11.780  -2.439  11.523  1.00  0.00     0.074 A 
ATOM     50  C   UNL     1      11.470  -3.116  10.284  1.00  0.00     0.031 C 
ATOM     51  C   UNL     1      10.068   3.642  10.295  1.00  0.00     0.029 A 
ATOM     52  C   UNL     1      10.611   3.108  11.540  1.00  0.00     0.049 A 
ATOM     53  H   UNL     1      11.241   1.160  11.917  1.00  0.00     0.167 HD
ATOM     54  C   UNL     1      12.294  -3.048  12.617  1.00  0.00     0.037 A 
ATOM     55  C   UNL     1      10.800   3.808  12.675  1.00  0.00     0.037 A 
ATOM     56  C   UNL     1      12.630  -2.361  13.835  1.00  0.00     0.049 A 
ATOM     57  C   UNL     1      11.384   3.110  13.873  1.00  0.00     0.074 A 
ATOM     58  C   UNL     1      13.225  -2.869  14.976  1.00  0.00     0.029 A 
ATOM     59  N   UNL     1      12.398  -1.013  14.070  1.00  0.00    -0.354 N 
ATOM     60  N   UNL     1      11.740   1.855  14.008  1.00  0.00    -0.248 NA
ATOM     61  C   UNL     1      11.602   3.927  15.074  1.00  0.00     0.031 C 
ATOM     62  C   UNL     1      13.303  -1.842  15.921  1.00  0.00     0.029 A 
ATOM     63  C   UNL     1      12.814  -0.678  15.348  1.00  0.00     0.049 A 
ATOM     64  H   UNL     1      11.997  -0.388  13.424  1.00  0.00     0.167 HD
ATOM     65  C   UNL     1      12.248   1.738  15.295  1.00  0.00     0.074 A 
ATOM     66  C   UNL     1      12.170   3.054  15.894  1.00  0.00     0.031 C 
ATOM     67  C   UNL     1      12.734   0.640  15.924  1.00  0.00     0.037 A 
BRANCH  54  68
ATOM     68  C   UNL     1      12.528  -4.530  12.544  1.00  0.00     0.064 A 
ATOM     69  C   UNL     1      13.520  -5.081  11.717  1.00  0.00     0.173 A 
ATOM     70  C   UNL     1      11.774  -5.409  13.336  1.00  0.00     0.173 A 
ATOM     71  F   UNL     1      14.260  -4.287  10.929  1.00  0.00    -0.203 F 
ATOM     72  C   UNL     1      13.726  -6.457  11.664  1.00  0.00     0.198 A 
ATOM     73  C   UNL     1      12.006  -6.781  13.305  1.00  0.00     0.198 A 
ATOM     74  F   UNL     1      10.815  -4.936  14.147  1.00  0.00    -0.203 F 
ATOM     75  F   UNL     1      14.643  -6.962  10.827  1.00  0.00    -0.200 F 
ATOM     76  C   UNL     1      12.976  -7.305  12.464  1.00  0.00     0.200 A 
ATOM     77  F   UNL     1      11.290  -7.598  14.089  1.00  0.00    -0.200 F 
ATOM     78  F   UNL     1      13.183  -8.628  12.418  1.00  0.00    -0.200 F 
ENDBRANCH  54  68
BRANCH  55  79
ATOM     79  C   UNL     1      10.457   5.254  12.722  1.00  0.00     0.064 A 
ATOM     80  C   UNL     1      11.459   6.230  12.821  1.00  0.00     0.173 A 
ATOM     81  C   UNL     1       9.125   5.691  12.669  1.00  0.00     0.173 A 
ATOM     82  F   UNL     1      12.747   5.862  12.893  1.00  0.00    -0.203 F 
ATOM     83  C   UNL     1      11.141   7.585  12.888  1.00  0.00     0.198 A 
ATOM     84  C   UNL     1       8.810   7.048  12.705  1.00  0.00     0.198 A 
ATOM     85  F   UNL     1       8.129   4.800  12.567  1.00  0.00    -0.203 F 
ATOM     86  F   UNL     1      12.117   8.493  13.030  1.00  0.00    -0.200 F 
ATOM     87  C   UNL     1       9.818   7.993  12.824  1.00  0.00     0.200 A 
ATOM     88  F   UNL     1       7.531   7.439  12.626  1.00  0.00    -0.200 F 
ATOM     89  F   UNL     1       9.513   9.297  12.883  1.00  0.00    -0.200 F 
ENDBRANCH  55  79
BRANCH  67  90
ATOM     90  C   UNL     1      13.255   0.821  17.321  1.00  0.00     0.064 A 
ATOM     91  C   UNL     1      12.396   1.063  18.403  1.00  0.00     0.173 A 
ATOM     92  C   UNL     1      14.628   0.704  17.585  1.00  0.00     0.173 A 
ATOM     93  F   UNL     1      11.076   1.196  18.201  1.00  0.00    -0.203 F 
ATOM     94  C   UNL     1      12.896   1.209  19.694  1.00  0.00     0.198 A 
ATOM     95  C   UNL     1      15.121   0.817  18.881  1.00  0.00     0.198 A 
ATOM     96  F   UNL     1      15.491   0.464  16.586  1.00  0.00    -0.203 F 
ATOM     97  F   UNL     1      12.063   1.490  20.705  1.00  0.00    -0.200 F 
ATOM     98  C   UNL     1      14.256   1.077  19.933  1.00  0.00     0.200 A 
ATOM     99  F   UNL     1      16.433   0.672  19.113  1.00  0.00    -0.200 F 
ATOM    100  F   UNL     1      14.734   1.208  21.178  1.00  0.00    -0.200 F 
ENDBRANCH  67  90
ENDBRANCH  41  42
ENDBRANCH  33  36
ENDBRANCH  31  32
ENDBRANCH  30  31
ENDBRANCH  29  30
ENDBRANCH   1  29
TORSDOF 17
