REMARK SMILES Cc1ccccc1/C=C1\SC(=O)N(CC(=O)Nc2ccccc2C(=O)NCCCCNC(=O)c2ccc(-c3c4nc(c(-c5c(F)c(F)c(F)c(F)c5F)c5ccc([nH]5)c(-c5c(F)c(F)c(F)c(F)c5F)c5nc(c(-c6c(F)c(F)c(F)c(F)c6F)c6ccc3[nH]6)C=C5)C=C4)cc2)C1=O
REMARK SMILES IDX 27 1 26 2 24 3 25 4 23 6 18 7 19 8 20 9 22 10 21 11 17 12
REMARK SMILES IDX 15 13 16 14 14 16 13 17 8 18 9 19 10 20 97 21 11 22 98 23
REMARK SMILES IDX 12 24 7 25 1 26 2 27 3 28 4 29 6 30 5 31 28 32 29 33 30 34
REMARK SMILES IDX 31 35 32 36 33 38 34 39 35 40 96 41 36 42 95 43 37 44 38 45
REMARK SMILES IDX 39 46 89 47 40 48 94 49 88 50 90 51 41 52 93 53 87 54 86 55
REMARK SMILES IDX 42 57 74 58 54 59 73 60 55 61 58 62 72 63 91 64 56 65 57 66
REMARK SMILES IDX 71 68 92 69 59 70 43 71 44 72 52 73 45 74 46 75 50 76 53 77
REMARK SMILES IDX 47 78 48 79 51 80 49 81 75 82 76 83 84 84 77 85 78 86 82 87
REMARK SMILES IDX 85 88 79 89 80 90 83 91 81 92 60 93 61 94 69 95 62 96 63 97
REMARK SMILES IDX 67 98 70 99 64 100 65 101 68 102 66 103
REMARK H PARENT 26 5 17 15 31 37 90 56 58 67
REMARK Flexibility Score: inf
ROOT
ATOM      1  C   UNL     1       2.100   1.051  -3.899  1.00  0.00     0.116 C 
ENDROOT
BRANCH   1   2
ATOM      2  N   UNL     1       1.855   2.225  -3.057  1.00  0.00    -0.352 N 
ATOM      3  C   UNL     1       1.717   3.586  -3.300  1.00  0.00     0.253 C 
ATOM      4  O   UNL     1       1.338   4.293  -2.366  1.00  0.00    -0.269 OA
ATOM      5  H   UNL     1       1.770   1.998  -2.103  1.00  0.00     0.163 HD
BRANCH   3   6
ATOM      6  C   UNL     1       2.005   4.239  -4.605  1.00  0.00     0.063 A 
ATOM      7  C   UNL     1       2.502   5.561  -4.742  1.00  0.00     0.054 A 
ATOM      8  C   UNL     1       2.609   6.116  -6.036  1.00  0.00     0.027 A 
ATOM      9  C   UNL     1       2.253   5.402  -7.177  1.00  0.00     0.002 A 
ATOM     10  C   UNL     1       1.528   3.601  -5.766  1.00  0.00     0.016 A 
ATOM     11  C   UNL     1       1.690   4.147  -7.040  1.00  0.00     0.001 A 
BRANCH   7  12
ATOM     12  N   UNL     1       2.614   6.538  -3.732  1.00  0.00    -0.324 N 
ATOM     13  C   UNL     1       3.444   6.748  -2.679  1.00  0.00     0.244 C 
ATOM     14  O   UNL     1       3.321   7.837  -2.101  1.00  0.00    -0.273 OA
ATOM     15  H   UNL     1       1.924   7.236  -3.810  1.00  0.00     0.170 HD
BRANCH  13  16
ATOM     16  C   UNL     1       4.560   5.808  -2.269  1.00  0.00     0.230 C 
BRANCH  16  17
ATOM     17  N   UNL     1       4.123   4.710  -1.450  1.00  0.00    -0.259 N 
ATOM     18  C   UNL     1       1.708   3.428   0.681  1.00  0.00     0.029 C 
ATOM     19  C   UNL     1       2.940   3.552   0.174  1.00  0.00     0.083 C 
ATOM     20  S   UNL     1       3.989   2.369  -0.456  1.00  0.00    -0.022 SA
ATOM     21  C   UNL     1       3.407   4.889  -0.284  1.00  0.00     0.268 C 
ATOM     22  C   UNL     1       4.584   3.454  -1.685  1.00  0.00     0.294 C 
ATOM     23  O   UNL     1       3.169   5.933   0.296  1.00  0.00    -0.268 OA
ATOM     24  O   UNL     1       5.327   3.085  -2.589  1.00  0.00    -0.261 OA
BRANCH  18  25
ATOM     25  C   UNL     1       0.830   2.247   0.765  1.00  0.00    -0.021 A 
ATOM     26  C   UNL     1       2.470   0.575   1.850  1.00  0.00     0.045 C 
ATOM     27  C   UNL     1       1.117   1.009   1.364  1.00  0.00    -0.044 A 
ATOM     28  C   UNL     1       0.081   0.072   1.483  1.00  0.00     0.004 A 
ATOM     29  C   UNL     1      -1.194   0.321   0.979  1.00  0.00     0.000 A 
ATOM     30  C   UNL     1      -0.464   2.464   0.235  1.00  0.00     0.008 A 
ATOM     31  C   UNL     1      -1.465   1.505   0.325  1.00  0.00     0.001 A 
ENDBRANCH  18  25
ENDBRANCH  16  17
ENDBRANCH  13  16
ENDBRANCH   7  12
ENDBRANCH   3   6
ENDBRANCH   1   2
BRANCH   1  32
ATOM     32  C   UNL     1       3.467   0.354  -3.811  1.00  0.00     0.023 C 
BRANCH  32  33
ATOM     33  C   UNL     1       3.856  -0.488  -2.588  1.00  0.00     0.023 C 
BRANCH  33  34
ATOM     34  C   UNL     1       2.799  -1.419  -2.032  1.00  0.00     0.116 C 
BRANCH  34  35
ATOM     35  N   UNL     1       2.731  -2.705  -2.724  1.00  0.00    -0.352 N 
ATOM     36  C   UNL     1       2.183  -3.904  -2.292  1.00  0.00     0.251 C 
ATOM     37  H   UNL     1       3.131  -2.723  -3.624  1.00  0.00     0.163 HD
ATOM     38  O   UNL     1       2.569  -4.959  -2.785  1.00  0.00    -0.269 OA
BRANCH  36  39
ATOM     39  C   UNL     1       1.101  -3.925  -1.276  1.00  0.00     0.039 A 
ATOM     40  C   UNL     1       0.380  -5.092  -0.951  1.00  0.00     0.014 A 
ATOM     41  C   UNL     1       0.565  -2.728  -0.850  1.00  0.00     0.014 A 
ATOM     42  C   UNL     1      -0.935  -4.950  -0.455  1.00  0.00     0.010 A 
ATOM     43  C   UNL     1      -0.332  -2.773   0.168  1.00  0.00     0.010 A 
ATOM     44  C   UNL     1      -1.334  -3.676  -0.090  1.00  0.00    -0.014 A 
BRANCH  44  45
ATOM     45  C   UNL     1      -2.628  -3.004  -0.110  1.00  0.00     0.031 A 
ATOM     46  C   UNL     1      -3.289  -2.687   1.170  1.00  0.00     0.074 A 
ATOM     47  C   UNL     1      -2.889  -2.240  -1.205  1.00  0.00     0.049 A 
ATOM     48  N   UNL     1      -4.418  -2.084   1.278  1.00  0.00    -0.248 NA
ATOM     49  C   UNL     1      -2.666  -2.959   2.458  1.00  0.00     0.031 C 
ATOM     50  C   UNL     1      -3.762  -1.072  -1.345  1.00  0.00     0.029 A 
ATOM     51  N   UNL     1      -2.437  -2.446  -2.521  1.00  0.00    -0.354 N 
ATOM     52  C   UNL     1      -4.546  -1.629   2.574  1.00  0.00     0.074 A 
ATOM     53  C   UNL     1      -3.463  -2.270   3.282  1.00  0.00     0.031 C 
ATOM     54  C   UNL     1      -4.067  -0.904  -2.645  1.00  0.00     0.029 A 
ATOM     55  C   UNL     1      -3.520  -2.049  -3.348  1.00  0.00     0.049 A 
ATOM     56  H   UNL     1      -1.559  -2.789  -2.806  1.00  0.00     0.167 HD
ATOM     57  C   UNL     1      -5.503  -0.686   2.832  1.00  0.00     0.037 A 
ATOM     58  C   UNL     1      -4.252  -3.035  -3.953  1.00  0.00     0.037 A 
ATOM     59  C   UNL     1      -6.318  -0.459   1.626  1.00  0.00     0.049 A 
ATOM     60  C   UNL     1      -5.641  -3.200  -3.357  1.00  0.00     0.074 A 
ATOM     61  C   UNL     1      -6.395   0.527   0.657  1.00  0.00     0.029 A 
ATOM     62  N   UNL     1      -7.020  -1.537   1.117  1.00  0.00    -0.354 N 
ATOM     63  N   UNL     1      -6.115  -2.478  -2.377  1.00  0.00    -0.248 NA
ATOM     64  C   UNL     1      -6.574  -4.246  -3.768  1.00  0.00     0.031 C 
ATOM     65  C   UNL     1      -7.062  -0.033  -0.482  1.00  0.00     0.029 A 
ATOM     66  C   UNL     1      -7.423  -1.337  -0.187  1.00  0.00     0.049 A 
ATOM     67  H   UNL     1      -7.212  -2.356   1.629  1.00  0.00     0.167 HD
ATOM     68  C   UNL     1      -7.323  -2.972  -1.972  1.00  0.00     0.074 A 
ATOM     69  C   UNL     1      -7.564  -4.089  -2.872  1.00  0.00     0.031 C 
ATOM     70  C   UNL     1      -8.022  -2.454  -0.914  1.00  0.00     0.037 A 
BRANCH  57  71
ATOM     71  C   UNL     1      -5.678   0.144   4.097  1.00  0.00     0.064 A 
ATOM     72  C   UNL     1      -6.621   1.200   4.124  1.00  0.00     0.173 A 
ATOM     73  C   UNL     1      -4.952  -0.000   5.298  1.00  0.00     0.173 A 
ATOM     74  F   UNL     1      -7.434   1.437   3.086  1.00  0.00    -0.203 F 
ATOM     75  C   UNL     1      -6.777   2.057   5.222  1.00  0.00     0.198 A 
ATOM     76  C   UNL     1      -5.105   0.858   6.394  1.00  0.00     0.198 A 
ATOM     77  F   UNL     1      -4.078  -0.985   5.493  1.00  0.00    -0.203 F 
ATOM     78  F   UNL     1      -7.679   3.046   5.169  1.00  0.00    -0.200 F 
ATOM     79  C   UNL     1      -6.010   1.893   6.354  1.00  0.00     0.200 A 
ATOM     80  F   UNL     1      -4.362   0.662   7.494  1.00  0.00    -0.200 F 
ATOM     81  F   UNL     1      -6.151   2.714   7.403  1.00  0.00    -0.200 F 
ENDBRANCH  57  71
BRANCH  58  82
ATOM     82  C   UNL     1      -3.337  -4.135  -4.404  1.00  0.00     0.064 A 
ATOM     83  C   UNL     1      -2.306  -3.775  -5.303  1.00  0.00     0.173 A 
ATOM     84  C   UNL     1      -3.130  -5.273  -3.612  1.00  0.00     0.173 A 
ATOM     85  F   UNL     1      -2.448  -2.689  -6.083  1.00  0.00    -0.203 F 
ATOM     86  C   UNL     1      -1.063  -4.402  -5.269  1.00  0.00     0.198 A 
ATOM     87  C   UNL     1      -1.897  -5.929  -3.619  1.00  0.00     0.198 A 
ATOM     88  F   UNL     1      -4.058  -5.663  -2.726  1.00  0.00    -0.203 F 
ATOM     89  F   UNL     1      -0.046  -3.910  -5.992  1.00  0.00    -0.200 F 
ATOM     90  C   UNL     1      -0.853  -5.464  -4.407  1.00  0.00     0.200 A 
ATOM     91  F   UNL     1      -1.684  -6.953  -2.779  1.00  0.00    -0.200 F 
ATOM     92  F   UNL     1       0.363  -6.015  -4.305  1.00  0.00    -0.200 F 
ENDBRANCH  58  82
BRANCH  70  93
ATOM     93  C   UNL     1      -9.353  -3.010  -0.482  1.00  0.00     0.064 A 
ATOM     94  C   UNL     1     -10.351  -3.339  -1.412  1.00  0.00     0.173 A 
ATOM     95  C   UNL     1      -9.711  -3.152   0.877  1.00  0.00     0.173 A 
ATOM     96  F   UNL     1     -10.158  -3.140  -2.724  1.00  0.00    -0.203 F 
ATOM     97  C   UNL     1     -11.579  -3.870  -1.016  1.00  0.00     0.198 A 
ATOM     98  C   UNL     1     -10.967  -3.607   1.272  1.00  0.00     0.198 A 
ATOM     99  F   UNL     1      -8.849  -2.892   1.870  1.00  0.00    -0.203 F 
ATOM    100  F   UNL     1     -12.462  -4.261  -1.945  1.00  0.00    -0.200 F 
ATOM    101  C   UNL     1     -11.890  -3.996   0.326  1.00  0.00     0.200 A 
ATOM    102  F   UNL     1     -11.265  -3.681   2.577  1.00  0.00    -0.200 F 
ATOM    103  F   UNL     1     -13.074  -4.494   0.705  1.00  0.00    -0.200 F 
ENDBRANCH  70  93
ENDBRANCH  44  45
ENDBRANCH  36  39
ENDBRANCH  34  35
ENDBRANCH  33  34
ENDBRANCH  32  33
ENDBRANCH   1  32
TORSDOF 15
