REMARK SMILES Cc1ccc(Nc2c(Cl)cc(Cl)cc2Cl)c(CC(=O)NCCCCNC(=O)c2ccc(-c3c4nc(c(-c5c(F)c(F)c(F)c(F)c5F)c5ccc([nH]5)c(-c5c(F)c(F)c(F)c(F)c5F)c5nc(c(-c6c(F)c(F)c(F)c(F)c6F)c6ccc3[nH]6)C=C5)C=C4)cc2)c1
REMARK SMILES IDX 22 1 21 2 20 3 18 4 19 5 17 7 16 8 1 9 2 10 3 11 91 12 4 13
REMARK SMILES IDX 5 14 6 15 7 17 8 18 14 19 9 20 10 21 13 22 15 23 11 24 12 25
REMARK SMILES IDX 23 26 24 27 25 28 26 29 27 31 28 32 29 33 90 34 30 35 89 36
REMARK SMILES IDX 31 37 32 38 33 39 83 40 34 41 88 42 82 43 84 44 35 45 87 46
REMARK SMILES IDX 81 47 80 48 36 50 68 51 48 52 67 53 49 54 52 55 66 56 85 57
REMARK SMILES IDX 50 58 51 59 65 61 86 62 53 63 37 64 38 65 46 66 39 67 40 68
REMARK SMILES IDX 44 69 47 70 41 71 42 72 45 73 43 74 69 75 70 76 78 77 71 78
REMARK SMILES IDX 72 79 76 80 79 81 73 82 74 83 77 84 75 85 54 86 55 87 63 88
REMARK SMILES IDX 56 89 57 90 61 91 64 92 58 93 59 94 62 95 60 96
REMARK H PARENT 20 6 6 16 25 30 84 49 52 60
REMARK Flexibility Score: inf
ROOT
ATOM      1  C   UNL     1      -0.172   1.144  -3.154  1.00  0.00     0.023 C 
ENDROOT
BRANCH   1   2
ATOM      2  C   UNL     1      -0.584   2.563  -2.728  1.00  0.00     0.116 C 
BRANCH   2   3
ATOM      3  N   UNL     1      -1.986   2.678  -2.367  1.00  0.00    -0.356 N 
ATOM      4  C   UNL     1      -2.588   2.573  -1.148  1.00  0.00     0.224 C 
ATOM      5  O   UNL     1      -3.821   2.590  -1.102  1.00  0.00    -0.275 OA
ATOM      6  H   UNL     1      -2.596   2.859  -3.118  1.00  0.00     0.163 HD
BRANCH   4   7
ATOM      7  C   UNL     1      -1.777   2.412   0.125  1.00  0.00     0.137 C 
BRANCH   7   8
ATOM      8  C   UNL     1      -1.074   1.077   0.221  1.00  0.00    -0.015 A 
ATOM      9  C   UNL     1       2.581  -0.046   0.262  1.00  0.00     0.044 C 
ATOM     10  C   UNL     1       1.082  -0.082   0.263  1.00  0.00    -0.051 A 
ATOM     11  C   UNL     1       0.409  -1.296   0.147  1.00  0.00     0.005 A 
ATOM     12  C   UNL     1       0.334   1.094   0.333  1.00  0.00     0.009 A 
ATOM     13  C   UNL     1      -0.988  -1.329   0.096  1.00  0.00     0.026 A 
ATOM     14  C   UNL     1      -1.759  -0.155   0.123  1.00  0.00     0.042 A 
BRANCH  14  15
ATOM     15  N   UNL     1      -3.172  -0.207   0.090  1.00  0.00    -0.353 N 
ATOM     16  H   UNL     1      -3.626   0.665   0.045  1.00  0.00     0.167 HD
BRANCH  15  17
ATOM     17  C   UNL     1      -4.027  -1.337   0.113  1.00  0.00     0.076 A 
ATOM     18  C   UNL     1      -4.041  -2.269   1.171  1.00  0.00     0.067 A 
ATOM     19  C   UNL     1      -4.853  -1.605  -1.000  1.00  0.00     0.067 A 
ATOM     20  Cl  UNL     1      -3.166  -2.003   2.643  1.00  0.00    -0.082 Cl
ATOM     21  C   UNL     1      -4.819  -3.430   1.103  1.00  0.00     0.043 A 
ATOM     22  C   UNL     1      -5.637  -2.760  -1.068  1.00  0.00     0.043 A 
ATOM     23  Cl  UNL     1      -4.901  -0.526  -2.355  1.00  0.00    -0.082 Cl
ATOM     24  C   UNL     1      -5.605  -3.671  -0.019  1.00  0.00     0.044 A 
ATOM     25  Cl  UNL     1      -6.546  -5.107  -0.108  1.00  0.00    -0.084 Cl
ENDBRANCH  15  17
ENDBRANCH  14  15
ENDBRANCH   7   8
ENDBRANCH   4   7
ENDBRANCH   2   3
ENDBRANCH   1   2
BRANCH   1  26
ATOM     26  C   UNL     1      -0.971   0.534  -4.306  1.00  0.00     0.023 C 
BRANCH  26  27
ATOM     27  C   UNL     1      -0.694   1.176  -5.655  1.00  0.00     0.116 C 
BRANCH  27  28
ATOM     28  N   UNL     1       0.383   0.554  -6.418  1.00  0.00    -0.352 N 
ATOM     29  C   UNL     1       0.990   0.988  -7.586  1.00  0.00     0.251 C 
ATOM     30  H   UNL     1       0.727  -0.292  -6.051  1.00  0.00     0.163 HD
ATOM     31  O   UNL     1       1.837   0.303  -8.137  1.00  0.00    -0.269 OA
BRANCH  29  32
ATOM     32  C   UNL     1       0.707   2.358  -8.082  1.00  0.00     0.039 A 
ATOM     33  C   UNL     1       1.800   3.179  -8.383  1.00  0.00     0.014 A 
ATOM     34  C   UNL     1      -0.575   2.896  -8.015  1.00  0.00     0.014 A 
ATOM     35  C   UNL     1       1.646   4.561  -8.330  1.00  0.00     0.010 A 
ATOM     36  C   UNL     1      -0.711   4.261  -7.858  1.00  0.00     0.010 A 
ATOM     37  C   UNL     1       0.419   5.082  -7.926  1.00  0.00    -0.014 A 
BRANCH  37  38
ATOM     38  C   UNL     1       0.259   6.432  -7.398  1.00  0.00     0.031 A 
ATOM     39  C   UNL     1      -0.469   7.462  -8.164  1.00  0.00     0.074 A 
ATOM     40  C   UNL     1       0.685   6.697  -6.141  1.00  0.00     0.049 A 
ATOM     41  N   UNL     1      -0.477   8.711  -7.843  1.00  0.00    -0.248 NA
ATOM     42  C   UNL     1      -1.191   7.184  -9.403  1.00  0.00     0.031 C 
ATOM     43  C   UNL     1       0.346   7.846  -5.302  1.00  0.00     0.029 A 
ATOM     44  N   UNL     1       1.737   6.068  -5.449  1.00  0.00    -0.354 N 
ATOM     45  C   UNL     1      -1.417   9.332  -8.623  1.00  0.00     0.074 A 
ATOM     46  C   UNL     1      -1.727   8.382  -9.661  1.00  0.00     0.031 C 
ATOM     47  C   UNL     1       1.335   8.040  -4.417  1.00  0.00     0.029 A 
ATOM     48  C   UNL     1       2.400   7.118  -4.763  1.00  0.00     0.049 A 
ATOM     49  H   UNL     1       1.964   5.110  -5.443  1.00  0.00     0.167 HD
ATOM     50  C   UNL     1      -1.909  10.533  -8.212  1.00  0.00     0.037 A 
ATOM     51  C   UNL     1       3.671   7.480  -5.105  1.00  0.00     0.037 A 
ATOM     52  C   UNL     1      -1.037  11.148  -7.210  1.00  0.00     0.049 A 
ATOM     53  C   UNL     1       3.822   8.909  -5.590  1.00  0.00     0.074 A 
ATOM     54  C   UNL     1      -1.113  11.436  -5.859  1.00  0.00     0.029 A 
ATOM     55  N   UNL     1       0.281  11.380  -7.572  1.00  0.00    -0.354 N 
ATOM     56  N   UNL     1       2.836   9.749  -5.745  1.00  0.00    -0.248 NA
ATOM     57  C   UNL     1       5.100   9.464  -6.041  1.00  0.00     0.031 C 
ATOM     58  C   UNL     1       0.202  11.784  -5.409  1.00  0.00     0.029 A 
ATOM     59  C   UNL     1       1.060  11.742  -6.494  1.00  0.00     0.049 A 
ATOM     60  H   UNL     1       0.621  11.296  -8.492  1.00  0.00     0.167 HD
ATOM     61  C   UNL     1       3.301  10.889  -6.345  1.00  0.00     0.074 A 
ATOM     62  C   UNL     1       4.724  10.664  -6.513  1.00  0.00     0.031 C 
ATOM     63  C   UNL     1       2.487  11.922  -6.708  1.00  0.00     0.037 A 
BRANCH  50  64
ATOM     64  C   UNL     1      -3.236  11.114  -8.643  1.00  0.00     0.064 A 
ATOM     65  C   UNL     1      -3.596  12.425  -8.262  1.00  0.00     0.173 A 
ATOM     66  C   UNL     1      -4.250  10.397  -9.316  1.00  0.00     0.173 A 
ATOM     67  F   UNL     1      -2.741  13.211  -7.592  1.00  0.00    -0.203 F 
ATOM     68  C   UNL     1      -4.858  12.965  -8.535  1.00  0.00     0.198 A 
ATOM     69  C   UNL     1      -5.488  10.959  -9.641  1.00  0.00     0.198 A 
ATOM     70  F   UNL     1      -4.123   9.103  -9.627  1.00  0.00    -0.203 F 
ATOM     71  F   UNL     1      -5.166  14.193  -8.095  1.00  0.00    -0.200 F 
ATOM     72  C   UNL     1      -5.798  12.238  -9.239  1.00  0.00     0.200 A 
ATOM     73  F   UNL     1      -6.387  10.230 -10.318  1.00  0.00    -0.200 F 
ATOM     74  F   UNL     1      -7.005  12.755  -9.505  1.00  0.00    -0.200 F 
ENDBRANCH  50  64
BRANCH  51  75
ATOM     75  C   UNL     1       4.490   6.328  -5.573  1.00  0.00     0.064 A 
ATOM     76  C   UNL     1       4.689   5.245  -4.693  1.00  0.00     0.173 A 
ATOM     77  C   UNL     1       4.756   6.115  -6.929  1.00  0.00     0.173 A 
ATOM     78  F   UNL     1       4.446   5.392  -3.380  1.00  0.00    -0.203 F 
ATOM     79  C   UNL     1       5.016   3.977  -5.167  1.00  0.00     0.198 A 
ATOM     80  C   UNL     1       5.108   4.848  -7.397  1.00  0.00     0.198 A 
ATOM     81  F   UNL     1       4.561   7.096  -7.823  1.00  0.00    -0.203 F 
ATOM     82  F   UNL     1       5.075   2.941  -4.318  1.00  0.00    -0.200 F 
ATOM     83  C   UNL     1       5.201   3.775  -6.524  1.00  0.00     0.200 A 
ATOM     84  F   UNL     1       5.255   4.646  -8.715  1.00  0.00    -0.200 F 
ATOM     85  F   UNL     1       5.422   2.541  -6.996  1.00  0.00    -0.200 F 
ENDBRANCH  51  75
BRANCH  63  86
ATOM     86  C   UNL     1       3.000  13.181  -7.349  1.00  0.00     0.064 A 
ATOM     87  C   UNL     1       4.124  13.865  -6.859  1.00  0.00     0.173 A 
ATOM     88  C   UNL     1       2.317  13.796  -8.419  1.00  0.00     0.173 A 
ATOM     89  F   UNL     1       4.808  13.394  -5.805  1.00  0.00    -0.203 F 
ATOM     90  C   UNL     1       4.566  15.059  -7.434  1.00  0.00     0.198 A 
ATOM     91  C   UNL     1       2.729  15.014  -8.957  1.00  0.00     0.198 A 
ATOM     92  F   UNL     1       1.251  13.219  -8.991  1.00  0.00    -0.203 F 
ATOM     93  F   UNL     1       5.678  15.648  -6.973  1.00  0.00    -0.200 F 
ATOM     94  C   UNL     1       3.862  15.639  -8.475  1.00  0.00     0.200 A 
ATOM     95  F   UNL     1       2.026  15.573  -9.953  1.00  0.00    -0.200 F 
ATOM     96  F   UNL     1       4.276  16.793  -9.014  1.00  0.00    -0.200 F 
ENDBRANCH  63  86
ENDBRANCH  37  38
ENDBRANCH  29  32
ENDBRANCH  27  28
ENDBRANCH  26  27
ENDBRANCH   1  26
TORSDOF 14
