REMARK SMILES C[C@@H](C(=O)NCCCCNC(=O)c1ccc(-c2c3nc(c(-c4c(F)c(F)c(F)c(F)c4F)c4ccc([nH]4)c(-c4c(F)c(F)c(F)c(F)c4F)c4nc(c(-c5c(F)c(F)c(F)c(F)c5F)c5ccc2[nH]5)C=C4)C=C3)cc1)c1ccc(=O)n(C(F)F)c1
REMARK SMILES IDX 7 1 6 2 5 3 3 4 4 5 2 7 1 8 76 9 77 10 85 11 78 12 81 13
REMARK SMILES IDX 79 14 80 15 82 16 83 17 84 18 8 19 9 20 10 21 11 22 12 24
REMARK SMILES IDX 13 25 14 26 75 27 15 28 74 29 16 30 17 31 18 32 68 33 19 34
REMARK SMILES IDX 73 35 67 36 69 37 20 38 72 39 66 40 65 41 21 43 53 44 33 45
REMARK SMILES IDX 52 46 34 47 37 48 51 49 70 50 35 51 36 52 50 54 71 55 38 56
REMARK SMILES IDX 22 57 23 58 31 59 24 60 25 61 29 62 32 63 26 64 27 65 30 66
REMARK SMILES IDX 28 67 54 68 55 69 63 70 56 71 57 72 61 73 64 74 58 75 59 76
REMARK SMILES IDX 62 77 60 78 39 79 40 80 48 81 41 82 42 83 46 84 49 85 43 86
REMARK SMILES IDX 44 87 47 88 45 89
REMARK H PARENT 5 6 10 23 69 42 37 53
REMARK Flexibility Score: inf
ROOT
ATOM      1  C   UNL     1       4.249   0.774   0.859  1.00  0.00     0.023 C 
ENDROOT
BRANCH   1   2
ATOM      2  C   UNL     1       3.477  -0.144   1.809  1.00  0.00     0.116 C 
BRANCH   2   3
ATOM      3  N   UNL     1       2.437   0.581   2.510  1.00  0.00    -0.356 N 
ATOM      4  C   UNL     1       1.096   0.656   2.268  1.00  0.00     0.227 C 
ATOM      5  O   UNL     1       0.457   1.442   2.971  1.00  0.00    -0.274 OA
ATOM      6  H   UNL     1       2.747   1.103   3.284  1.00  0.00     0.163 HD
BRANCH   4   7
ATOM      7  C   UNL     1       0.447  -0.234   1.183  1.00  0.00     0.107 C 
ATOM      8  C   UNL     1       0.868   0.163  -0.234  1.00  0.00     0.023 C 
BRANCH   7   9
ATOM      9  C   UNL     1      -1.077  -0.214   1.254  1.00  0.00    -0.019 A 
ATOM     10  C   UNL     1      -1.779  -1.481   1.323  1.00  0.00     0.012 A 
ATOM     11  C   UNL     1      -1.806   0.915   1.176  1.00  0.00     0.099 A 
ATOM     12  C   UNL     1      -3.116  -1.530   1.270  1.00  0.00     0.072 A 
ATOM     13  N   UNL     1      -3.188   0.895   1.146  1.00  0.00    -0.258 N 
ATOM     14  C   UNL     1      -3.916  -0.281   1.148  1.00  0.00     0.254 A 
ATOM     15  O   UNL     1      -5.138  -0.373   1.056  1.00  0.00    -0.269 OA
BRANCH  13  16
ATOM     16  C   UNL     1      -3.923   2.128   1.026  1.00  0.00     0.451 C 
ATOM     17  F   UNL     1      -4.495   2.225  -0.200  1.00  0.00    -0.185 F 
ATOM     18  F   UNL     1      -4.905   2.219   1.955  1.00  0.00    -0.185 F 
ENDBRANCH  13  16
ENDBRANCH   7   9
ENDBRANCH   4   7
ENDBRANCH   2   3
ENDBRANCH   1   2
BRANCH   1  19
ATOM     19  C   UNL     1       5.031   1.903   1.539  1.00  0.00     0.023 C 
BRANCH  19  20
ATOM     20  C   UNL     1       6.050   1.457   2.581  1.00  0.00     0.116 C 
BRANCH  20  21
ATOM     21  N   UNL     1       7.049   0.550   2.044  1.00  0.00    -0.352 N 
ATOM     22  C   UNL     1       8.387   0.463   2.326  1.00  0.00     0.251 C 
ATOM     23  H   UNL     1       6.716  -0.098   1.381  1.00  0.00     0.163 HD
ATOM     24  O   UNL     1       9.095  -0.302   1.672  1.00  0.00    -0.269 OA
BRANCH  22  25
ATOM     25  C   UNL     1       8.995   1.295   3.388  1.00  0.00     0.039 A 
ATOM     26  C   UNL     1      10.257   1.852   3.156  1.00  0.00     0.014 A 
ATOM     27  C   UNL     1       8.361   1.496   4.618  1.00  0.00     0.014 A 
ATOM     28  C   UNL     1      10.867   2.632   4.140  1.00  0.00     0.010 A 
ATOM     29  C   UNL     1       8.939   2.332   5.572  1.00  0.00     0.010 A 
ATOM     30  C   UNL     1      10.207   2.889   5.352  1.00  0.00    -0.014 A 
BRANCH  30  31
ATOM     31  C   UNL     1      10.856   3.697   6.414  1.00  0.00     0.031 A 
ATOM     32  C   UNL     1      11.245   3.054   7.718  1.00  0.00     0.074 A 
ATOM     33  C   UNL     1      11.064   5.013   6.223  1.00  0.00     0.049 A 
ATOM     34  N   UNL     1      11.809   3.590   8.771  1.00  0.00    -0.248 NA
ATOM     35  C   UNL     1      10.933   1.624   7.868  1.00  0.00     0.031 C 
ATOM     36  C   UNL     1      10.685   5.764   5.025  1.00  0.00     0.029 A 
ATOM     37  N   UNL     1      11.646   5.954   7.035  1.00  0.00    -0.354 N 
ATOM     38  C   UNL     1      11.899   2.571   9.711  1.00  0.00     0.074 A 
ATOM     39  C   UNL     1      11.286   1.399   9.125  1.00  0.00     0.031 C 
ATOM     40  C   UNL     1      11.071   7.043   5.168  1.00  0.00     0.029 A 
ATOM     41  C   UNL     1      11.702   7.206   6.475  1.00  0.00     0.049 A 
ATOM     42  H   UNL     1      11.991   5.750   7.934  1.00  0.00     0.167 HD
ATOM     43  C   UNL     1      12.466   2.601  10.941  1.00  0.00     0.037 A 
ATOM     44  C   UNL     1      12.215   8.353   6.959  1.00  0.00     0.037 A 
ATOM     45  C   UNL     1      13.112   3.756  11.506  1.00  0.00     0.049 A 
ATOM     46  C   UNL     1      12.871   8.351   8.314  1.00  0.00     0.074 A 
ATOM     47  C   UNL     1      13.772   3.872  12.716  1.00  0.00     0.029 A 
ATOM     48  N   UNL     1      13.181   4.998  10.891  1.00  0.00    -0.354 N 
ATOM     49  N   UNL     1      13.018   7.363   9.162  1.00  0.00    -0.248 NA
ATOM     50  C   UNL     1      13.447   9.624   8.770  1.00  0.00     0.031 C 
ATOM     51  C   UNL     1      14.211   5.194  12.850  1.00  0.00     0.029 A 
ATOM     52  C   UNL     1      13.864   5.889  11.703  1.00  0.00     0.049 A 
ATOM     53  H   UNL     1      12.802   5.214  10.009  1.00  0.00     0.167 HD
ATOM     54  C   UNL     1      13.734   7.882  10.232  1.00  0.00     0.074 A 
ATOM     55  C   UNL     1      14.000   9.271   9.922  1.00  0.00     0.031 C 
ATOM     56  C   UNL     1      14.137   7.263  11.369  1.00  0.00     0.037 A 
BRANCH  43  57
ATOM     57  C   UNL     1      12.416   1.342  11.757  1.00  0.00     0.064 A 
ATOM     58  C   UNL     1      13.174   0.212  11.414  1.00  0.00     0.173 A 
ATOM     59  C   UNL     1      11.620   1.272  12.910  1.00  0.00     0.173 A 
ATOM     60  F   UNL     1      13.941   0.222  10.313  1.00  0.00    -0.203 F 
ATOM     61  C   UNL     1      13.112  -0.951  12.177  1.00  0.00     0.198 A 
ATOM     62  C   UNL     1      11.584   0.117  13.688  1.00  0.00     0.198 A 
ATOM     63  F   UNL     1      10.879   2.326  13.286  1.00  0.00    -0.203 F 
ATOM     64  F   UNL     1      13.804  -2.036  11.799  1.00  0.00    -0.200 F 
ATOM     65  C   UNL     1      12.323  -0.996  13.316  1.00  0.00     0.200 A 
ATOM     66  F   UNL     1      10.829   0.080  14.795  1.00  0.00    -0.200 F 
ATOM     67  F   UNL     1      12.267  -2.115  14.051  1.00  0.00    -0.200 F 
ENDBRANCH  43  57
BRANCH  44  68
ATOM     68  C   UNL     1      12.182   9.588   6.134  1.00  0.00     0.064 A 
ATOM     69  C   UNL     1      13.359  10.109   5.578  1.00  0.00     0.173 A 
ATOM     70  C   UNL     1      10.984  10.273   5.890  1.00  0.00     0.173 A 
ATOM     71  F   UNL     1      14.532   9.498   5.800  1.00  0.00    -0.203 F 
ATOM     72  C   UNL     1      13.342  11.283   4.829  1.00  0.00     0.198 A 
ATOM     73  C   UNL     1      10.965  11.434   5.119  1.00  0.00     0.198 A 
ATOM     74  F   UNL     1       9.831   9.811   6.395  1.00  0.00    -0.203 F 
ATOM     75  F   UNL     1      14.488  11.784   4.347  1.00  0.00    -0.200 F 
ATOM     76  C   UNL     1      12.144  11.942   4.596  1.00  0.00     0.200 A 
ATOM     77  F   UNL     1       9.804  12.061   4.885  1.00  0.00    -0.200 F 
ATOM     78  F   UNL     1      12.128  13.071   3.874  1.00  0.00    -0.200 F 
ENDBRANCH  44  68
BRANCH  56  79
ATOM     79  C   UNL     1      14.954   8.068  12.336  1.00  0.00     0.064 A 
ATOM     80  C   UNL     1      14.386   9.089  13.112  1.00  0.00     0.173 A 
ATOM     81  C   UNL     1      16.320   7.794  12.506  1.00  0.00     0.173 A 
ATOM     82  F   UNL     1      13.088   9.398  12.975  1.00  0.00    -0.203 F 
ATOM     83  C   UNL     1      15.163   9.826  14.002  1.00  0.00     0.198 A 
ATOM     84  C   UNL     1      17.087   8.514  13.418  1.00  0.00     0.198 A 
ATOM     85  F   UNL     1      16.909   6.823  11.792  1.00  0.00    -0.203 F 
ATOM     86  F   UNL     1      14.611  10.831  14.696  1.00  0.00    -0.200 F 
ATOM     87  C   UNL     1      16.510   9.534  14.158  1.00  0.00     0.200 A 
ATOM     88  F   UNL     1      18.385   8.223  13.576  1.00  0.00    -0.200 F 
ATOM     89  F   UNL     1      17.255  10.244  15.017  1.00  0.00    -0.200 F 
ENDBRANCH  56  79
ENDBRANCH  30  31
ENDBRANCH  22  25
ENDBRANCH  20  21
ENDBRANCH  19  20
ENDBRANCH   1  19
TORSDOF 13
