REMARK SMILES CCCc1cc(S(F)(F)(F)(F)F)cc2c1O[C@@H](C(F)(F)F)C(C(=O)NCCCCNC(=O)c1ccc(-c3c4nc(c(-c5c(F)c(F)c(F)c(F)c5F)c5ccc([nH]5)c(-c5c(F)c(F)c(F)c(F)c5F)c5nc(c(-c6c(F)c(F)c(F)c(F)c6F)c6ccc3[nH]6)C=C5)C=C4)cc1)=C2
REMARK SMILES IDX 27 1 26 2 25 3 23 4 24 5 22 7 4 8 5 9 15 10 6 11 14 12 16 13
REMARK SMILES IDX 13 14 96 15 17 16 3 17 2 18 1 19 7 20 8 21 9 22 10 23 11 24
REMARK SMILES IDX 12 25 18 26 19 27 20 28 21 29 28 30 29 31 30 32 31 33 32 35
REMARK SMILES IDX 33 36 34 37 95 38 35 39 94 40 36 41 37 42 38 43 88 44 39 45
REMARK SMILES IDX 93 46 87 47 89 48 40 49 92 50 86 51 85 52 41 54 73 55 53 56
REMARK SMILES IDX 72 57 54 58 57 59 71 60 90 61 55 62 56 63 70 65 91 66 58 67
REMARK SMILES IDX 42 68 43 69 51 70 44 71 45 72 49 73 52 74 46 75 47 76 50 77
REMARK SMILES IDX 48 78 74 79 75 80 83 81 76 82 77 83 81 84 84 85 78 86 79 87
REMARK SMILES IDX 82 88 80 89 59 90 60 91 68 92 61 93 62 94 66 95 69 96 63 97
REMARK SMILES IDX 64 98 67 99 65 100
REMARK H PARENT 25 6 30 34 89 53 57 64
REMARK Flexibility Score: inf
ROOT
ATOM      1  C   UNL     1       0.615  -4.299  -6.466  1.00  0.00     0.023 C 
ENDROOT
BRANCH   1   2
ATOM      2  C   UNL     1      -0.064  -4.004  -5.138  1.00  0.00     0.116 C 
BRANCH   2   3
ATOM      3  N   UNL     1       0.621  -4.737  -4.064  1.00  0.00    -0.352 N 
ATOM      4  C   UNL     1       1.232  -4.003  -2.947  1.00  0.00     0.251 C 
ATOM      5  O   UNL     1       1.825  -4.637  -2.018  1.00  0.00    -0.270 OA
ATOM      6  H   UNL     1       0.671  -5.720  -4.092  1.00  0.00     0.163 HD
BRANCH   4   7
ATOM      7  C   UNL     1       1.156  -2.486  -2.903  1.00  0.00     0.067 C 
ATOM      8  C   UNL     1       0.557   1.624  -2.454  1.00  0.00    -0.004 A 
ATOM      9  C   UNL     1       0.097   2.375  -3.521  1.00  0.00     0.032 A 
ATOM     10  C   UNL     1       0.694   0.266  -2.614  1.00  0.00     0.131 A 
ATOM     11  C   UNL     1      -0.221   1.782  -4.715  1.00  0.00     0.108 A 
ATOM     12  C   UNL     1       0.400  -0.364  -3.809  1.00  0.00     0.019 A 
ATOM     13  O   UNL     1       1.042  -0.479  -1.514  1.00  0.00    -0.475 OA
ATOM     14  C   UNL     1      -0.064   0.419  -4.860  1.00  0.00     0.036 A 
ATOM     15  C   UNL     1       0.541  -1.809  -3.865  1.00  0.00     0.025 C 
ATOM     16  C   UNL     1       1.784  -1.708  -1.753  1.00  0.00     0.314 C 
BRANCH   8  17
ATOM     17  C   UNL     1       1.063   2.267  -1.174  1.00  0.00     0.039 C 
BRANCH  17  18
ATOM     18  C   UNL     1       0.557   1.479   0.023  1.00  0.00     0.001 C 
ATOM     19  C   UNL     1       1.063   0.049  -0.060  1.00  0.00     0.004 C 
ENDBRANCH  17  18
ENDBRANCH   8  17
BRANCH  11  20
ATOM     20  S   UNL     1      -0.843   2.779  -6.091  1.00  0.00     0.310 S 
ATOM     21  F   UNL     1      -2.326   3.023  -5.583  1.00  0.00    -0.094 F 
ATOM     22  F   UNL     1      -1.382   1.499  -6.835  1.00  0.00    -0.094 F 
ATOM     23  F   UNL     1      -1.183   3.670  -7.320  1.00  0.00    -0.094 F 
ATOM     24  F   UNL     1      -0.430   4.070  -5.280  1.00  0.00    -0.094 F 
ATOM     25  F   UNL     1      -0.599   1.905  -4.797  1.00  0.00    -0.094 F 
ENDBRANCH  11  20
BRANCH  16  26
ATOM     26  C   UNL     1       1.746  -2.563  -0.497  1.00  0.00     0.429 C 
ATOM     27  F   UNL     1       2.425  -3.688  -0.705  1.00  0.00    -0.167 F 
ATOM     28  F   UNL     1       2.296  -1.893   0.512  1.00  0.00    -0.167 F 
ATOM     29  F   UNL     1       0.483  -2.857  -0.198  1.00  0.00    -0.167 F 
ENDBRANCH  16  26
ENDBRANCH   4   7
ENDBRANCH   2   3
ENDBRANCH   1   2
BRANCH   1  30
ATOM     30  C   UNL     1       0.548  -5.791  -6.748  1.00  0.00     0.023 C 
BRANCH  30  31
ATOM     31  C   UNL     1      -0.905  -6.230  -6.814  1.00  0.00     0.116 C 
BRANCH  31  32
ATOM     32  N   UNL     1      -1.590  -5.497  -7.888  1.00  0.00    -0.352 N 
ATOM     33  C   UNL     1      -2.202  -6.232  -9.005  1.00  0.00     0.251 C 
ATOM     34  H   UNL     1      -1.640  -4.515  -7.860  1.00  0.00     0.163 HD
ATOM     35  O   UNL     1      -2.794  -5.598  -9.934  1.00  0.00    -0.269 OA
BRANCH  33  36
ATOM     36  C   UNL     1      -2.126  -7.749  -9.049  1.00  0.00     0.039 A 
ATOM     37  C   UNL     1      -1.757  -8.429 -10.199  1.00  0.00     0.014 A 
ATOM     38  C   UNL     1      -2.388  -8.397  -7.920  1.00  0.00     0.014 A 
ATOM     39  C   UNL     1      -1.975  -9.825 -10.134  1.00  0.00     0.010 A 
ATOM     40  C   UNL     1      -2.452  -9.769  -7.900  1.00  0.00     0.010 A 
ATOM     41  C   UNL     1      -2.158 -10.504  -9.015  1.00  0.00    -0.014 A 
BRANCH  41  42
ATOM     42  C   UNL     1      -2.048 -12.019  -8.971  1.00  0.00     0.031 A 
ATOM     43  C   UNL     1      -3.166 -12.752  -8.570  1.00  0.00     0.074 A 
ATOM     44  C   UNL     1      -0.839 -12.588  -9.335  1.00  0.00     0.049 A 
ATOM     45  N   UNL     1      -3.287 -14.078  -8.498  1.00  0.00    -0.248 NA
ATOM     46  C   UNL     1      -4.440 -12.148  -8.150  1.00  0.00     0.031 C 
ATOM     47  C   UNL     1       0.291 -11.856  -9.748  1.00  0.00     0.029 A 
ATOM     48  N   UNL     1      -0.509 -13.925  -9.364  1.00  0.00    -0.354 N 
ATOM     49  C   UNL     1      -4.514 -14.408  -8.091  1.00  0.00     0.074 A 
ATOM     50  C   UNL     1      -5.271 -13.171  -7.855  1.00  0.00     0.031 C 
ATOM     51  C   UNL     1       1.291 -12.738 -10.012  1.00  0.00     0.029 A 
ATOM     52  C   UNL     1       0.802 -14.035  -9.769  1.00  0.00     0.049 A 
ATOM     53  H   UNL     1      -1.108 -14.672  -9.136  1.00  0.00     0.167 HD
ATOM     54  C   UNL     1      -5.032 -15.691  -7.908  1.00  0.00     0.037 A 
ATOM     55  C   UNL     1       1.549 -15.193  -9.921  1.00  0.00     0.037 A 
ATOM     56  C   UNL     1      -4.298 -16.851  -8.102  1.00  0.00     0.049 A 
ATOM     57  C   UNL     1       1.048 -16.475  -9.682  1.00  0.00     0.074 A 
ATOM     58  C   UNL     1      -4.807 -18.152  -7.930  1.00  0.00     0.029 A 
ATOM     59  N   UNL     1      -2.979 -16.961  -8.483  1.00  0.00    -0.354 N 
ATOM     60  N   UNL     1      -0.190 -16.806  -9.313  1.00  0.00    -0.248 NA
ATOM     61  C   UNL     1       1.839 -17.706  -9.809  1.00  0.00     0.031 C 
ATOM     62  C   UNL     1      -3.807 -19.035  -8.194  1.00  0.00     0.029 A 
ATOM     63  C   UNL     1      -2.656 -18.298  -8.535  1.00  0.00     0.049 A 
ATOM     64  H   UNL     1      -2.372 -16.212  -8.684  1.00  0.00     0.167 HD
ATOM     65  C   UNL     1      -0.298 -18.132  -9.202  1.00  0.00     0.074 A 
ATOM     66  C   UNL     1       1.008 -18.730  -9.512  1.00  0.00     0.031 C 
ATOM     67  C   UNL     1      -1.433 -18.867  -8.857  1.00  0.00     0.037 A 
BRANCH  54  68
ATOM     68  C   UNL     1      -6.482 -15.825  -7.472  1.00  0.00     0.064 A 
ATOM     69  C   UNL     1      -7.484 -15.304  -8.274  1.00  0.00     0.173 A 
ATOM     70  C   UNL     1      -6.764 -16.437  -6.328  1.00  0.00     0.173 A 
ATOM     71  F   UNL     1      -7.279 -14.914  -9.529  1.00  0.00    -0.203 F 
ATOM     72  C   UNL     1      -8.745 -15.225  -7.637  1.00  0.00     0.198 A 
ATOM     73  C   UNL     1      -8.045 -16.437  -5.832  1.00  0.00     0.198 A 
ATOM     74  F   UNL     1      -5.797 -17.057  -5.656  1.00  0.00    -0.203 F 
ATOM     75  F   UNL     1      -9.662 -14.427  -8.177  1.00  0.00    -0.200 F 
ATOM     76  C   UNL     1      -9.075 -15.888  -6.544  1.00  0.00     0.200 A 
ATOM     77  F   UNL     1      -8.287 -16.979  -4.641  1.00  0.00    -0.200 F 
ATOM     78  F   UNL     1     -10.341 -16.015  -6.156  1.00  0.00    -0.200 F 
ENDBRANCH  54  68
BRANCH  55  79
ATOM     79  C   UNL     1       2.994 -15.060 -10.374  1.00  0.00     0.064 A 
ATOM     80  C   UNL     1       3.395 -15.666 -11.553  1.00  0.00     0.173 A 
ATOM     81  C   UNL     1       3.847 -14.364  -9.632  1.00  0.00     0.173 A 
ATOM     82  F   UNL     1       2.539 -16.151 -12.448  1.00  0.00    -0.203 F 
ATOM     83  C   UNL     1       4.799 -15.722 -11.720  1.00  0.00     0.198 A 
ATOM     84  C   UNL     1       5.188 -14.354  -9.932  1.00  0.00     0.198 A 
ATOM     85  F   UNL     1       3.400 -13.672  -8.588  1.00  0.00    -0.203 F 
ATOM     86  F   UNL     1       5.282 -16.581 -12.613  1.00  0.00    -0.200 F 
ATOM     87  C   UNL     1       5.663 -14.981 -11.050  1.00  0.00     0.200 A 
ATOM     88  F   UNL     1       6.036 -13.724  -9.123  1.00  0.00    -0.200 F 
ATOM     89  F   UNL     1       6.928 -14.852 -11.442  1.00  0.00    -0.200 F 
ENDBRANCH  55  79
BRANCH  67  90
ATOM     90  C   UNL     1      -1.322 -20.383  -8.834  1.00  0.00     0.064 A 
ATOM     91  C   UNL     1      -0.469 -21.010  -7.941  1.00  0.00     0.173 A 
ATOM     92  C   UNL     1      -2.111 -21.082  -9.641  1.00  0.00     0.173 A 
ATOM     93  F   UNL     1       0.145 -20.368  -6.951  1.00  0.00    -0.203 F 
ATOM     94  C   UNL     1      -0.309 -22.396  -8.179  1.00  0.00     0.198 A 
ATOM     95  C   UNL     1      -1.993 -22.449  -9.722  1.00  0.00     0.198 A 
ATOM     96  F   UNL     1      -3.025 -20.455 -10.376  1.00  0.00    -0.203 F 
ATOM     97  F   UNL     1       0.738 -23.002  -7.626  1.00  0.00    -0.200 F 
ATOM     98  C   UNL     1      -1.127 -23.129  -8.912  1.00  0.00     0.200 A 
ATOM     99  F   UNL     1      -2.731 -23.119 -10.602  1.00  0.00    -0.200 F 
ATOM    100  F   UNL     1      -1.109 -24.458  -8.864  1.00  0.00    -0.200 F 
ENDBRANCH  67  90
ENDBRANCH  41  42
ENDBRANCH  33  36
ENDBRANCH  31  32
ENDBRANCH  30  31
ENDBRANCH   1  30
TORSDOF 15
