REMARK SMILES CC(C)(C)C(=O)NCC(=O)Nc1cc(Cl)ccc1C(=O)NCCCCNC(=O)c1ccc(-c2c3nc(c(-c4c(F)c(F)c(F)c(F)c4F)c4ccc([nH]4)c(-c4c(F)c(F)c(F)c(F)c4F)c4nc(c(-c5c(F)c(F)c(F)c(F)c5F)c5ccc2[nH]5)C=C4)C=C3)cc1
REMARK SMILES IDX 22 1 21 2 19 3 20 4 18 6 12 7 13 8 14 9 17 10 15 11 16 12
REMARK SMILES IDX 11 13 9 14 10 15 8 17 7 18 5 19 6 20 2 22 1 23 3 24 4 25
REMARK SMILES IDX 23 26 24 27 25 28 26 29 27 30 28 32 29 33 30 34 91 35 31 36
REMARK SMILES IDX 90 37 32 38 33 39 34 40 84 41 35 42 89 43 83 44 85 45 36 46
REMARK SMILES IDX 88 47 82 48 81 49 37 51 69 52 49 53 68 54 50 55 53 56 67 57
REMARK SMILES IDX 86 58 51 59 52 60 66 62 87 63 54 64 38 65 39 66 47 67 40 68
REMARK SMILES IDX 41 69 45 70 48 71 42 72 43 73 46 74 44 75 70 76 71 77 79 78
REMARK SMILES IDX 72 79 73 80 77 81 80 82 74 83 75 84 78 85 76 86 55 87 56 88
REMARK SMILES IDX 64 89 57 90 58 91 62 92 65 93 59 94 60 95 63 96 61 97
REMARK H PARENT 21 5 11 16 7 21 26 31 85 50 53 61
REMARK Flexibility Score: inf
ROOT
ATOM      1  C   UNL     1      -3.558   2.824   2.991  1.00  0.00     0.116 C 
ENDROOT
BRANCH   1   2
ATOM      2  N   UNL     1      -4.501   1.774   2.707  1.00  0.00    -0.352 N 
ATOM      3  C   UNL     1      -4.325   0.413   2.620  1.00  0.00     0.253 C 
ATOM      4  O   UNL     1      -5.342  -0.263   2.446  1.00  0.00    -0.269 OA
ATOM      5  H   UNL     1      -5.423   2.080   2.550  1.00  0.00     0.163 HD
BRANCH   3   6
ATOM      6  C   UNL     1      -3.004  -0.300   2.644  1.00  0.00     0.063 A 
ATOM      7  C   UNL     1      -1.867  -0.023   3.432  1.00  0.00     0.055 A 
ATOM      8  C   UNL     1      -0.757  -0.885   3.372  1.00  0.00     0.047 A 
ATOM      9  C   UNL     1      -0.726  -1.963   2.490  1.00  0.00     0.043 A 
ATOM     10  C   UNL     1      -2.944  -1.402   1.758  1.00  0.00     0.017 A 
ATOM     11  Cl  UNL     1       0.649  -2.992   2.438  1.00  0.00    -0.084 Cl
ATOM     12  C   UNL     1      -1.813  -2.218   1.669  1.00  0.00     0.021 A 
BRANCH   7  13
ATOM     13  N   UNL     1      -1.849   0.963   4.426  1.00  0.00    -0.324 N 
ATOM     14  C   UNL     1      -0.979   2.009   4.622  1.00  0.00     0.243 C 
ATOM     15  O   UNL     1      -1.247   2.771   5.560  1.00  0.00    -0.273 OA
ATOM     16  H   UNL     1      -2.575   0.897   5.089  1.00  0.00     0.170 HD
BRANCH  14  17
ATOM     17  C   UNL     1       0.064   2.452   3.563  1.00  0.00     0.216 C 
BRANCH  17  18
ATOM     18  N   UNL     1       1.043   1.477   3.146  1.00  0.00    -0.347 N 
ATOM     19  C   UNL     1       1.449   0.978   1.956  1.00  0.00     0.225 C 
ATOM     20  O   UNL     1       2.365   0.150   2.048  1.00  0.00    -0.275 OA
ATOM     21  H   UNL     1       1.529   1.082   3.905  1.00  0.00     0.164 HD
BRANCH  19  22
ATOM     22  C   UNL     1       0.916   1.413   0.570  1.00  0.00     0.041 C 
ATOM     23  C   UNL     1       1.485   0.417  -0.471  1.00  0.00     0.021 C 
ATOM     24  C   UNL     1       1.440   2.815   0.244  1.00  0.00     0.021 C 
ATOM     25  C   UNL     1      -0.603   1.376   0.392  1.00  0.00     0.021 C 
ENDBRANCH  19  22
ENDBRANCH  17  18
ENDBRANCH  14  17
ENDBRANCH   7  13
ENDBRANCH   3   6
ENDBRANCH   1   2
BRANCH   1  26
ATOM     26  C   UNL     1      -3.934   4.226   2.538  1.00  0.00     0.023 C 
BRANCH  26  27
ATOM     27  C   UNL     1      -5.217   4.800   3.132  1.00  0.00     0.023 C 
BRANCH  27  28
ATOM     28  C   UNL     1      -5.441   4.577   4.625  1.00  0.00     0.116 C 
BRANCH  28  29
ATOM     29  N   UNL     1      -4.446   5.204   5.484  1.00  0.00    -0.352 N 
ATOM     30  C   UNL     1      -4.583   6.212   6.412  1.00  0.00     0.251 C 
ATOM     31  H   UNL     1      -3.532   4.852   5.386  1.00  0.00     0.163 HD
ATOM     32  O   UNL     1      -3.594   6.670   6.977  1.00  0.00    -0.269 OA
BRANCH  30  33
ATOM     33  C   UNL     1      -5.915   6.786   6.703  1.00  0.00     0.039 A 
ATOM     34  C   UNL     1      -6.055   8.176   6.753  1.00  0.00     0.014 A 
ATOM     35  C   UNL     1      -7.029   5.968   6.900  1.00  0.00     0.014 A 
ATOM     36  C   UNL     1      -7.325   8.742   6.886  1.00  0.00     0.010 A 
ATOM     37  C   UNL     1      -8.301   6.530   6.931  1.00  0.00     0.010 A 
ATOM     38  C   UNL     1      -8.466   7.924   6.914  1.00  0.00    -0.014 A 
BRANCH  38  39
ATOM     39  C   UNL     1      -9.836   8.499   6.901  1.00  0.00     0.031 A 
ATOM     40  C   UNL     1     -10.787   8.225   8.033  1.00  0.00     0.074 A 
ATOM     41  C   UNL     1     -10.260   9.189   5.824  1.00  0.00     0.049 A 
ATOM     42  N   UNL     1     -12.049   8.555   8.155  1.00  0.00    -0.248 NA
ATOM     43  C   UNL     1     -10.259   7.444   9.161  1.00  0.00     0.031 C 
ATOM     44  C   UNL     1      -9.461   9.466   4.629  1.00  0.00     0.029 A 
ATOM     45  N   UNL     1     -11.475   9.768   5.551  1.00  0.00    -0.354 N 
ATOM     46  C   UNL     1     -12.468   8.003   9.358  1.00  0.00     0.074 A 
ATOM     47  C   UNL     1     -11.345   7.267   9.898  1.00  0.00     0.031 C 
ATOM     48  C   UNL     1     -10.199  10.178   3.762  1.00  0.00     0.029 A 
ATOM     49  C   UNL     1     -11.533  10.375   4.320  1.00  0.00     0.049 A 
ATOM     50  H   UNL     1     -12.234   9.749   6.178  1.00  0.00     0.167 HD
ATOM     51  C   UNL     1     -13.670   8.120   9.971  1.00  0.00     0.037 A 
ATOM     52  C   UNL     1     -12.547  11.012   3.705  1.00  0.00     0.037 A 
ATOM     53  C   UNL     1     -14.777   8.876   9.446  1.00  0.00     0.049 A 
ATOM     54  C   UNL     1     -13.868  11.147   4.411  1.00  0.00     0.074 A 
ATOM     55  C   UNL     1     -16.010   9.119  10.026  1.00  0.00     0.029 A 
ATOM     56  N   UNL     1     -14.784   9.511   8.212  1.00  0.00    -0.354 N 
ATOM     57  N   UNL     1     -14.229  10.688   5.584  1.00  0.00    -0.248 NA
ATOM     58  C   UNL     1     -14.920  11.896   3.710  1.00  0.00     0.031 C 
ATOM     59  C   UNL     1     -16.779   9.861   9.123  1.00  0.00     0.029 A 
ATOM     60  C   UNL     1     -16.009  10.125   8.002  1.00  0.00     0.049 A 
ATOM     61  H   UNL     1     -14.031   9.522   7.578  1.00  0.00     0.167 HD
ATOM     62  C   UNL     1     -15.538  11.109   5.774  1.00  0.00     0.074 A 
ATOM     63  C   UNL     1     -15.904  11.873   4.599  1.00  0.00     0.031 C 
ATOM     64  C   UNL     1     -16.361  10.882   6.827  1.00  0.00     0.037 A 
BRANCH  51  65
ATOM     65  C   UNL     1     -13.844   7.410  11.283  1.00  0.00     0.064 A 
ATOM     66  C   UNL     1     -13.153   7.813  12.437  1.00  0.00     0.173 A 
ATOM     67  C   UNL     1     -14.715   6.315  11.392  1.00  0.00     0.173 A 
ATOM     68  F   UNL     1     -12.300   8.847  12.385  1.00  0.00    -0.203 F 
ATOM     69  C   UNL     1     -13.291   7.119  13.636  1.00  0.00     0.198 A 
ATOM     70  C   UNL     1     -14.877   5.645  12.602  1.00  0.00     0.198 A 
ATOM     71  F   UNL     1     -15.407   5.892  10.323  1.00  0.00    -0.203 F 
ATOM     72  F   UNL     1     -12.568   7.482  14.704  1.00  0.00    -0.200 F 
ATOM     73  C   UNL     1     -14.156   6.039  13.719  1.00  0.00     0.200 A 
ATOM     74  F   UNL     1     -15.723   4.609  12.684  1.00  0.00    -0.200 F 
ATOM     75  F   UNL     1     -14.286   5.370  14.873  1.00  0.00    -0.200 F 
ENDBRANCH  51  65
BRANCH  52  76
ATOM     76  C   UNL     1     -12.335  11.598   2.357  1.00  0.00     0.064 A 
ATOM     77  C   UNL     1     -12.245  12.985   2.183  1.00  0.00     0.173 A 
ATOM     78  C   UNL     1     -12.188  10.785   1.223  1.00  0.00     0.173 A 
ATOM     79  F   UNL     1     -12.399  13.803   3.235  1.00  0.00    -0.203 F 
ATOM     80  C   UNL     1     -12.026  13.540   0.923  1.00  0.00     0.198 A 
ATOM     81  C   UNL     1     -11.943  11.340  -0.032  1.00  0.00     0.198 A 
ATOM     82  F   UNL     1     -12.258   9.451   1.339  1.00  0.00    -0.203 F 
ATOM     83  F   UNL     1     -11.975  14.871   0.779  1.00  0.00    -0.200 F 
ATOM     84  C   UNL     1     -11.867  12.716  -0.181  1.00  0.00     0.200 A 
ATOM     85  F   UNL     1     -11.774  10.540  -1.094  1.00  0.00    -0.200 F 
ATOM     86  F   UNL     1     -11.642  13.249  -1.390  1.00  0.00    -0.200 F 
ENDBRANCH  52  76
BRANCH  64  87
ATOM     87  C   UNL     1     -17.734  11.487   6.770  1.00  0.00     0.064 A 
ATOM     88  C   UNL     1     -18.724  10.986   5.912  1.00  0.00     0.173 A 
ATOM     89  C   UNL     1     -18.075  12.553   7.617  1.00  0.00     0.173 A 
ATOM     90  F   UNL     1     -18.443   9.979   5.073  1.00  0.00    -0.203 F 
ATOM     91  C   UNL     1     -19.999  11.546   5.889  1.00  0.00     0.198 A 
ATOM     92  C   UNL     1     -19.359  13.091   7.611  1.00  0.00     0.198 A 
ATOM     93  F   UNL     1     -17.166  13.065   8.460  1.00  0.00    -0.203 F 
ATOM     94  F   UNL     1     -20.917  11.080   5.030  1.00  0.00    -0.200 F 
ATOM     95  C   UNL     1     -20.318  12.591   6.743  1.00  0.00     0.200 A 
ATOM     96  F   UNL     1     -19.668  14.092   8.446  1.00  0.00    -0.200 F 
ATOM     97  F   UNL     1     -21.548  13.122   6.724  1.00  0.00    -0.200 F 
ENDBRANCH  64  87
ENDBRANCH  38  39
ENDBRANCH  30  33
ENDBRANCH  28  29
ENDBRANCH  27  28
ENDBRANCH  26  27
ENDBRANCH   1  26
TORSDOF 15
