REMARK SMILES O=C(NCCCCNC(=O)[C@H]1[C@H]2CC[C@H](CC2)[C@H]1C(=O)NCCC[NH+]1CCOCC1)c1ccc(-c2c3nc(c(-c4c(F)c(F)c(F)c(F)c4F)c4ccc([nH]4)c(-c4c(F)c(F)c(F)c(F)c4F)c4nc(c(-c5c(F)c(F)c(F)c(F)c5F)c5ccc2[nH]5)C=C4)C=C3)cc1
REMARK SMILES IDX 7 1 6 2 5 3 4 4 3 5 1 6 2 7 31 9 32 10 93 11 33 12 92 13
REMARK SMILES IDX 34 14 35 15 36 16 86 17 37 18 91 19 85 20 87 21 38 22 90 23
REMARK SMILES IDX 84 24 83 25 39 27 71 28 51 29 70 30 52 31 55 32 69 33 88 34
REMARK SMILES IDX 53 35 54 36 68 38 89 39 56 40 40 41 41 42 49 43 42 44 43 45
REMARK SMILES IDX 47 46 50 47 44 48 45 49 48 50 46 51 72 52 73 53 81 54 74 55
REMARK SMILES IDX 75 56 79 57 82 58 76 59 77 60 80 61 78 62 57 63 58 64 66 65
REMARK SMILES IDX 59 66 60 67 64 68 67 69 61 70 62 71 65 72 63 73 8 74 9 75
REMARK SMILES IDX 10 77 11 78 12 79 18 80 17 81 13 82 15 83 16 84 14 85 19 86
REMARK SMILES IDX 20 87 21 88 22 90 23 91 24 92 25 93 26 94 30 95 27 97 29 98
REMARK SMILES IDX 28 99
REMARK H PARENT 3 8 87 26 55 37 8 76 21 89 25 96
REMARK Flexibility Score: inf
ROOT
ATOM      1  C   UNL     1       4.412  -3.405   2.749  1.00  0.00     0.116 C 
ENDROOT
BRANCH   1   2
ATOM      2  C   UNL     1       4.159  -1.974   3.258  1.00  0.00     0.023 C 
BRANCH   2   3
ATOM      3  C   UNL     1       4.766  -0.847   2.410  1.00  0.00     0.023 C 
BRANCH   3   4
ATOM      4  C   UNL     1       4.434  -0.886   0.922  1.00  0.00     0.116 C 
BRANCH   4   5
ATOM      5  N   UNL     1       3.003  -0.893   0.668  1.00  0.00    -0.352 N 
ATOM      6  O   UNL     1       1.021  -0.168  -0.112  1.00  0.00    -0.269 OA
ATOM      7  C   UNL     1       2.250  -0.088  -0.143  1.00  0.00     0.251 C 
ATOM      8  H   UNL     1       2.497  -1.584   1.155  1.00  0.00     0.163 HD
BRANCH   7   9
ATOM      9  C   UNL     1       2.893   0.894  -1.040  1.00  0.00     0.039 A 
ATOM     10  C   UNL     1       3.998   0.551  -1.824  1.00  0.00     0.014 A 
ATOM     11  C   UNL     1       2.345   2.177  -1.125  1.00  0.00     0.014 A 
ATOM     12  C   UNL     1       4.621   1.519  -2.609  1.00  0.00     0.010 A 
ATOM     13  C   UNL     1       2.929   3.127  -1.963  1.00  0.00     0.010 A 
ATOM     14  C   UNL     1       4.086   2.813  -2.694  1.00  0.00    -0.014 A 
BRANCH  14  15
ATOM     15  C   UNL     1       4.703   3.831  -3.581  1.00  0.00     0.031 A 
ATOM     16  C   UNL     1       5.313   5.075  -3.005  1.00  0.00     0.074 A 
ATOM     17  C   UNL     1       4.662   3.653  -4.914  1.00  0.00     0.049 A 
ATOM     18  N   UNL     1       5.793   6.125  -3.621  1.00  0.00    -0.248 NA
ATOM     19  C   UNL     1       5.381   5.154  -1.538  1.00  0.00     0.031 C 
ATOM     20  C   UNL     1       4.094   2.487  -5.589  1.00  0.00     0.029 A 
ATOM     21  N   UNL     1       5.085   4.461  -5.939  1.00  0.00    -0.354 N 
ATOM     22  C   UNL     1       6.196   7.000  -2.621  1.00  0.00     0.074 A 
ATOM     23  C   UNL     1       5.880   6.368  -1.357  1.00  0.00     0.031 C 
ATOM     24  C   UNL     1       4.201   2.654  -6.915  1.00  0.00     0.029 A 
ATOM     25  C   UNL     1       4.785   3.964  -7.183  1.00  0.00     0.049 A 
ATOM     26  H   UNL     1       5.558   5.314  -5.797  1.00  0.00     0.167 HD
ATOM     27  C   UNL     1       6.779   8.217  -2.750  1.00  0.00     0.037 A 
ATOM     28  C   UNL     1       4.923   4.517  -8.403  1.00  0.00     0.037 A 
ATOM     29  C   UNL     1       7.086   8.835  -4.016  1.00  0.00     0.049 A 
ATOM     30  C   UNL     1       5.525   5.888  -8.524  1.00  0.00     0.074 A 
ATOM     31  C   UNL     1       7.714  10.044  -4.256  1.00  0.00     0.029 A 
ATOM     32  N   UNL     1       6.768   8.298  -5.256  1.00  0.00    -0.354 N 
ATOM     33  N   UNL     1       5.943   6.691  -7.576  1.00  0.00    -0.248 NA
ATOM     34  C   UNL     1       5.678   6.429  -9.881  1.00  0.00     0.031 C 
ATOM     35  C   UNL     1       7.715  10.270  -5.636  1.00  0.00     0.029 A 
ATOM     36  C   UNL     1       7.157   9.167  -6.263  1.00  0.00     0.049 A 
ATOM     37  H   UNL     1       6.331   7.427  -5.399  1.00  0.00     0.167 HD
ATOM     38  C   UNL     1       6.437   7.817  -8.219  1.00  0.00     0.074 A 
ATOM     39  C   UNL     1       6.265   7.594  -9.640  1.00  0.00     0.031 C 
ATOM     40  C   UNL     1       6.991   8.929  -7.677  1.00  0.00     0.037 A 
BRANCH  27  41
ATOM     41  C   UNL     1       7.082   8.978  -1.489  1.00  0.00     0.064 A 
ATOM     42  C   UNL     1       8.055   8.547  -0.574  1.00  0.00     0.173 A 
ATOM     43  C   UNL     1       6.391  10.164  -1.195  1.00  0.00     0.173 A 
ATOM     44  F   UNL     1       8.743   7.418  -0.801  1.00  0.00    -0.203 F 
ATOM     45  C   UNL     1       8.288   9.246   0.609  1.00  0.00     0.198 A 
ATOM     46  C   UNL     1       6.653  10.880  -0.030  1.00  0.00     0.198 A 
ATOM     47  F   UNL     1       5.459  10.632  -2.039  1.00  0.00    -0.203 F 
ATOM     48  F   UNL     1       9.173   8.775   1.499  1.00  0.00    -0.200 F 
ATOM     49  C   UNL     1       7.591  10.413   0.878  1.00  0.00     0.200 A 
ATOM     50  F   UNL     1       5.990  12.018   0.219  1.00  0.00    -0.200 F 
ATOM     51  F   UNL     1       7.814  11.082   2.017  1.00  0.00    -0.200 F 
ENDBRANCH  27  41
BRANCH  28  52
ATOM     52  C   UNL     1       4.465   3.759  -9.594  1.00  0.00     0.064 A 
ATOM     53  C   UNL     1       5.383   3.210 -10.499  1.00  0.00     0.173 A 
ATOM     54  C   UNL     1       3.100   3.517  -9.818  1.00  0.00     0.173 A 
ATOM     55  F   UNL     1       6.696   3.427 -10.334  1.00  0.00    -0.203 F 
ATOM     56  C   UNL     1       4.953   2.450 -11.585  1.00  0.00     0.198 A 
ATOM     57  C   UNL     1       2.674   2.732 -10.887  1.00  0.00     0.198 A 
ATOM     58  F   UNL     1       2.183   4.012  -8.975  1.00  0.00    -0.203 F 
ATOM     59  F   UNL     1       5.849   1.956 -12.449  1.00  0.00    -0.200 F 
ATOM     60  C   UNL     1       3.601   2.202 -11.771  1.00  0.00     0.200 A 
ATOM     61  F   UNL     1       1.369   2.478 -11.050  1.00  0.00    -0.200 F 
ATOM     62  F   UNL     1       3.191   1.452 -12.803  1.00  0.00    -0.200 F 
ENDBRANCH  28  52
BRANCH  40  63
ATOM     63  C   UNL     1       7.511   9.979  -8.617  1.00  0.00     0.064 A 
ATOM     64  C   UNL     1       6.653  10.817  -9.342  1.00  0.00     0.173 A 
ATOM     65  C   UNL     1       8.893  10.201  -8.724  1.00  0.00     0.173 A 
ATOM     66  F   UNL     1       5.325  10.636  -9.288  1.00  0.00    -0.203 F 
ATOM     67  C   UNL     1       7.161  11.835 -10.147  1.00  0.00     0.198 A 
ATOM     68  C   UNL     1       9.395  11.238  -9.504  1.00  0.00     0.198 A 
ATOM     69  F   UNL     1       9.756   9.428  -8.048  1.00  0.00    -0.203 F 
ATOM     70  F   UNL     1       6.325  12.606 -10.856  1.00  0.00    -0.200 F 
ATOM     71  C   UNL     1       8.530  12.052 -10.217  1.00  0.00     0.200 A 
ATOM     72  F   UNL     1      10.717  11.455  -9.557  1.00  0.00    -0.200 F 
ATOM     73  F   UNL     1       9.014  13.047 -10.973  1.00  0.00    -0.200 F 
ENDBRANCH  40  63
ENDBRANCH  14  15
ENDBRANCH   7   9
ENDBRANCH   4   5
ENDBRANCH   3   4
ENDBRANCH   2   3
ENDBRANCH   1   2
BRANCH   1  74
ATOM     74  N   UNL     1       5.831  -3.703   2.661  1.00  0.00    -0.356 N 
ATOM     75  C   UNL     1       6.597  -3.793   3.793  1.00  0.00     0.224 C 
ATOM     76  H   UNL     1       6.246  -3.842   1.780  1.00  0.00     0.163 HD
ATOM     77  O   UNL     1       7.385  -2.871   3.973  1.00  0.00    -0.275 OA
BRANCH  75  78
ATOM     78  C   UNL     1       6.279  -4.889   4.809  1.00  0.00     0.094 C 
ATOM     79  C   UNL     1       6.170  -6.363   4.289  1.00  0.00     0.002 C 
ATOM     80  C   UNL     1       7.049  -4.870   6.150  1.00  0.00     0.094 C 
ATOM     81  C   UNL     1       7.485  -7.177   4.345  1.00  0.00     0.005 C 
ATOM     82  C   UNL     1       5.227  -7.097   5.269  1.00  0.00     0.005 C 
ATOM     83  C   UNL     1       7.195  -6.323   6.694  1.00  0.00     0.002 C 
ATOM     84  C   UNL     1       8.029  -7.238   5.788  1.00  0.00     0.005 C 
ATOM     85  C   UNL     1       5.776  -6.967   6.708  1.00  0.00     0.005 C 
BRANCH  80  86
ATOM     86  C   UNL     1       8.212  -3.874   6.380  1.00  0.00     0.224 C 
ATOM     87  O   UNL     1       8.107  -3.046   7.296  1.00  0.00    -0.275 OA
ATOM     88  N   UNL     1       9.365  -3.828   5.660  1.00  0.00    -0.356 N 
ATOM     89  H   UNL     1       9.933  -3.045   5.843  1.00  0.00     0.163 HD
BRANCH  88  90
ATOM     90  C   UNL     1       9.891  -4.734   4.676  1.00  0.00     0.121 C 
BRANCH  90  91
ATOM     91  C   UNL     1       9.988  -4.260   3.235  1.00  0.00     0.083 C 
BRANCH  91  92
ATOM     92  C   UNL     1      11.238  -3.459   2.923  1.00  0.00     0.264 C 
BRANCH  92  93
ATOM     93  N   UNL     1      12.499  -4.164   3.201  1.00  0.00    -0.331 N 
ATOM     94  C   UNL     1      12.628  -5.484   2.544  1.00  0.00     0.291 C 
ATOM     95  C   UNL     1      13.644  -3.336   2.760  1.00  0.00     0.291 C 
ATOM     96  H   UNL     1      12.495  -4.323   4.209  1.00  0.00     0.348 HD
ATOM     97  C   UNL     1      12.765  -5.397   1.018  1.00  0.00     0.221 C 
ATOM     98  C   UNL     1      13.803  -3.280   1.227  1.00  0.00     0.221 C 
ATOM     99  O   UNL     1      13.890  -4.590   0.650  1.00  0.00    -0.370 OA
ENDBRANCH  92  93
ENDBRANCH  91  92
ENDBRANCH  90  91
ENDBRANCH  88  90
ENDBRANCH  80  86
ENDBRANCH  75  78
ENDBRANCH   1  74
TORSDOF 16
