REMARK SMILES Cc1c(CC(=O)NCCCCNC(=O)c2ccc(-c3c4nc(c(-c5c(F)c(F)c(F)c(F)c5F)c5ccc([nH]5)c(-c5c(F)c(F)c(F)c(F)c5F)c5nc(c(-c6c(F)c(F)c(F)c(F)c6F)c6ccc3[nH]6)C=C5)C=C4)cc2)cc(-c2ccc(S(C)(=O)=O)cc2)n1-c1ccccc1
REMARK SMILES IDX 9 1 8 2 7 3 5 4 6 5 4 7 3 8 1 9 2 10 90 11 78 12 79 13 91 14
REMARK SMILES IDX 92 15 96 16 93 17 95 18 94 19 80 20 81 21 89 22 82 23 88 24
REMARK SMILES IDX 83 25 84 26 85 27 86 28 87 29 10 30 11 31 12 32 13 33 14 35
REMARK SMILES IDX 15 36 16 37 77 38 17 39 76 40 18 41 19 42 20 43 70 44 21 45
REMARK SMILES IDX 75 46 69 47 71 48 22 49 74 50 68 51 67 52 23 54 55 55 35 56
REMARK SMILES IDX 54 57 36 58 39 59 53 60 72 61 37 62 38 63 52 65 73 66 40 67
REMARK SMILES IDX 24 68 25 69 33 70 26 71 27 72 31 73 34 74 28 75 29 76 32 77
REMARK SMILES IDX 30 78 56 79 57 80 65 81 58 82 59 83 63 84 66 85 60 86 61 87
REMARK SMILES IDX 64 88 62 89 41 90 42 91 50 92 43 93 44 94 48 95 51 96 45 97
REMARK SMILES IDX 46 98 49 99 47 100
REMARK H PARENT 7 6 12 34 71 53 39 64
REMARK Flexibility Score: inf
ROOT
ATOM      1  C   UNL     1       4.094  -2.564  -2.835  1.00  0.00     0.023 C 
ENDROOT
BRANCH   1   2
ATOM      2  C   UNL     1       3.789  -3.381  -1.580  1.00  0.00     0.116 C 
BRANCH   2   3
ATOM      3  N   UNL     1       3.865  -2.587  -0.366  1.00  0.00    -0.356 N 
ATOM      4  C   UNL     1       2.921  -2.336   0.583  1.00  0.00     0.224 C 
ATOM      5  O   UNL     1       3.258  -1.667   1.563  1.00  0.00    -0.275 OA
ATOM      6  H   UNL     1       4.739  -2.163  -0.203  1.00  0.00     0.163 HD
BRANCH   4   7
ATOM      7  C   UNL     1       1.518  -2.893   0.447  1.00  0.00     0.137 C 
BRANCH   7   8
ATOM      8  C   UNL     1       0.755  -2.295  -0.695  1.00  0.00    -0.017 A 
ATOM      9  C   UNL     1       0.896   0.216  -0.097  1.00  0.00     0.065 C 
ATOM     10  C   UNL     1       0.515  -0.951  -0.953  1.00  0.00     0.024 A 
ATOM     11  N   UNL     1      -0.231  -0.857  -2.124  1.00  0.00    -0.314 N 
ATOM     12  C   UNL     1       0.113  -3.031  -1.721  1.00  0.00     0.033 A 
ATOM     13  C   UNL     1      -0.440  -2.143  -2.623  1.00  0.00     0.053 A 
BRANCH  11  14
ATOM     14  C   UNL     1      -0.736   0.337  -2.707  1.00  0.00     0.046 A 
ATOM     15  C   UNL     1      -2.091   0.409  -3.055  1.00  0.00     0.026 A 
ATOM     16  C   UNL     1       0.119   1.415  -2.959  1.00  0.00     0.026 A 
ATOM     17  C   UNL     1      -2.591   1.566  -3.650  1.00  0.00     0.002 A 
ATOM     18  C   UNL     1      -0.387   2.562  -3.571  1.00  0.00     0.002 A 
ATOM     19  C   UNL     1      -1.739   2.639  -3.912  1.00  0.00     0.000 A 
ENDBRANCH  11  14
BRANCH  13  20
ATOM     20  C   UNL     1      -1.043  -2.467  -3.921  1.00  0.00    -0.001 A 
ATOM     21  C   UNL     1      -0.534  -1.913  -5.107  1.00  0.00     0.011 A 
ATOM     22  C   UNL     1      -2.113  -3.369  -3.993  1.00  0.00     0.011 A 
ATOM     23  C   UNL     1      -1.101  -2.231  -6.343  1.00  0.00     0.021 A 
ATOM     24  C   UNL     1      -2.688  -3.689  -5.225  1.00  0.00     0.021 A 
ATOM     25  C   UNL     1      -2.186  -3.111  -6.391  1.00  0.00     0.067 A 
BRANCH  25  26
ATOM     26  S   UNL     1      -2.880  -3.529  -7.972  1.00  0.00     0.175 S 
ATOM     27  C   UNL     1      -3.585  -2.009  -8.554  1.00  0.00     0.163 C 
ATOM     28  O   UNL     1      -1.792  -3.893  -8.835  1.00  0.00    -0.224 OA
ATOM     29  O   UNL     1      -3.991  -4.451  -7.729  1.00  0.00    -0.224 OA
ENDBRANCH  25  26
ENDBRANCH  13  20
ENDBRANCH   7   8
ENDBRANCH   4   7
ENDBRANCH   2   3
ENDBRANCH   1   2
BRANCH   1  30
ATOM     30  C   UNL     1       5.413  -1.764  -2.841  1.00  0.00     0.023 C 
BRANCH  30  31
ATOM     31  C   UNL     1       6.642  -2.338  -2.108  1.00  0.00     0.116 C 
BRANCH  31  32
ATOM     32  N   UNL     1       7.519  -3.165  -2.901  1.00  0.00    -0.352 N 
ATOM     33  C   UNL     1       8.800  -3.576  -2.565  1.00  0.00     0.251 C 
ATOM     34  H   UNL     1       7.173  -3.468  -3.771  1.00  0.00     0.163 HD
ATOM     35  O   UNL     1       9.429  -4.267  -3.365  1.00  0.00    -0.269 OA
BRANCH  33  36
ATOM     36  C   UNL     1       9.477  -3.114  -1.296  1.00  0.00     0.039 A 
ATOM     37  C   UNL     1      10.294  -2.000  -1.371  1.00  0.00     0.014 A 
ATOM     38  C   UNL     1       9.526  -3.845  -0.094  1.00  0.00     0.014 A 
ATOM     39  C   UNL     1      11.094  -1.614  -0.257  1.00  0.00     0.010 A 
ATOM     40  C   UNL     1      10.421  -3.494   1.009  1.00  0.00     0.010 A 
ATOM     41  C   UNL     1      11.268  -2.370   0.963  1.00  0.00    -0.014 A 
BRANCH  41  42
ATOM     42  C   UNL     1      12.666  -2.133   1.753  1.00  0.00     0.031 A 
ATOM     43  C   UNL     1      13.645  -2.033   0.628  1.00  0.00     0.074 A 
ATOM     44  C   UNL     1      13.274  -2.080   3.011  1.00  0.00     0.049 A 
ATOM     45  N   UNL     1      13.744  -3.001  -0.242  1.00  0.00    -0.248 NA
ATOM     46  C   UNL     1      14.198  -0.750   0.188  1.00  0.00     0.031 C 
ATOM     47  C   UNL     1      12.665  -2.289   4.335  1.00  0.00     0.029 A 
ATOM     48  N   UNL     1      14.629  -1.810   3.418  1.00  0.00    -0.354 N 
ATOM     49  C   UNL     1      14.600  -2.551  -1.214  1.00  0.00     0.074 A 
ATOM     50  C   UNL     1      14.651  -1.109  -1.019  1.00  0.00     0.031 C 
ATOM     51  C   UNL     1      13.547  -2.038   5.351  1.00  0.00     0.029 A 
ATOM     52  C   UNL     1      14.875  -1.697   4.838  1.00  0.00     0.049 A 
ATOM     53  H   UNL     1      15.354  -1.708   2.760  1.00  0.00     0.167 HD
ATOM     54  C   UNL     1      15.614  -3.402  -1.541  1.00  0.00     0.037 A 
ATOM     55  C   UNL     1      16.043  -1.444   5.562  1.00  0.00     0.037 A 
ATOM     56  C   UNL     1      16.855  -3.016  -0.930  1.00  0.00     0.049 A 
ATOM     57  C   UNL     1      17.184  -1.774   4.699  1.00  0.00     0.074 A 
ATOM     58  C   UNL     1      17.463  -1.791  -0.735  1.00  0.00     0.029 A 
ATOM     59  N   UNL     1      17.374  -3.863   0.028  1.00  0.00    -0.354 N 
ATOM     60  N   UNL     1      17.574  -3.001   4.540  1.00  0.00    -0.248 NA
ATOM     61  C   UNL     1      18.041  -0.763   4.087  1.00  0.00     0.031 C 
ATOM     62  C   UNL     1      17.791  -1.796   0.638  1.00  0.00     0.029 A 
ATOM     63  C   UNL     1      17.767  -3.105   1.104  1.00  0.00     0.049 A 
ATOM     64  H   UNL     1      17.451  -4.842  -0.048  1.00  0.00     0.167 HD
ATOM     65  C   UNL     1      18.310  -2.930   3.407  1.00  0.00     0.074 A 
ATOM     66  C   UNL     1      18.818  -1.573   3.361  1.00  0.00     0.031 C 
ATOM     67  C   UNL     1      17.883  -3.724   2.396  1.00  0.00     0.037 A 
BRANCH  54  68
ATOM     68  C   UNL     1      15.168  -4.827  -1.707  1.00  0.00     0.064 A 
ATOM     69  C   UNL     1      15.128  -5.380  -2.988  1.00  0.00     0.173 A 
ATOM     70  C   UNL     1      14.659  -5.604  -0.645  1.00  0.00     0.173 A 
ATOM     71  F   UNL     1      15.666  -4.718  -4.024  1.00  0.00    -0.203 F 
ATOM     72  C   UNL     1      14.540  -6.625  -3.209  1.00  0.00     0.198 A 
ATOM     73  C   UNL     1      14.010  -6.809  -0.877  1.00  0.00     0.198 A 
ATOM     74  F   UNL     1      14.805  -5.206   0.630  1.00  0.00    -0.203 F 
ATOM     75  F   UNL     1      14.546  -7.156  -4.439  1.00  0.00    -0.200 F 
ATOM     76  C   UNL     1      13.946  -7.318  -2.162  1.00  0.00     0.200 A 
ATOM     77  F   UNL     1      13.458  -7.477   0.145  1.00  0.00    -0.200 F 
ATOM     78  F   UNL     1      13.340  -8.492  -2.386  1.00  0.00    -0.200 F 
ENDBRANCH  54  68
BRANCH  55  79
ATOM     79  C   UNL     1      16.622  -1.121   6.970  1.00  0.00     0.064 A 
ATOM     80  C   UNL     1      17.858  -1.710   7.416  1.00  0.00     0.173 A 
ATOM     81  C   UNL     1      16.297   0.065   7.644  1.00  0.00     0.173 A 
ATOM     82  F   UNL     1      18.295  -2.873   6.913  1.00  0.00    -0.203 F 
ATOM     83  C   UNL     1      18.735  -1.101   8.331  1.00  0.00     0.198 A 
ATOM     84  C   UNL     1      17.160   0.651   8.608  1.00  0.00     0.198 A 
ATOM     85  F   UNL     1      15.189   0.739   7.309  1.00  0.00    -0.203 F 
ATOM     86  F   UNL     1      19.941  -1.641   8.578  1.00  0.00    -0.200 F 
ATOM     87  C   UNL     1      18.391   0.092   8.919  1.00  0.00     0.200 A 
ATOM     88  F   UNL     1      16.826   1.816   9.183  1.00  0.00    -0.200 F 
ATOM     89  F   UNL     1      19.247   0.712   9.748  1.00  0.00    -0.200 F 
ENDBRANCH  55  79
BRANCH  67  90
ATOM     90  C   UNL     1      17.381  -5.105   2.798  1.00  0.00     0.064 A 
ATOM     91  C   UNL     1      16.392  -5.393   3.773  1.00  0.00     0.173 A 
ATOM     92  C   UNL     1      18.043  -6.214   2.260  1.00  0.00     0.173 A 
ATOM     93  F   UNL     1      15.598  -4.442   4.279  1.00  0.00    -0.203 F 
ATOM     94  C   UNL     1      16.182  -6.685   4.261  1.00  0.00     0.198 A 
ATOM     95  C   UNL     1      17.791  -7.513   2.708  1.00  0.00     0.198 A 
ATOM     96  F   UNL     1      18.944  -6.041   1.282  1.00  0.00    -0.203 F 
ATOM     97  F   UNL     1      15.301  -6.898   5.251  1.00  0.00    -0.200 F 
ATOM     98  C   UNL     1      16.888  -7.745   3.731  1.00  0.00     0.200 A 
ATOM     99  F   UNL     1      18.442  -8.542   2.148  1.00  0.00    -0.200 F 
ATOM    100  F   UNL     1      16.690  -8.989   4.191  1.00  0.00    -0.200 F 
ENDBRANCH  67  90
ENDBRANCH  41  42
ENDBRANCH  33  36
ENDBRANCH  31  32
ENDBRANCH  30  31
ENDBRANCH   1  30
TORSDOF 15
