REMARK SMILES CCC1(C(=O)NCCCCNC(=O)c2ccc(-c3c4nc(c(-c5c(F)c(F)c(F)c(F)c5F)c5ccc([nH]5)c(-c5c(F)c(F)c(F)c(F)c5F)c5nc(c(-c6c(F)c(F)c(F)c(F)c6F)c6ccc3[nH]6)C=C5)C=C4)cc2)CCN(c2ncnc3c2CCCC3)CC1
REMARK SMILES IDX 9 1 8 2 7 3 6 4 4 5 5 6 3 8 77 9 91 10 78 11 90 12 79 13
REMARK SMILES IDX 2 14 1 15 80 16 81 17 85 18 82 19 84 20 86 21 83 22 89 23
REMARK SMILES IDX 87 24 88 25 10 26 11 27 12 28 13 30 14 31 15 32 76 33 16 34
REMARK SMILES IDX 75 35 17 36 18 37 19 38 69 39 20 40 74 41 68 42 70 43 21 44
REMARK SMILES IDX 73 45 67 46 66 47 22 49 54 50 34 51 53 52 35 53 38 54 52 55
REMARK SMILES IDX 71 56 36 57 37 58 51 60 72 61 39 62 23 63 24 64 32 65 25 66
REMARK SMILES IDX 26 67 30 68 33 69 27 70 28 71 31 72 29 73 55 74 56 75 64 76
REMARK SMILES IDX 57 77 58 78 62 79 65 80 59 81 60 82 63 83 61 84 40 85 41 86
REMARK SMILES IDX 49 87 42 88 43 89 47 90 50 91 44 92 45 93 48 94 46 95
REMARK H PARENT 6 7 11 29 70 48 38 59
REMARK Flexibility Score: inf
ROOT
ATOM      1  C   UNL     1      -0.779   4.289  -3.967  1.00  0.00     0.023 C 
ENDROOT
BRANCH   1   2
ATOM      2  C   UNL     1       0.256   3.968  -2.900  1.00  0.00     0.023 C 
BRANCH   2   3
ATOM      3  C   UNL     1      -0.233   4.035  -1.464  1.00  0.00     0.116 C 
BRANCH   3   4
ATOM      4  N   UNL     1      -0.760   2.806  -0.923  1.00  0.00    -0.356 N 
ATOM      5  C   UNL     1      -0.690   2.433   0.392  1.00  0.00     0.226 C 
ATOM      6  O   UNL     1      -1.761   2.082   0.901  1.00  0.00    -0.274 OA
ATOM      7  H   UNL     1      -1.205   2.188  -1.547  1.00  0.00     0.163 HD
BRANCH   5   8
ATOM      8  C   UNL     1       0.652   2.217   1.151  1.00  0.00     0.052 C 
ATOM      9  C   UNL     1       0.452   2.638   2.647  1.00  0.00     0.038 C 
ATOM     10  C   UNL     1       1.938   2.861   0.593  1.00  0.00     0.038 C 
ATOM     11  C   UNL     1       0.659   4.137   2.901  1.00  0.00     0.119 C 
ATOM     12  C   UNL     1       2.163   4.317   0.984  1.00  0.00     0.119 C 
ATOM     13  N   UNL     1       1.990   4.476   2.418  1.00  0.00    -0.356 N 
BRANCH   8  14
ATOM     14  C   UNL     1       0.860   0.658   1.149  1.00  0.00     0.013 C 
ATOM     15  C   UNL     1       1.234   0.046  -0.199  1.00  0.00     0.005 C 
ENDBRANCH   8  14
BRANCH  13  16
ATOM     16  C   UNL     1       2.534   5.715   2.786  1.00  0.00     0.135 A 
ATOM     17  N   UNL     1       1.810   6.828   2.576  1.00  0.00    -0.219 NA
ATOM     18  C   UNL     1       3.888   5.753   3.117  1.00  0.00     0.016 A 
ATOM     19  C   UNL     1       2.472   7.988   2.677  1.00  0.00     0.224 A 
ATOM     20  C   UNL     1       4.464   7.010   3.208  1.00  0.00     0.049 A 
ATOM     21  C   UNL     1       4.655   4.488   3.397  1.00  0.00     0.041 C 
ATOM     22  N   UNL     1       3.771   8.142   2.970  1.00  0.00    -0.241 NA
ATOM     23  C   UNL     1       5.938   7.165   3.475  1.00  0.00     0.057 C 
ATOM     24  C   UNL     1       6.168   4.678   3.413  1.00  0.00     0.005 C 
ATOM     25  C   UNL     1       6.542   5.946   4.168  1.00  0.00     0.007 C 
ENDBRANCH  13  16
ENDBRANCH   5   8
ENDBRANCH   3   4
ENDBRANCH   2   3
ENDBRANCH   1   2
BRANCH   1  26
ATOM     26  C   UNL     1      -1.695   5.472  -3.685  1.00  0.00     0.116 C 
BRANCH  26  27
ATOM     27  N   UNL     1      -1.027   6.715  -3.312  1.00  0.00    -0.352 N 
ATOM     28  C   UNL     1      -1.438   8.006  -3.591  1.00  0.00     0.251 C 
ATOM     29  H   UNL     1      -0.189   6.624  -2.803  1.00  0.00     0.163 HD
ATOM     30  O   UNL     1      -0.806   8.976  -3.217  1.00  0.00    -0.269 OA
BRANCH  28  31
ATOM     31  C   UNL     1      -2.642   8.166  -4.433  1.00  0.00     0.039 A 
ATOM     32  C   UNL     1      -2.502   8.771  -5.683  1.00  0.00     0.014 A 
ATOM     33  C   UNL     1      -3.830   7.531  -4.068  1.00  0.00     0.014 A 
ATOM     34  C   UNL     1      -3.522   8.630  -6.624  1.00  0.00     0.010 A 
ATOM     35  C   UNL     1      -4.798   7.311  -5.037  1.00  0.00     0.010 A 
ATOM     36  C   UNL     1      -4.645   7.839  -6.330  1.00  0.00    -0.014 A 
BRANCH  36  37
ATOM     37  C   UNL     1      -5.665   7.527  -7.363  1.00  0.00     0.031 A 
ATOM     38  C   UNL     1      -7.090   7.950  -7.152  1.00  0.00     0.074 A 
ATOM     39  C   UNL     1      -5.332   6.784  -8.437  1.00  0.00     0.049 A 
ATOM     40  N   UNL     1      -8.150   7.681  -7.869  1.00  0.00    -0.248 NA
ATOM     41  C   UNL     1      -7.365   8.748  -5.947  1.00  0.00     0.031 C 
ATOM     42  C   UNL     1      -3.997   6.255  -8.726  1.00  0.00     0.029 A 
ATOM     43  N   UNL     1      -6.098   6.334  -9.485  1.00  0.00    -0.354 N 
ATOM     44  C   UNL     1      -9.216   8.250  -7.188  1.00  0.00     0.074 A 
ATOM     45  C   UNL     1      -8.686   8.825  -5.971  1.00  0.00     0.031 C 
ATOM     46  C   UNL     1      -4.030   5.585  -9.890  1.00  0.00     0.029 A 
ATOM     47  C   UNL     1      -5.393   5.604 -10.411  1.00  0.00     0.049 A 
ATOM     48  H   UNL     1      -7.061   6.517  -9.565  1.00  0.00     0.167 HD
ATOM     49  C   UNL     1     -10.517   8.316  -7.557  1.00  0.00     0.037 A 
ATOM     50  C   UNL     1      -5.803   5.019 -11.553  1.00  0.00     0.037 A 
ATOM     51  C   UNL     1     -11.034   7.786  -8.788  1.00  0.00     0.049 A 
ATOM     52  C   UNL     1      -7.248   5.127 -11.956  1.00  0.00     0.074 A 
ATOM     53  C   UNL     1     -12.321   7.862  -9.289  1.00  0.00     0.029 A 
ATOM     54  N   UNL     1     -10.281   7.085  -9.719  1.00  0.00    -0.354 N 
ATOM     55  N   UNL     1      -8.237   5.724 -11.335  1.00  0.00    -0.248 NA
ATOM     56  C   UNL     1      -7.635   4.483 -13.219  1.00  0.00     0.031 C 
ATOM     57  C   UNL     1     -12.354   7.181 -10.511  1.00  0.00     0.029 A 
ATOM     58  C   UNL     1     -11.079   6.713 -10.788  1.00  0.00     0.049 A 
ATOM     59  H   UNL     1      -9.322   6.882  -9.633  1.00  0.00     0.167 HD
ATOM     60  C   UNL     1      -9.352   5.554 -12.143  1.00  0.00     0.074 A 
ATOM     61  C   UNL     1      -8.918   4.805 -13.304  1.00  0.00     0.031 C 
ATOM     62  C   UNL     1     -10.623   5.980 -11.941  1.00  0.00     0.037 A 
BRANCH  49  63
ATOM     63  C   UNL     1     -11.460   9.003  -6.614  1.00  0.00     0.064 A 
ATOM     64  C   UNL     1     -11.405  10.390  -6.404  1.00  0.00     0.173 A 
ATOM     65  C   UNL     1     -12.425   8.270  -5.909  1.00  0.00     0.173 A 
ATOM     66  F   UNL     1     -10.489  11.134  -7.042  1.00  0.00    -0.203 F 
ATOM     67  C   UNL     1     -12.254  11.011  -5.492  1.00  0.00     0.198 A 
ATOM     68  C   UNL     1     -13.293   8.899  -5.021  1.00  0.00     0.198 A 
ATOM     69  F   UNL     1     -12.521   6.942  -6.075  1.00  0.00    -0.203 F 
ATOM     70  F   UNL     1     -12.139  12.326  -5.260  1.00  0.00    -0.200 F 
ATOM     71  C   UNL     1     -13.200  10.266  -4.805  1.00  0.00     0.200 A 
ATOM     72  F   UNL     1     -14.214   8.180  -4.364  1.00  0.00    -0.200 F 
ATOM     73  F   UNL     1     -14.014  10.864  -3.924  1.00  0.00    -0.200 F 
ENDBRANCH  49  63
BRANCH  50  74
ATOM     74  C   UNL     1      -4.823   4.319 -12.424  1.00  0.00     0.064 A 
ATOM     75  C   UNL     1      -4.429   4.882 -13.647  1.00  0.00     0.173 A 
ATOM     76  C   UNL     1      -4.262   3.087 -12.062  1.00  0.00     0.173 A 
ATOM     77  F   UNL     1      -4.955   6.049 -14.046  1.00  0.00    -0.203 F 
ATOM     78  C   UNL     1      -3.524   4.230 -14.482  1.00  0.00     0.198 A 
ATOM     79  C   UNL     1      -3.339   2.447 -12.887  1.00  0.00     0.198 A 
ATOM     80  F   UNL     1      -4.603   2.510 -10.900  1.00  0.00    -0.203 F 
ATOM     81  F   UNL     1      -3.194   4.772 -15.662  1.00  0.00    -0.200 F 
ATOM     82  C   UNL     1      -2.975   3.016 -14.098  1.00  0.00     0.200 A 
ATOM     83  F   UNL     1      -2.802   1.279 -12.509  1.00  0.00    -0.200 F 
ATOM     84  F   UNL     1      -2.101   2.391 -14.899  1.00  0.00    -0.200 F 
ENDBRANCH  50  74
BRANCH  62  85
ATOM     85  C   UNL     1     -11.627   5.681 -13.014  1.00  0.00     0.064 A 
ATOM     86  C   UNL     1     -12.146   4.391 -13.193  1.00  0.00     0.173 A 
ATOM     87  C   UNL     1     -12.111   6.709 -13.836  1.00  0.00     0.173 A 
ATOM     88  F   UNL     1     -11.701   3.374 -12.441  1.00  0.00    -0.203 F 
ATOM     89  C   UNL     1     -13.104   4.138 -14.171  1.00  0.00     0.198 A 
ATOM     90  C   UNL     1     -13.087   6.457 -14.796  1.00  0.00     0.198 A 
ATOM     91  F   UNL     1     -11.648   7.960 -13.699  1.00  0.00    -0.203 F 
ATOM     92  F   UNL     1     -13.561   2.891 -14.352  1.00  0.00    -0.200 F 
ATOM     93  C   UNL     1     -13.579   5.171 -14.966  1.00  0.00     0.200 A 
ATOM     94  F   UNL     1     -13.553   7.458 -15.556  1.00  0.00    -0.200 F 
ATOM     95  F   UNL     1     -14.508   4.926 -15.900  1.00  0.00    -0.200 F 
ENDBRANCH  62  85
ENDBRANCH  36  37
ENDBRANCH  28  31
ENDBRANCH  26  27
ENDBRANCH   1  26
TORSDOF 13
