REMARK SMILES O=C(NCCCCNC(=O)c1csc(CNc2ccc(-n3cccn3)nc2)c1)c1ccc(-c2c3nc(c(-c4c(F)c(F)c(F)c(F)c4F)c4ccc([nH]4)c(-c4c(F)c(F)c(F)c(F)c4F)c4nc(c(-c5c(F)c(F)c(F)c(F)c5F)c5ccc2[nH]5)C=C4)C=C3)cc1
REMARK SMILES IDX 6 1 5 2 4 3 3 4 1 5 2 6 29 8 30 9 91 10 31 11 90 12 32 13
REMARK SMILES IDX 33 14 34 15 84 16 35 17 89 18 83 19 85 20 36 21 88 22 82 23
REMARK SMILES IDX 81 24 37 26 69 27 49 28 68 29 50 30 53 31 67 32 86 33 51 34
REMARK SMILES IDX 52 35 66 37 87 38 54 39 38 40 39 41 47 42 40 43 41 44 45 45
REMARK SMILES IDX 48 46 42 47 43 48 46 49 44 50 70 51 71 52 79 53 72 54 73 55
REMARK SMILES IDX 77 56 80 57 74 58 75 59 78 60 76 61 55 62 56 63 64 64 57 65
REMARK SMILES IDX 58 66 62 67 65 68 59 69 60 70 63 71 61 72 7 73 8 74 9 75
REMARK SMILES IDX 10 77 11 78 12 79 28 80 13 81 14 82 15 83 16 84 17 86 18 87
REMARK SMILES IDX 27 88 19 89 26 90 20 91 21 92 22 93 25 94 23 95 24 96
REMARK H PARENT 3 7 85 25 53 36 8 76 16 85
REMARK Flexibility Score: inf
ROOT
ATOM      1  C   UNL     1       4.428   2.499  -2.370  1.00  0.00     0.023 C 
ENDROOT
BRANCH   1   2
ATOM      2  C   UNL     1       4.928   1.158  -1.816  1.00  0.00     0.023 C 
BRANCH   2   3
ATOM      3  C   UNL     1       4.620   0.901  -0.341  1.00  0.00     0.116 C 
BRANCH   3   4
ATOM      4  N   UNL     1       3.214   0.986  -0.006  1.00  0.00    -0.352 N 
ATOM      5  O   UNL     1       1.130   0.523   0.537  1.00  0.00    -0.269 OA
ATOM      6  C   UNL     1       2.168   0.106   0.017  1.00  0.00     0.251 C 
ATOM      7  H   UNL     1       2.948   1.893   0.272  1.00  0.00     0.163 HD
BRANCH   6   8
ATOM      8  C   UNL     1       2.167  -1.262  -0.573  1.00  0.00     0.039 A 
ATOM      9  C   UNL     1       3.262  -1.917  -1.137  1.00  0.00     0.014 A 
ATOM     10  C   UNL     1       0.917  -1.915  -0.590  1.00  0.00     0.014 A 
ATOM     11  C   UNL     1       3.100  -3.154  -1.763  1.00  0.00     0.010 A 
ATOM     12  C   UNL     1       0.751  -3.151  -1.205  1.00  0.00     0.010 A 
ATOM     13  C   UNL     1       1.840  -3.755  -1.825  1.00  0.00    -0.014 A 
BRANCH  13  14
ATOM     14  C   UNL     1       1.727  -5.074  -2.447  1.00  0.00     0.031 A 
ATOM     15  C   UNL     1       2.450  -6.177  -1.744  1.00  0.00     0.074 A 
ATOM     16  C   UNL     1       0.913  -5.335  -3.490  1.00  0.00     0.049 A 
ATOM     17  N   UNL     1       3.340  -6.992  -2.216  1.00  0.00    -0.248 NA
ATOM     18  C   UNL     1       2.189  -6.351  -0.306  1.00  0.00     0.031 C 
ATOM     19  C   UNL     1      -0.086  -4.454  -4.101  1.00  0.00     0.029 A 
ATOM     20  N   UNL     1       0.741  -6.507  -4.168  1.00  0.00    -0.354 N 
ATOM     21  C   UNL     1       3.651  -7.874  -1.180  1.00  0.00     0.074 A 
ATOM     22  C   UNL     1       2.994  -7.370  -0.003  1.00  0.00     0.031 C 
ATOM     23  C   UNL     1      -0.897  -5.184  -4.900  1.00  0.00     0.029 A 
ATOM     24  C   UNL     1      -0.397  -6.546  -4.962  1.00  0.00     0.049 A 
ATOM     25  H   UNL     1       1.370  -7.261  -4.099  1.00  0.00     0.167 HD
ATOM     26  C   UNL     1       4.288  -9.058  -1.405  1.00  0.00     0.037 A 
ATOM     27  C   UNL     1      -0.925  -7.637  -5.572  1.00  0.00     0.037 A 
ATOM     28  C   UNL     1       4.987  -9.050  -2.660  1.00  0.00     0.049 A 
ATOM     29  C   UNL     1       0.137  -8.669  -5.653  1.00  0.00     0.074 A 
ATOM     30  C   UNL     1       6.030  -8.315  -3.188  1.00  0.00     0.029 A 
ATOM     31  N   UNL     1       4.426  -9.705  -3.726  1.00  0.00    -0.354 N 
ATOM     32  N   UNL     1       1.195  -8.574  -6.407  1.00  0.00    -0.248 NA
ATOM     33  C   UNL     1       0.223  -9.633  -4.568  1.00  0.00     0.031 C 
ATOM     34  C   UNL     1       5.715  -8.171  -4.571  1.00  0.00     0.029 A 
ATOM     35  C   UNL     1       4.528  -8.865  -4.803  1.00  0.00     0.049 A 
ATOM     36  H   UNL     1       4.028 -10.605  -3.719  1.00  0.00     0.167 HD
ATOM     37  C   UNL     1       2.213  -9.136  -5.653  1.00  0.00     0.074 A 
ATOM     38  C   UNL     1       1.540  -9.852  -4.573  1.00  0.00     0.031 C 
ATOM     39  C   UNL     1       3.508  -8.739  -5.813  1.00  0.00     0.037 A 
BRANCH  26  40
ATOM     40  C   UNL     1       4.012 -10.341  -0.654  1.00  0.00     0.064 A 
ATOM     41  C   UNL     1       4.806 -11.478  -0.916  1.00  0.00     0.173 A 
ATOM     42  C   UNL     1       2.818 -10.587   0.056  1.00  0.00     0.173 A 
ATOM     43  F   UNL     1       5.962 -11.367  -1.589  1.00  0.00    -0.203 F 
ATOM     44  C   UNL     1       4.384 -12.768  -0.584  1.00  0.00     0.198 A 
ATOM     45  C   UNL     1       2.425 -11.871   0.431  1.00  0.00     0.198 A 
ATOM     46  F   UNL     1       1.933  -9.618   0.317  1.00  0.00    -0.203 F 
ATOM     47  F   UNL     1       5.106 -13.826  -0.977  1.00  0.00    -0.200 F 
ATOM     48  C   UNL     1       3.188 -12.965   0.079  1.00  0.00     0.200 A 
ATOM     49  F   UNL     1       1.255 -12.043   1.063  1.00  0.00    -0.200 F 
ATOM     50  F   UNL     1       2.746 -14.203   0.334  1.00  0.00    -0.200 F 
ENDBRANCH  26  40
BRANCH  27  51
ATOM     51  C   UNL     1      -2.354  -7.961  -5.793  1.00  0.00     0.064 A 
ATOM     52  C   UNL     1      -2.748  -8.939  -6.722  1.00  0.00     0.173 A 
ATOM     53  C   UNL     1      -3.344  -7.519  -4.894  1.00  0.00     0.173 A 
ATOM     54  F   UNL     1      -1.854  -9.452  -7.580  1.00  0.00    -0.203 F 
ATOM     55  C   UNL     1      -4.048  -9.455  -6.737  1.00  0.00     0.198 A 
ATOM     56  C   UNL     1      -4.642  -8.030  -4.914  1.00  0.00     0.198 A 
ATOM     57  F   UNL     1      -3.044  -6.655  -3.913  1.00  0.00    -0.203 F 
ATOM     58  F   UNL     1      -4.371 -10.431  -7.598  1.00  0.00    -0.200 F 
ATOM     59  C   UNL     1      -4.992  -9.007  -5.827  1.00  0.00     0.200 A 
ATOM     60  F   UNL     1      -5.533  -7.616  -4.001  1.00  0.00    -0.200 F 
ATOM     61  F   UNL     1      -6.219  -9.544  -5.801  1.00  0.00    -0.200 F 
ENDBRANCH  27  51
BRANCH  39  62
ATOM     62  C   UNL     1       3.841  -7.880  -6.998  1.00  0.00     0.064 A 
ATOM     63  C   UNL     1       3.343  -6.579  -7.183  1.00  0.00     0.173 A 
ATOM     64  C   UNL     1       4.831  -8.327  -7.882  1.00  0.00     0.173 A 
ATOM     65  F   UNL     1       2.469  -6.045  -6.321  1.00  0.00    -0.203 F 
ATOM     66  C   UNL     1       3.795  -5.777  -8.229  1.00  0.00     0.198 A 
ATOM     67  C   UNL     1       5.307  -7.510  -8.903  1.00  0.00     0.198 A 
ATOM     68  F   UNL     1       5.383  -9.539  -7.717  1.00  0.00    -0.203 F 
ATOM     69  F   UNL     1       3.305  -4.538  -8.386  1.00  0.00    -0.200 F 
ATOM     70  C   UNL     1       4.784  -6.239  -9.082  1.00  0.00     0.200 A 
ATOM     71  F   UNL     1       6.300  -7.942  -9.693  1.00  0.00    -0.200 F 
ATOM     72  F   UNL     1       5.256  -5.449 -10.055  1.00  0.00    -0.200 F 
ENDBRANCH  39  62
ENDBRANCH  13  14
ENDBRANCH   6   8
ENDBRANCH   3   4
ENDBRANCH   2   3
ENDBRANCH   1   2
BRANCH   1  73
ATOM     73  C   UNL     1       4.845   3.745  -1.589  1.00  0.00     0.116 C 
BRANCH  73  74
ATOM     74  N   UNL     1       6.286   3.923  -1.564  1.00  0.00    -0.352 N 
ATOM     75  C   UNL     1       7.049   4.973  -2.013  1.00  0.00     0.252 C 
ATOM     76  H   UNL     1       6.792   3.179  -1.165  1.00  0.00     0.163 HD
ATOM     77  O   UNL     1       8.265   4.824  -2.095  1.00  0.00    -0.269 OA
BRANCH  75  78
ATOM     78  C   UNL     1       6.404   6.220  -2.403  1.00  0.00     0.050 A 
ATOM     79  C   UNL     1       5.466   6.896  -1.645  1.00  0.00     0.079 A 
ATOM     80  C   UNL     1       6.725   6.968  -3.588  1.00  0.00     0.031 A 
ATOM     81  S   UNL     1       4.926   8.336  -2.384  1.00  0.00    -0.146 S 
ATOM     82  C   UNL     1       5.970   8.116  -3.725  1.00  0.00     0.024 A 
BRANCH  82  83
ATOM     83  C   UNL     1       5.965   9.113  -4.853  1.00  0.00     0.159 C 
BRANCH  83  84
ATOM     84  N   UNL     1       4.717   9.093  -5.605  1.00  0.00    -0.379 N 
ATOM     85  H   UNL     1       4.407   8.251  -6.009  1.00  0.00     0.160 HD
BRANCH  84  86
ATOM     86  C   UNL     1       3.962  10.243  -5.761  1.00  0.00     0.053 A 
ATOM     87  C   UNL     1       4.511  11.456  -6.167  1.00  0.00     0.031 A 
ATOM     88  C   UNL     1       2.602  10.260  -5.448  1.00  0.00     0.139 A 
ATOM     89  C   UNL     1       3.703  12.588  -6.307  1.00  0.00     0.051 A 
ATOM     90  N   UNL     1       1.798  11.347  -5.514  1.00  0.00    -0.235 NA
ATOM     91  C   UNL     1       2.353  12.497  -5.971  1.00  0.00     0.153 A 
BRANCH  91  92
ATOM     92  N   UNL     1       1.522  13.649  -6.118  1.00  0.00    -0.223 N 
ATOM     93  C   UNL     1       1.686  14.685  -7.021  1.00  0.00     0.117 A 
ATOM     94  N   UNL     1       0.426  13.851  -5.338  1.00  0.00    -0.175 NA
ATOM     95  C   UNL     1       0.687  15.595  -6.778  1.00  0.00     0.042 A 
ATOM     96  C   UNL     1      -0.034  15.047  -5.707  1.00  0.00     0.135 A 
ENDBRANCH  91  92
ENDBRANCH  84  86
ENDBRANCH  83  84
ENDBRANCH  82  83
ENDBRANCH  75  78
ENDBRANCH  73  74
ENDBRANCH   1  73
TORSDOF 15
