REMARK SMILES [NH3+]CC1([C@H](O)C(=O)NCCCCNC(=O)c2ccc(-c3c4nc(c(-c5c(F)c(F)c(F)c(F)c5F)c5ccc([nH]5)c(-c5c(F)c(F)c(F)c(F)c5F)c5nc(c(-c6c(F)c(F)c(F)c(F)c6F)c6ccc3[nH]6)C=C5)C=C4)cc2)Cc2ccccc2C1
REMARK SMILES IDX 10 1 9 2 8 3 6 4 7 5 4 7 3 8 79 9 86 10 80 11 85 12 81 13
REMARK SMILES IDX 84 14 82 15 83 16 2 17 1 18 5 22 11 24 12 25 13 26 14 27
REMARK SMILES IDX 15 29 16 30 17 31 78 32 18 33 77 34 19 35 20 36 21 37 71 38
REMARK SMILES IDX 22 39 76 40 70 41 72 42 23 43 75 44 69 45 68 46 24 48 56 49
REMARK SMILES IDX 36 50 55 51 37 52 40 53 54 54 73 55 38 56 39 57 53 59 74 60
REMARK SMILES IDX 41 61 25 62 26 63 34 64 27 65 28 66 32 67 35 68 29 69 30 70
REMARK SMILES IDX 33 71 31 72 57 73 58 74 66 75 59 76 60 77 64 78 67 79 61 80
REMARK SMILES IDX 62 81 65 82 63 83 42 84 43 85 51 86 44 87 45 88 49 89 52 90
REMARK SMILES IDX 46 91 47 92 50 93 48 94
REMARK H PARENT 8 6 1 19 1 20 1 21 5 23 13 28 72 47 40 58
REMARK Flexibility Score: inf
ROOT
ATOM      1  C   UNL     1      -0.599   2.685   1.255  1.00  0.00     0.023 C 
ENDROOT
BRANCH   1   2
ATOM      2  C   UNL     1      -0.893   1.758   0.082  1.00  0.00     0.116 C 
BRANCH   2   3
ATOM      3  N   UNL     1      -1.286   2.463  -1.128  1.00  0.00    -0.354 N 
ATOM      4  C   UNL     1      -1.178   2.064  -2.432  1.00  0.00     0.249 C 
ATOM      5  O   UNL     1      -1.860   2.659  -3.271  1.00  0.00    -0.272 OA
ATOM      6  H   UNL     1      -1.686   3.352  -0.989  1.00  0.00     0.163 HD
BRANCH   4   7
ATOM      7  C   UNL     1      -0.271   0.885  -2.849  1.00  0.00     0.215 C 
BRANCH   7   8
ATOM      8  C   UNL     1      -0.993  -0.508  -2.953  1.00  0.00     0.062 C 
ATOM      9  C   UNL     1       0.057  -1.674  -2.848  1.00  0.00     0.052 C 
ATOM     10  C   UNL     1      -1.637  -0.661  -4.375  1.00  0.00     0.052 C 
ATOM     11  C   UNL     1       0.294  -2.066  -4.268  1.00  0.00    -0.044 A 
ATOM     12  C   UNL     1      -0.652  -1.505  -5.121  1.00  0.00    -0.044 A 
ATOM     13  C   UNL     1       1.260  -2.942  -4.738  1.00  0.00     0.004 A 
ATOM     14  C   UNL     1      -0.655  -1.813  -6.472  1.00  0.00     0.004 A 
ATOM     15  C   UNL     1       1.268  -3.254  -6.097  1.00  0.00     0.000 A 
ATOM     16  C   UNL     1       0.315  -2.693  -6.959  1.00  0.00     0.000 A 
BRANCH   8  17
ATOM     17  C   UNL     1      -2.075  -0.776  -1.872  1.00  0.00     0.269 C 
BRANCH  17  18
ATOM     18  N   UNL     1      -3.319  -0.009  -1.936  1.00  0.00    -0.357 N 
ATOM     19  H   UNL     1      -3.931  -0.289  -1.169  1.00  0.00     0.344 HD
ATOM     20  H   UNL     1      -3.785  -0.190  -2.826  1.00  0.00     0.344 HD
ATOM     21  H   UNL     1      -3.110   0.986  -1.858  1.00  0.00     0.344 HD
ENDBRANCH  17  18
ENDBRANCH   8  17
ENDBRANCH   7   8
BRANCH   7  22
ATOM     22  O   UNL     1       0.911   0.841  -2.050  1.00  0.00    -0.382 OA
ATOM     23  H   UNL     1       0.672   0.658  -1.128  1.00  0.00     0.211 HD
ENDBRANCH   7  22
ENDBRANCH   4   7
ENDBRANCH   2   3
ENDBRANCH   1   2
BRANCH   1  24
ATOM     24  C   UNL     1      -1.810   3.446   1.796  1.00  0.00     0.023 C 
BRANCH  24  25
ATOM     25  C   UNL     1      -3.042   2.598   2.106  1.00  0.00     0.116 C 
BRANCH  25  26
ATOM     26  N   UNL     1      -2.784   1.537   3.070  1.00  0.00    -0.352 N 
ATOM     27  C   UNL     1      -3.396   1.273   4.272  1.00  0.00     0.251 C 
ATOM     28  H   UNL     1      -2.062   0.915   2.823  1.00  0.00     0.163 HD
ATOM     29  O   UNL     1      -2.965   0.394   5.008  1.00  0.00    -0.269 OA
BRANCH  27  30
ATOM     30  C   UNL     1      -4.556   2.084   4.697  1.00  0.00     0.039 A 
ATOM     31  C   UNL     1      -4.563   2.624   5.986  1.00  0.00     0.014 A 
ATOM     32  C   UNL     1      -5.616   2.334   3.822  1.00  0.00     0.014 A 
ATOM     33  C   UNL     1      -5.588   3.493   6.365  1.00  0.00     0.010 A 
ATOM     34  C   UNL     1      -6.596   3.258   4.174  1.00  0.00     0.010 A 
ATOM     35  C   UNL     1      -6.586   3.855   5.445  1.00  0.00    -0.014 A 
BRANCH  35  36
ATOM     36  C   UNL     1      -7.609   4.876   5.784  1.00  0.00     0.031 A 
ATOM     37  C   UNL     1      -9.063   4.502   5.845  1.00  0.00     0.074 A 
ATOM     38  C   UNL     1      -7.234   6.158   5.962  1.00  0.00     0.049 A 
ATOM     39  N   UNL     1     -10.106   5.266   6.052  1.00  0.00    -0.248 NA
ATOM     40  C   UNL     1      -9.391   3.087   5.614  1.00  0.00     0.031 C 
ATOM     41  C   UNL     1      -5.862   6.658   5.872  1.00  0.00     0.029 A 
ATOM     42  N   UNL     1      -7.977   7.278   6.244  1.00  0.00    -0.354 N 
ATOM     43  C   UNL     1     -11.210   4.430   5.962  1.00  0.00     0.074 A 
ATOM     44  C   UNL     1     -10.716   3.111   5.631  1.00  0.00     0.031 C 
ATOM     45  C   UNL     1      -5.857   7.978   6.117  1.00  0.00     0.029 A 
ATOM     46  C   UNL     1      -7.228   8.424   6.345  1.00  0.00     0.049 A 
ATOM     47  H   UNL     1      -8.954   7.260   6.362  1.00  0.00     0.167 HD
ATOM     48  C   UNL     1     -12.516   4.731   6.159  1.00  0.00     0.037 A 
ATOM     49  C   UNL     1      -7.605   9.694   6.590  1.00  0.00     0.037 A 
ATOM     50  C   UNL     1     -13.003   6.037   6.516  1.00  0.00     0.049 A 
ATOM     51  C   UNL     1      -9.060   9.998   6.814  1.00  0.00     0.074 A 
ATOM     52  C   UNL     1     -14.300   6.426   6.803  1.00  0.00     0.029 A 
ATOM     53  N   UNL     1     -12.211   7.169   6.634  1.00  0.00    -0.354 N 
ATOM     54  N   UNL     1     -10.088   9.185   6.797  1.00  0.00    -0.248 NA
ATOM     55  C   UNL     1      -9.408  11.398   7.098  1.00  0.00     0.031 C 
ATOM     56  C   UNL     1     -14.299   7.802   7.057  1.00  0.00     0.029 A 
ATOM     57  C   UNL     1     -12.995   8.261   6.971  1.00  0.00     0.049 A 
ATOM     58  H   UNL     1     -11.236   7.193   6.499  1.00  0.00     0.167 HD
ATOM     59  C   UNL     1     -11.197   9.966   7.091  1.00  0.00     0.074 A 
ATOM     60  C   UNL     1     -10.715  11.316   7.298  1.00  0.00     0.031 C 
ATOM     61  C   UNL     1     -12.499   9.598   7.179  1.00  0.00     0.037 A 
BRANCH  48  62
ATOM     62  C   UNL     1     -13.513   3.620   6.001  1.00  0.00     0.064 A 
ATOM     63  C   UNL     1     -13.599   2.573   6.931  1.00  0.00     0.173 A 
ATOM     64  C   UNL     1     -14.415   3.619   4.926  1.00  0.00     0.173 A 
ATOM     65  F   UNL     1     -12.751   2.523   7.970  1.00  0.00    -0.203 F 
ATOM     66  C   UNL     1     -14.532   1.552   6.777  1.00  0.00     0.198 A 
ATOM     67  C   UNL     1     -15.366   2.611   4.791  1.00  0.00     0.198 A 
ATOM     68  F   UNL     1     -14.379   4.599   4.011  1.00  0.00    -0.203 F 
ATOM     69  F   UNL     1     -14.563   0.538   7.652  1.00  0.00    -0.200 F 
ATOM     70  C   UNL     1     -15.418   1.575   5.711  1.00  0.00     0.200 A 
ATOM     71  F   UNL     1     -16.230   2.640   3.767  1.00  0.00    -0.200 F 
ATOM     72  F   UNL     1     -16.320   0.594   5.567  1.00  0.00    -0.200 F 
ENDBRANCH  48  62
BRANCH  49  73
ATOM     73  C   UNL     1      -6.583  10.769   6.667  1.00  0.00     0.064 A 
ATOM     74  C   UNL     1      -6.264  11.370   7.893  1.00  0.00     0.173 A 
ATOM     75  C   UNL     1      -5.909  11.221   5.523  1.00  0.00     0.173 A 
ATOM     76  F   UNL     1      -6.898  10.986   9.010  1.00  0.00    -0.203 F 
ATOM     77  C   UNL     1      -5.323  12.394   7.969  1.00  0.00     0.198 A 
ATOM     78  C   UNL     1      -4.949  12.227   5.605  1.00  0.00     0.198 A 
ATOM     79  F   UNL     1      -6.175  10.675   4.327  1.00  0.00    -0.203 F 
ATOM     80  F   UNL     1      -5.069  12.980   9.147  1.00  0.00    -0.200 F 
ATOM     81  C   UNL     1      -4.663  12.819   6.826  1.00  0.00     0.200 A 
ATOM     82  F   UNL     1      -4.303  12.626   4.500  1.00  0.00    -0.200 F 
ATOM     83  F   UNL     1      -3.756  13.802   6.901  1.00  0.00    -0.200 F 
ENDBRANCH  49  73
BRANCH  61  84
ATOM     84  C   UNL     1     -13.490  10.663   7.544  1.00  0.00     0.064 A 
ATOM     85  C   UNL     1     -13.861  11.663   6.633  1.00  0.00     0.173 A 
ATOM     86  C   UNL     1     -14.101  10.662   8.807  1.00  0.00     0.173 A 
ATOM     87  F   UNL     1     -13.292  11.716   5.420  1.00  0.00    -0.203 F 
ATOM     88  C   UNL     1     -14.791  12.638   6.983  1.00  0.00     0.198 A 
ATOM     89  C   UNL     1     -15.051  11.623   9.143  1.00  0.00     0.198 A 
ATOM     90  F   UNL     1     -13.784   9.724   9.711  1.00  0.00    -0.203 F 
ATOM     91  F   UNL     1     -15.097  13.611   6.114  1.00  0.00    -0.200 F 
ATOM     92  C   UNL     1     -15.390  12.613   8.234  1.00  0.00     0.200 A 
ATOM     93  F   UNL     1     -15.637  11.590  10.347  1.00  0.00    -0.200 F 
ATOM     94  F   UNL     1     -16.289  13.550   8.566  1.00  0.00    -0.200 F 
ENDBRANCH  61  84
ENDBRANCH  35  36
ENDBRANCH  27  30
ENDBRANCH  25  26
ENDBRANCH  24  25
ENDBRANCH   1  24
TORSDOF 15
