REMARK SMILES C[C@H]1CCC[C@H](C)N1C(=O)[C@H]1[C@@H](C(=O)NCCCCNC(=O)c2ccc(-c3c4nc(c(-c5c(F)c(F)c(F)c(F)c5F)c5ccc([nH]5)c(-c5c(F)c(F)c(F)c(F)c5F)c5nc(c(-c6c(F)c(F)c(F)c(F)c6F)c6ccc3[nH]6)C=C5)C=C4)cc2)[C@H]2CC[C@@H]1O2
REMARK SMILES IDX 18 1 17 2 16 3 15 4 13 5 14 6 12 8 11 9 89 10 86 11 88 12
REMARK SMILES IDX 90 13 87 14 9 15 1 16 2 17 3 18 8 19 4 20 6 21 5 22 7 23
REMARK SMILES IDX 10 24 19 25 20 26 21 27 22 29 23 30 24 31 85 32 25 33 84 34
REMARK SMILES IDX 26 35 27 36 28 37 78 38 29 39 83 40 77 41 79 42 30 43 82 44
REMARK SMILES IDX 76 45 75 46 31 48 63 49 43 50 62 51 44 52 47 53 61 54 80 55
REMARK SMILES IDX 45 56 46 57 60 59 81 60 48 61 32 62 33 63 41 64 34 65 35 66
REMARK SMILES IDX 39 67 42 68 36 69 37 70 40 71 38 72 64 73 65 74 73 75 66 76
REMARK SMILES IDX 67 77 71 78 74 79 68 80 69 81 72 82 70 83 49 84 50 85 58 86
REMARK SMILES IDX 51 87 52 88 56 89 59 90 53 91 54 92 57 93 55 94
REMARK H PARENT 15 7 20 28 79 47 47 58
REMARK Flexibility Score: inf
ROOT
ATOM      1  C   UNL     1       2.996   2.518   1.820  1.00  0.00     0.023 C 
ENDROOT
BRANCH   1   2
ATOM      2  C   UNL     1       2.743   1.016   1.699  1.00  0.00     0.023 C 
BRANCH   2   3
ATOM      3  C   UNL     1       2.650   0.261   3.026  1.00  0.00     0.116 C 
BRANCH   3   4
ATOM      4  N   UNL     1       1.645   0.790   3.939  1.00  0.00    -0.356 N 
ATOM      5  C   UNL     1       0.494   0.233   4.433  1.00  0.00     0.226 C 
ATOM      6  O   UNL     1      -0.038   0.791   5.389  1.00  0.00    -0.275 OA
ATOM      7  H   UNL     1       1.823   1.704   4.256  1.00  0.00     0.163 HD
BRANCH   5   8
ATOM      8  C   UNL     1      -0.080  -1.018   3.795  1.00  0.00     0.122 C 
ATOM      9  C   UNL     1      -1.454  -0.966   3.142  1.00  0.00     0.122 C 
ATOM     10  C   UNL     1      -1.926  -2.409   3.393  1.00  0.00     0.132 C 
ATOM     11  C   UNL     1      -0.157  -2.250   4.730  1.00  0.00     0.132 C 
ATOM     12  C   UNL     1      -2.607  -2.775   4.675  1.00  0.00     0.035 C 
ATOM     13  O   UNL     1      -0.647  -3.080   3.693  1.00  0.00    -0.373 OA
ATOM     14  C   UNL     1      -1.411  -2.792   5.596  1.00  0.00     0.035 C 
BRANCH   9  15
ATOM     15  C   UNL     1      -2.349   0.213   3.516  1.00  0.00     0.229 C 
ATOM     16  C   UNL     1      -0.705   0.969   0.885  1.00  0.00     0.031 C 
ATOM     17  C   UNL     1      -1.083   1.947   2.002  1.00  0.00     0.082 C 
ATOM     18  C   UNL     1      -1.431   3.251   1.242  1.00  0.00     0.025 C 
ATOM     19  N   UNL     1      -2.148   1.498   2.958  1.00  0.00    -0.337 N 
ATOM     20  C   UNL     1      -2.032   4.339   2.099  1.00  0.00     0.004 C 
ATOM     21  C   UNL     1      -2.874   2.581   3.684  1.00  0.00     0.082 C 
ATOM     22  C   UNL     1      -3.248   3.769   2.796  1.00  0.00     0.025 C 
ATOM     23  C   UNL     1      -2.088   3.053   4.918  1.00  0.00     0.031 C 
ATOM     24  O   UNL     1      -3.272   0.022   4.314  1.00  0.00    -0.274 OA
ENDBRANCH   9  15
ENDBRANCH   5   8
ENDBRANCH   3   4
ENDBRANCH   2   3
ENDBRANCH   1   2
BRANCH   1  25
ATOM     25  C   UNL     1       4.285   2.856   2.551  1.00  0.00     0.116 C 
BRANCH  25  26
ATOM     26  N   UNL     1       5.439   2.224   1.928  1.00  0.00    -0.352 N 
ATOM     27  C   UNL     1       6.610   2.797   1.492  1.00  0.00     0.251 C 
ATOM     28  H   UNL     1       5.372   1.250   1.801  1.00  0.00     0.163 HD
ATOM     29  O   UNL     1       7.370   2.187   0.764  1.00  0.00    -0.269 OA
BRANCH  27  30
ATOM     30  C   UNL     1       6.922   4.171   1.928  1.00  0.00     0.039 A 
ATOM     31  C   UNL     1       7.428   5.086   1.004  1.00  0.00     0.014 A 
ATOM     32  C   UNL     1       6.691   4.545   3.254  1.00  0.00     0.014 A 
ATOM     33  C   UNL     1       7.655   6.401   1.406  1.00  0.00     0.010 A 
ATOM     34  C   UNL     1       6.816   5.873   3.622  1.00  0.00     0.010 A 
ATOM     35  C   UNL     1       7.320   6.809   2.708  1.00  0.00    -0.014 A 
BRANCH  35  36
ATOM     36  C   UNL     1       7.514   8.205   3.157  1.00  0.00     0.031 A 
ATOM     37  C   UNL     1       8.456   8.492   4.292  1.00  0.00     0.074 A 
ATOM     38  C   UNL     1       6.785   9.189   2.598  1.00  0.00     0.049 A 
ATOM     39  N   UNL     1       8.700   9.624   4.899  1.00  0.00    -0.248 NA
ATOM     40  C   UNL     1       9.191   7.344   4.850  1.00  0.00     0.031 C 
ATOM     41  C   UNL     1       5.800   9.009   1.530  1.00  0.00     0.029 A 
ATOM     42  N   UNL     1       6.751  10.534   2.858  1.00  0.00    -0.354 N 
ATOM     43  C   UNL     1       9.598   9.320   5.913  1.00  0.00     0.074 A 
ATOM     44  C   UNL     1       9.800   7.889   5.890  1.00  0.00     0.031 C 
ATOM     45  C   UNL     1       5.280  10.204   1.206  1.00  0.00     0.029 A 
ATOM     46  C   UNL     1       5.862  11.224   2.071  1.00  0.00     0.049 A 
ATOM     47  H   UNL     1       7.311  10.965   3.544  1.00  0.00     0.167 HD
ATOM     48  C   UNL     1      10.222  10.165   6.766  1.00  0.00     0.037 A 
ATOM     49  C   UNL     1       5.550  12.534   2.060  1.00  0.00     0.037 A 
ATOM     50  C   UNL     1      10.031  11.590   6.756  1.00  0.00     0.049 A 
ATOM     51  C   UNL     1       6.255  13.453   3.021  1.00  0.00     0.074 A 
ATOM     52  C   UNL     1      10.658  12.550   7.529  1.00  0.00     0.029 A 
ATOM     53  N   UNL     1       9.142  12.258   5.926  1.00  0.00    -0.354 N 
ATOM     54  N   UNL     1       7.162  13.167   3.925  1.00  0.00    -0.248 NA
ATOM     55  C   UNL     1       5.901  14.876   2.957  1.00  0.00     0.031 C 
ATOM     56  C   UNL     1      10.106  13.793   7.207  1.00  0.00     0.029 A 
ATOM     57  C   UNL     1       9.184  13.617   6.186  1.00  0.00     0.049 A 
ATOM     58  H   UNL     1       8.566  11.830   5.252  1.00  0.00     0.167 HD
ATOM     59  C   UNL     1       7.512  14.375   4.511  1.00  0.00     0.074 A 
ATOM     60  C   UNL     1       6.726  15.399   3.854  1.00  0.00     0.031 C 
ATOM     61  C   UNL     1       8.403  14.617   5.504  1.00  0.00     0.037 A 
BRANCH  48  62
ATOM     62  C   UNL     1      11.166   9.571   7.772  1.00  0.00     0.064 A 
ATOM     63  C   UNL     1      12.376   8.973   7.385  1.00  0.00     0.173 A 
ATOM     64  C   UNL     1      10.874   9.626   9.143  1.00  0.00     0.173 A 
ATOM     65  F   UNL     1      12.700   8.881   6.086  1.00  0.00    -0.203 F 
ATOM     66  C   UNL     1      13.239   8.422   8.329  1.00  0.00     0.198 A 
ATOM     67  C   UNL     1      11.757   9.107  10.086  1.00  0.00     0.198 A 
ATOM     68  F   UNL     1       9.734  10.189   9.570  1.00  0.00    -0.203 F 
ATOM     69  F   UNL     1      14.360   7.804   7.929  1.00  0.00    -0.200 F 
ATOM     70  C   UNL     1      12.933   8.497   9.679  1.00  0.00     0.200 A 
ATOM     71  F   UNL     1      11.466   9.193  11.392  1.00  0.00    -0.200 F 
ATOM     72  F   UNL     1      13.769   7.975  10.587  1.00  0.00    -0.200 F 
ENDBRANCH  48  62
BRANCH  49  73
ATOM     73  C   UNL     1       4.549  13.053   1.091  1.00  0.00     0.064 A 
ATOM     74  C   UNL     1       4.934  13.900   0.043  1.00  0.00     0.173 A 
ATOM     75  C   UNL     1       3.192  12.713   1.188  1.00  0.00     0.173 A 
ATOM     76  F   UNL     1       6.218  14.265  -0.085  1.00  0.00    -0.203 F 
ATOM     77  C   UNL     1       3.997  14.410  -0.854  1.00  0.00     0.198 A 
ATOM     78  C   UNL     1       2.260  13.197   0.271  1.00  0.00     0.198 A 
ATOM     79  F   UNL     1       2.771  11.896   2.164  1.00  0.00    -0.203 F 
ATOM     80  F   UNL     1       4.387  15.257  -1.816  1.00  0.00    -0.200 F 
ATOM     81  C   UNL     1       2.662  14.053  -0.743  1.00  0.00     0.200 A 
ATOM     82  F   UNL     1       0.975  12.834   0.370  1.00  0.00    -0.200 F 
ATOM     83  F   UNL     1       1.762  14.539  -1.609  1.00  0.00    -0.200 F 
ENDBRANCH  49  73
BRANCH  61  84
ATOM     84  C   UNL     1       8.615  16.047   5.908  1.00  0.00     0.064 A 
ATOM     85  C   UNL     1       7.646  16.765   6.622  1.00  0.00     0.173 A 
ATOM     86  C   UNL     1       9.836  16.683   5.632  1.00  0.00     0.173 A 
ATOM     87  F   UNL     1       6.458  16.206   6.898  1.00  0.00    -0.203 F 
ATOM     88  C   UNL     1       7.884  18.075   7.029  1.00  0.00     0.198 A 
ATOM     89  C   UNL     1      10.083  17.979   6.071  1.00  0.00     0.198 A 
ATOM     90  F   UNL     1      10.799  16.035   4.958  1.00  0.00    -0.203 F 
ATOM     91  F   UNL     1       6.928  18.757   7.674  1.00  0.00    -0.200 F 
ATOM     92  C   UNL     1       9.105  18.676   6.763  1.00  0.00     0.200 A 
ATOM     93  F   UNL     1      11.271  18.552   5.829  1.00  0.00    -0.200 F 
ATOM     94  F   UNL     1       9.338  19.931   7.171  1.00  0.00    -0.200 F 
ENDBRANCH  61  84
ENDBRANCH  35  36
ENDBRANCH  27  30
ENDBRANCH  25  26
ENDBRANCH   1  25
TORSDOF 12
