REMARK SMILES CC1(C)CCC[C@@H]1Nc1nc2c(cc1C(=O)NCCCCNC(=O)c1ccc(-c3c4nc(c(-c5c(F)c(F)c(F)c(F)c5F)c5ccc([nH]5)c(-c5c(F)c(F)c(F)c(F)c5F)c5nc(c(-c6c(F)c(F)c(F)c(F)c6F)c6ccc3[nH]6)C=C5)C=C4)cc1)CCC2
REMARK SMILES IDX 19 1 18 2 17 3 15 4 16 5 14 7 9 8 10 9 11 10 13 11 12 12
REMARK SMILES IDX 90 13 88 14 89 15 8 16 7 18 1 19 2 20 3 21 4 22 5 23 6 24
REMARK SMILES IDX 20 25 21 26 22 27 23 28 24 30 25 31 26 32 87 33 27 34 86 35
REMARK SMILES IDX 28 36 29 37 30 38 80 39 31 40 85 41 79 42 81 43 32 44 84 45
REMARK SMILES IDX 78 46 77 47 33 49 65 50 45 51 64 52 46 53 49 54 63 55 82 56
REMARK SMILES IDX 47 57 48 58 62 60 83 61 50 62 34 63 35 64 43 65 36 66 37 67
REMARK SMILES IDX 41 68 44 69 38 70 39 71 42 72 40 73 66 74 67 75 75 76 68 77
REMARK SMILES IDX 69 78 73 79 76 80 70 81 71 82 74 83 72 84 51 85 52 86 60 87
REMARK SMILES IDX 53 88 54 89 58 90 61 91 55 92 56 93 59 94 57 95
REMARK H PARENT 17 6 8 17 22 29 81 48 49 59
REMARK Flexibility Score: inf
ROOT
ATOM      1  C   UNL     1       3.068   2.313   1.841  1.00  0.00     0.023 C 
ENDROOT
BRANCH   1   2
ATOM      2  C   UNL     1       1.650   2.483   1.308  1.00  0.00     0.116 C 
BRANCH   2   3
ATOM      3  N   UNL     1       0.678   3.110   2.163  1.00  0.00    -0.352 N 
ATOM      4  C   UNL     1      -0.533   3.690   1.835  1.00  0.00     0.255 C 
ATOM      5  O   UNL     1      -1.301   3.901   2.780  1.00  0.00    -0.269 OA
ATOM      6  H   UNL     1       0.909   3.129   3.120  1.00  0.00     0.163 HD
BRANCH   4   7
ATOM      7  C   UNL     1      -0.930   4.214   0.487  1.00  0.00     0.082 A 
ATOM      8  C   UNL     1      -0.857   3.626  -0.788  1.00  0.00     0.139 A 
ATOM      9  N   UNL     1      -1.233   4.290  -1.919  1.00  0.00    -0.235 NA
ATOM     10  C   UNL     1      -1.765   5.506  -1.792  1.00  0.00     0.046 A 
ATOM     11  C   UNL     1      -1.516   5.509   0.561  1.00  0.00     0.023 A 
ATOM     12  C   UNL     1      -1.942   6.147  -0.590  1.00  0.00    -0.025 A 
ATOM     13  C   UNL     1      -2.334   6.289  -2.936  1.00  0.00     0.057 C 
ATOM     14  C   UNL     1      -2.662   7.439  -0.780  1.00  0.00     0.038 C 
ATOM     15  C   UNL     1      -2.474   7.673  -2.291  1.00  0.00     0.011 C 
BRANCH   8  16
ATOM     16  N   UNL     1      -0.475   2.393  -1.198  1.00  0.00    -0.366 N 
ATOM     17  H   UNL     1       0.042   2.378  -2.036  1.00  0.00     0.162 HD
BRANCH  16  18
ATOM     18  C   UNL     1      -0.700   1.111  -0.610  1.00  0.00     0.086 C 
ATOM     19  C   UNL     1       1.590   0.235  -1.423  1.00  0.00     0.013 C 
ATOM     20  C   UNL     1       0.075   0.011  -1.389  1.00  0.00    -0.015 C 
ATOM     21  C   UNL     1      -0.329  -0.169  -2.872  1.00  0.00     0.013 C 
ATOM     22  C   UNL     1      -0.421  -1.201  -0.586  1.00  0.00     0.008 C 
ATOM     23  C   UNL     1      -1.934  -0.931  -0.413  1.00  0.00     0.003 C 
ATOM     24  C   UNL     1      -2.128   0.588  -0.606  1.00  0.00     0.025 C 
ENDBRANCH  16  18
ENDBRANCH   8  16
ENDBRANCH   4   7
ENDBRANCH   2   3
ENDBRANCH   1   2
BRANCH   1  25
ATOM     25  C   UNL     1       3.352   1.185   2.853  1.00  0.00     0.023 C 
BRANCH  25  26
ATOM     26  C   UNL     1       2.548  -0.120   2.804  1.00  0.00     0.116 C 
BRANCH  26  27
ATOM     27  N   UNL     1       2.706  -0.892   1.579  1.00  0.00    -0.352 N 
ATOM     28  C   UNL     1       3.227  -2.139   1.328  1.00  0.00     0.251 C 
ATOM     29  H   UNL     1       2.374  -0.432   0.775  1.00  0.00     0.163 HD
ATOM     30  O   UNL     1       3.305  -2.578   0.196  1.00  0.00    -0.269 OA
BRANCH  28  31
ATOM     31  C   UNL     1       3.698  -2.937   2.462  1.00  0.00     0.039 A 
ATOM     32  C   UNL     1       5.027  -3.365   2.486  1.00  0.00     0.014 A 
ATOM     33  C   UNL     1       2.825  -3.188   3.519  1.00  0.00     0.014 A 
ATOM     34  C   UNL     1       5.520  -3.954   3.645  1.00  0.00     0.010 A 
ATOM     35  C   UNL     1       3.334  -3.710   4.693  1.00  0.00     0.010 A 
ATOM     36  C   UNL     1       4.686  -4.077   4.766  1.00  0.00    -0.014 A 
BRANCH  36  37
ATOM     37  C   UNL     1       5.203  -4.565   6.057  1.00  0.00     0.031 A 
ATOM     38  C   UNL     1       4.713  -5.873   6.590  1.00  0.00     0.074 A 
ATOM     39  C   UNL     1       6.002  -3.762   6.782  1.00  0.00     0.049 A 
ATOM     40  N   UNL     1       4.938  -6.428   7.750  1.00  0.00    -0.248 NA
ATOM     41  C   UNL     1       3.811  -6.640   5.714  1.00  0.00     0.031 C 
ATOM     42  C   UNL     1       6.467  -2.436   6.366  1.00  0.00     0.029 A 
ATOM     43  N   UNL     1       6.544  -3.930   8.027  1.00  0.00    -0.354 N 
ATOM     44  C   UNL     1       4.194  -7.598   7.750  1.00  0.00     0.074 A 
ATOM     45  C   UNL     1       3.464  -7.646   6.502  1.00  0.00     0.031 C 
ATOM     46  C   UNL     1       7.240  -1.919   7.334  1.00  0.00     0.029 A 
ATOM     47  C   UNL     1       7.301  -2.864   8.444  1.00  0.00     0.049 A 
ATOM     48  H   UNL     1       6.405  -4.739   8.572  1.00  0.00     0.167 HD
ATOM     49  C   UNL     1       4.151  -8.558   8.702  1.00  0.00     0.037 A 
ATOM     50  C   UNL     1       7.969  -2.679   9.597  1.00  0.00     0.037 A 
ATOM     51  C   UNL     1       4.907  -8.497   9.922  1.00  0.00     0.049 A 
ATOM     52  C   UNL     1       7.933  -3.772  10.627  1.00  0.00     0.074 A 
ATOM     53  C   UNL     1       5.003  -9.438  10.928  1.00  0.00     0.029 A 
ATOM     54  N   UNL     1       5.703  -7.421  10.297  1.00  0.00    -0.354 N 
ATOM     55  N   UNL     1       7.289  -4.915  10.592  1.00  0.00    -0.248 NA
ATOM     56  C   UNL     1       8.717  -3.560  11.849  1.00  0.00     0.031 C 
ATOM     57  C   UNL     1       5.832  -8.919  11.929  1.00  0.00     0.029 A 
ATOM     58  C   UNL     1       6.282  -7.669  11.528  1.00  0.00     0.049 A 
ATOM     59  H   UNL     1       5.835  -6.604   9.765  1.00  0.00     0.167 HD
ATOM     60  C   UNL     1       7.598  -5.566  11.776  1.00  0.00     0.074 A 
ATOM     61  C   UNL     1       8.502  -4.694  12.503  1.00  0.00     0.031 C 
ATOM     62  C   UNL     1       7.174  -6.773  12.224  1.00  0.00     0.037 A 
BRANCH  49  63
ATOM     63  C   UNL     1       3.269  -9.743   8.443  1.00  0.00     0.064 A 
ATOM     64  C   UNL     1       3.576 -10.679   7.442  1.00  0.00     0.173 A 
ATOM     65  C   UNL     1       2.102  -9.944   9.193  1.00  0.00     0.173 A 
ATOM     66  F   UNL     1       4.671 -10.522   6.684  1.00  0.00    -0.203 F 
ATOM     67  C   UNL     1       2.728 -11.752   7.179  1.00  0.00     0.198 A 
ATOM     68  C   UNL     1       1.272 -11.035   8.947  1.00  0.00     0.198 A 
ATOM     69  F   UNL     1       1.761  -9.080  10.160  1.00  0.00    -0.203 F 
ATOM     70  F   UNL     1       3.012 -12.597   6.178  1.00  0.00    -0.200 F 
ATOM     71  C   UNL     1       1.580 -11.932   7.934  1.00  0.00     0.200 A 
ATOM     72  F   UNL     1       0.165 -11.213   9.682  1.00  0.00    -0.200 F 
ATOM     73  F   UNL     1       0.764 -12.963   7.678  1.00  0.00    -0.200 F 
ENDBRANCH  49  63
BRANCH  50  74
ATOM     74  C   UNL     1       8.767  -1.443   9.787  1.00  0.00     0.064 A 
ATOM     75  C   UNL     1      10.165  -1.477   9.689  1.00  0.00     0.173 A 
ATOM     76  C   UNL     1       8.157  -0.198   9.995  1.00  0.00     0.173 A 
ATOM     77  F   UNL     1      10.793  -2.647   9.501  1.00  0.00    -0.203 F 
ATOM     78  C   UNL     1      10.922  -0.312   9.790  1.00  0.00     0.198 A 
ATOM     79  C   UNL     1       8.914   0.970  10.077  1.00  0.00     0.198 A 
ATOM     80  F   UNL     1       6.821  -0.111  10.083  1.00  0.00    -0.203 F 
ATOM     81  F   UNL     1      12.258  -0.375   9.703  1.00  0.00    -0.200 F 
ATOM     82  C   UNL     1      10.296   0.911   9.975  1.00  0.00     0.200 A 
ATOM     83  F   UNL     1       8.305   2.152  10.238  1.00  0.00    -0.200 F 
ATOM     84  F   UNL     1      11.024   2.034  10.051  1.00  0.00    -0.200 F 
ENDBRANCH  50  74
BRANCH  62  85
ATOM     85  C   UNL     1       7.680  -7.223  13.559  1.00  0.00     0.064 A 
ATOM     86  C   UNL     1       7.173  -6.682  14.748  1.00  0.00     0.173 A 
ATOM     87  C   UNL     1       8.616  -8.264  13.650  1.00  0.00     0.173 A 
ATOM     88  F   UNL     1       6.286  -5.676  14.707  1.00  0.00    -0.203 F 
ATOM     89  C   UNL     1       7.590  -7.164  15.985  1.00  0.00     0.198 A 
ATOM     90  C   UNL     1       9.012  -8.760  14.888  1.00  0.00     0.198 A 
ATOM     91  F   UNL     1       9.123  -8.816  12.538  1.00  0.00    -0.203 F 
ATOM     92  F   UNL     1       7.111  -6.617  17.111  1.00  0.00    -0.200 F 
ATOM     93  C   UNL     1       8.500  -8.209  16.053  1.00  0.00     0.200 A 
ATOM     94  F   UNL     1       9.881  -9.778  14.953  1.00  0.00    -0.200 F 
ATOM     95  F   UNL     1       8.886  -8.684  17.245  1.00  0.00    -0.200 F 
ENDBRANCH  62  85
ENDBRANCH  36  37
ENDBRANCH  28  31
ENDBRANCH  26  27
ENDBRANCH  25  26
ENDBRANCH   1  25
TORSDOF 13
