REMARK SMILES O=C(CCc1cc2n(n1)CCCN(S(=O)(=O)CCC(F)(F)F)C2)NCCCCNC(=O)c1ccc(-c2c3nc(c(-c4c(F)c(F)c(F)c(F)c4F)c4ccc([nH]4)c(-c4c(F)c(F)c(F)c(F)c4F)c4nc(c(-c5c(F)c(F)c(F)c(F)c5F)c5ccc2[nH]5)C=C4)C=C3)cc1
REMARK SMILES IDX 1 1 2 2 24 3 3 5 4 6 5 7 6 8 9 9 7 10 8 11 23 12 13 13 12 14
REMARK SMILES IDX 14 16 15 17 16 18 17 19 18 20 19 21 20 22 21 23 22 24 10 25
REMARK SMILES IDX 11 26 25 28 26 29 27 30 28 31 29 32 30 33 31 35 32 36 33 37
REMARK SMILES IDX 94 38 34 39 93 40 35 41 36 42 37 43 87 44 38 45 92 46 86 47
REMARK SMILES IDX 88 48 39 49 91 50 85 51 84 52 40 54 72 55 52 56 71 57 53 58
REMARK SMILES IDX 56 59 70 60 89 61 54 62 55 63 69 65 90 66 57 67 41 68 42 69
REMARK SMILES IDX 50 70 43 71 44 72 48 73 51 74 45 75 46 76 49 77 47 78 73 79
REMARK SMILES IDX 74 80 82 81 75 82 76 83 80 84 83 85 77 86 78 87 81 88 79 89
REMARK SMILES IDX 58 90 59 91 67 92 60 93 61 94 65 95 68 96 62 97 63 98 66 99
REMARK SMILES IDX 64 100
REMARK H PARENT 24 4 29 34 88 53 56 64
REMARK Flexibility Score: 90.00
ROOT
ATOM      1  O   UNL     1       0.628   0.294  -0.055  1.00  0.00    -0.275 OA
ATOM      2  C   UNL     1       1.821   0.057   0.121  1.00  0.00     0.220 C 
ATOM      3  N   UNL     1       2.483   0.352   1.297  1.00  0.00    -0.356 N 
ATOM      4  H   UNL     1       3.429   0.097   1.392  1.00  0.00     0.163 HD
ENDROOT
BRANCH   2   5
ATOM      5  C   UNL     1       2.640  -0.632  -0.958  1.00  0.00     0.106 C 
BRANCH   5   6
ATOM      6  C   UNL     1       3.583   0.305  -1.704  1.00  0.00     0.068 C 
BRANCH   6   7
ATOM      7  C   UNL     1       4.855   0.582  -0.975  1.00  0.00     0.063 A 
ATOM      8  C   UNL     1       5.728  -0.311  -0.301  1.00  0.00     0.050 A 
ATOM      9  N   UNL     1       5.271   1.844  -0.860  1.00  0.00    -0.178 NA
ATOM     10  C   UNL     1       6.663   0.494   0.315  1.00  0.00     0.054 A 
ATOM     11  N   UNL     1       6.392   1.754  -0.138  1.00  0.00    -0.268 N 
BRANCH  10  12
ATOM     12  C   UNL     1       7.749   0.228   1.304  1.00  0.00     0.157 C 
BRANCH  12  13
ATOM     13  N   UNL     1       7.524   0.875   2.665  1.00  0.00    -0.196 NA
BRANCH  13  14
ATOM     14  C   UNL     1       6.351   1.793   2.748  1.00  0.00     0.104 CG0
ATOM     15  G   UNL     1       6.327   3.038   1.858  1.00  0.00     0.000 G0
ENDBRANCH  13  14
BRANCH  13  16
ATOM     16  S   UNL     1       7.570  -0.360   3.876  1.00  0.00     0.214 S 
ATOM     17  O   UNL     1       6.317  -1.089   3.732  1.00  0.00    -0.212 OA
ATOM     18  O   UNL     1       8.825  -1.052   3.755  1.00  0.00    -0.212 OA
BRANCH  16  19
ATOM     19  C   UNL     1       7.524   0.420   5.495  1.00  0.00     0.163 C 
BRANCH  19  20
ATOM     20  C   UNL     1       8.866   0.810   6.085  1.00  0.00     0.133 C 
BRANCH  20  21
ATOM     21  C   UNL     1       9.529   1.892   5.286  1.00  0.00     0.390 C 
ATOM     22  F   UNL     1       8.632   2.869   5.038  1.00  0.00    -0.171 F 
ATOM     23  F   UNL     1      10.553   2.441   5.968  1.00  0.00    -0.171 F 
ATOM     24  F   UNL     1      10.007   1.455   4.109  1.00  0.00    -0.171 F 
ENDBRANCH  20  21
ENDBRANCH  19  20
ENDBRANCH  16  19
ENDBRANCH  13  16
ENDBRANCH  12  13
ENDBRANCH  10  12
BRANCH  11  25
ATOM     25  C   UNL     1       6.920   2.946   0.475  1.00  0.00     0.146 C 
BRANCH  25  26
ATOM     26  C   UNL     1       6.327   3.038   1.858  1.00  0.00     0.040 CG0
ATOM     27  G   UNL     1       6.351   1.793   2.748  1.00  0.00     0.000 G0
ENDBRANCH  25  26
ENDBRANCH  11  25
ENDBRANCH   6   7
ENDBRANCH   5   6
ENDBRANCH   2   5
BRANCH   3  28
ATOM     28  C   UNL     1       1.816   1.032   2.400  1.00  0.00     0.116 C 
BRANCH  28  29
ATOM     29  C   UNL     1       1.871   0.280   3.742  1.00  0.00     0.023 C 
BRANCH  29  30
ATOM     30  C   UNL     1       3.224   0.250   4.462  1.00  0.00     0.023 C 
BRANCH  30  31
ATOM     31  C   UNL     1       3.776   1.607   4.894  1.00  0.00     0.116 C 
BRANCH  31  32
ATOM     32  N   UNL     1       3.513   2.061   6.253  1.00  0.00    -0.352 N 
ATOM     33  C   UNL     1       4.195   3.074   6.931  1.00  0.00     0.251 C 
ATOM     34  H   UNL     1       2.784   1.612   6.739  1.00  0.00     0.163 HD
ATOM     35  O   UNL     1       4.181   3.130   8.155  1.00  0.00    -0.269 OA
BRANCH  33  36
ATOM     36  C   UNL     1       4.978   4.076   6.155  1.00  0.00     0.039 A 
ATOM     37  C   UNL     1       6.250   4.521   6.540  1.00  0.00     0.014 A 
ATOM     38  C   UNL     1       4.435   4.549   4.976  1.00  0.00     0.014 A 
ATOM     39  C   UNL     1       7.025   5.306   5.656  1.00  0.00     0.010 A 
ATOM     40  C   UNL     1       5.240   5.218   4.073  1.00  0.00     0.010 A 
ATOM     41  C   UNL     1       6.552   5.612   4.371  1.00  0.00    -0.014 A 
BRANCH  41  42
ATOM     42  C   UNL     1       7.423   6.209   3.313  1.00  0.00     0.031 A 
ATOM     43  C   UNL     1       8.888   5.821   3.272  1.00  0.00     0.074 A 
ATOM     44  C   UNL     1       6.955   6.905   2.240  1.00  0.00     0.049 A 
ATOM     45  N   UNL     1       9.911   6.587   3.504  1.00  0.00    -0.248 NA
ATOM     46  C   UNL     1       9.293   4.445   2.946  1.00  0.00     0.031 C 
ATOM     47  C   UNL     1       5.572   7.251   1.880  1.00  0.00     0.029 A 
ATOM     48  N   UNL     1       7.649   7.381   1.158  1.00  0.00    -0.354 N 
ATOM     49  C   UNL     1      11.056   5.843   3.199  1.00  0.00     0.074 A 
ATOM     50  C   UNL     1      10.622   4.494   3.016  1.00  0.00     0.031 C 
ATOM     51  C   UNL     1       5.500   7.627   0.586  1.00  0.00     0.029 A 
ATOM     52  C   UNL     1       6.850   7.786   0.091  1.00  0.00     0.049 A 
ATOM     53  H   UNL     1       8.632   7.432   1.136  1.00  0.00     0.167 HD
ATOM     54  C   UNL     1      12.256   6.418   2.904  1.00  0.00     0.037 A 
ATOM     55  C   UNL     1       7.232   8.307  -1.100  1.00  0.00     0.037 A 
ATOM     56  C   UNL     1      12.272   7.805   3.280  1.00  0.00     0.049 A 
ATOM     57  C   UNL     1       8.574   8.893  -0.902  1.00  0.00     0.074 A 
ATOM     58  C   UNL     1      12.027   8.492   4.454  1.00  0.00     0.029 A 
ATOM     59  N   UNL     1      12.179   8.746   2.286  1.00  0.00    -0.354 N 
ATOM     60  N   UNL     1       8.798   9.948  -0.172  1.00  0.00    -0.248 NA
ATOM     61  C   UNL     1       9.729   8.056  -1.172  1.00  0.00     0.031 C 
ATOM     62  C   UNL     1      11.257   9.623   4.048  1.00  0.00     0.029 A 
ATOM     63  C   UNL     1      11.169   9.594   2.656  1.00  0.00     0.049 A 
ATOM     64  H   UNL     1      12.727   8.800   1.470  1.00  0.00     0.167 HD
ATOM     65  C   UNL     1       9.982   9.665   0.484  1.00  0.00     0.074 A 
ATOM     66  C   UNL     1      10.565   8.544  -0.252  1.00  0.00     0.031 C 
ATOM     67  C   UNL     1      10.240  10.179   1.722  1.00  0.00     0.037 A 
BRANCH  54  68
ATOM     68  C   UNL     1      13.298   5.838   1.971  1.00  0.00     0.064 A 
ATOM     69  C   UNL     1      14.571   6.444   1.899  1.00  0.00     0.173 A 
ATOM     70  C   UNL     1      13.011   4.915   0.941  1.00  0.00     0.173 A 
ATOM     71  F   UNL     1      14.945   7.354   2.811  1.00  0.00    -0.203 F 
ATOM     72  C   UNL     1      15.448   6.206   0.837  1.00  0.00     0.198 A 
ATOM     73  C   UNL     1      13.916   4.634  -0.085  1.00  0.00     0.198 A 
ATOM     74  F   UNL     1      11.808   4.343   0.814  1.00  0.00    -0.203 F 
ATOM     75  F   UNL     1      16.584   6.911   0.742  1.00  0.00    -0.200 F 
ATOM     76  C   UNL     1      15.119   5.304  -0.157  1.00  0.00     0.200 A 
ATOM     77  F   UNL     1      13.569   3.771  -1.050  1.00  0.00    -0.200 F 
ATOM     78  F   UNL     1      15.928   5.122  -1.208  1.00  0.00    -0.200 F 
ENDBRANCH  54  68
BRANCH  55  79
ATOM     79  C   UNL     1       6.588   8.219  -2.429  1.00  0.00     0.064 A 
ATOM     80  C   UNL     1       6.941   9.094  -3.470  1.00  0.00     0.173 A 
ATOM     81  C   UNL     1       5.838   7.083  -2.789  1.00  0.00     0.173 A 
ATOM     82  F   UNL     1       7.677  10.185  -3.215  1.00  0.00    -0.203 F 
ATOM     83  C   UNL     1       6.611   8.820  -4.801  1.00  0.00     0.198 A 
ATOM     84  C   UNL     1       5.504   6.814  -4.118  1.00  0.00     0.198 A 
ATOM     85  F   UNL     1       5.505   6.166  -1.870  1.00  0.00    -0.203 F 
ATOM     86  F   UNL     1       7.033   9.638  -5.775  1.00  0.00    -0.200 F 
ATOM     87  C   UNL     1       5.909   7.672  -5.125  1.00  0.00     0.200 A 
ATOM     88  F   UNL     1       4.851   5.685  -4.425  1.00  0.00    -0.200 F 
ATOM     89  F   UNL     1       5.661   7.370  -6.407  1.00  0.00    -0.200 F 
ENDBRANCH  55  79
BRANCH  67  90
ATOM     90  C   UNL     1       9.348  11.271   2.246  1.00  0.00     0.064 A 
ATOM     91  C   UNL     1       7.960  11.145   2.436  1.00  0.00     0.173 A 
ATOM     92  C   UNL     1       9.952  12.449   2.706  1.00  0.00     0.173 A 
ATOM     93  F   UNL     1       7.316  10.014   2.128  1.00  0.00    -0.203 F 
ATOM     94  C   UNL     1       7.211  12.172   3.009  1.00  0.00     0.198 A 
ATOM     95  C   UNL     1       9.208  13.455   3.316  1.00  0.00     0.198 A 
ATOM     96  F   UNL     1      11.281  12.607   2.607  1.00  0.00    -0.203 F 
ATOM     97  F   UNL     1       5.885  12.031   3.159  1.00  0.00    -0.200 F 
ATOM     98  C   UNL     1       7.836  13.323   3.454  1.00  0.00     0.200 A 
ATOM     99  F   UNL     1       9.827  14.544   3.792  1.00  0.00    -0.200 F 
ATOM    100  F   UNL     1       7.122  14.294   4.038  1.00  0.00    -0.200 F 
ENDBRANCH  67  90
ENDBRANCH  41  42
ENDBRANCH  33  36
ENDBRANCH  31  32
ENDBRANCH  30  31
ENDBRANCH  29  30
ENDBRANCH  28  29
ENDBRANCH   3  28
TORSDOF 17
