REMARK SMILES O=C(NCCCCNC(=O)c1ccc(-c2c3nc(c(-c4c(F)c(F)c(F)c(F)c4F)c4ccc([nH]4)c(-c4c(F)c(F)c(F)c(F)c4F)c4nc(c(-c5c(F)c(F)c(F)c(F)c5F)c5ccc2[nH]5)C=C4)C=C3)cc1)C1=Cc2c(ccc(Cl)c2-c2ccccc2)O[C@H]1C(F)(F)F
REMARK SMILES IDX 6 1 5 2 4 3 3 4 1 5 2 6 74 8 75 9 90 10 76 11 89 12 77 13
REMARK SMILES IDX 82 14 78 15 80 16 79 17 81 18 91 19 92 20 93 21 94 22 83 23
REMARK SMILES IDX 84 24 88 25 85 26 87 27 86 28 7 29 8 30 9 31 10 33 11 34
REMARK SMILES IDX 12 35 73 36 13 37 72 38 14 39 15 40 16 41 66 42 17 43 71 44
REMARK SMILES IDX 65 45 67 46 18 47 70 48 64 49 63 50 19 52 51 53 31 54 50 55
REMARK SMILES IDX 32 56 35 57 49 58 68 59 33 60 34 61 48 63 69 64 36 65 20 66
REMARK SMILES IDX 21 67 29 68 22 69 23 70 27 71 30 72 24 73 25 74 28 75 26 76
REMARK SMILES IDX 52 77 53 78 61 79 54 80 55 81 59 82 62 83 56 84 57 85 60 86
REMARK SMILES IDX 58 87 37 88 38 89 46 90 39 91 40 92 44 93 47 94 41 95 42 96
REMARK SMILES IDX 45 97 43 98
REMARK H PARENT 3 7 8 32 67 51 35 62
REMARK Flexibility Score: inf
ROOT
ATOM      1  C   UNL     1       4.062  -0.236   4.295  1.00  0.00     0.023 C 
ENDROOT
BRANCH   1   2
ATOM      2  C   UNL     1       4.465   0.788   3.234  1.00  0.00     0.023 C 
BRANCH   2   3
ATOM      3  C   UNL     1       4.163   0.413   1.788  1.00  0.00     0.116 C 
BRANCH   3   4
ATOM      4  N   UNL     1       2.787   0.609   1.373  1.00  0.00    -0.352 N 
ATOM      5  O   UNL     1       1.072   0.916  -0.047  1.00  0.00    -0.270 OA
ATOM      6  C   UNL     1       2.274   0.717   0.109  1.00  0.00     0.251 C 
ATOM      7  H   UNL     1       2.130   0.674   2.104  1.00  0.00     0.163 HD
BRANCH   6   8
ATOM      8  C   UNL     1       3.140   0.574  -1.083  1.00  0.00     0.067 C 
ATOM      9  C   UNL     1       3.383  -0.674  -1.506  1.00  0.00     0.026 C 
ATOM     10  C   UNL     1       4.097   1.656  -1.483  1.00  0.00     0.314 C 
ATOM     11  C   UNL     1       4.752  -1.073  -1.075  1.00  0.00     0.027 A 
ATOM     12  O   UNL     1       5.501   1.226  -1.393  1.00  0.00    -0.475 OA
ATOM     13  C   UNL     1       5.740  -0.077  -1.022  1.00  0.00     0.128 A 
ATOM     14  C   UNL     1       4.968  -2.377  -0.562  1.00  0.00     0.011 A 
ATOM     15  C   UNL     1       6.974  -0.367  -0.455  1.00  0.00     0.049 A 
ATOM     16  C   UNL     1       6.206  -2.632   0.047  1.00  0.00     0.049 A 
ATOM     17  C   UNL     1       7.198  -1.635   0.097  1.00  0.00     0.025 A 
ATOM     18  Cl  UNL     1       6.537  -4.135   0.830  1.00  0.00    -0.084 Cl
BRANCH  10  19
ATOM     19  C   UNL     1       3.783   2.201  -2.895  1.00  0.00     0.429 C 
ATOM     20  F   UNL     1       2.924   1.419  -3.591  1.00  0.00    -0.167 F 
ATOM     21  F   UNL     1       3.229   3.436  -2.825  1.00  0.00    -0.167 F 
ATOM     22  F   UNL     1       4.900   2.313  -3.653  1.00  0.00    -0.167 F 
ENDBRANCH  10  19
BRANCH  14  23
ATOM     23  C   UNL     1       3.815  -3.301  -0.584  1.00  0.00    -0.016 A 
ATOM     24  C   UNL     1       2.984  -3.402   0.543  1.00  0.00     0.009 A 
ATOM     25  C   UNL     1       3.335  -3.784  -1.815  1.00  0.00     0.009 A 
ATOM     26  C   UNL     1       1.669  -3.851   0.421  1.00  0.00     0.001 A 
ATOM     27  C   UNL     1       2.015  -4.221  -1.938  1.00  0.00     0.001 A 
ATOM     28  C   UNL     1       1.176  -4.227  -0.826  1.00  0.00     0.000 A 
ENDBRANCH  14  23
ENDBRANCH   6   8
ENDBRANCH   3   4
ENDBRANCH   2   3
ENDBRANCH   1   2
BRANCH   1  29
ATOM     29  C   UNL     1       4.634  -1.647   4.159  1.00  0.00     0.116 C 
BRANCH  29  30
ATOM     30  N   UNL     1       6.084  -1.722   4.082  1.00  0.00    -0.352 N 
ATOM     31  C   UNL     1       6.955  -2.576   4.721  1.00  0.00     0.251 C 
ATOM     32  H   UNL     1       6.506  -1.062   3.485  1.00  0.00     0.163 HD
ATOM     33  O   UNL     1       8.165  -2.466   4.529  1.00  0.00    -0.269 OA
BRANCH  31  34
ATOM     34  C   UNL     1       6.456  -3.583   5.688  1.00  0.00     0.039 A 
ATOM     35  C   UNL     1       7.094  -3.691   6.928  1.00  0.00     0.014 A 
ATOM     36  C   UNL     1       5.358  -4.398   5.402  1.00  0.00     0.014 A 
ATOM     37  C   UNL     1       6.572  -4.538   7.911  1.00  0.00     0.010 A 
ATOM     38  C   UNL     1       4.794  -5.185   6.408  1.00  0.00     0.010 A 
ATOM     39  C   UNL     1       5.387  -5.255   7.679  1.00  0.00    -0.014 A 
BRANCH  39  40
ATOM     40  C   UNL     1       4.758  -6.064   8.759  1.00  0.00     0.031 A 
ATOM     41  C   UNL     1       4.632  -7.557   8.623  1.00  0.00     0.074 A 
ATOM     42  C   UNL     1       4.256  -5.450   9.851  1.00  0.00     0.049 A 
ATOM     43  N   UNL     1       4.084  -8.422   9.441  1.00  0.00    -0.248 NA
ATOM     44  C   UNL     1       5.172  -8.156   7.393  1.00  0.00     0.031 C 
ATOM     45  C   UNL     1       4.258  -4.005  10.085  1.00  0.00     0.029 A 
ATOM     46  N   UNL     1       3.639  -5.964  10.966  1.00  0.00    -0.354 N 
ATOM     47  C   UNL     1       4.214  -9.661   8.827  1.00  0.00     0.074 A 
ATOM     48  C   UNL     1       4.833  -9.429   7.539  1.00  0.00     0.031 C 
ATOM     49  C   UNL     1       3.691  -3.750  11.276  1.00  0.00     0.029 A 
ATOM     50  C   UNL     1       3.261  -5.008  11.879  1.00  0.00     0.049 A 
ATOM     51  H   UNL     1       3.483  -6.927  11.100  1.00  0.00     0.167 HD
ATOM     52  C   UNL     1       3.879 -10.884   9.302  1.00  0.00     0.037 A 
ATOM     53  C   UNL     1       2.639  -5.131  13.068  1.00  0.00     0.037 A 
ATOM     54  C   UNL     1       3.271 -11.123  10.586  1.00  0.00     0.049 A 
ATOM     55  C   UNL     1       2.292  -6.505  13.579  1.00  0.00     0.074 A 
ATOM     56  C   UNL     1       2.897 -12.327  11.157  1.00  0.00     0.029 A 
ATOM     57  N   UNL     1       2.954 -10.132  11.503  1.00  0.00    -0.354 N 
ATOM     58  N   UNL     1       2.470  -7.671  13.009  1.00  0.00    -0.248 NA
ATOM     59  C   UNL     1       1.673  -6.579  14.911  1.00  0.00     0.031 C 
ATOM     60  C   UNL     1       2.332 -12.064  12.410  1.00  0.00     0.029 A 
ATOM     61  C   UNL     1       2.395 -10.699  12.637  1.00  0.00     0.049 A 
ATOM     62  H   UNL     1       3.104  -9.168  11.368  1.00  0.00     0.167 HD
ATOM     63  C   UNL     1       2.025  -8.616  13.924  1.00  0.00     0.074 A 
ATOM     64  C   UNL     1       1.582  -7.888  15.094  1.00  0.00     0.031 C 
ATOM     65  C   UNL     1       1.984  -9.965  13.806  1.00  0.00     0.037 A 
BRANCH  52  66
ATOM     66  C   UNL     1       4.188 -12.069   8.433  1.00  0.00     0.064 A 
ATOM     67  C   UNL     1       5.511 -12.486   8.215  1.00  0.00     0.173 A 
ATOM     68  C   UNL     1       3.159 -12.817   7.841  1.00  0.00     0.173 A 
ATOM     69  F   UNL     1       6.531 -11.797   8.749  1.00  0.00    -0.203 F 
ATOM     70  C   UNL     1       5.793 -13.589   7.415  1.00  0.00     0.198 A 
ATOM     71  C   UNL     1       3.444 -13.938   7.066  1.00  0.00     0.198 A 
ATOM     72  F   UNL     1       1.877 -12.466   8.022  1.00  0.00    -0.203 F 
ATOM     73  F   UNL     1       7.066 -13.938   7.184  1.00  0.00    -0.200 F 
ATOM     74  C   UNL     1       4.760 -14.319   6.847  1.00  0.00     0.200 A 
ATOM     75  F   UNL     1       2.445 -14.651   6.528  1.00  0.00    -0.200 F 
ATOM     76  F   UNL     1       5.033 -15.386   6.084  1.00  0.00    -0.200 F 
ENDBRANCH  52  66
BRANCH  53  77
ATOM     77  C   UNL     1       2.329  -3.925  13.882  1.00  0.00     0.064 A 
ATOM     78  C   UNL     1       2.990  -3.683  15.095  1.00  0.00     0.173 A 
ATOM     79  C   UNL     1       1.340  -3.014  13.486  1.00  0.00     0.173 A 
ATOM     80  F   UNL     1       3.929  -4.537  15.528  1.00  0.00    -0.203 F 
ATOM     81  C   UNL     1       2.648  -2.597  15.898  1.00  0.00     0.198 A 
ATOM     82  C   UNL     1       1.021  -1.910  14.275  1.00  0.00     0.198 A 
ATOM     83  F   UNL     1       0.683  -3.195  12.332  1.00  0.00    -0.203 F 
ATOM     84  F   UNL     1       3.252  -2.426  17.083  1.00  0.00    -0.200 F 
ATOM     85  C   UNL     1       1.666  -1.710  15.486  1.00  0.00     0.200 A 
ATOM     86  F   UNL     1       0.081  -1.047  13.867  1.00  0.00    -0.200 F 
ATOM     87  F   UNL     1       1.332  -0.669  16.262  1.00  0.00    -0.200 F 
ENDBRANCH  53  77
BRANCH  65  88
ATOM     88  C   UNL     1       1.502 -10.745  14.995  1.00  0.00     0.064 A 
ATOM     89  C   UNL     1       0.157 -10.736  15.392  1.00  0.00     0.173 A 
ATOM     90  C   UNL     1       2.401 -11.524  15.739  1.00  0.00     0.173 A 
ATOM     91  F   UNL     1      -0.740  -9.996  14.722  1.00  0.00    -0.203 F 
ATOM     92  C   UNL     1      -0.263 -11.449  16.512  1.00  0.00     0.198 A 
ATOM     93  C   UNL     1       1.972 -12.260  16.840  1.00  0.00     0.198 A 
ATOM     94  F   UNL     1       3.698 -11.573  15.397  1.00  0.00    -0.203 F 
ATOM     95  F   UNL     1      -1.542 -11.379  16.907  1.00  0.00    -0.200 F 
ATOM     96  C   UNL     1       0.643 -12.214  17.232  1.00  0.00     0.200 A 
ATOM     97  F   UNL     1       2.847 -13.008  17.527  1.00  0.00    -0.200 F 
ATOM     98  F   UNL     1       0.237 -12.897  18.310  1.00  0.00    -0.200 F 
ENDBRANCH  65  88
ENDBRANCH  39  40
ENDBRANCH  31  34
ENDBRANCH  29  30
ENDBRANCH   1  29
TORSDOF 13
