REMARK SMILES O=C(COc1nc(Nc2ccc(Cl)cc2Cl)nc2c1C[N@H+](Cc1ccccc1)CC2)NCCCCNC(=O)c1ccc(-c2c3nc(c(-c4c(F)c(F)c(F)c(F)c4F)c4ccc([nH]4)c(-c4c(F)c(F)c(F)c(F)c4F)c4nc(c(-c5c(F)c(F)c(F)c(F)c5F)c5ccc2[nH]5)C=C4)C=C3)cc1
REMARK SMILES IDX 32 1 31 2 1 3 2 4 3 6 4 7 5 8 6 9 19 10 7 11 18 12 20 13
REMARK SMILES IDX 17 14 30 15 21 16 29 17 8 19 9 21 10 22 15 23 11 24 14 25
REMARK SMILES IDX 16 26 12 27 13 28 22 29 23 30 24 31 28 32 25 33 27 34 26 35
REMARK SMILES IDX 33 36 34 37 35 38 36 39 37 40 38 42 39 43 40 44 101 45 41 46
REMARK SMILES IDX 100 47 42 48 43 49 44 50 94 51 45 52 99 53 93 54 95 55 46 56
REMARK SMILES IDX 98 57 92 58 91 59 47 61 79 62 59 63 78 64 60 65 63 66 77 67
REMARK SMILES IDX 96 68 61 69 62 70 76 72 97 73 64 74 48 75 49 76 57 77 50 78
REMARK SMILES IDX 51 79 55 80 58 81 52 82 53 83 56 84 54 85 80 86 81 87 89 88
REMARK SMILES IDX 82 89 83 90 87 91 90 92 84 93 85 94 88 95 86 96 65 97 66 98
REMARK SMILES IDX 74 99 67 100 68 101 72 102 75 103 69 104 70 105 73 106
REMARK SMILES IDX 71 107
REMARK H PARENT 31 5 21 18 8 20 36 41 95 60 63 71
REMARK Flexibility Score: inf
ROOT
ATOM      1  C   UNL     1       1.962   1.401   2.049  1.00  0.00     0.116 C 
ENDROOT
BRANCH   1   2
ATOM      2  N   UNL     1       2.586   0.731   0.932  1.00  0.00    -0.353 N 
ATOM      3  O   UNL     1       0.772  -0.580   0.402  1.00  0.00    -0.271 OA
ATOM      4  C   UNL     1       1.896  -0.161   0.137  1.00  0.00     0.258 C 
ATOM      5  H   UNL     1       3.533   0.915   0.733  1.00  0.00     0.163 HD
BRANCH   4   6
ATOM      6  C   UNL     1       2.689  -0.677  -1.067  1.00  0.00     0.331 C 
BRANCH   6   7
ATOM      7  O   UNL     1       3.630   0.224  -1.646  1.00  0.00    -0.467 OA
BRANCH   7   8
ATOM      8  C   UNL     1       3.001   1.051  -2.551  1.00  0.00     0.228 A 
ATOM      9  N   UNL     1       2.083   1.889  -2.059  1.00  0.00    -0.177 NA
ATOM     10  C   UNL     1       3.426   1.049  -3.858  1.00  0.00     0.090 A 
ATOM     11  C   UNL     1       1.532   2.753  -2.923  1.00  0.00     0.230 A 
ATOM     12  C   UNL     1       2.808   1.970  -4.676  1.00  0.00     0.064 A 
ATOM     13  C   UNL     1       4.563   0.201  -4.327  1.00  0.00     0.307 C 
ATOM     14  N   UNL     1       1.840   2.803  -4.230  1.00  0.00    -0.217 NA
ATOM     15  C   UNL     1       3.187   2.050  -6.132  1.00  0.00     0.118 C 
ATOM     16  N   UNL     1       4.688   0.121  -5.788  1.00  0.00    -0.327 N 
ATOM     17  C   UNL     1       4.575   1.450  -6.403  1.00  0.00     0.269 C 
ATOM     18  H   UNL     1       3.901  -0.424  -6.138  1.00  0.00     0.348 HD
BRANCH  11  19
ATOM     19  N   UNL     1       0.547   3.632  -2.486  1.00  0.00    -0.323 N 
ATOM     20  H   UNL     1       0.116   4.179  -3.182  1.00  0.00     0.170 HD
BRANCH  19  21
ATOM     21  C   UNL     1       0.095   3.835  -1.178  1.00  0.00     0.060 A 
ATOM     22  C   UNL     1      -1.234   3.500  -0.875  1.00  0.00     0.029 A 
ATOM     23  C   UNL     1       0.919   4.299  -0.133  1.00  0.00     0.066 A 
ATOM     24  C   UNL     1      -1.715   3.583   0.435  1.00  0.00     0.023 A 
ATOM     25  C   UNL     1       0.427   4.417   1.171  1.00  0.00     0.043 A 
ATOM     26  Cl  UNL     1       2.557   4.796  -0.406  1.00  0.00    -0.082 Cl
ATOM     27  C   UNL     1      -0.879   4.034   1.452  1.00  0.00     0.042 A 
ATOM     28  Cl  UNL     1      -1.453   4.095   3.071  1.00  0.00    -0.084 Cl
ENDBRANCH  19  21
ENDBRANCH  11  19
BRANCH  16  29
ATOM     29  C   UNL     1       5.886  -0.630  -6.210  1.00  0.00     0.299 C 
BRANCH  29  30
ATOM     30  C   UNL     1       7.230   0.011  -5.923  1.00  0.00     0.006 A 
ATOM     31  C   UNL     1       7.917   0.701  -6.933  1.00  0.00     0.009 A 
ATOM     32  C   UNL     1       7.809  -0.055  -4.646  1.00  0.00     0.009 A 
ATOM     33  C   UNL     1       9.128   1.342  -6.659  1.00  0.00     0.001 A 
ATOM     34  C   UNL     1       9.003   0.611  -4.365  1.00  0.00     0.001 A 
ATOM     35  C   UNL     1       9.660   1.312  -5.372  1.00  0.00     0.000 A 
ENDBRANCH  29  30
ENDBRANCH  16  29
ENDBRANCH   7   8
ENDBRANCH   6   7
ENDBRANCH   4   6
ENDBRANCH   1   2
BRANCH   1  36
ATOM     36  C   UNL     1       2.420   0.890   3.410  1.00  0.00     0.023 C 
BRANCH  36  37
ATOM     37  C   UNL     1       3.909   1.077   3.704  1.00  0.00     0.023 C 
BRANCH  37  38
ATOM     38  C   UNL     1       4.454   2.491   3.521  1.00  0.00     0.116 C 
BRANCH  38  39
ATOM     39  N   UNL     1       3.836   3.469   4.403  1.00  0.00    -0.352 N 
ATOM     40  C   UNL     1       4.420   4.362   5.269  1.00  0.00     0.251 C 
ATOM     41  H   UNL     1       2.852   3.495   4.375  1.00  0.00     0.163 HD
ATOM     42  O   UNL     1       3.724   5.047   6.013  1.00  0.00    -0.269 OA
BRANCH  40  43
ATOM     43  C   UNL     1       5.894   4.476   5.343  1.00  0.00     0.039 A 
ATOM     44  C   UNL     1       6.504   4.479   6.601  1.00  0.00     0.014 A 
ATOM     45  C   UNL     1       6.674   4.575   4.187  1.00  0.00     0.014 A 
ATOM     46  C   UNL     1       7.897   4.502   6.698  1.00  0.00     0.010 A 
ATOM     47  C   UNL     1       8.064   4.529   4.282  1.00  0.00     0.010 A 
ATOM     48  C   UNL     1       8.689   4.487   5.538  1.00  0.00    -0.014 A 
BRANCH  48  49
ATOM     49  C   UNL     1      10.171   4.425   5.623  1.00  0.00     0.031 A 
ATOM     50  C   UNL     1      11.006   5.579   5.147  1.00  0.00     0.074 A 
ATOM     51  C   UNL     1      10.767   3.310   6.088  1.00  0.00     0.049 A 
ATOM     52  N   UNL     1      12.310   5.690   5.095  1.00  0.00    -0.248 NA
ATOM     53  C   UNL     1      10.282   6.756   4.646  1.00  0.00     0.031 C 
ATOM     54  C   UNL     1      10.070   2.110   6.551  1.00  0.00     0.029 A 
ATOM     55  N   UNL     1      12.097   3.003   6.245  1.00  0.00    -0.354 N 
ATOM     56  C   UNL     1      12.560   6.944   4.554  1.00  0.00     0.074 A 
ATOM     57  C   UNL     1      11.276   7.533   4.241  1.00  0.00     0.031 C 
ATOM     58  C   UNL     1      10.974   1.211   6.971  1.00  0.00     0.029 A 
ATOM     59  C   UNL     1      12.315   1.753   6.772  1.00  0.00     0.049 A 
ATOM     60  H   UNL     1      12.824   3.620   6.002  1.00  0.00     0.167 HD
ATOM     61  C   UNL     1      13.750   7.560   4.363  1.00  0.00     0.037 A 
ATOM     62  C   UNL     1      13.466   1.116   7.062  1.00  0.00     0.037 A 
ATOM     63  C   UNL     1      15.027   6.981   4.690  1.00  0.00     0.049 A 
ATOM     64  C   UNL     1      14.777   1.808   6.808  1.00  0.00     0.074 A 
ATOM     65  C   UNL     1      16.285   7.544   4.569  1.00  0.00     0.029 A 
ATOM     66  N   UNL     1      15.207   5.706   5.205  1.00  0.00    -0.354 N 
ATOM     67  N   UNL     1      14.999   3.010   6.337  1.00  0.00    -0.248 NA
ATOM     68  C   UNL     1      15.999   1.053   7.124  1.00  0.00     0.031 C 
ATOM     69  C   UNL     1      17.229   6.595   4.971  1.00  0.00     0.029 A 
ATOM     70  C   UNL     1      16.558   5.456   5.386  1.00  0.00     0.049 A 
ATOM     71  H   UNL     1      14.482   5.072   5.412  1.00  0.00     0.167 HD
ATOM     72  C   UNL     1      16.379   3.165   6.319  1.00  0.00     0.074 A 
ATOM     73  C   UNL     1      16.944   1.938   6.839  1.00  0.00     0.031 C 
ATOM     74  C   UNL     1      17.108   4.230   5.906  1.00  0.00     0.037 A 
BRANCH  61  75
ATOM     75  C   UNL     1      13.729   8.943   3.782  1.00  0.00     0.064 A 
ATOM     76  C   UNL     1      13.269  10.040   4.526  1.00  0.00     0.173 A 
ATOM     77  C   UNL     1      14.213   9.184   2.488  1.00  0.00     0.173 A 
ATOM     78  F   UNL     1      12.786   9.860   5.765  1.00  0.00    -0.203 F 
ATOM     79  C   UNL     1      13.273  11.324   3.988  1.00  0.00     0.198 A 
ATOM     80  C   UNL     1      14.242  10.473   1.963  1.00  0.00     0.198 A 
ATOM     81  F   UNL     1      14.669   8.171   1.736  1.00  0.00    -0.203 F 
ATOM     82  F   UNL     1      12.789  12.350   4.702  1.00  0.00    -0.200 F 
ATOM     83  C   UNL     1      13.766  11.540   2.710  1.00  0.00     0.200 A 
ATOM     84  F   UNL     1      14.731  10.684   0.733  1.00  0.00    -0.200 F 
ATOM     85  F   UNL     1      13.778  12.778   2.196  1.00  0.00    -0.200 F 
ENDBRANCH  61  75
BRANCH  62  86
ATOM     86  C   UNL     1      13.422  -0.240   7.666  1.00  0.00     0.064 A 
ATOM     87  C   UNL     1      13.765  -0.434   9.011  1.00  0.00     0.173 A 
ATOM     88  C   UNL     1      13.011  -1.359   6.928  1.00  0.00     0.173 A 
ATOM     89  F   UNL     1      14.185   0.603   9.751  1.00  0.00    -0.203 F 
ATOM     90  C   UNL     1      13.703  -1.697   9.595  1.00  0.00     0.198 A 
ATOM     91  C   UNL     1      12.927  -2.618   7.519  1.00  0.00     0.198 A 
ATOM     92  F   UNL     1      12.671  -1.226   5.638  1.00  0.00    -0.203 F 
ATOM     93  F   UNL     1      14.062  -1.860  10.876  1.00  0.00    -0.200 F 
ATOM     94  C   UNL     1      13.275  -2.787   8.851  1.00  0.00     0.200 A 
ATOM     95  F   UNL     1      12.502  -3.667   6.801  1.00  0.00    -0.200 F 
ATOM     96  F   UNL     1      13.203  -4.000   9.416  1.00  0.00    -0.200 F 
ENDBRANCH  62  86
BRANCH  74  97
ATOM     97  C   UNL     1      18.602   4.131   6.007  1.00  0.00     0.064 A 
ATOM     98  C   UNL     1      19.343   3.338   5.120  1.00  0.00     0.173 A 
ATOM     99  C   UNL     1      19.304   4.897   6.950  1.00  0.00     0.173 A 
ATOM    100  F   UNL     1      18.717   2.578   4.209  1.00  0.00    -0.203 F 
ATOM    101  C   UNL     1      20.734   3.308   5.179  1.00  0.00     0.198 A 
ATOM    102  C   UNL     1      20.695   4.884   6.990  1.00  0.00     0.198 A 
ATOM    103  F   UNL     1      18.641   5.677   7.817  1.00  0.00    -0.203 F 
ATOM    104  F   UNL     1      21.422   2.521   4.340  1.00  0.00    -0.200 F 
ATOM    105  C   UNL     1      21.409   4.088   6.107  1.00  0.00     0.200 A 
ATOM    106  F   UNL     1      21.346   5.650   7.877  1.00  0.00    -0.200 F 
ATOM    107  F   UNL     1      22.748   4.071   6.150  1.00  0.00    -0.200 F 
ENDBRANCH  74  97
ENDBRANCH  48  49
ENDBRANCH  40  43
ENDBRANCH  38  39
ENDBRANCH  37  38
ENDBRANCH  36  37
ENDBRANCH   1  36
TORSDOF 17
