REMARK SMILES CC[C@@H](C(=O)NCCCCNC(=O)c1ccc(-c2c3nc(c(-c4c(F)c(F)c(F)c(F)c4F)c4ccc([nH]4)c(-c4c(F)c(F)c(F)c(F)c4F)c4nc(c(-c5c(F)c(F)c(F)c(F)c5F)c5ccc2[nH]5)C=C4)C=C3)cc1)n1c(SCc2cccc(C(F)(F)F)c2)nc2ccncc21
REMARK SMILES IDX 7 1 6 2 4 3 5 4 3 6 2 7 1 8 77 9 78 10 97 11 91 12 92 13
REMARK SMILES IDX 96 14 93 15 95 16 94 17 79 18 80 19 81 20 82 21 90 22 83 23
REMARK SMILES IDX 85 24 84 25 86 26 87 27 88 28 89 29 8 30 9 31 10 32 11 33
REMARK SMILES IDX 12 34 13 36 14 37 15 38 76 39 16 40 75 41 17 42 18 43 19 44
REMARK SMILES IDX 69 45 20 46 74 47 68 48 70 49 21 50 73 51 67 52 66 53 22 55
REMARK SMILES IDX 54 56 34 57 53 58 35 59 38 60 52 61 71 62 36 63 37 64 51 66
REMARK SMILES IDX 72 67 39 68 23 69 24 70 32 71 25 72 26 73 30 74 33 75 27 76
REMARK SMILES IDX 28 77 31 78 29 79 55 80 56 81 64 82 57 83 58 84 62 85 65 86
REMARK SMILES IDX 59 87 60 88 63 89 61 90 40 91 41 92 49 93 42 94 43 95 47 96
REMARK SMILES IDX 50 97 44 98 45 99 48 100 46 101
REMARK H PARENT 6 5 11 35 70 54 38 65
REMARK Flexibility Score: inf
ROOT
ATOM      1  C   UNL     1       1.221   0.306   2.142  1.00  0.00     0.116 C 
ENDROOT
BRANCH   1   2
ATOM      2  N   UNL     1       0.232  -0.618   2.660  1.00  0.00    -0.354 N 
ATOM      3  C   UNL     1      -0.192  -1.833   2.194  1.00  0.00     0.243 C 
ATOM      4  O   UNL     1      -1.038  -2.406   2.882  1.00  0.00    -0.273 OA
ATOM      5  H   UNL     1      -0.209  -0.322   3.489  1.00  0.00     0.163 HD
BRANCH   3   6
ATOM      6  C   UNL     1       0.386  -2.445   0.908  1.00  0.00     0.178 C 
BRANCH   6   7
ATOM      7  C   UNL     1      -0.268  -1.964  -0.416  1.00  0.00     0.032 C 
ATOM      8  C   UNL     1      -0.238  -0.484  -0.732  1.00  0.00     0.006 C 
ENDBRANCH   6   7
BRANCH   6   9
ATOM      9  N   UNL     1       0.336  -3.931   0.948  1.00  0.00    -0.305 N 
ATOM     10  C   UNL     1       1.397  -4.777   0.677  1.00  0.00     0.170 A 
ATOM     11  C   UNL     1      -0.813  -4.651   0.631  1.00  0.00     0.088 A 
ATOM     12  N   UNL     1       1.023  -5.743  -0.137  1.00  0.00    -0.222 NA
ATOM     13  C   UNL     1      -0.348  -5.712  -0.136  1.00  0.00     0.093 A 
ATOM     14  C   UNL     1      -2.170  -4.446   0.845  1.00  0.00     0.139 A 
ATOM     15  C   UNL     1      -1.261  -6.573  -0.745  1.00  0.00     0.051 A 
ATOM     16  N   UNL     1      -3.056  -5.290   0.268  1.00  0.00    -0.262 NA
ATOM     17  C   UNL     1      -2.598  -6.308  -0.496  1.00  0.00     0.113 A 
BRANCH  10  18
ATOM     18  S   UNL     1       2.761  -5.028   1.728  1.00  0.00    -0.083 SA
BRANCH  18  19
ATOM     19  C   UNL     1       3.751  -3.537   1.778  1.00  0.00     0.113 C 
BRANCH  19  20
ATOM     20  C   UNL     1       4.154  -2.927   0.461  1.00  0.00    -0.037 A 
ATOM     21  C   UNL     1       4.722  -3.670  -0.579  1.00  0.00     0.004 A 
ATOM     22  C   UNL     1       3.997  -1.545   0.280  1.00  0.00     0.017 A 
ATOM     23  C   UNL     1       5.045  -3.057  -1.791  1.00  0.00     0.001 A 
ATOM     24  C   UNL     1       4.256  -0.925  -0.950  1.00  0.00     0.056 A 
ATOM     25  C   UNL     1       4.790  -1.698  -1.986  1.00  0.00     0.013 A 
BRANCH  24  26
ATOM     26  C   UNL     1       3.907   0.525  -1.168  1.00  0.00     0.416 C 
ATOM     27  F   UNL     1       4.933   1.261  -1.667  1.00  0.00    -0.166 F 
ATOM     28  F   UNL     1       2.867   0.675  -2.035  1.00  0.00    -0.166 F 
ATOM     29  F   UNL     1       3.511   1.156  -0.021  1.00  0.00    -0.166 F 
ENDBRANCH  24  26
ENDBRANCH  19  20
ENDBRANCH  18  19
ENDBRANCH  10  18
ENDBRANCH   6   9
ENDBRANCH   3   6
ENDBRANCH   1   2
BRANCH   1  30
ATOM     30  C   UNL     1       0.618   1.651   1.740  1.00  0.00     0.023 C 
BRANCH  30  31
ATOM     31  C   UNL     1       0.305   2.591   2.894  1.00  0.00     0.023 C 
BRANCH  31  32
ATOM     32  C   UNL     1       1.519   3.082   3.665  1.00  0.00     0.116 C 
BRANCH  32  33
ATOM     33  N   UNL     1       2.468   3.825   2.850  1.00  0.00    -0.352 N 
ATOM     34  C   UNL     1       3.086   5.031   3.109  1.00  0.00     0.251 C 
ATOM     35  H   UNL     1       2.702   3.408   1.990  1.00  0.00     0.163 HD
ATOM     36  O   UNL     1       3.780   5.564   2.262  1.00  0.00    -0.269 OA
BRANCH  34  37
ATOM     37  C   UNL     1       2.863   5.695   4.414  1.00  0.00     0.039 A 
ATOM     38  C   UNL     1       2.595   7.065   4.434  1.00  0.00     0.014 A 
ATOM     39  C   UNL     1       2.873   4.964   5.604  1.00  0.00     0.014 A 
ATOM     40  C   UNL     1       2.260   7.683   5.641  1.00  0.00     0.010 A 
ATOM     41  C   UNL     1       2.433   5.555   6.782  1.00  0.00     0.010 A 
ATOM     42  C   UNL     1       2.131   6.923   6.817  1.00  0.00    -0.014 A 
BRANCH  42  43
ATOM     43  C   UNL     1       1.689   7.551   8.088  1.00  0.00     0.031 A 
ATOM     44  C   UNL     1       2.595   7.547   9.290  1.00  0.00     0.074 A 
ATOM     45  C   UNL     1       0.452   8.078   8.176  1.00  0.00     0.049 A 
ATOM     46  N   UNL     1       2.386   8.040  10.485  1.00  0.00    -0.248 NA
ATOM     47  C   UNL     1       3.893   6.871   9.142  1.00  0.00     0.031 C 
ATOM     48  C   UNL     1      -0.548   8.072   7.106  1.00  0.00     0.029 A 
ATOM     49  N   UNL     1      -0.175   8.724   9.211  1.00  0.00    -0.354 N 
ATOM     50  C   UNL     1       3.517   7.722  11.226  1.00  0.00     0.074 A 
ATOM     51  C   UNL     1       4.375   6.932  10.373  1.00  0.00     0.031 C 
ATOM     52  C   UNL     1      -1.645   8.724   7.526  1.00  0.00     0.029 A 
ATOM     53  C   UNL     1      -1.438   9.166   8.901  1.00  0.00     0.049 A 
ATOM     54  H   UNL     1       0.241   8.858  10.094  1.00  0.00     0.167 HD
ATOM     55  C   UNL     1       3.830   8.087  12.493  1.00  0.00     0.037 A 
ATOM     56  C   UNL     1      -2.322   9.862   9.640  1.00  0.00     0.037 A 
ATOM     57  C   UNL     1       2.985   8.897  13.330  1.00  0.00     0.049 A 
ATOM     58  C   UNL     1      -1.940  10.279  11.034  1.00  0.00     0.074 A 
ATOM     59  C   UNL     1       3.231   9.371  14.606  1.00  0.00     0.029 A 
ATOM     60  N   UNL     1       1.725   9.353  12.970  1.00  0.00    -0.354 N 
ATOM     61  N   UNL     1      -0.832  10.046  11.695  1.00  0.00    -0.248 NA
ATOM     62  C   UNL     1      -2.926  11.074  11.778  1.00  0.00     0.031 C 
ATOM     63  C   UNL     1       2.101  10.077  15.036  1.00  0.00     0.029 A 
ATOM     64  C   UNL     1       1.175  10.091  14.006  1.00  0.00     0.049 A 
ATOM     65  H   UNL     1       1.287   9.179  12.106  1.00  0.00     0.167 HD
ATOM     66  C   UNL     1      -0.974  10.688  12.918  1.00  0.00     0.074 A 
ATOM     67  C   UNL     1      -2.268  11.340  12.896  1.00  0.00     0.031 C 
ATOM     68  C   UNL     1      -0.114  10.736  13.965  1.00  0.00     0.037 A 
BRANCH  55  69
ATOM     69  C   UNL     1       5.149   7.620  13.041  1.00  0.00     0.064 A 
ATOM     70  C   UNL     1       6.368   8.103  12.537  1.00  0.00     0.173 A 
ATOM     71  C   UNL     1       5.199   6.694  14.093  1.00  0.00     0.173 A 
ATOM     72  F   UNL     1       6.379   8.979  11.520  1.00  0.00    -0.203 F 
ATOM     73  C   UNL     1       7.584   7.649  13.041  1.00  0.00     0.198 A 
ATOM     74  C   UNL     1       6.417   6.268  14.618  1.00  0.00     0.198 A 
ATOM     75  F   UNL     1       4.066   6.202  14.615  1.00  0.00    -0.203 F 
ATOM     76  F   UNL     1       8.733   8.079  12.501  1.00  0.00    -0.200 F 
ATOM     77  C   UNL     1       7.608   6.738  14.085  1.00  0.00     0.200 A 
ATOM     78  F   UNL     1       6.438   5.397  15.636  1.00  0.00    -0.200 F 
ATOM     79  F   UNL     1       8.779   6.305  14.572  1.00  0.00    -0.200 F 
ENDBRANCH  55  69
BRANCH  56  80
ATOM     80  C   UNL     1      -3.633  10.255   9.058  1.00  0.00     0.064 A 
ATOM     81  C   UNL     1      -3.917  11.598   8.768  1.00  0.00     0.173 A 
ATOM     82  C   UNL     1      -4.628   9.306   8.785  1.00  0.00     0.173 A 
ATOM     83  F   UNL     1      -3.005  12.546   9.028  1.00  0.00    -0.203 F 
ATOM     84  C   UNL     1      -5.155  11.978   8.253  1.00  0.00     0.198 A 
ATOM     85  C   UNL     1      -5.854   9.684   8.241  1.00  0.00     0.198 A 
ATOM     86  F   UNL     1      -4.404   8.008   9.035  1.00  0.00    -0.203 F 
ATOM     87  F   UNL     1      -5.417  13.274   8.034  1.00  0.00    -0.200 F 
ATOM     88  C   UNL     1      -6.120  11.020   7.985  1.00  0.00     0.200 A 
ATOM     89  F   UNL     1      -6.779   8.753   7.968  1.00  0.00    -0.200 F 
ATOM     90  F   UNL     1      -7.309  11.386   7.486  1.00  0.00    -0.200 F 
ENDBRANCH  56  80
BRANCH  68  91
ATOM     91  C   UNL     1      -0.530  11.552  15.155  1.00  0.00     0.064 A 
ATOM     92  C   UNL     1      -1.580  11.152  15.995  1.00  0.00     0.173 A 
ATOM     93  C   UNL     1       0.137  12.747  15.462  1.00  0.00     0.173 A 
ATOM     94  F   UNL     1      -2.259  10.023  15.738  1.00  0.00    -0.203 F 
ATOM     95  C   UNL     1      -1.973  11.940  17.073  1.00  0.00     0.198 A 
ATOM     96  C   UNL     1      -0.236  13.515  16.561  1.00  0.00     0.198 A 
ATOM     97  F   UNL     1       1.155  13.171  14.697  1.00  0.00    -0.203 F 
ATOM     98  F   UNL     1      -3.022  11.571  17.822  1.00  0.00    -0.200 F 
ATOM     99  C   UNL     1      -1.298  13.118  17.358  1.00  0.00     0.200 A 
ATOM    100  F   UNL     1       0.428  14.644  16.844  1.00  0.00    -0.200 F 
ATOM    101  F   UNL     1      -1.680  13.876  18.395  1.00  0.00    -0.200 F 
ENDBRANCH  68  91
ENDBRANCH  42  43
ENDBRANCH  34  37
ENDBRANCH  32  33
ENDBRANCH  31  32
ENDBRANCH  30  31
ENDBRANCH   1  30
TORSDOF 17
