REMARK SMILES Cc1cc(O[C@@H](C)C(=O)NCCCCNC(=O)c2ccc(-c3c4nc(c(-c5c(F)c(F)c(F)c(F)c5F)c5ccc([nH]5)c(-c5c(F)c(F)c(F)c(F)c5F)c5nc(c(-c6c(F)c(F)c(F)c(F)c6F)c6ccc3[nH]6)C=C5)C=C4)cc2)n(C)n1
REMARK SMILES IDX 12 1 11 2 10 3 8 4 9 5 6 7 7 8 5 9 4 10 1 11 2 12 3 13 83 14
REMARK SMILES IDX 81 15 82 16 13 17 14 18 15 19 16 20 17 22 18 23 19 24 80 25
REMARK SMILES IDX 20 26 79 27 21 28 22 29 23 30 73 31 24 32 78 33 72 34 74 35
REMARK SMILES IDX 25 36 77 37 71 38 70 39 26 41 58 42 38 43 57 44 39 45 42 46
REMARK SMILES IDX 56 47 75 48 40 49 41 50 55 52 76 53 43 54 27 55 28 56 36 57
REMARK SMILES IDX 29 58 30 59 34 60 37 61 31 62 32 63 35 64 33 65 59 66 60 67
REMARK SMILES IDX 68 68 61 69 62 70 66 71 69 72 63 73 64 74 67 75 65 76 44 77
REMARK SMILES IDX 45 78 53 79 46 80 47 81 51 82 54 83 48 84 49 85 52 86 50 87
REMARK H PARENT 10 6 15 21 74 40 42 51
REMARK Flexibility Score: inf
ROOT
ATOM      1  C   UNL     1      -1.354  -1.042  -1.845  1.00  0.00     0.023 C 
ENDROOT
BRANCH   1   2
ATOM      2  C   UNL     1      -1.527  -2.433  -1.237  1.00  0.00     0.116 C 
BRANCH   2   3
ATOM      3  N   UNL     1      -0.531  -3.353  -1.735  1.00  0.00    -0.353 N 
ATOM      4  C   UNL     1       0.652  -3.764  -1.205  1.00  0.00     0.260 C 
ATOM      5  O   UNL     1       1.341  -4.496  -1.928  1.00  0.00    -0.271 OA
ATOM      6  H   UNL     1      -0.746  -3.752  -2.609  1.00  0.00     0.163 HD
BRANCH   4   7
ATOM      7  C   UNL     1       1.136  -3.408   0.228  1.00  0.00     0.260 C 
ATOM      8  C   UNL     1       0.277  -4.003   1.340  1.00  0.00     0.064 C 
BRANCH   7   9
ATOM      9  O   UNL     1       1.697  -2.122   0.456  1.00  0.00    -0.465 OA
BRANCH   9  10
ATOM     10  C   UNL     1       0.955  -1.059   0.762  1.00  0.00     0.212 A 
ATOM     11  C   UNL     1      -1.712   1.291   1.700  1.00  0.00     0.069 C 
ATOM     12  C   UNL     1      -0.490   0.550   1.302  1.00  0.00     0.063 A 
ATOM     13  C   UNL     1      -0.205  -0.827   1.471  1.00  0.00     0.093 A 
ATOM     14  N   UNL     1       0.489   1.172   0.640  1.00  0.00    -0.175 NA
ATOM     15  N   UNL     1       1.388   0.197   0.401  1.00  0.00    -0.237 N 
ATOM     16  C   UNL     1       2.644   0.547  -0.220  1.00  0.00     0.178 C 
ENDBRANCH   9  10
ENDBRANCH   7   9
ENDBRANCH   4   7
ENDBRANCH   2   3
ENDBRANCH   1   2
BRANCH   1  17
ATOM     17  C   UNL     1      -2.336  -0.711  -2.964  1.00  0.00     0.023 C 
BRANCH  17  18
ATOM     18  C   UNL     1      -3.807  -0.717  -2.556  1.00  0.00     0.116 C 
BRANCH  18  19
ATOM     19  N   UNL     1      -4.128   0.150  -1.429  1.00  0.00    -0.352 N 
ATOM     20  C   UNL     1      -5.289   0.852  -1.199  1.00  0.00     0.251 C 
ATOM     21  H   UNL     1      -3.425   0.245  -0.746  1.00  0.00     0.163 HD
ATOM     22  O   UNL     1      -5.405   1.578  -0.217  1.00  0.00    -0.269 OA
BRANCH  20  23
ATOM     23  C   UNL     1      -6.378   0.759  -2.192  1.00  0.00     0.039 A 
ATOM     24  C   UNL     1      -6.869   1.932  -2.769  1.00  0.00     0.014 A 
ATOM     25  C   UNL     1      -6.821  -0.490  -2.631  1.00  0.00     0.014 A 
ATOM     26  C   UNL     1      -7.730   1.849  -3.865  1.00  0.00     0.010 A 
ATOM     27  C   UNL     1      -7.610  -0.571  -3.771  1.00  0.00     0.010 A 
ATOM     28  C   UNL     1      -8.059   0.597  -4.409  1.00  0.00    -0.014 A 
BRANCH  28  29
ATOM     29  C   UNL     1      -8.845   0.471  -5.662  1.00  0.00     0.031 A 
ATOM     30  C   UNL     1     -10.163  -0.248  -5.649  1.00  0.00     0.074 A 
ATOM     31  C   UNL     1      -8.315   0.892  -6.828  1.00  0.00     0.049 A 
ATOM     32  N   UNL     1     -10.926  -0.601  -6.651  1.00  0.00    -0.248 NA
ATOM     33  C   UNL     1     -10.668  -0.667  -4.332  1.00  0.00     0.031 C 
ATOM     34  C   UNL     1      -7.010   1.537  -6.983  1.00  0.00     0.029 A 
ATOM     35  N   UNL     1      -8.802   0.818  -8.110  1.00  0.00    -0.354 N 
ATOM     36  C   UNL     1     -11.974  -1.317  -6.091  1.00  0.00     0.074 A 
ATOM     37  C   UNL     1     -11.729  -1.385  -4.667  1.00  0.00     0.031 C 
ATOM     38  C   UNL     1      -6.808   1.814  -8.281  1.00  0.00     0.029 A 
ATOM     39  C   UNL     1      -7.950   1.336  -9.054  1.00  0.00     0.049 A 
ATOM     40  H   UNL     1      -9.679   0.429  -8.331  1.00  0.00     0.167 HD
ATOM     41  C   UNL     1     -13.055  -1.853  -6.707  1.00  0.00     0.037 A 
ATOM     42  C   UNL     1      -8.074   1.411 -10.392  1.00  0.00     0.037 A 
ATOM     43  C   UNL     1     -13.324  -1.731  -8.114  1.00  0.00     0.049 A 
ATOM     44  C   UNL     1      -9.315   0.870 -11.046  1.00  0.00     0.074 A 
ATOM     45  C   UNL     1     -14.436  -2.153  -8.821  1.00  0.00     0.029 A 
ATOM     46  N   UNL     1     -12.470  -1.132  -9.030  1.00  0.00    -0.354 N 
ATOM     47  N   UNL     1     -10.336   0.258 -10.498  1.00  0.00    -0.248 NA
ATOM     48  C   UNL     1      -9.426   1.037 -12.502  1.00  0.00     0.031 C 
ATOM     49  C   UNL     1     -14.243  -1.835 -10.170  1.00  0.00     0.029 A 
ATOM     50  C   UNL     1     -13.026  -1.183 -10.297  1.00  0.00     0.049 A 
ATOM     51  H   UNL     1     -11.598  -0.731  -8.811  1.00  0.00     0.167 HD
ATOM     52  C   UNL     1     -11.218  -0.016 -11.533  1.00  0.00     0.074 A 
ATOM     53  C   UNL     1     -10.618   0.510 -12.742  1.00  0.00     0.031 C 
ATOM     54  C   UNL     1     -12.416  -0.647 -11.487  1.00  0.00     0.037 A 
BRANCH  41  55
ATOM     55  C   UNL     1     -14.028  -2.613  -5.855  1.00  0.00     0.064 A 
ATOM     56  C   UNL     1     -14.853  -1.966  -4.923  1.00  0.00     0.173 A 
ATOM     57  C   UNL     1     -14.144  -4.005  -5.980  1.00  0.00     0.173 A 
ATOM     58  F   UNL     1     -14.769  -0.637  -4.756  1.00  0.00    -0.203 F 
ATOM     59  C   UNL     1     -15.732  -2.688  -4.121  1.00  0.00     0.198 A 
ATOM     60  C   UNL     1     -15.046  -4.722  -5.197  1.00  0.00     0.198 A 
ATOM     61  F   UNL     1     -13.382  -4.673  -6.859  1.00  0.00    -0.203 F 
ATOM     62  F   UNL     1     -16.467  -2.055  -3.197  1.00  0.00    -0.200 F 
ATOM     63  C   UNL     1     -15.832  -4.064  -4.262  1.00  0.00     0.200 A 
ATOM     64  F   UNL     1     -15.149  -6.050  -5.341  1.00  0.00    -0.200 F 
ATOM     65  F   UNL     1     -16.678  -4.758  -3.489  1.00  0.00    -0.200 F 
ENDBRANCH  41  55
BRANCH  42  66
ATOM     66  C   UNL     1      -7.005   2.056 -11.197  1.00  0.00     0.064 A 
ATOM     67  C   UNL     1      -7.204   3.323 -11.763  1.00  0.00     0.173 A 
ATOM     68  C   UNL     1      -5.766   1.435 -11.403  1.00  0.00     0.173 A 
ATOM     69  F   UNL     1      -8.380   3.948 -11.609  1.00  0.00    -0.203 F 
ATOM     70  C   UNL     1      -6.207   3.939 -12.516  1.00  0.00     0.198 A 
ATOM     71  C   UNL     1      -4.761   2.061 -12.137  1.00  0.00     0.198 A 
ATOM     72  F   UNL     1      -5.526   0.225 -10.877  1.00  0.00    -0.203 F 
ATOM     73  F   UNL     1      -6.434   5.136 -13.074  1.00  0.00    -0.200 F 
ATOM     74  C   UNL     1      -4.984   3.311 -12.698  1.00  0.00     0.200 A 
ATOM     75  F   UNL     1      -3.577   1.456 -12.301  1.00  0.00    -0.200 F 
ATOM     76  F   UNL     1      -4.022   3.906 -13.416  1.00  0.00    -0.200 F 
ENDBRANCH  42  66
BRANCH  54  77
ATOM     77  C   UNL     1     -13.171  -0.781 -12.774  1.00  0.00     0.064 A 
ATOM     78  C   UNL     1     -12.790  -1.709 -13.753  1.00  0.00     0.173 A 
ATOM     79  C   UNL     1     -14.318  -0.006 -13.008  1.00  0.00     0.173 A 
ATOM     80  F   UNL     1     -11.692  -2.460 -13.579  1.00  0.00    -0.203 F 
ATOM     81  C   UNL     1     -13.523  -1.847 -14.928  1.00  0.00     0.198 A 
ATOM     82  C   UNL     1     -15.061  -0.164 -14.174  1.00  0.00     0.198 A 
ATOM     83  F   UNL     1     -14.724   0.892 -12.098  1.00  0.00    -0.203 F 
ATOM     84  F   UNL     1     -13.122  -2.716 -15.867  1.00  0.00    -0.200 F 
ATOM     85  C   UNL     1     -14.661  -1.081 -15.135  1.00  0.00     0.200 A 
ATOM     86  F   UNL     1     -16.165   0.570 -14.368  1.00  0.00    -0.200 F 
ATOM     87  F   UNL     1     -15.369  -1.221 -16.264  1.00  0.00    -0.200 F 
ENDBRANCH  54  77
ENDBRANCH  28  29
ENDBRANCH  20  23
ENDBRANCH  18  19
ENDBRANCH  17  18
ENDBRANCH   1  17
TORSDOF 13
