REMARK SMILES C[C@H](C(=O)NCCCCNC(=O)c1ccc(-c2c3nc(c(-c4c(F)c(F)c(F)c(F)c4F)c4ccc([nH]4)c(-c4c(F)c(F)c(F)c(F)c4F)c4nc(c(-c5c(F)c(F)c(F)c(F)c5F)c5ccc2[nH]5)C=C4)C=C3)cc1)n1nnnc1-c1csc(I)c1
REMARK SMILES IDX 7 1 6 2 5 3 3 4 4 5 2 7 1 8 76 9 77 10 80 11 78 12 79 13
REMARK SMILES IDX 81 14 82 15 86 16 83 17 84 18 85 19 8 20 9 21 10 22 11 23
REMARK SMILES IDX 12 25 13 26 14 27 75 28 15 29 74 30 16 31 17 32 18 33 68 34
REMARK SMILES IDX 19 35 73 36 67 37 69 38 20 39 72 40 66 41 65 42 21 44 53 45
REMARK SMILES IDX 33 46 52 47 34 48 37 49 51 50 70 51 35 52 36 53 50 55 71 56
REMARK SMILES IDX 38 57 22 58 23 59 31 60 24 61 25 62 29 63 32 64 26 65 27 66
REMARK SMILES IDX 30 67 28 68 54 69 55 70 63 71 56 72 57 73 61 74 64 75 58 76
REMARK SMILES IDX 59 77 62 78 60 79 39 80 40 81 48 82 41 83 42 84 46 85 49 86
REMARK SMILES IDX 43 87 44 88 47 89 45 90
REMARK H PARENT 5 6 10 24 69 43 37 54
REMARK Flexibility Score: inf
ROOT
ATOM      1  C   UNL     1       0.056   2.796   0.119  1.00  0.00     0.023 C 
ENDROOT
BRANCH   1   2
ATOM      2  C   UNL     1       1.321   2.046  -0.275  1.00  0.00     0.116 C 
BRANCH   2   3
ATOM      3  N   UNL     1       1.371   0.764   0.395  1.00  0.00    -0.354 N 
ATOM      4  C   UNL     1       0.817  -0.434   0.038  1.00  0.00     0.244 C 
ATOM      5  O   UNL     1       0.899  -1.344   0.865  1.00  0.00    -0.273 OA
ATOM      6  H   UNL     1       1.882   0.753   1.236  1.00  0.00     0.163 HD
BRANCH   4   7
ATOM      7  C   UNL     1       0.183  -0.630  -1.343  1.00  0.00     0.197 C 
ATOM      8  C   UNL     1       0.833  -1.853  -1.998  1.00  0.00     0.044 C 
BRANCH   7   9
ATOM      9  N   UNL     1      -1.261  -0.751  -1.240  1.00  0.00    -0.213 N 
ATOM     10  N   UNL     1      -1.806  -1.890  -0.764  1.00  0.00    -0.044 NA
ATOM     11  C   UNL     1      -2.256   0.190  -1.393  1.00  0.00     0.183 A 
ATOM     12  N   UNL     1      -3.072  -1.604  -0.518  1.00  0.00    -0.023 NA
ATOM     13  N   UNL     1      -3.354  -0.311  -0.861  1.00  0.00    -0.108 NA
BRANCH  11  14
ATOM     14  C   UNL     1      -2.224   1.567  -1.972  1.00  0.00     0.033 A 
ATOM     15  C   UNL     1      -1.388   2.007  -2.976  1.00  0.00     0.078 A 
ATOM     16  C   UNL     1      -3.111   2.606  -1.531  1.00  0.00     0.038 A 
ATOM     17  S   UNL     1      -1.634   3.673  -3.337  1.00  0.00    -0.137 S 
ATOM     18  C   UNL     1      -2.828   3.802  -2.141  1.00  0.00     0.066 A 
ATOM     19  I   UNL     1      -3.722   5.580  -1.634  1.00  0.00    -0.032 I 
ENDBRANCH  11  14
ENDBRANCH   7   9
ENDBRANCH   4   7
ENDBRANCH   2   3
ENDBRANCH   1   2
BRANCH   1  20
ATOM     20  C   UNL     1       0.193   3.719   1.319  1.00  0.00     0.023 C 
BRANCH  20  21
ATOM     21  C   UNL     1       1.088   4.927   1.079  1.00  0.00     0.116 C 
BRANCH  21  22
ATOM     22  N   UNL     1       0.702   5.743  -0.067  1.00  0.00    -0.352 N 
ATOM     23  C   UNL     1       0.656   7.116  -0.187  1.00  0.00     0.251 C 
ATOM     24  H   UNL     1       0.436   5.241  -0.871  1.00  0.00     0.163 HD
ATOM     25  O   UNL     1       0.251   7.638  -1.210  1.00  0.00    -0.269 OA
BRANCH  23  26
ATOM     26  C   UNL     1       1.058   7.945   0.968  1.00  0.00     0.039 A 
ATOM     27  C   UNL     1       0.213   8.976   1.385  1.00  0.00     0.014 A 
ATOM     28  C   UNL     1       2.217   7.645   1.683  1.00  0.00     0.014 A 
ATOM     29  C   UNL     1       0.478   9.636   2.587  1.00  0.00     0.010 A 
ATOM     30  C   UNL     1       2.420   8.227   2.926  1.00  0.00     0.010 A 
ATOM     31  C   UNL     1       1.549   9.223   3.395  1.00  0.00    -0.014 A 
BRANCH  31  32
ATOM     32  C   UNL     1       1.790   9.804   4.739  1.00  0.00     0.031 A 
ATOM     33  C   UNL     1       3.103  10.476   5.031  1.00  0.00     0.074 A 
ATOM     34  C   UNL     1       0.886   9.623   5.722  1.00  0.00     0.049 A 
ATOM     35  N   UNL     1       3.588  10.888   6.173  1.00  0.00    -0.248 NA
ATOM     36  C   UNL     1       4.013  10.666   3.889  1.00  0.00     0.031 C 
ATOM     37  C   UNL     1      -0.397   8.931   5.582  1.00  0.00     0.029 A 
ATOM     38  N   UNL     1       0.919   9.992   7.044  1.00  0.00    -0.354 N 
ATOM     39  C   UNL     1       4.870  11.343   5.894  1.00  0.00     0.074 A 
ATOM     40  C   UNL     1       5.107  11.112   4.486  1.00  0.00     0.031 C 
ATOM     41  C   UNL     1      -1.037   8.945   6.762  1.00  0.00     0.029 A 
ATOM     42  C   UNL     1      -0.195   9.609   7.751  1.00  0.00     0.049 A 
ATOM     43  H   UNL     1       1.670  10.485   7.447  1.00  0.00     0.167 HD
ATOM     44  C   UNL     1       5.760  11.924   6.732  1.00  0.00     0.037 A 
ATOM     45  C   UNL     1      -0.496   9.769   9.054  1.00  0.00     0.037 A 
ATOM     46  C   UNL     1       5.494  12.211   8.116  1.00  0.00     0.049 A 
ATOM     47  C   UNL     1       0.489  10.468   9.951  1.00  0.00     0.074 A 
ATOM     48  C   UNL     1       6.296  12.869   9.031  1.00  0.00     0.029 A 
ATOM     49  N   UNL     1       4.325  11.868   8.779  1.00  0.00    -0.354 N 
ATOM     50  N   UNL     1       1.675  10.944   9.664  1.00  0.00    -0.248 NA
ATOM     51  C   UNL     1       0.090  10.656  11.353  1.00  0.00     0.031 C 
ATOM     52  C   UNL     1       5.622  12.903  10.256  1.00  0.00     0.029 A 
ATOM     53  C   UNL     1       4.386  12.298  10.094  1.00  0.00     0.049 A 
ATOM     54  H   UNL     1       3.565  11.391   8.375  1.00  0.00     0.167 HD
ATOM     55  C   UNL     1       2.153  11.511  10.837  1.00  0.00     0.074 A 
ATOM     56  C   UNL     1       1.122  11.331  11.838  1.00  0.00     0.031 C 
ATOM     57  C   UNL     1       3.339  12.124  11.066  1.00  0.00     0.037 A 
BRANCH  44  58
ATOM     58  C   UNL     1       7.097  12.303   6.169  1.00  0.00     0.064 A 
ATOM     59  C   UNL     1       7.238  13.362   5.260  1.00  0.00     0.173 A 
ATOM     60  C   UNL     1       8.256  11.618   6.564  1.00  0.00     0.173 A 
ATOM     61  F   UNL     1       6.158  14.038   4.839  1.00  0.00    -0.203 F 
ATOM     62  C   UNL     1       8.485  13.702   4.744  1.00  0.00     0.198 A 
ATOM     63  C   UNL     1       9.506  11.980   6.068  1.00  0.00     0.198 A 
ATOM     64  F   UNL     1       8.177  10.599   7.433  1.00  0.00    -0.203 F 
ATOM     65  F   UNL     1       8.588  14.683   3.836  1.00  0.00    -0.200 F 
ATOM     66  C   UNL     1       9.618  13.016   5.153  1.00  0.00     0.200 A 
ATOM     67  F   UNL     1      10.602  11.323   6.472  1.00  0.00    -0.200 F 
ATOM     68  F   UNL     1      10.819  13.348   4.659  1.00  0.00    -0.200 F 
ENDBRANCH  44  58
BRANCH  45  69
ATOM     69  C   UNL     1      -1.798   9.288   9.583  1.00  0.00     0.064 A 
ATOM     70  C   UNL     1      -2.797  10.198   9.957  1.00  0.00     0.173 A 
ATOM     71  C   UNL     1      -2.069   7.921   9.736  1.00  0.00     0.173 A 
ATOM     72  F   UNL     1      -2.576  11.516   9.848  1.00  0.00    -0.203 F 
ATOM     73  C   UNL     1      -4.009   9.760  10.486  1.00  0.00     0.198 A 
ATOM     74  C   UNL     1      -3.292   7.483  10.242  1.00  0.00     0.198 A 
ATOM     75  F   UNL     1      -1.148   7.011   9.388  1.00  0.00    -0.203 F 
ATOM     76  F   UNL     1      -4.928  10.653  10.878  1.00  0.00    -0.200 F 
ATOM     77  C   UNL     1      -4.257   8.402  10.624  1.00  0.00     0.200 A 
ATOM     78  F   UNL     1      -3.533   6.171  10.363  1.00  0.00    -0.200 F 
ATOM     79  F   UNL     1      -5.423   7.981  11.133  1.00  0.00    -0.200 F 
ENDBRANCH  45  69
BRANCH  57  80
ATOM     80  C   UNL     1       3.569  12.682  12.438  1.00  0.00     0.064 A 
ATOM     81  C   UNL     1       3.847  11.849  13.531  1.00  0.00     0.173 A 
ATOM     82  C   UNL     1       3.558  14.069  12.649  1.00  0.00     0.173 A 
ATOM     83  F   UNL     1       3.853  10.516  13.380  1.00  0.00    -0.203 F 
ATOM     84  C   UNL     1       4.087  12.386  14.793  1.00  0.00     0.198 A 
ATOM     85  C   UNL     1       3.824  14.602  13.906  1.00  0.00     0.198 A 
ATOM     86  F   UNL     1       3.304  14.905  11.632  1.00  0.00    -0.203 F 
ATOM     87  F   UNL     1       4.312  11.571  15.833  1.00  0.00    -0.200 F 
ATOM     88  C   UNL     1       4.082  13.761  14.978  1.00  0.00     0.200 A 
ATOM     89  F   UNL     1       3.831  15.931  14.081  1.00  0.00    -0.200 F 
ATOM     90  F   UNL     1       4.322  14.275  16.192  1.00  0.00    -0.200 F 
ENDBRANCH  57  80
ENDBRANCH  31  32
ENDBRANCH  23  26
ENDBRANCH  21  22
ENDBRANCH  20  21
ENDBRANCH   1  20
TORSDOF 13
