REMARK SMILES CC[NH+]1CCC2(CC1)OC[C@@H](C(=O)NCCCCNC(=O)c1ccc(-c3c4nc(c(-c5c(F)c(F)c(F)c(F)c5F)c5ccc([nH]5)c(-c5c(F)c(F)c(F)c(F)c5F)c5nc(c(-c6c(F)c(F)c(F)c(F)c6F)c6ccc3[nH]6)C=C5)C=C4)cc1)N2C(=O)c1ccc(Cl)c([N+](=O)[O-])c1
REMARK SMILES IDX 16 1 15 2 14 3 12 4 13 5 11 7 3 8 4 9 8 10 5 12 7 13 6 14
REMARK SMILES IDX 9 15 85 16 10 17 2 18 1 19 86 20 87 21 88 22 89 23 97 24
REMARK SMILES IDX 90 25 93 26 91 27 92 28 94 29 95 30 96 31 17 32 18 33 19 34
REMARK SMILES IDX 20 35 21 37 22 38 23 39 84 40 24 41 83 42 25 43 26 44 27 45
REMARK SMILES IDX 77 46 28 47 82 48 76 49 78 50 29 51 81 52 75 53 74 54 30 56
REMARK SMILES IDX 62 57 42 58 61 59 43 60 46 61 60 62 79 63 44 64 45 65 59 67
REMARK SMILES IDX 80 68 47 69 31 70 32 71 40 72 33 73 34 74 38 75 41 76 35 77
REMARK SMILES IDX 36 78 39 79 37 80 63 81 64 82 72 83 65 84 66 85 70 86 73 87
REMARK SMILES IDX 67 88 68 89 71 90 69 91 48 92 49 93 57 94 50 95 51 96 55 97
REMARK SMILES IDX 58 98 52 99 53 100 56 101 54 102
REMARK H PARENT 14 6 3 11 19 36 78 55 46 66
REMARK Flexibility Score: inf
ROOT
ATOM      1  C   UNL     1       6.692   2.401  -2.183  1.00  0.00     0.023 C 
ENDROOT
BRANCH   1   2
ATOM      2  C   UNL     1       7.086   2.183  -0.732  1.00  0.00     0.116 C 
BRANCH   2   3
ATOM      3  N   UNL     1       7.502   3.421  -0.118  1.00  0.00    -0.354 N 
ATOM      4  C   UNL     1       6.819   4.258   0.710  1.00  0.00     0.245 C 
ATOM      5  O   UNL     1       7.467   5.196   1.192  1.00  0.00    -0.273 OA
ATOM      6  H   UNL     1       8.421   3.703  -0.331  1.00  0.00     0.163 HD
BRANCH   4   7
ATOM      7  C   UNL     1       5.408   3.938   1.251  1.00  0.00     0.203 C 
ATOM      8  N   UNL     1       0.900   1.406   0.413  1.00  0.00    -0.335 N 
ATOM      9  C   UNL     1       1.153   2.552   1.288  1.00  0.00     0.267 C 
ATOM     10  C   UNL     1       2.019   1.000  -0.426  1.00  0.00     0.267 C 
ATOM     11  H   UNL     1       0.249   1.728  -0.303  1.00  0.00     0.348 HD
ATOM     12  C   UNL     1       2.517   2.597   1.959  1.00  0.00     0.120 C 
ATOM     13  C   UNL     1       3.393   1.018   0.209  1.00  0.00     0.120 C 
ATOM     14  C   UNL     1       3.703   2.259   1.040  1.00  0.00     0.155 C 
ATOM     15  O   UNL     1       4.747   1.785   1.944  1.00  0.00    -0.352 OA
ATOM     16  N   UNL     1       4.345   3.420   0.382  1.00  0.00    -0.295 N 
ATOM     17  C   UNL     1       5.570   2.888   2.332  1.00  0.00     0.198 C 
BRANCH   8  18
ATOM     18  C   UNL     1       0.190   0.334   1.117  1.00  0.00     0.258 C 
ATOM     19  C   UNL     1      -0.089  -0.919   0.292  1.00  0.00     0.071 C 
ENDBRANCH   8  18
BRANCH  16  20
ATOM     20  C   UNL     1       3.984   4.264  -0.667  1.00  0.00     0.257 C 
ATOM     21  O   UNL     1       4.579   5.317  -0.897  1.00  0.00    -0.269 OA
BRANCH  20  22
ATOM     22  C   UNL     1       2.910   3.956  -1.626  1.00  0.00     0.047 A 
ATOM     23  C   UNL     1       3.188   3.299  -2.828  1.00  0.00     0.016 A 
ATOM     24  C   UNL     1       1.624   4.442  -1.404  1.00  0.00     0.101 A 
ATOM     25  C   UNL     1       2.159   3.003  -3.727  1.00  0.00     0.028 A 
ATOM     26  C   UNL     1       0.568   4.063  -2.261  1.00  0.00     0.288 A 
ATOM     27  C   UNL     1       0.833   3.347  -3.435  1.00  0.00     0.118 A 
ATOM     28  Cl  UNL     1      -0.338   2.872  -4.611  1.00  0.00    -0.077 Cl
BRANCH  26  29
ATOM     29  N   UNL     1      -0.793   4.374  -1.816  1.00  0.00     0.064 N 
ATOM     30  O   UNL     1      -1.728   3.667  -2.208  1.00  0.00    -0.258 OA
ATOM     31  O   UNL     1      -0.920   5.306  -1.008  1.00  0.00    -0.258 OA
ENDBRANCH  26  29
ENDBRANCH  20  22
ENDBRANCH  16  20
ENDBRANCH   4   7
ENDBRANCH   2   3
ENDBRANCH   1   2
BRANCH   1  32
ATOM     32  C   UNL     1       7.822   2.802  -3.124  1.00  0.00     0.023 C 
BRANCH  32  33
ATOM     33  C   UNL     1       9.029   1.883  -3.104  1.00  0.00     0.116 C 
BRANCH  33  34
ATOM     34  N   UNL     1       8.710   0.513  -3.474  1.00  0.00    -0.352 N 
ATOM     35  C   UNL     1       9.383  -0.317  -4.347  1.00  0.00     0.251 C 
ATOM     36  H   UNL     1       7.911   0.128  -3.047  1.00  0.00     0.163 HD
ATOM     37  O   UNL     1       8.929  -1.403  -4.652  1.00  0.00    -0.269 OA
BRANCH  35  38
ATOM     38  C   UNL     1      10.652   0.162  -4.937  1.00  0.00     0.039 A 
ATOM     39  C   UNL     1      10.824   0.090  -6.321  1.00  0.00     0.014 A 
ATOM     40  C   UNL     1      11.630   0.745  -4.128  1.00  0.00     0.014 A 
ATOM     41  C   UNL     1      11.950   0.676  -6.903  1.00  0.00     0.010 A 
ATOM     42  C   UNL     1      12.700   1.406  -4.716  1.00  0.00     0.010 A 
ATOM     43  C   UNL     1      12.874   1.374  -6.109  1.00  0.00    -0.014 A 
BRANCH  43  44
ATOM     44  C   UNL     1      14.045   2.065  -6.702  1.00  0.00     0.031 A 
ATOM     45  C   UNL     1      15.433   1.620  -6.335  1.00  0.00     0.074 A 
ATOM     46  C   UNL     1      13.864   3.133  -7.501  1.00  0.00     0.049 A 
ATOM     47  N   UNL     1      16.586   2.148  -6.657  1.00  0.00    -0.248 NA
ATOM     48  C   UNL     1      15.534   0.442  -5.459  1.00  0.00     0.031 C 
ATOM     49  C   UNL     1      12.569   3.687  -7.897  1.00  0.00     0.029 A 
ATOM     50  N   UNL     1      14.777   3.952  -8.117  1.00  0.00    -0.354 N 
ATOM     51  C   UNL     1      17.544   1.379  -6.009  1.00  0.00     0.074 A 
ATOM     52  C   UNL     1      16.836   0.391  -5.224  1.00  0.00     0.031 C 
ATOM     53  C   UNL     1      12.769   4.734  -8.713  1.00  0.00     0.029 A 
ATOM     54  C   UNL     1      14.205   4.952  -8.864  1.00  0.00     0.049 A 
ATOM     55  H   UNL     1      15.751   3.834  -8.030  1.00  0.00     0.167 HD
ATOM     56  C   UNL     1      18.893   1.469  -6.084  1.00  0.00     0.037 A 
ATOM     57  C   UNL     1      14.777   5.933  -9.586  1.00  0.00     0.037 A 
ATOM     58  C   UNL     1      19.592   2.437  -6.885  1.00  0.00     0.049 A 
ATOM     59  C   UNL     1      16.278   6.026  -9.639  1.00  0.00     0.074 A 
ATOM     60  C   UNL     1      20.955   2.583  -7.070  1.00  0.00     0.029 A 
ATOM     61  N   UNL     1      18.977   3.428  -7.638  1.00  0.00    -0.354 N 
ATOM     62  N   UNL     1      17.176   5.260  -9.069  1.00  0.00    -0.248 NA
ATOM     63  C   UNL     1      16.845   7.122 -10.437  1.00  0.00     0.031 C 
ATOM     64  C   UNL     1      21.167   3.688  -7.902  1.00  0.00     0.029 A 
ATOM     65  C   UNL     1      19.934   4.200  -8.275  1.00  0.00     0.049 A 
ATOM     66  H   UNL     1      18.004   3.562  -7.708  1.00  0.00     0.167 HD
ATOM     67  C   UNL     1      18.410   5.756  -9.466  1.00  0.00     0.074 A 
ATOM     68  C   UNL     1      18.145   6.887 -10.332  1.00  0.00     0.031 C 
ATOM     69  C   UNL     1      19.650   5.313  -9.146  1.00  0.00     0.037 A 
BRANCH  56  70
ATOM     70  C   UNL     1      19.692   0.486  -5.277  1.00  0.00     0.064 A 
ATOM     71  C   UNL     1      19.708  -0.882  -5.592  1.00  0.00     0.173 A 
ATOM     72  C   UNL     1      20.450   0.914  -4.178  1.00  0.00     0.173 A 
ATOM     73  F   UNL     1      18.988  -1.346  -6.625  1.00  0.00    -0.203 F 
ATOM     74  C   UNL     1      20.419  -1.789  -4.811  1.00  0.00     0.198 A 
ATOM     75  C   UNL     1      21.187   0.008  -3.419  1.00  0.00     0.198 A 
ATOM     76  F   UNL     1      20.473   2.211  -3.835  1.00  0.00    -0.203 F 
ATOM     77  F   UNL     1      20.364  -3.099  -5.092  1.00  0.00    -0.200 F 
ATOM     78  C   UNL     1      21.161  -1.343  -3.729  1.00  0.00     0.200 A 
ATOM     79  F   UNL     1      21.914   0.442  -2.380  1.00  0.00    -0.200 F 
ATOM     80  F   UNL     1      21.843  -2.218  -2.977  1.00  0.00    -0.200 F 
ENDBRANCH  56  70
BRANCH  57  81
ATOM     81  C   UNL     1      13.928   6.881 -10.355  1.00  0.00     0.064 A 
ATOM     82  C   UNL     1      13.891   6.829 -11.755  1.00  0.00     0.173 A 
ATOM     83  C   UNL     1      13.139   7.848  -9.716  1.00  0.00     0.173 A 
ATOM     84  F   UNL     1      14.644   5.934 -12.412  1.00  0.00    -0.203 F 
ATOM     85  C   UNL     1      13.109   7.719 -12.489  1.00  0.00     0.198 A 
ATOM     86  C   UNL     1      12.337   8.720 -10.449  1.00  0.00     0.198 A 
ATOM     87  F   UNL     1      13.137   7.935  -8.378  1.00  0.00    -0.203 F 
ATOM     88  F   UNL     1      13.122   7.672 -13.828  1.00  0.00    -0.200 F 
ATOM     89  C   UNL     1      12.328   8.659 -11.835  1.00  0.00     0.200 A 
ATOM     90  F   UNL     1      11.574   9.619  -9.814  1.00  0.00    -0.200 F 
ATOM     91  F   UNL     1      11.571   9.511 -12.540  1.00  0.00    -0.200 F 
ENDBRANCH  57  81
BRANCH  69  92
ATOM     92  C   UNL     1      20.817   6.021  -9.770  1.00  0.00     0.064 A 
ATOM     93  C   UNL     1      21.203   7.306  -9.365  1.00  0.00     0.173 A 
ATOM     94  C   UNL     1      21.587   5.381 -10.754  1.00  0.00     0.173 A 
ATOM     95  F   UNL     1      20.490   7.965  -8.440  1.00  0.00    -0.203 F 
ATOM     96  C   UNL     1      22.306   7.934  -9.938  1.00  0.00     0.198 A 
ATOM     97  C   UNL     1      22.706   6.000 -11.303  1.00  0.00     0.198 A 
ATOM     98  F   UNL     1      21.262   4.148 -11.171  1.00  0.00    -0.203 F 
ATOM     99  F   UNL     1      22.632   9.180  -9.567  1.00  0.00    -0.200 F 
ATOM    100  C   UNL     1      23.061   7.278 -10.899  1.00  0.00     0.200 A 
ATOM    101  F   UNL     1      23.442   5.359 -12.221  1.00  0.00    -0.200 F 
ATOM    102  F   UNL     1      24.128   7.881 -11.442  1.00  0.00    -0.200 F 
ENDBRANCH  69  92
ENDBRANCH  43  44
ENDBRANCH  35  38
ENDBRANCH  33  34
ENDBRANCH  32  33
ENDBRANCH   1  32
TORSDOF 15
