REMARK SMILES CC1=C(CC(=O)NCCCCNC(=O)c2ccc(-c3c4nc(c(-c5c(F)c(F)c(F)c(F)c5F)c5ccc([nH]5)c(-c5c(F)c(F)c(F)c(F)c5F)c5nc(c(-c6c(F)c(F)c(F)c(F)c6F)c6ccc3[nH]6)C=C5)C=C4)cc2)c2cc(F)ccc2/C1=C\c1cccc(OCc2ccccc2)c1
REMARK SMILES IDX 8 1 7 2 5 3 6 4 4 6 3 7 1 8 2 9 85 10 78 11 84 12 86 13
REMARK SMILES IDX 79 14 83 15 80 16 82 17 81 18 87 19 88 20 100 21 89 22 91 23
REMARK SMILES IDX 90 24 92 25 93 26 94 27 95 28 99 29 96 30 98 31 97 32 9 33
REMARK SMILES IDX 10 34 11 35 12 36 13 37 14 39 15 40 16 41 77 42 17 43 76 44
REMARK SMILES IDX 18 45 19 46 20 47 70 48 21 49 75 50 69 51 71 52 22 53 74 54
REMARK SMILES IDX 68 55 67 56 23 58 55 59 35 60 54 61 36 62 39 63 53 64 72 65
REMARK SMILES IDX 37 66 38 67 52 69 73 70 40 71 24 72 25 73 33 74 26 75 27 76
REMARK SMILES IDX 31 77 34 78 28 79 29 80 32 81 30 82 56 83 57 84 65 85 58 86
REMARK SMILES IDX 59 87 63 88 66 89 60 90 61 91 64 92 62 93 41 94 42 95 50 96
REMARK SMILES IDX 43 97 44 98 48 99 51 100 45 101 46 102 49 103 47 104
REMARK H PARENT 7 5 12 38 71 57 39 68
REMARK Flexibility Score: inf
ROOT
ATOM      1  C   UNL     1       0.842  -1.450   3.071  1.00  0.00     0.116 C 
ENDROOT
BRANCH   1   2
ATOM      2  N   UNL     1       1.622  -2.670   3.102  1.00  0.00    -0.356 N 
ATOM      3  C   UNL     1       2.374  -3.233   2.111  1.00  0.00     0.224 C 
ATOM      4  O   UNL     1       2.949  -4.298   2.351  1.00  0.00    -0.275 OA
ATOM      5  H   UNL     1       1.607  -3.162   3.955  1.00  0.00     0.163 HD
BRANCH   3   6
ATOM      6  C   UNL     1       2.527  -2.539   0.758  1.00  0.00     0.136 C 
BRANCH   6   7
ATOM      7  C   UNL     1       1.259  -2.511  -0.030  1.00  0.00    -0.027 C 
ATOM      8  C   UNL     1       0.892   0.003  -0.361  1.00  0.00     0.045 C 
ATOM      9  C   UNL     1       0.551  -1.446  -0.476  1.00  0.00    -0.039 C 
ATOM     10  C   UNL     1      -0.691  -1.916  -1.109  1.00  0.00    -0.014 C 
ATOM     11  C   UNL     1       0.548  -3.733  -0.451  1.00  0.00    -0.011 A 
ATOM     12  C   UNL     1      -0.632  -3.388  -1.136  1.00  0.00    -0.010 A 
ATOM     13  C   UNL     1      -1.687  -1.105  -1.506  1.00  0.00     0.017 C 
ATOM     14  C   UNL     1       0.894  -5.065  -0.267  1.00  0.00     0.048 A 
ATOM     15  C   UNL     1      -1.457  -4.370  -1.668  1.00  0.00     0.012 A 
ATOM     16  C   UNL     1       0.045  -6.043  -0.779  1.00  0.00     0.123 A 
ATOM     17  C   UNL     1      -1.116  -5.710  -1.477  1.00  0.00     0.040 A 
ATOM     18  F   UNL     1       0.351  -7.335  -0.605  1.00  0.00    -0.207 F 
BRANCH  13  19
ATOM     19  C   UNL     1      -2.937  -1.536  -2.128  1.00  0.00    -0.021 A 
ATOM     20  C   UNL     1      -3.984  -2.071  -1.371  1.00  0.00     0.008 A 
ATOM     21  C   UNL     1      -3.050  -1.449  -3.519  1.00  0.00     0.054 A 
ATOM     22  C   UNL     1      -5.120  -2.561  -2.012  1.00  0.00     0.004 A 
ATOM     23  C   UNL     1      -4.199  -1.908  -4.160  1.00  0.00     0.120 A 
ATOM     24  C   UNL     1      -5.220  -2.487  -3.402  1.00  0.00     0.046 A 
BRANCH  23  25
ATOM     25  O   UNL     1      -4.447  -1.829  -5.504  1.00  0.00    -0.489 OA
BRANCH  25  26
ATOM     26  C   UNL     1      -3.616  -0.966  -6.293  1.00  0.00     0.265 C 
BRANCH  26  27
ATOM     27  C   UNL     1      -3.765   0.511  -5.985  1.00  0.00    -0.011 A 
ATOM     28  C   UNL     1      -4.949   1.032  -5.442  1.00  0.00     0.007 A 
ATOM     29  C   UNL     1      -2.709   1.392  -6.264  1.00  0.00     0.007 A 
ATOM     30  C   UNL     1      -5.058   2.389  -5.138  1.00  0.00     0.000 A 
ATOM     31  C   UNL     1      -2.823   2.752  -5.969  1.00  0.00     0.000 A 
ATOM     32  C   UNL     1      -3.994   3.248  -5.399  1.00  0.00     0.000 A 
ENDBRANCH  26  27
ENDBRANCH  25  26
ENDBRANCH  23  25
ENDBRANCH  13  19
ENDBRANCH   6   7
ENDBRANCH   3   6
ENDBRANCH   1   2
BRANCH   1  33
ATOM     33  C   UNL     1      -0.644  -1.714   2.820  1.00  0.00     0.023 C 
BRANCH  33  34
ATOM     34  C   UNL     1      -1.382  -2.412   3.961  1.00  0.00     0.023 C 
BRANCH  34  35
ATOM     35  C   UNL     1      -1.346  -1.685   5.297  1.00  0.00     0.116 C 
BRANCH  35  36
ATOM     36  N   UNL     1      -1.934  -0.353   5.263  1.00  0.00    -0.352 N 
ATOM     37  C   UNL     1      -2.572   0.322   6.279  1.00  0.00     0.251 C 
ATOM     38  H   UNL     1      -1.867   0.124   4.405  1.00  0.00     0.163 HD
ATOM     39  O   UNL     1      -3.097   1.411   6.072  1.00  0.00    -0.269 OA
BRANCH  37  40
ATOM     40  C   UNL     1      -2.670  -0.309   7.614  1.00  0.00     0.039 A 
ATOM     41  C   UNL     1      -1.552  -0.902   8.200  1.00  0.00     0.014 A 
ATOM     42  C   UNL     1      -3.912  -0.366   8.252  1.00  0.00     0.014 A 
ATOM     43  C   UNL     1      -1.712  -1.710   9.319  1.00  0.00     0.010 A 
ATOM     44  C   UNL     1      -4.054  -1.106   9.430  1.00  0.00     0.010 A 
ATOM     45  C   UNL     1      -2.968  -1.835   9.938  1.00  0.00    -0.014 A 
BRANCH  45  46
ATOM     46  C   UNL     1      -3.109  -2.760  11.093  1.00  0.00     0.031 A 
ATOM     47  C   UNL     1      -3.947  -4.005  10.985  1.00  0.00     0.074 A 
ATOM     48  C   UNL     1      -2.395  -2.526  12.210  1.00  0.00     0.049 A 
ATOM     49  N   UNL     1      -4.107  -4.971  11.856  1.00  0.00    -0.248 NA
ATOM     50  C   UNL     1      -4.706  -4.196   9.739  1.00  0.00     0.031 C 
ATOM     51  C   UNL     1      -1.534  -1.363  12.426  1.00  0.00     0.029 A 
ATOM     52  N   UNL     1      -2.238  -3.274  13.350  1.00  0.00    -0.354 N 
ATOM     53  C   UNL     1      -4.985  -5.873  11.270  1.00  0.00     0.074 A 
ATOM     54  C   UNL     1      -5.356  -5.325   9.983  1.00  0.00     0.031 C 
ATOM     55  C   UNL     1      -0.878  -1.513  13.586  1.00  0.00     0.029 A 
ATOM     56  C   UNL     1      -1.315  -2.752  14.223  1.00  0.00     0.049 A 
ATOM     57  H   UNL     1      -2.739  -4.103  13.525  1.00  0.00     0.167 HD
ATOM     58  C   UNL     1      -5.427  -7.060  11.752  1.00  0.00     0.037 A 
ATOM     59  C   UNL     1      -0.865  -3.220  15.402  1.00  0.00     0.037 A 
ATOM     60  C   UNL     1      -5.043  -7.616  13.023  1.00  0.00     0.049 A 
ATOM     61  C   UNL     1      -1.411  -4.513  15.936  1.00  0.00     0.074 A 
ATOM     62  C   UNL     1      -5.433  -8.815  13.593  1.00  0.00     0.029 A 
ATOM     63  N   UNL     1      -4.175  -7.011  13.919  1.00  0.00    -0.354 N 
ATOM     64  N   UNL     1      -2.244  -5.352  15.373  1.00  0.00    -0.248 NA
ATOM     65  C   UNL     1      -0.964  -4.914  17.277  1.00  0.00     0.031 C 
ATOM     66  C   UNL     1      -4.830  -8.919  14.851  1.00  0.00     0.029 A 
ATOM     67  C   UNL     1      -4.033  -7.803  15.047  1.00  0.00     0.049 A 
ATOM     68  H   UNL     1      -3.726  -6.146  13.776  1.00  0.00     0.167 HD
ATOM     69  C   UNL     1      -2.420  -6.383  16.285  1.00  0.00     0.074 A 
ATOM     70  C   UNL     1      -1.587  -6.075  17.430  1.00  0.00     0.031 C 
ATOM     71  C   UNL     1      -3.206  -7.481  16.182  1.00  0.00     0.037 A 
BRANCH  58  72
ATOM     72  C   UNL     1      -6.382  -7.845  10.900  1.00  0.00     0.064 A 
ATOM     73  C   UNL     1      -5.953  -8.510   9.742  1.00  0.00     0.173 A 
ATOM     74  C   UNL     1      -7.727  -7.978  11.274  1.00  0.00     0.173 A 
ATOM     75  F   UNL     1      -4.679  -8.405   9.335  1.00  0.00    -0.203 F 
ATOM     76  C   UNL     1      -6.842  -9.265   8.979  1.00  0.00     0.198 A 
ATOM     77  C   UNL     1      -8.607  -8.754  10.523  1.00  0.00     0.198 A 
ATOM     78  F   UNL     1      -8.186  -7.367  12.377  1.00  0.00    -0.203 F 
ATOM     79  F   UNL     1      -6.418  -9.861   7.856  1.00  0.00    -0.200 F 
ATOM     80  C   UNL     1      -8.165  -9.392   9.374  1.00  0.00     0.200 A 
ATOM     81  F   UNL     1      -9.883  -8.885  10.912  1.00  0.00    -0.200 F 
ATOM     82  F   UNL     1      -9.016 -10.126   8.644  1.00  0.00    -0.200 F 
ENDBRANCH  58  72
BRANCH  59  83
ATOM     83  C   UNL     1       0.180  -2.464  16.136  1.00  0.00     0.064 A 
ATOM     84  C   UNL     1       1.488  -2.958  16.227  1.00  0.00     0.173 A 
ATOM     85  C   UNL     1      -0.092  -1.219  16.720  1.00  0.00     0.173 A 
ATOM     86  F   UNL     1       1.791  -4.154  15.700  1.00  0.00    -0.203 F 
ATOM     87  C   UNL     1       2.486  -2.232  16.872  1.00  0.00     0.198 A 
ATOM     88  C   UNL     1       0.912  -0.482  17.343  1.00  0.00     0.198 A 
ATOM     89  F   UNL     1      -1.329  -0.704  16.656  1.00  0.00    -0.203 F 
ATOM     90  F   UNL     1       3.725  -2.734  16.963  1.00  0.00    -0.200 F 
ATOM     91  C   UNL     1       2.200  -0.990  17.421  1.00  0.00     0.200 A 
ATOM     92  F   UNL     1       0.634   0.724  17.857  1.00  0.00    -0.200 F 
ATOM     93  F   UNL     1       3.164  -0.283  18.024  1.00  0.00    -0.200 F 
ENDBRANCH  59  83
BRANCH  71  94
ATOM     94  C   UNL     1      -3.211  -8.437  17.337  1.00  0.00     0.064 A 
ATOM     95  C   UNL     1      -3.888  -8.135  18.527  1.00  0.00     0.173 A 
ATOM     96  C   UNL     1      -2.590  -9.690  17.230  1.00  0.00     0.173 A 
ATOM     97  F   UNL     1      -4.483  -6.943  18.682  1.00  0.00    -0.203 F 
ATOM     98  C   UNL     1      -3.935  -9.052  19.574  1.00  0.00     0.198 A 
ATOM     99  C   UNL     1      -2.659 -10.613  18.269  1.00  0.00     0.198 A 
ATOM    100  F   UNL     1      -1.935 -10.026  16.108  1.00  0.00    -0.203 F 
ATOM    101  F   UNL     1      -4.563  -8.733  20.714  1.00  0.00    -0.200 F 
ATOM    102  C   UNL     1      -3.329 -10.293  19.440  1.00  0.00     0.200 A 
ATOM    103  F   UNL     1      -2.083 -11.816  18.134  1.00  0.00    -0.200 F 
ATOM    104  F   UNL     1      -3.387 -11.179  20.444  1.00  0.00    -0.200 F 
ENDBRANCH  71  94
ENDBRANCH  45  46
ENDBRANCH  37  40
ENDBRANCH  35  36
ENDBRANCH  34  35
ENDBRANCH  33  34
ENDBRANCH   1  33
TORSDOF 16
