REMARK SMILES CCOc1cc(OCC)cc(-c2ccc([C@@H](C)C(=O)NCCCCNC(=O)c3ccc(-c4c5nc(c(-c6c(F)c(F)c(F)c(F)c6F)c6ccc([nH]6)c(-c6c(F)c(F)c(F)c(F)c6F)c6nc(c(-c7c(F)c(F)c(F)c(F)c7F)c7ccc4[nH]7)C=C6)C=C5)cc3)cc2)c1
REMARK SMILES IDX 21 1 20 2 18 3 19 4 16 6 17 7 15 8 12 9 13 10 92 11 14 12
REMARK SMILES IDX 91 13 11 14 4 15 5 16 93 17 6 18 10 19 3 20 2 21 1 22 7 23
REMARK SMILES IDX 8 24 9 25 22 26 23 27 24 28 25 29 26 30 27 32 28 33 29 34
REMARK SMILES IDX 90 35 30 36 89 37 31 38 32 39 33 40 83 41 34 42 88 43 82 44
REMARK SMILES IDX 84 45 35 46 87 47 81 48 80 49 36 51 68 52 48 53 67 54 49 55
REMARK SMILES IDX 52 56 66 57 85 58 50 59 51 60 65 62 86 63 53 64 37 65 38 66
REMARK SMILES IDX 46 67 39 68 40 69 44 70 47 71 41 72 42 73 45 74 43 75 69 76
REMARK SMILES IDX 70 77 78 78 71 79 72 80 76 81 79 82 73 83 74 84 77 85 75 86
REMARK SMILES IDX 54 87 55 88 63 89 56 90 57 91 61 92 64 93 58 94 59 95 62 96
REMARK SMILES IDX 60 97
REMARK H PARENT 20 5 25 31 84 50 52 61
REMARK Flexibility Score: inf
ROOT
ATOM      1  C   UNL     1       9.312  -2.067   1.095  1.00  0.00     0.116 C 
ENDROOT
BRANCH   1   2
ATOM      2  N   UNL     1       8.596  -3.324   1.031  1.00  0.00    -0.356 N 
ATOM      3  C   UNL     1       7.987  -3.970  -0.003  1.00  0.00     0.227 C 
ATOM      4  O   UNL     1       7.396  -5.019   0.283  1.00  0.00    -0.274 OA
ATOM      5  H   UNL     1       8.540  -3.799   1.891  1.00  0.00     0.163 HD
BRANCH   3   6
ATOM      6  C   UNL     1       8.008  -3.476  -1.459  1.00  0.00     0.105 C 
ATOM      7  C   UNL     1       9.405  -3.404  -2.075  1.00  0.00     0.023 C 
BRANCH   6   8
ATOM      8  C   UNL     1       7.120  -2.265  -1.692  1.00  0.00    -0.036 A 
ATOM      9  C   UNL     1       5.344  -0.040  -1.915  1.00  0.00    -0.018 A 
ATOM     10  C   UNL     1       6.715   0.126  -1.656  1.00  0.00     0.009 A 
ATOM     11  C   UNL     1       4.892  -1.354  -2.104  1.00  0.00     0.009 A 
ATOM     12  C   UNL     1       7.592  -0.958  -1.593  1.00  0.00     0.005 A 
ATOM     13  C   UNL     1       5.758  -2.448  -1.972  1.00  0.00     0.005 A 
BRANCH   9  14
ATOM     14  C   UNL     1       4.437   1.131  -1.953  1.00  0.00    -0.011 A 
ATOM     15  C   UNL     1       2.280   2.180  -1.525  1.00  0.00     0.123 A 
ATOM     16  C   UNL     1       2.787   3.422  -1.903  1.00  0.00     0.092 A 
ATOM     17  C   UNL     1       3.093   1.046  -1.561  1.00  0.00     0.055 A 
ATOM     18  C   UNL     1       4.112   3.537  -2.321  1.00  0.00     0.123 A 
ATOM     19  C   UNL     1       4.911   2.393  -2.360  1.00  0.00     0.055 A 
BRANCH  15  20
ATOM     20  O   UNL     1       0.945   2.083  -1.247  1.00  0.00    -0.494 OA
BRANCH  20  21
ATOM     21  C   UNL     1       0.655   1.760   0.119  1.00  0.00     0.226 C 
ATOM     22  C   UNL     1       0.505   0.261   0.332  1.00  0.00     0.049 C 
ENDBRANCH  20  21
ENDBRANCH  15  20
BRANCH  18  23
ATOM     23  O   UNL     1       4.530   4.800  -2.644  1.00  0.00    -0.494 OA
BRANCH  23  24
ATOM     24  C   UNL     1       5.791   4.946  -3.305  1.00  0.00     0.226 C 
ATOM     25  C   UNL     1       6.942   5.051  -2.314  1.00  0.00     0.049 C 
ENDBRANCH  23  24
ENDBRANCH  18  23
ENDBRANCH   9  14
ENDBRANCH   6   8
ENDBRANCH   3   6
ENDBRANCH   1   2
BRANCH   1  26
ATOM     26  C   UNL     1       8.423  -0.917   1.572  1.00  0.00     0.023 C 
BRANCH  26  27
ATOM     27  C   UNL     1       8.330  -0.754   3.088  1.00  0.00     0.023 C 
BRANCH  27  28
ATOM     28  C   UNL     1       9.648  -0.462   3.794  1.00  0.00     0.116 C 
BRANCH  28  29
ATOM     29  N   UNL     1      10.335   0.727   3.312  1.00  0.00    -0.352 N 
ATOM     30  C   UNL     1      11.181   1.564   4.007  1.00  0.00     0.251 C 
ATOM     31  H   UNL     1      10.175   0.963   2.369  1.00  0.00     0.163 HD
ATOM     32  O   UNL     1      11.630   2.572   3.486  1.00  0.00    -0.269 OA
BRANCH  30  33
ATOM     33  C   UNL     1      11.496   1.250   5.419  1.00  0.00     0.039 A 
ATOM     34  C   UNL     1      11.347   2.254   6.379  1.00  0.00     0.014 A 
ATOM     35  C   UNL     1      11.878  -0.038   5.797  1.00  0.00     0.014 A 
ATOM     36  C   UNL     1      11.506   1.942   7.731  1.00  0.00     0.010 A 
ATOM     37  C   UNL     1      11.954  -0.366   7.146  1.00  0.00     0.010 A 
ATOM     38  C   UNL     1      11.769   0.620   8.127  1.00  0.00    -0.014 A 
BRANCH  38  39
ATOM     39  C   UNL     1      11.855   0.250   9.562  1.00  0.00     0.031 A 
ATOM     40  C   UNL     1      13.146  -0.270  10.130  1.00  0.00     0.074 A 
ATOM     41  C   UNL     1      10.754   0.318  10.334  1.00  0.00     0.049 A 
ATOM     42  N   UNL     1      13.408  -0.690  11.342  1.00  0.00    -0.248 NA
ATOM     43  C   UNL     1      14.286  -0.363   9.204  1.00  0.00     0.031 C 
ATOM     44  C   UNL     1       9.426   0.738   9.882  1.00  0.00     0.029 A 
ATOM     45  N   UNL     1      10.574   0.025  11.663  1.00  0.00    -0.354 N 
ATOM     46  C   UNL     1      14.731  -1.110  11.317  1.00  0.00     0.074 A 
ATOM     47  C   UNL     1      15.200  -0.953   9.959  1.00  0.00     0.031 C 
ATOM     48  C   UNL     1       8.577   0.706  10.922  1.00  0.00     0.029 A 
ATOM     49  C   UNL     1       9.291   0.236  12.105  1.00  0.00     0.049 A 
ATOM     50  H   UNL     1      11.296  -0.304  12.245  1.00  0.00     0.167 HD
ATOM     51  C   UNL     1      15.494  -1.560  12.342  1.00  0.00     0.037 A 
ATOM     52  C   UNL     1       8.754   0.074  13.329  1.00  0.00     0.037 A 
ATOM     53  C   UNL     1      15.034  -1.681  13.699  1.00  0.00     0.049 A 
ATOM     54  C   UNL     1       9.633  -0.393  14.458  1.00  0.00     0.074 A 
ATOM     55  C   UNL     1      15.746  -2.064  14.822  1.00  0.00     0.029 A 
ATOM     56  N   UNL     1      13.738  -1.416  14.118  1.00  0.00    -0.354 N 
ATOM     57  N   UNL     1      10.904  -0.713  14.440  1.00  0.00    -0.248 NA
ATOM     58  C   UNL     1       9.004  -0.508  15.781  1.00  0.00     0.031 C 
ATOM     59  C   UNL     1      14.871  -2.065  15.915  1.00  0.00     0.029 A 
ATOM     60  C   UNL     1      13.627  -1.639  15.480  1.00  0.00     0.049 A 
ATOM     61  H   UNL     1      13.006  -1.115  13.533  1.00  0.00     0.167 HD
ATOM     62  C   UNL     1      11.234  -1.038  15.748  1.00  0.00     0.074 A 
ATOM     63  C   UNL     1      10.033  -0.861  16.538  1.00  0.00     0.031 C 
ATOM     64  C   UNL     1      12.425  -1.446  16.251  1.00  0.00     0.037 A 
BRANCH  51  65
ATOM     65  C   UNL     1      16.913  -1.939  12.031  1.00  0.00     0.064 A 
ATOM     66  C   UNL     1      17.875  -0.973  11.696  1.00  0.00     0.173 A 
ATOM     67  C   UNL     1      17.323  -3.279  12.092  1.00  0.00     0.173 A 
ATOM     68  F   UNL     1      17.530   0.321  11.610  1.00  0.00    -0.203 F 
ATOM     69  C   UNL     1      19.185  -1.338  11.401  1.00  0.00     0.198 A 
ATOM     70  C   UNL     1      18.643  -3.637  11.826  1.00  0.00     0.198 A 
ATOM     71  F   UNL     1      16.446  -4.242  12.411  1.00  0.00    -0.203 F 
ATOM     72  F   UNL     1      20.072  -0.404  11.030  1.00  0.00    -0.200 F 
ATOM     73  C   UNL     1      19.570  -2.668  11.473  1.00  0.00     0.200 A 
ATOM     74  F   UNL     1      19.016  -4.922  11.907  1.00  0.00    -0.200 F 
ATOM     75  F   UNL     1      20.833  -3.018  11.193  1.00  0.00    -0.200 F 
ENDBRANCH  51  65
BRANCH  52  76
ATOM     76  C   UNL     1       7.324   0.403  13.564  1.00  0.00     0.064 A 
ATOM     77  C   UNL     1       6.962   1.527  14.320  1.00  0.00     0.173 A 
ATOM     78  C   UNL     1       6.295  -0.395  13.045  1.00  0.00     0.173 A 
ATOM     79  F   UNL     1       7.912   2.309  14.853  1.00  0.00    -0.203 F 
ATOM     80  C   UNL     1       5.624   1.827  14.568  1.00  0.00     0.198 A 
ATOM     81  C   UNL     1       4.957  -0.078  13.271  1.00  0.00     0.198 A 
ATOM     82  F   UNL     1       6.589  -1.476  12.310  1.00  0.00    -0.203 F 
ATOM     83  F   UNL     1       5.307   2.882  15.332  1.00  0.00    -0.200 F 
ATOM     84  C   UNL     1       4.622   1.028  14.039  1.00  0.00     0.200 A 
ATOM     85  F   UNL     1       3.991  -0.845  12.748  1.00  0.00    -0.200 F 
ATOM     86  F   UNL     1       3.336   1.318  14.276  1.00  0.00    -0.200 F 
ENDBRANCH  52  76
BRANCH  64  87
ATOM     87  C   UNL     1      12.496  -1.692  17.729  1.00  0.00     0.064 A 
ATOM     88  C   UNL     1      11.881  -2.804  18.322  1.00  0.00     0.173 A 
ATOM     89  C   UNL     1      13.216  -0.819  18.558  1.00  0.00     0.173 A 
ATOM     90  F   UNL     1      11.168  -3.660  17.573  1.00  0.00    -0.203 F 
ATOM     91  C   UNL     1      11.960  -3.018  19.695  1.00  0.00     0.198 A 
ATOM     92  C   UNL     1      13.318  -1.051  19.927  1.00  0.00     0.198 A 
ATOM     93  F   UNL     1      13.829   0.256  18.039  1.00  0.00    -0.203 F 
ATOM     94  F   UNL     1      11.322  -4.059  20.247  1.00  0.00    -0.200 F 
ATOM     95  C   UNL     1      12.683  -2.145  20.495  1.00  0.00     0.200 A 
ATOM     96  F   UNL     1      14.027  -0.214  20.696  1.00  0.00    -0.200 F 
ATOM     97  F   UNL     1      12.761  -2.355  21.816  1.00  0.00    -0.200 F 
ENDBRANCH  64  87
ENDBRANCH  38  39
ENDBRANCH  30  33
ENDBRANCH  28  29
ENDBRANCH  27  28
ENDBRANCH  26  27
ENDBRANCH   1  26
TORSDOF 17
