REMARK SMILES CC1=C[C@H](C)[C@H](CN2C[C@]34C=C[C@@H](O3)[C@H](C(=O)NCCCCNC(=O)c3ccc(-c5c6nc(c(-c7c(F)c(F)c(F)c(F)c7F)c7ccc([nH]7)c(-c7c(F)c(F)c(F)c(F)c7F)c7nc(c(-c8c(F)c(F)c(F)c(F)c8F)c8ccc5[nH]8)C=C7)C=C6)cc3)[C@@H]4C2=O)[C@H](C)C1
REMARK SMILES IDX 20 1 19 2 18 3 16 4 17 5 15 7 8 8 9 9 90 10 10 11 89 12
REMARK SMILES IDX 91 13 11 14 14 15 12 16 13 17 7 18 6 19 1 20 2 21 3 22 94 23
REMARK SMILES IDX 4 24 92 25 5 26 93 27 21 28 22 29 23 30 24 31 25 33 26 34
REMARK SMILES IDX 27 35 88 36 28 37 87 38 29 39 30 40 31 41 81 42 32 43 86 44
REMARK SMILES IDX 80 45 82 46 33 47 85 48 79 49 78 50 34 52 66 53 46 54 65 55
REMARK SMILES IDX 47 56 50 57 64 58 83 59 48 60 49 61 63 63 84 64 51 65 35 66
REMARK SMILES IDX 36 67 44 68 37 69 38 70 42 71 45 72 39 73 40 74 43 75 41 76
REMARK SMILES IDX 67 77 68 78 76 79 69 80 70 81 74 82 77 83 71 84 72 85 75 86
REMARK SMILES IDX 73 87 52 88 53 89 61 90 54 91 55 92 59 93 62 94 56 95 57 96
REMARK SMILES IDX 60 97 58 98
REMARK H PARENT 18 6 23 32 82 51 50 62
REMARK Flexibility Score: inf
ROOT
ATOM      1  C   UNL     1      -2.643   3.010   0.588  1.00  0.00     0.023 C 
ENDROOT
BRANCH   1   2
ATOM      2  C   UNL     1      -3.970   3.744   0.511  1.00  0.00     0.116 C 
BRANCH   2   3
ATOM      3  N   UNL     1      -3.785   5.083   1.013  1.00  0.00    -0.356 N 
ATOM      4  C   UNL     1      -3.587   6.283   0.432  1.00  0.00     0.227 C 
ATOM      5  O   UNL     1      -3.288   7.161   1.253  1.00  0.00    -0.275 OA
ATOM      6  H   UNL     1      -3.808   5.131   1.996  1.00  0.00     0.163 HD
BRANCH   4   7
ATOM      7  C   UNL     1      -3.886   6.637  -1.028  1.00  0.00     0.127 C 
ATOM      8  N   UNL     1      -1.185   5.145  -2.600  1.00  0.00    -0.339 N 
ATOM      9  C   UNL     1      -1.056   6.392  -1.941  1.00  0.00     0.160 C 
ATOM     10  C   UNL     1      -2.523   4.894  -2.726  1.00  0.00     0.230 C 
ATOM     11  C   UNL     1      -2.106   7.351  -2.666  1.00  0.00     0.117 C 
ATOM     12  C   UNL     1      -3.221   6.182  -2.361  1.00  0.00     0.132 C 
ATOM     13  O   UNL     1      -3.060   3.874  -3.132  1.00  0.00    -0.274 OA
ATOM     14  C   UNL     1      -1.485   8.446  -1.769  1.00  0.00     0.009 C 
ATOM     15  O   UNL     1      -3.313   8.191  -2.597  1.00  0.00    -0.360 OA
ATOM     16  C   UNL     1      -2.331   8.765  -0.787  1.00  0.00     0.004 C 
ATOM     17  C   UNL     1      -3.630   8.161  -1.182  1.00  0.00     0.155 C 
BRANCH   8  18
ATOM     18  C   UNL     1      -0.020   4.297  -2.845  1.00  0.00     0.124 C 
BRANCH  18  19
ATOM     19  C   UNL     1       0.128   3.265  -1.722  1.00  0.00     0.018 C 
ATOM     20  C   UNL     1       1.267  -0.453   0.422  1.00  0.00     0.039 C 
ATOM     21  C   UNL     1       0.909   0.780  -0.356  1.00  0.00    -0.077 C 
ATOM     22  C   UNL     1      -0.173   0.791  -1.143  1.00  0.00    -0.025 C 
ATOM     23  C   UNL     1       1.857   1.934  -0.242  1.00  0.00     0.034 C 
ATOM     24  C   UNL     1      -0.590   1.923  -2.023  1.00  0.00     0.014 C 
ATOM     25  C   UNL     1       1.405   3.285  -0.825  1.00  0.00    -0.005 C 
ATOM     26  C   UNL     1      -0.600   1.453  -3.478  1.00  0.00     0.012 C 
ATOM     27  C   UNL     1       2.607   4.077  -1.345  1.00  0.00     0.008 C 
ENDBRANCH  18  19
ENDBRANCH   8  18
ENDBRANCH   4   7
ENDBRANCH   2   3
ENDBRANCH   1   2
BRANCH   1  28
ATOM     28  C   UNL     1      -2.051   2.691   1.959  1.00  0.00     0.023 C 
BRANCH  28  29
ATOM     29  C   UNL     1      -2.778   1.611   2.740  1.00  0.00     0.116 C 
BRANCH  29  30
ATOM     30  N   UNL     1      -2.911   0.357   2.006  1.00  0.00    -0.352 N 
ATOM     31  C   UNL     1      -2.563  -0.926   2.356  1.00  0.00     0.251 C 
ATOM     32  H   UNL     1      -3.318   0.443   1.114  1.00  0.00     0.163 HD
ATOM     33  O   UNL     1      -2.632  -1.829   1.528  1.00  0.00    -0.269 OA
BRANCH  31  34
ATOM     34  C   UNL     1      -2.072  -1.216   3.720  1.00  0.00     0.039 A 
ATOM     35  C   UNL     1      -1.012  -2.111   3.889  1.00  0.00     0.014 A 
ATOM     36  C   UNL     1      -2.637  -0.586   4.828  1.00  0.00     0.014 A 
ATOM     37  C   UNL     1      -0.461  -2.297   5.158  1.00  0.00     0.010 A 
ATOM     38  C   UNL     1      -2.010  -0.674   6.062  1.00  0.00     0.010 A 
ATOM     39  C   UNL     1      -0.920  -1.536   6.245  1.00  0.00    -0.014 A 
BRANCH  39  40
ATOM     40  C   UNL     1      -0.295  -1.627   7.589  1.00  0.00     0.031 A 
ATOM     41  C   UNL     1      -1.132  -2.023   8.775  1.00  0.00     0.074 A 
ATOM     42  C   UNL     1       0.991  -1.259   7.754  1.00  0.00     0.049 A 
ATOM     43  N   UNL     1      -0.816  -2.041  10.045  1.00  0.00    -0.248 NA
ATOM     44  C   UNL     1      -2.528  -2.406   8.502  1.00  0.00     0.031 C 
ATOM     45  C   UNL     1       1.884  -0.794   6.691  1.00  0.00     0.029 A 
ATOM     46  N   UNL     1       1.768  -1.204   8.885  1.00  0.00    -0.354 N 
ATOM     47  C   UNL     1      -1.976  -2.406  10.716  1.00  0.00     0.074 A 
ATOM     48  C   UNL     1      -3.020  -2.532   9.724  1.00  0.00     0.031 C 
ATOM     49  C   UNL     1       3.092  -0.530   7.213  1.00  0.00     0.029 A 
ATOM     50  C   UNL     1       3.047  -0.759   8.653  1.00  0.00     0.049 A 
ATOM     51  H   UNL     1       1.439  -1.458   9.777  1.00  0.00     0.167 HD
ATOM     52  C   UNL     1      -2.147  -2.647  12.037  1.00  0.00     0.037 A 
ATOM     53  C   UNL     1       4.065  -0.551   9.511  1.00  0.00     0.037 A 
ATOM     54  C   UNL     1      -1.091  -2.561  13.009  1.00  0.00     0.049 A 
ATOM     55  C   UNL     1       3.852  -0.836  10.974  1.00  0.00     0.074 A 
ATOM     56  C   UNL     1      -1.134  -2.860  14.358  1.00  0.00     0.029 A 
ATOM     57  N   UNL     1       0.203  -2.143  12.730  1.00  0.00    -0.354 N 
ATOM     58  N   UNL     1       2.773  -1.260  11.586  1.00  0.00    -0.248 NA
ATOM     59  C   UNL     1       5.000  -0.619  11.864  1.00  0.00     0.031 C 
ATOM     60  C   UNL     1       0.118  -2.569  14.908  1.00  0.00     0.029 A 
ATOM     61  C   UNL     1       0.960  -2.149  13.890  1.00  0.00     0.049 A 
ATOM     62  H   UNL     1       0.533  -1.880  11.841  1.00  0.00     0.167 HD
ATOM     63  C   UNL     1       3.118  -1.390  12.924  1.00  0.00     0.074 A 
ATOM     64  C   UNL     1       4.513  -1.015  13.032  1.00  0.00     0.031 C 
ATOM     65  C   UNL     1       2.351  -1.781  13.971  1.00  0.00     0.037 A 
BRANCH  52  66
ATOM     66  C   UNL     1      -3.522  -3.034  12.504  1.00  0.00     0.064 A 
ATOM     67  C   UNL     1      -4.109  -4.258  12.145  1.00  0.00     0.173 A 
ATOM     68  C   UNL     1      -4.252  -2.183  13.348  1.00  0.00     0.173 A 
ATOM     69  F   UNL     1      -3.461  -5.104  11.330  1.00  0.00    -0.203 F 
ATOM     70  C   UNL     1      -5.386  -4.598  12.582  1.00  0.00     0.198 A 
ATOM     71  C   UNL     1      -5.514  -2.543  13.813  1.00  0.00     0.198 A 
ATOM     72  F   UNL     1      -3.739  -1.003  13.727  1.00  0.00    -0.203 F 
ATOM     73  F   UNL     1      -5.947  -5.745  12.176  1.00  0.00    -0.200 F 
ATOM     74  C   UNL     1      -6.084  -3.745  13.422  1.00  0.00     0.200 A 
ATOM     75  F   UNL     1      -6.181  -1.723  14.637  1.00  0.00    -0.200 F 
ATOM     76  F   UNL     1      -7.309  -4.078  13.850  1.00  0.00    -0.200 F 
ENDBRANCH  52  66
BRANCH  53  77
ATOM     77  C   UNL     1       5.379  -0.068   9.008  1.00  0.00     0.064 A 
ATOM     78  C   UNL     1       6.512  -0.894   9.043  1.00  0.00     0.173 A 
ATOM     79  C   UNL     1       5.535   1.226   8.488  1.00  0.00     0.173 A 
ATOM     80  F   UNL     1       6.420  -2.134   9.546  1.00  0.00    -0.203 F 
ATOM     81  C   UNL     1       7.753  -0.436   8.604  1.00  0.00     0.198 A 
ATOM     82  C   UNL     1       6.769   1.671   8.019  1.00  0.00     0.198 A 
ATOM     83  F   UNL     1       4.483   2.055   8.423  1.00  0.00    -0.203 F 
ATOM     84  F   UNL     1       8.829  -1.230   8.699  1.00  0.00    -0.200 F 
ATOM     85  C   UNL     1       7.880   0.844   8.087  1.00  0.00     0.200 A 
ATOM     86  F   UNL     1       6.883   2.903   7.504  1.00  0.00    -0.200 F 
ATOM     87  F   UNL     1       9.072   1.282   7.662  1.00  0.00    -0.200 F 
ENDBRANCH  53  77
BRANCH  65  88
ATOM     88  C   UNL     1       3.010  -1.863  15.317  1.00  0.00     0.064 A 
ATOM     89  C   UNL     1       3.389  -0.713  16.024  1.00  0.00     0.173 A 
ATOM     90  C   UNL     1       3.216  -3.109  15.930  1.00  0.00     0.173 A 
ATOM     91  F   UNL     1       3.227   0.501  15.476  1.00  0.00    -0.203 F 
ATOM     92  C   UNL     1       3.974  -0.808  17.284  1.00  0.00     0.198 A 
ATOM     93  C   UNL     1       3.767  -3.199  17.204  1.00  0.00     0.198 A 
ATOM     94  F   UNL     1       2.863  -4.239  15.299  1.00  0.00    -0.203 F 
ATOM     95  F   UNL     1       4.373   0.301  17.921  1.00  0.00    -0.200 F 
ATOM     96  C   UNL     1       4.153  -2.049  17.877  1.00  0.00     0.200 A 
ATOM     97  F   UNL     1       3.923  -4.398  17.782  1.00  0.00    -0.200 F 
ATOM     98  F   UNL     1       4.703  -2.138  19.095  1.00  0.00    -0.200 F 
ENDBRANCH  65  88
ENDBRANCH  39  40
ENDBRANCH  31  34
ENDBRANCH  29  30
ENDBRANCH  28  29
ENDBRANCH   1  28
TORSDOF 13
