REMARK SMILES CC(C)[C@H](NC(=O)CCC1=c2ccccc2=NC1)C(=O)NCCCCNC(=O)c1ccc(-c2c3nc(c(-c4c(F)c(F)c(F)c(F)c4F)c4ccc([nH]4)c(-c4c(F)c(F)c(F)c(F)c4F)c4nc(c(-c5c(F)c(F)c(F)c(F)c5F)c5ccc2[nH]5)C=C4)C=C3)cc1
REMARK SMILES IDX 22 1 21 2 19 3 20 4 4 6 2 7 1 8 3 9 5 10 6 11 7 13 8 14 9 15
REMARK SMILES IDX 10 16 11 17 18 18 12 19 16 20 17 21 13 22 15 23 14 24 23 25
REMARK SMILES IDX 24 26 25 27 26 28 27 29 28 31 29 32 30 33 91 34 31 35 90 36
REMARK SMILES IDX 32 37 33 38 34 39 84 40 35 41 89 42 83 43 85 44 36 45 88 46
REMARK SMILES IDX 82 47 81 48 37 50 69 51 49 52 68 53 50 54 53 55 67 56 86 57
REMARK SMILES IDX 51 58 52 59 66 61 87 62 54 63 38 64 39 65 47 66 40 67 41 68
REMARK SMILES IDX 45 69 48 70 42 71 43 72 46 73 44 74 70 75 71 76 79 77 72 78
REMARK SMILES IDX 73 79 77 80 80 81 74 82 75 83 78 84 76 85 55 86 56 87 64 88
REMARK SMILES IDX 57 89 58 90 62 91 65 92 59 93 60 94 63 95 61 96
REMARK H PARENT 21 5 5 12 26 30 85 49 53 60
REMARK Flexibility Score: inf
ROOT
ATOM      1  C   UNL     1       0.056  -4.270   2.256  1.00  0.00     0.116 C 
ENDROOT
BRANCH   1   2
ATOM      2  N   UNL     1      -1.119  -3.438   2.717  1.00  0.00    -0.354 N 
ATOM      3  C   UNL     1      -1.935  -2.257   2.134  1.00  0.00     0.242 C 
ATOM      4  O   UNL     1      -2.897  -2.316   2.975  1.00  0.00    -0.273 OA
ATOM      5  H   UNL     1      -1.445  -3.713   3.604  1.00  0.00     0.163 HD
BRANCH   3   6
ATOM      6  C   UNL     1      -1.588  -0.858   0.468  1.00  0.00     0.173 C 
BRANCH   6   7
ATOM      7  C   UNL     1      -1.669  -1.085  -1.360  1.00  0.00     0.015 C 
ATOM      8  C   UNL     1      -0.471  -1.784  -2.065  1.00  0.00     0.010 C 
ATOM      9  C   UNL     1      -2.961  -1.488  -2.106  1.00  0.00     0.010 C 
ENDBRANCH   6   7
BRANCH   6  10
ATOM     10  N   UNL     1      -0.126   0.184   0.236  1.00  0.00    -0.344 N 
ATOM     11  C   UNL     1       0.918   0.820   0.866  1.00  0.00     0.220 C 
ATOM     12  H   UNL     1      -0.046   0.371  -0.728  1.00  0.00     0.164 HD
ATOM     13  O   UNL     1       1.833   1.189   0.115  1.00  0.00    -0.275 OA
BRANCH  11  14
ATOM     14  C   UNL     1       1.133   1.002   2.380  1.00  0.00     0.104 C 
BRANCH  14  15
ATOM     15  C   UNL     1      -0.024   1.712   3.037  1.00  0.00     0.043 C 
BRANCH  15  16
ATOM     16  C   UNL     1      -1.237   0.874   2.918  1.00  0.00    -0.039 C 
ATOM     17  C   UNL     1      -1.246  -0.386   2.476  1.00  0.00     0.001 A 
ATOM     18  C   UNL     1      -2.604   1.571   2.873  1.00  0.00     0.174 C 
ATOM     19  C   UNL     1      -0.093  -1.621   1.625  1.00  0.00     0.010 A 
ATOM     20  C   UNL     1      -3.052  -0.399   1.989  1.00  0.00     0.065 A 
ATOM     21  N   UNL     1      -3.683   0.685   2.305  1.00  0.00    -0.280 NA
ATOM     22  C   UNL     1      -0.713  -2.666   0.511  1.00  0.00     0.001 A 
ATOM     23  C   UNL     1      -3.563  -1.795   0.808  1.00  0.00     0.028 A 
ATOM     24  C   UNL     1      -2.566  -2.803   0.255  1.00  0.00     0.002 A 
ENDBRANCH  15  16
ENDBRANCH  14  15
ENDBRANCH  11  14
ENDBRANCH   6  10
ENDBRANCH   3   6
ENDBRANCH   1   2
BRANCH   1  25
ATOM     25  C   UNL     1       1.044  -4.896   3.221  1.00  0.00     0.023 C 
BRANCH  25  26
ATOM     26  C   UNL     1       0.767  -6.327   3.612  1.00  0.00     0.023 C 
BRANCH  26  27
ATOM     27  C   UNL     1       0.053  -7.178   2.577  1.00  0.00     0.116 C 
BRANCH  27  28
ATOM     28  N   UNL     1       0.781  -7.449   1.334  1.00  0.00    -0.352 N 
ATOM     29  C   UNL     1       0.879  -8.671   0.684  1.00  0.00     0.251 C 
ATOM     30  H   UNL     1       1.248  -6.688   0.919  1.00  0.00     0.163 HD
ATOM     31  O   UNL     1       1.517  -8.813  -0.350  1.00  0.00    -0.269 OA
BRANCH  29  32
ATOM     32  C   UNL     1       0.219  -9.820   1.337  1.00  0.00     0.039 A 
ATOM     33  C   UNL     1      -1.126  -9.687   1.677  1.00  0.00     0.014 A 
ATOM     34  C   UNL     1       1.013 -10.818   1.904  1.00  0.00     0.014 A 
ATOM     35  C   UNL     1      -1.578 -10.348   2.809  1.00  0.00     0.010 A 
ATOM     36  C   UNL     1       0.488 -11.601   2.936  1.00  0.00     0.010 A 
ATOM     37  C   UNL     1      -0.779 -11.307   3.465  1.00  0.00    -0.014 A 
BRANCH  37  38
ATOM     38  C   UNL     1      -1.293 -11.943   4.713  1.00  0.00     0.031 A 
ATOM     39  C   UNL     1      -0.535 -11.867   6.019  1.00  0.00     0.074 A 
ATOM     40  C   UNL     1      -2.511 -12.523   4.682  1.00  0.00     0.049 A 
ATOM     41  N   UNL     1      -0.873 -12.343   7.194  1.00  0.00    -0.248 NA
ATOM     42  C   UNL     1       0.768 -11.183   6.015  1.00  0.00     0.031 C 
ATOM     43  C   UNL     1      -3.348 -12.649   3.486  1.00  0.00     0.029 A 
ATOM     44  N   UNL     1      -3.277 -13.073   5.677  1.00  0.00    -0.354 N 
ATOM     45  C   UNL     1       0.178 -12.039   8.053  1.00  0.00     0.074 A 
ATOM     46  C   UNL     1       1.186 -11.372   7.260  1.00  0.00     0.031 C 
ATOM     47  C   UNL     1      -4.540 -13.147   3.831  1.00  0.00     0.029 A 
ATOM     48  C   UNL     1      -4.517 -13.481   5.249  1.00  0.00     0.049 A 
ATOM     49  H   UNL     1      -2.969 -13.165   6.608  1.00  0.00     0.167 HD
ATOM     50  C   UNL     1       0.283 -12.275   9.384  1.00  0.00     0.037 A 
ATOM     51  C   UNL     1      -5.523 -14.083   5.910  1.00  0.00     0.037 A 
ATOM     52  C   UNL     1      -0.740 -12.907  10.178  1.00  0.00     0.049 A 
ATOM     53  C   UNL     1      -5.350 -14.390   7.369  1.00  0.00     0.074 A 
ATOM     54  C   UNL     1      -0.736 -13.165  11.538  1.00  0.00     0.029 A 
ATOM     55  N   UNL     1      -1.949 -13.375   9.686  1.00  0.00    -0.354 N 
ATOM     56  N   UNL     1      -4.359 -14.077   8.165  1.00  0.00    -0.248 NA
ATOM     57  C   UNL     1      -6.428 -15.149   8.017  1.00  0.00     0.031 C 
ATOM     58  C   UNL     1      -1.916 -13.841  11.858  1.00  0.00     0.029 A 
ATOM     59  C   UNL     1      -2.683 -13.953  10.710  1.00  0.00     0.049 A 
ATOM     60  H   UNL     1      -2.243 -13.308   8.748  1.00  0.00     0.167 HD
ATOM     61  C   UNL     1      -4.696 -14.588   9.410  1.00  0.00     0.074 A 
ATOM     62  C   UNL     1      -5.997 -15.208   9.270  1.00  0.00     0.031 C 
ATOM     63  C   UNL     1      -3.982 -14.557  10.560  1.00  0.00     0.037 A 
BRANCH  50  64
ATOM     64  C   UNL     1       1.542 -11.850  10.089  1.00  0.00     0.064 A 
ATOM     65  C   UNL     1       1.837 -10.497  10.316  1.00  0.00     0.173 A 
ATOM     66  C   UNL     1       2.415 -12.807  10.632  1.00  0.00     0.173 A 
ATOM     67  F   UNL     1       1.041  -9.540   9.816  1.00  0.00    -0.203 F 
ATOM     68  C   UNL     1       2.965 -10.120  11.042  1.00  0.00     0.198 A 
ATOM     69  C   UNL     1       3.524 -12.427  11.384  1.00  0.00     0.198 A 
ATOM     70  F   UNL     1       2.175 -14.116  10.459  1.00  0.00    -0.203 F 
ATOM     71  F   UNL     1       3.243  -8.820  11.216  1.00  0.00    -0.200 F 
ATOM     72  C   UNL     1       3.800 -11.084  11.585  1.00  0.00     0.200 A 
ATOM     73  F   UNL     1       4.318 -13.362  11.926  1.00  0.00    -0.200 F 
ATOM     74  F   UNL     1       4.872 -10.718  12.302  1.00  0.00    -0.200 F 
ENDBRANCH  50  64
BRANCH  51  75
ATOM     75  C   UNL     1      -6.771 -14.438   5.185  1.00  0.00     0.064 A 
ATOM     76  C   UNL     1      -7.985 -13.815   5.496  1.00  0.00     0.173 A 
ATOM     77  C   UNL     1      -6.770 -15.384   4.147  1.00  0.00     0.173 A 
ATOM     78  F   UNL     1      -8.041 -12.915   6.489  1.00  0.00    -0.203 F 
ATOM     79  C   UNL     1      -9.153 -14.130   4.804  1.00  0.00     0.198 A 
ATOM     80  C   UNL     1      -7.929 -15.670   3.431  1.00  0.00     0.198 A 
ATOM     81  F   UNL     1      -5.632 -16.005   3.803  1.00  0.00    -0.203 F 
ATOM     82  F   UNL     1     -10.309 -13.547   5.148  1.00  0.00    -0.200 F 
ATOM     83  C   UNL     1      -9.122 -15.049   3.766  1.00  0.00     0.200 A 
ATOM     84  F   UNL     1      -7.888 -16.540   2.413  1.00  0.00    -0.200 F 
ATOM     85  F   UNL     1     -10.242 -15.338   3.090  1.00  0.00    -0.200 F 
ENDBRANCH  51  75
BRANCH  63  86
ATOM     86  C   UNL     1      -4.582 -15.205  11.773  1.00  0.00     0.064 A 
ATOM     87  C   UNL     1      -4.657 -16.600  11.890  1.00  0.00     0.173 A 
ATOM     88  C   UNL     1      -4.985 -14.429  12.871  1.00  0.00     0.173 A 
ATOM     89  F   UNL     1      -4.299 -17.384  10.862  1.00  0.00    -0.203 F 
ATOM     90  C   UNL     1      -5.112 -17.195  13.063  1.00  0.00     0.198 A 
ATOM     91  C   UNL     1      -5.408 -15.028  14.053  1.00  0.00     0.198 A 
ATOM     92  F   UNL     1      -4.926 -13.090  12.810  1.00  0.00    -0.203 F 
ATOM     93  F   UNL     1      -5.196 -18.530  13.145  1.00  0.00    -0.200 F 
ATOM     94  C   UNL     1      -5.472 -16.410  14.148  1.00  0.00     0.200 A 
ATOM     95  F   UNL     1      -5.737 -14.268  15.107  1.00  0.00    -0.200 F 
ATOM     96  F   UNL     1      -5.878 -16.986  15.288  1.00  0.00    -0.200 F 
ENDBRANCH  63  86
ENDBRANCH  37  38
ENDBRANCH  29  32
ENDBRANCH  27  28
ENDBRANCH  26  27
ENDBRANCH  25  26
ENDBRANCH   1  25
TORSDOF 16
