REMARK SMILES Cc1ccc(OCC(=O)NNC(=O)[C@H]2CCCC[C@@H]2C(=O)NCCCCNC(=O)c2ccc(-c3c4nc(c(-c5c(F)c(F)c(F)c(F)c5F)c5ccc([nH]5)c(-c5c(F)c(F)c(F)c(F)c5F)c5nc(c(-c6c(F)c(F)c(F)c(F)c6F)c6ccc3[nH]6)C=C5)C=C4)cc2)cc1
REMARK SMILES IDX 23 1 22 2 20 3 21 4 19 6 14 7 15 8 16 9 18 10 17 11 12 12
REMARK SMILES IDX 11 13 13 15 10 16 8 17 9 18 7 20 6 21 5 22 1 23 2 24 3 25
REMARK SMILES IDX 94 26 4 27 93 28 24 29 25 30 26 31 27 32 28 33 29 35 30 36
REMARK SMILES IDX 31 37 92 38 32 39 91 40 33 41 34 42 35 43 85 44 36 45 90 46
REMARK SMILES IDX 84 47 86 48 37 49 89 50 83 51 82 52 38 54 70 55 50 56 69 57
REMARK SMILES IDX 51 58 54 59 68 60 87 61 52 62 53 63 67 65 88 66 55 67 39 68
REMARK SMILES IDX 40 69 48 70 41 71 42 72 46 73 49 74 43 75 44 76 47 77 45 78
REMARK SMILES IDX 71 79 72 80 80 81 73 82 74 83 78 84 81 85 75 86 76 87 79 88
REMARK SMILES IDX 77 89 56 90 57 91 65 92 58 93 59 94 63 95 66 96 60 97 61 98
REMARK SMILES IDX 64 99 62 100
REMARK H PARENT 22 5 11 14 10 19 27 34 86 53 54 64
REMARK Flexibility Score: inf
ROOT
ATOM      1  C   UNL     1      -6.319   4.523   5.975  1.00  0.00     0.116 C 
ENDROOT
BRANCH   1   2
ATOM      2  N   UNL     1      -6.149   3.631   4.838  1.00  0.00    -0.356 N 
ATOM      3  C   UNL     1      -5.406   2.528   4.578  1.00  0.00     0.223 C 
ATOM      4  O   UNL     1      -5.691   1.963   3.511  1.00  0.00    -0.275 OA
ATOM      5  H   UNL     1      -6.710   3.892   4.072  1.00  0.00     0.163 HD
BRANCH   3   6
ATOM      6  C   UNL     1      -4.215   1.992   5.400  1.00  0.00     0.091 C 
ATOM      7  C   UNL     1      -4.213   0.435   5.325  1.00  0.00     0.092 C 
ATOM      8  C   UNL     1      -5.280  -0.154   6.274  1.00  0.00     0.014 C 
ATOM      9  C   UNL     1      -5.181   0.357   7.713  1.00  0.00     0.001 C 
ATOM     10  C   UNL     1      -4.010   2.420   6.850  1.00  0.00     0.014 C 
ATOM     11  C   UNL     1      -5.086   1.874   7.784  1.00  0.00     0.001 C 
BRANCH   7  12
ATOM     12  C   UNL     1      -2.829  -0.163   5.612  1.00  0.00     0.242 C 
ATOM     13  N   UNL     1      -1.806   0.021   4.722  1.00  0.00    -0.267 N 
ATOM     14  H   UNL     1      -0.920  -0.322   4.979  1.00  0.00     0.191 HD
ATOM     15  O   UNL     1      -2.590  -0.828   6.622  1.00  0.00    -0.273 OA
BRANCH  13  16
ATOM     16  N   UNL     1      -1.910   0.647   3.490  1.00  0.00    -0.265 N 
ATOM     17  C   UNL     1      -0.840   1.222   2.843  1.00  0.00     0.276 C 
ATOM     18  O   UNL     1      -0.990   1.701   1.717  1.00  0.00    -0.269 OA
ATOM     19  H   UNL     1      -2.793   0.683   3.056  1.00  0.00     0.191 HD
BRANCH  17  20
ATOM     20  C   UNL     1       0.533   1.200   3.527  1.00  0.00     0.331 C 
BRANCH  20  21
ATOM     21  O   UNL     1       0.590   1.807   4.808  1.00  0.00    -0.484 OA
BRANCH  21  22
ATOM     22  C   UNL     1       0.614   3.174   4.865  1.00  0.00     0.120 A 
ATOM     23  C   UNL     1       0.680   7.446   5.492  1.00  0.00     0.044 C 
ATOM     24  C   UNL     1       0.656   5.963   5.271  1.00  0.00    -0.051 A 
ATOM     25  C   UNL     1       0.777   5.087   6.354  1.00  0.00     0.007 A 
ATOM     26  C   UNL     1       0.529   5.431   3.984  1.00  0.00     0.007 A 
ATOM     27  C   UNL     1       0.752   3.704   6.150  1.00  0.00     0.047 A 
ATOM     28  C   UNL     1       0.509   4.046   3.782  1.00  0.00     0.047 A 
ENDBRANCH  21  22
ENDBRANCH  20  21
ENDBRANCH  17  20
ENDBRANCH  13  16
ENDBRANCH   7  12
ENDBRANCH   3   6
ENDBRANCH   1   2
BRANCH   1  29
ATOM     29  C   UNL     1      -6.114   6.002   5.636  1.00  0.00     0.023 C 
BRANCH  29  30
ATOM     30  C   UNL     1      -7.190   6.638   4.755  1.00  0.00     0.023 C 
BRANCH  30  31
ATOM     31  C   UNL     1      -8.584   6.689   5.371  1.00  0.00     0.116 C 
BRANCH  31  32
ATOM     32  N   UNL     1      -8.812   7.758   6.332  1.00  0.00    -0.352 N 
ATOM     33  C   UNL     1      -9.893   7.958   7.188  1.00  0.00     0.251 C 
ATOM     34  H   UNL     1      -8.101   8.437   6.384  1.00  0.00     0.163 HD
ATOM     35  O   UNL     1      -9.955   8.949   7.879  1.00  0.00    -0.269 OA
BRANCH  33  36
ATOM     36  C   UNL     1     -10.907   6.877   7.337  1.00  0.00     0.039 A 
ATOM     37  C   UNL     1     -11.288   6.505   8.631  1.00  0.00     0.014 A 
ATOM     38  C   UNL     1     -11.325   6.122   6.245  1.00  0.00     0.014 A 
ATOM     39  C   UNL     1     -11.861   5.250   8.841  1.00  0.00     0.010 A 
ATOM     40  C   UNL     1     -11.794   4.840   6.456  1.00  0.00     0.010 A 
ATOM     41  C   UNL     1     -11.999   4.380   7.759  1.00  0.00    -0.014 A 
BRANCH  41  42
ATOM     42  C   UNL     1     -12.224   2.947   7.917  1.00  0.00     0.031 A 
ATOM     43  C   UNL     1     -13.541   2.344   7.629  1.00  0.00     0.074 A 
ATOM     44  C   UNL     1     -11.197   2.148   8.283  1.00  0.00     0.049 A 
ATOM     45  N   UNL     1     -13.999   1.297   8.231  1.00  0.00    -0.248 NA
ATOM     46  C   UNL     1     -14.459   2.890   6.638  1.00  0.00     0.031 C 
ATOM     47  C   UNL     1     -11.176   0.687   8.292  1.00  0.00     0.029 A 
ATOM     48  N   UNL     1     -10.002   2.518   8.924  1.00  0.00    -0.354 N 
ATOM     49  C   UNL     1     -15.110   0.873   7.539  1.00  0.00     0.074 A 
ATOM     50  C   UNL     1     -15.395   1.935   6.599  1.00  0.00     0.031 C 
ATOM     51  C   UNL     1     -10.236   0.277   9.158  1.00  0.00     0.029 A 
ATOM     52  C   UNL     1      -9.708   1.459   9.814  1.00  0.00     0.049 A 
ATOM     53  H   UNL     1      -9.479   3.340   8.782  1.00  0.00     0.167 HD
ATOM     54  C   UNL     1     -15.584  -0.393   7.732  1.00  0.00     0.037 A 
ATOM     55  C   UNL     1      -9.649   1.652  11.162  1.00  0.00     0.037 A 
ATOM     56  C   UNL     1     -14.781  -1.121   8.710  1.00  0.00     0.049 A 
ATOM     57  C   UNL     1     -10.615   0.803  11.951  1.00  0.00     0.074 A 
ATOM     58  C   UNL     1     -13.756  -2.043   8.569  1.00  0.00     0.029 A 
ATOM     59  N   UNL     1     -14.766  -0.717  10.040  1.00  0.00    -0.354 N 
ATOM     60  N   UNL     1     -11.651   0.209  11.429  1.00  0.00    -0.248 NA
ATOM     61  C   UNL     1     -10.518   0.590  13.392  1.00  0.00     0.031 C 
ATOM     62  C   UNL     1     -13.106  -2.178   9.817  1.00  0.00     0.029 A 
ATOM     63  C   UNL     1     -13.741  -1.345  10.721  1.00  0.00     0.049 A 
ATOM     64  H   UNL     1     -15.396  -0.076  10.440  1.00  0.00     0.167 HD
ATOM     65  C   UNL     1     -12.359  -0.432  12.415  1.00  0.00     0.074 A 
ATOM     66  C   UNL     1     -11.595  -0.182  13.622  1.00  0.00     0.031 C 
ATOM     67  C   UNL     1     -13.517  -1.104  12.137  1.00  0.00     0.037 A 
BRANCH  54  68
ATOM     68  C   UNL     1     -16.569  -1.063   6.798  1.00  0.00     0.064 A 
ATOM     69  C   UNL     1     -16.506  -2.450   6.536  1.00  0.00     0.173 A 
ATOM     70  C   UNL     1     -17.570  -0.377   6.088  1.00  0.00     0.173 A 
ATOM     71  F   UNL     1     -15.701  -3.262   7.232  1.00  0.00    -0.203 F 
ATOM     72  C   UNL     1     -17.271  -3.062   5.540  1.00  0.00     0.198 A 
ATOM     73  C   UNL     1     -18.298  -0.975   5.053  1.00  0.00     0.198 A 
ATOM     74  F   UNL     1     -17.902   0.882   6.405  1.00  0.00    -0.203 F 
ATOM     75  F   UNL     1     -17.150  -4.380   5.324  1.00  0.00    -0.200 F 
ATOM     76  C   UNL     1     -18.134  -2.315   4.767  1.00  0.00     0.200 A 
ATOM     77  F   UNL     1     -19.156  -0.240   4.332  1.00  0.00    -0.200 F 
ATOM     78  F   UNL     1     -18.824  -2.889   3.772  1.00  0.00    -0.200 F 
ENDBRANCH  54  68
BRANCH  55  79
ATOM     79  C   UNL     1      -9.194   3.014  11.539  1.00  0.00     0.064 A 
ATOM     80  C   UNL     1      -7.894   3.407  11.165  1.00  0.00     0.173 A 
ATOM     81  C   UNL     1     -10.097   4.021  11.897  1.00  0.00     0.173 A 
ATOM     82  F   UNL     1      -6.992   2.480  10.803  1.00  0.00    -0.203 F 
ATOM     83  C   UNL     1      -7.549   4.750  11.042  1.00  0.00     0.198 A 
ATOM     84  C   UNL     1      -9.742   5.368  11.789  1.00  0.00     0.198 A 
ATOM     85  F   UNL     1     -11.356   3.713  12.239  1.00  0.00    -0.203 F 
ATOM     86  F   UNL     1      -6.341   5.089  10.569  1.00  0.00    -0.200 F 
ATOM     87  C   UNL     1      -8.483   5.731  11.330  1.00  0.00     0.200 A 
ATOM     88  F   UNL     1     -10.653   6.319  12.043  1.00  0.00    -0.200 F 
ATOM     89  F   UNL     1      -8.184   7.021  11.126  1.00  0.00    -0.200 F 
ENDBRANCH  55  79
BRANCH  67  90
ATOM     90  C   UNL     1     -14.495  -1.693  13.130  1.00  0.00     0.064 A 
ATOM     91  C   UNL     1     -14.660  -1.238  14.448  1.00  0.00     0.173 A 
ATOM     92  C   UNL     1     -15.423  -2.684  12.714  1.00  0.00     0.173 A 
ATOM     93  F   UNL     1     -13.935  -0.223  14.932  1.00  0.00    -0.203 F 
ATOM     94  C   UNL     1     -15.631  -1.774  15.302  1.00  0.00     0.198 A 
ATOM     95  C   UNL     1     -16.427  -3.173  13.549  1.00  0.00     0.198 A 
ATOM     96  F   UNL     1     -15.402  -3.193  11.474  1.00  0.00    -0.203 F 
ATOM     97  F   UNL     1     -15.718  -1.333  16.565  1.00  0.00    -0.200 F 
ATOM     98  C   UNL     1     -16.521  -2.730  14.850  1.00  0.00     0.200 A 
ATOM     99  F   UNL     1     -17.314  -4.060  13.075  1.00  0.00    -0.200 F 
ATOM    100  F   UNL     1     -17.479  -3.205  15.657  1.00  0.00    -0.200 F 
ENDBRANCH  67  90
ENDBRANCH  41  42
ENDBRANCH  33  36
ENDBRANCH  31  32
ENDBRANCH  30  31
ENDBRANCH  29  30
ENDBRANCH   1  29
TORSDOF 16
