REMARK SMILES O=C(NCCCCNC(=O)[C@H]1[C@H]2CC[C@H](CC2)[C@@H]1C(=O)Nc1ccc(Cc2ccncc2)cc1)c1ccc(-c2c3nc(c(-c4c(F)c(F)c(F)c(F)c4F)c4ccc([nH]4)c(-c4c(F)c(F)c(F)c(F)c4F)c4nc(c(-c5c(F)c(F)c(F)c(F)c5F)c5ccc2[nH]5)C=C4)C=C3)cc1
REMARK SMILES IDX 6 1 5 2 4 3 3 4 1 5 2 6 35 8 36 9 97 10 37 11 96 12 38 13
REMARK SMILES IDX 39 14 40 15 90 16 41 17 95 18 89 19 91 20 42 21 94 22 88 23
REMARK SMILES IDX 87 24 43 26 75 27 55 28 74 29 56 30 59 31 73 32 92 33 57 34
REMARK SMILES IDX 58 35 72 37 93 38 60 39 44 40 45 41 53 42 46 43 47 44 51 45
REMARK SMILES IDX 54 46 48 47 49 48 52 49 50 50 76 51 77 52 85 53 78 54 79 55
REMARK SMILES IDX 83 56 86 57 80 58 81 59 84 60 82 61 61 62 62 63 70 64 63 65
REMARK SMILES IDX 64 66 68 67 71 68 65 69 66 70 69 71 67 72 7 73 8 74 9 75
REMARK SMILES IDX 10 77 11 78 12 79 18 80 13 81 17 82 15 83 14 84 16 85 19 86
REMARK SMILES IDX 20 87 21 88 22 90 23 91 34 92 24 93 33 94 25 95 26 96 27 97
REMARK SMILES IDX 28 98 32 99 29 100 31 101 30 102
REMARK H PARENT 3 7 91 25 59 36 8 76 21 89
REMARK Flexibility Score: inf
ROOT
ATOM      1  C   UNL     1       4.346   1.349  -3.603  1.00  0.00     0.023 C 
ENDROOT
BRANCH   1   2
ATOM      2  C   UNL     1       4.830   0.116  -2.843  1.00  0.00     0.023 C 
BRANCH   2   3
ATOM      3  C   UNL     1       4.445   0.055  -1.369  1.00  0.00     0.116 C 
BRANCH   3   4
ATOM      4  N   UNL     1       3.031   0.280  -1.099  1.00  0.00    -0.352 N 
ATOM      5  O   UNL     1       1.107   0.058   0.083  1.00  0.00    -0.269 OA
ATOM      6  C   UNL     1       2.302  -0.169  -0.018  1.00  0.00     0.251 C 
ATOM      7  H   UNL     1       2.540   0.813  -1.765  1.00  0.00     0.163 HD
BRANCH   6   8
ATOM      8  C   UNL     1       3.002  -0.983   0.994  1.00  0.00     0.039 A 
ATOM      9  C   UNL     1       4.175  -0.504   1.577  1.00  0.00     0.014 A 
ATOM     10  C   UNL     1       2.540  -2.273   1.267  1.00  0.00     0.014 A 
ATOM     11  C   UNL     1       4.975  -1.374   2.300  1.00  0.00     0.010 A 
ATOM     12  C   UNL     1       3.307  -3.120   2.071  1.00  0.00     0.010 A 
ATOM     13  C   UNL     1       4.551  -2.691   2.556  1.00  0.00    -0.014 A 
BRANCH  13  14
ATOM     14  C   UNL     1       5.423  -3.569   3.373  1.00  0.00     0.031 A 
ATOM     15  C   UNL     1       6.087  -4.782   2.787  1.00  0.00     0.074 A 
ATOM     16  C   UNL     1       5.670  -3.203   4.645  1.00  0.00     0.049 A 
ATOM     17  N   UNL     1       6.935  -5.607   3.349  1.00  0.00    -0.248 NA
ATOM     18  C   UNL     1       5.756  -5.123   1.395  1.00  0.00     0.031 C 
ATOM     19  C   UNL     1       5.062  -2.053   5.318  1.00  0.00     0.029 A 
ATOM     20  N   UNL     1       6.518  -3.728   5.583  1.00  0.00    -0.354 N 
ATOM     21  C   UNL     1       7.225  -6.570   2.392  1.00  0.00     0.074 A 
ATOM     22  C   UNL     1       6.448  -6.241   1.215  1.00  0.00     0.031 C 
ATOM     23  C   UNL     1       5.606  -1.919   6.535  1.00  0.00     0.029 A 
ATOM     24  C   UNL     1       6.553  -3.006   6.750  1.00  0.00     0.049 A 
ATOM     25  H   UNL     1       7.050  -4.543   5.436  1.00  0.00     0.167 HD
ATOM     26  C   UNL     1       8.067  -7.627   2.490  1.00  0.00     0.037 A 
ATOM     27  C   UNL     1       7.267  -3.199   7.873  1.00  0.00     0.037 A 
ATOM     28  C   UNL     1       8.848  -7.938   3.661  1.00  0.00     0.049 A 
ATOM     29  C   UNL     1       8.212  -4.361   7.939  1.00  0.00     0.074 A 
ATOM     30  C   UNL     1       9.729  -8.987   3.860  1.00  0.00     0.029 A 
ATOM     31  N   UNL     1       8.844  -7.194   4.832  1.00  0.00    -0.354 N 
ATOM     32  N   UNL     1       8.475  -5.263   7.026  1.00  0.00    -0.248 NA
ATOM     33  C   UNL     1       8.955  -4.536   9.193  1.00  0.00     0.031 C 
ATOM     34  C   UNL     1      10.238  -8.893   5.161  1.00  0.00     0.029 A 
ATOM     35  C   UNL     1       9.702  -7.765   5.760  1.00  0.00     0.049 A 
ATOM     36  H   UNL     1       8.310  -6.381   4.983  1.00  0.00     0.167 HD
ATOM     37  C   UNL     1       9.405  -6.119   7.594  1.00  0.00     0.074 A 
ATOM     38  C   UNL     1       9.693  -5.602   8.917  1.00  0.00     0.031 C 
ATOM     39  C   UNL     1       9.959  -7.242   7.076  1.00  0.00     0.037 A 
BRANCH  26  40
ATOM     40  C   UNL     1       8.189  -8.539   1.303  1.00  0.00     0.064 A 
ATOM     41  C   UNL     1       8.898  -8.157   0.155  1.00  0.00     0.173 A 
ATOM     42  C   UNL     1       7.650  -9.834   1.342  1.00  0.00     0.173 A 
ATOM     43  F   UNL     1       9.422  -6.926   0.063  1.00  0.00    -0.203 F 
ATOM     44  C   UNL     1       9.054  -9.036  -0.915  1.00  0.00     0.198 A 
ATOM     45  C   UNL     1       7.826 -10.717   0.279  1.00  0.00     0.198 A 
ATOM     46  F   UNL     1       6.966 -10.249   2.419  1.00  0.00    -0.203 F 
ATOM     47  F   UNL     1       9.712  -8.640  -2.014  1.00  0.00    -0.200 F 
ATOM     48  C   UNL     1       8.526 -10.316  -0.849  1.00  0.00     0.200 A 
ATOM     49  F   UNL     1       7.323 -11.957   0.349  1.00  0.00    -0.200 F 
ATOM     50  F   UNL     1       8.688 -11.164  -1.875  1.00  0.00    -0.200 F 
ENDBRANCH  26  40
BRANCH  27  51
ATOM     51  C   UNL     1       7.102  -2.265   9.015  1.00  0.00     0.064 A 
ATOM     52  C   UNL     1       8.125  -1.381   9.381  1.00  0.00     0.173 A 
ATOM     53  C   UNL     1       5.903  -2.218   9.742  1.00  0.00     0.173 A 
ATOM     54  F   UNL     1       9.294  -1.401   8.725  1.00  0.00    -0.203 F 
ATOM     55  C   UNL     1       7.958  -0.491  10.439  1.00  0.00     0.198 A 
ATOM     56  C   UNL     1       5.727  -1.307  10.779  1.00  0.00     0.198 A 
ATOM     57  F   UNL     1       4.892  -3.039   9.422  1.00  0.00    -0.203 F 
ATOM     58  F   UNL     1       8.963   0.321  10.793  1.00  0.00    -0.200 F 
ATOM     59  C   UNL     1       6.756  -0.449  11.132  1.00  0.00     0.200 A 
ATOM     60  F   UNL     1       4.557  -1.257  11.431  1.00  0.00    -0.200 F 
ATOM     61  F   UNL     1       6.592   0.418  12.140  1.00  0.00    -0.200 F 
ENDBRANCH  27  51
BRANCH  39  62
ATOM     62  C   UNL     1      10.920  -7.981   7.956  1.00  0.00     0.064 A 
ATOM     63  C   UNL     1      10.470  -8.728   9.056  1.00  0.00     0.173 A 
ATOM     64  C   UNL     1      12.297  -7.943   7.702  1.00  0.00     0.173 A 
ATOM     65  F   UNL     1       9.162  -8.778   9.348  1.00  0.00    -0.203 F 
ATOM     66  C   UNL     1      11.371  -9.383   9.889  1.00  0.00     0.198 A 
ATOM     67  C   UNL     1      13.194  -8.620   8.523  1.00  0.00     0.198 A 
ATOM     68  F   UNL     1      12.774  -7.245   6.660  1.00  0.00    -0.203 F 
ATOM     69  F   UNL     1      10.925 -10.046  10.965  1.00  0.00    -0.200 F 
ATOM     70  C   UNL     1      12.731  -9.332   9.621  1.00  0.00     0.200 A 
ATOM     71  F   UNL     1      14.507  -8.575   8.261  1.00  0.00    -0.200 F 
ATOM     72  F   UNL     1      13.598  -9.957  10.429  1.00  0.00    -0.200 F 
ENDBRANCH  39  62
ENDBRANCH  13  14
ENDBRANCH   6   8
ENDBRANCH   3   4
ENDBRANCH   2   3
ENDBRANCH   1   2
BRANCH   1  73
ATOM     73  C   UNL     1       4.606   2.675  -2.905  1.00  0.00     0.116 C 
BRANCH  73  74
ATOM     74  N   UNL     1       5.979   3.113  -2.990  1.00  0.00    -0.356 N 
ATOM     75  C   UNL     1       6.541   4.250  -3.477  1.00  0.00     0.224 C 
ATOM     76  H   UNL     1       6.629   2.468  -2.628  1.00  0.00     0.163 HD
ATOM     77  O   UNL     1       7.643   4.510  -2.983  1.00  0.00    -0.275 OA
BRANCH  75  78
ATOM     78  C   UNL     1       5.930   5.103  -4.624  1.00  0.00     0.094 C 
ATOM     79  C   UNL     1       4.481   5.602  -4.376  1.00  0.00     0.002 C 
ATOM     80  C   UNL     1       6.835   6.360  -4.873  1.00  0.00     0.094 C 
ATOM     81  C   UNL     1       4.432   6.323  -3.017  1.00  0.00     0.005 C 
ATOM     82  C   UNL     1       4.060   6.595  -5.478  1.00  0.00     0.005 C 
ATOM     83  C   UNL     1       6.053   7.648  -4.423  1.00  0.00     0.002 C 
ATOM     84  C   UNL     1       5.521   7.410  -2.987  1.00  0.00     0.005 C 
ATOM     85  C   UNL     1       4.812   7.909  -5.296  1.00  0.00     0.005 C 
BRANCH  80  86
ATOM     86  C   UNL     1       7.371   6.478  -6.315  1.00  0.00     0.228 C 
ATOM     87  O   UNL     1       6.758   7.069  -7.206  1.00  0.00    -0.274 OA
ATOM     88  N   UNL     1       8.635   6.051  -6.617  1.00  0.00    -0.326 N 
ATOM     89  H   UNL     1       9.047   6.502  -7.389  1.00  0.00     0.169 HD
BRANCH  88  90
ATOM     90  C   UNL     1       9.438   5.082  -6.012  1.00  0.00     0.041 A 
ATOM     91  C   UNL     1      10.798   5.347  -5.867  1.00  0.00     0.026 A 
ATOM     92  C   UNL     1       8.946   3.824  -5.676  1.00  0.00     0.026 A 
ATOM     93  C   UNL     1      11.637   4.401  -5.273  1.00  0.00     0.006 A 
ATOM     94  C   UNL     1       9.790   2.863  -5.110  1.00  0.00     0.006 A 
ATOM     95  C   UNL     1      11.138   3.154  -4.873  1.00  0.00    -0.043 A 
BRANCH  95  96
ATOM     96  C   UNL     1      12.038   2.138  -4.209  1.00  0.00     0.071 C 
BRANCH  96  97
ATOM     97  C   UNL     1      12.759   1.229  -5.173  1.00  0.00    -0.041 A 
ATOM     98  C   UNL     1      13.854   1.691  -5.912  1.00  0.00     0.024 A 
ATOM     99  C   UNL     1      12.355  -0.097  -5.350  1.00  0.00     0.024 A 
ATOM    100  C   UNL     1      14.489   0.818  -6.782  1.00  0.00     0.111 A 
ATOM    101  C   UNL     1      13.059  -0.894  -6.241  1.00  0.00     0.111 A 
ATOM    102  N   UNL     1      14.118  -0.467  -6.960  1.00  0.00    -0.265 NA
ENDBRANCH  96  97
ENDBRANCH  95  96
ENDBRANCH  88  90
ENDBRANCH  80  86
ENDBRANCH  75  78
ENDBRANCH  73  74
ENDBRANCH   1  73
TORSDOF 15
