REMARK SMILES C=CC[N@H+](CC(=O)NCCCCNC(=O)c1ccc(-c2c3nc(c(-c4c(F)c(F)c(F)c(F)c4F)c4ccc([nH]4)c(-c4c(F)c(F)c(F)c(F)c4F)c4nc(c(-c5c(F)c(F)c(F)c(F)c5F)c5ccc2[nH]5)C=C4)C=C3)cc1)C1CCCCC1
REMARK SMILES IDX 10 1 9 2 8 3 6 4 7 5 5 7 4 8 3 10 2 11 1 12 79 13 80 14
REMARK SMILES IDX 84 15 81 16 83 17 82 18 11 19 12 20 13 21 14 22 15 24 16 25
REMARK SMILES IDX 17 26 78 27 18 28 77 29 19 30 20 31 21 32 71 33 22 34 76 35
REMARK SMILES IDX 70 36 72 37 23 38 75 39 69 40 68 41 24 43 56 44 36 45 55 46
REMARK SMILES IDX 37 47 40 48 54 49 73 50 38 51 39 52 53 54 74 55 41 56 25 57
REMARK SMILES IDX 26 58 34 59 27 60 28 61 32 62 35 63 29 64 30 65 33 66 31 67
REMARK SMILES IDX 57 68 58 69 66 70 59 71 60 72 64 73 67 74 61 75 62 76 65 77
REMARK SMILES IDX 63 78 42 79 43 80 51 81 44 82 45 83 49 84 52 85 46 86 47 87
REMARK SMILES IDX 50 88 48 89
REMARK H PARENT 8 6 4 9 13 23 72 42 40 53
REMARK Flexibility Score: inf
ROOT
ATOM      1  C   UNL     1      -1.767  -0.054   1.437  1.00  0.00     0.023 C 
ENDROOT
BRANCH   1   2
ATOM      2  C   UNL     1      -3.059  -0.701   0.934  1.00  0.00     0.116 C 
BRANCH   2   3
ATOM      3  N   UNL     1      -3.889   0.209   0.179  1.00  0.00    -0.351 N 
ATOM      4  C   UNL     1      -3.963   0.373  -1.177  1.00  0.00     0.275 C 
ATOM      5  O   UNL     1      -4.871   1.085  -1.617  1.00  0.00    -0.269 OA
ATOM      6  H   UNL     1      -4.481   0.789   0.712  1.00  0.00     0.163 HD
BRANCH   4   7
ATOM      7  C   UNL     1      -2.974  -0.338  -2.119  1.00  0.00     0.364 C 
BRANCH   7   8
ATOM      8  N   UNL     1      -1.562   0.032  -1.854  1.00  0.00    -0.321 N 
ATOM      9  H   UNL     1      -1.442   0.479  -0.945  1.00  0.00     0.349 HD
BRANCH   8  10
ATOM     10  C   UNL     1      -0.742  -1.159  -1.631  1.00  0.00     0.291 C 
BRANCH  10  11
ATOM     11  C   UNL     1       0.749  -1.153  -1.743  1.00  0.00     0.025 C 
ATOM     12  C   UNL     1       1.586  -1.048  -0.698  1.00  0.00     0.010 C 
ENDBRANCH  10  11
ENDBRANCH   8  10
BRANCH   8  13
ATOM     13  C   UNL     1      -1.064   1.297  -2.456  1.00  0.00     0.184 C 
ATOM     14  C   UNL     1      -2.133   2.425  -2.367  1.00  0.00     0.065 C 
ATOM     15  C   UNL     1       0.246   1.792  -1.795  1.00  0.00     0.065 C 
ATOM     16  C   UNL     1      -1.651   3.830  -2.708  1.00  0.00     0.006 C 
ATOM     17  C   UNL     1       0.660   3.230  -2.092  1.00  0.00     0.006 C 
ATOM     18  C   UNL     1      -0.467   4.208  -1.841  1.00  0.00     0.000 C 
ENDBRANCH   8  13
ENDBRANCH   7   8
ENDBRANCH   4   7
ENDBRANCH   2   3
ENDBRANCH   1   2
BRANCH   1  19
ATOM     19  C   UNL     1      -1.897   0.777   2.707  1.00  0.00     0.023 C 
BRANCH  19  20
ATOM     20  C   UNL     1      -2.425   0.022   3.915  1.00  0.00     0.116 C 
BRANCH  20  21
ATOM     21  N   UNL     1      -1.691  -1.197   4.228  1.00  0.00    -0.352 N 
ATOM     22  C   UNL     1      -1.405  -1.744   5.460  1.00  0.00     0.251 C 
ATOM     23  H   UNL     1      -1.353  -1.699   3.452  1.00  0.00     0.163 HD
ATOM     24  O   UNL     1      -0.709  -2.741   5.549  1.00  0.00    -0.269 OA
BRANCH  22  25
ATOM     25  C   UNL     1      -1.912  -1.075   6.679  1.00  0.00     0.039 A 
ATOM     26  C   UNL     1      -1.045  -0.900   7.759  1.00  0.00     0.014 A 
ATOM     27  C   UNL     1      -3.215  -0.577   6.735  1.00  0.00     0.014 A 
ATOM     28  C   UNL     1      -1.466  -0.159   8.863  1.00  0.00     0.010 A 
ATOM     29  C   UNL     1      -3.591   0.256   7.780  1.00  0.00     0.010 A 
ATOM     30  C   UNL     1      -2.728   0.461   8.863  1.00  0.00    -0.014 A 
BRANCH  30  31
ATOM     31  C   UNL     1      -3.157   1.313   9.999  1.00  0.00     0.031 A 
ATOM     32  C   UNL     1      -4.363   0.936  10.815  1.00  0.00     0.074 A 
ATOM     33  C   UNL     1      -2.483   2.449  10.267  1.00  0.00     0.049 A 
ATOM     34  N   UNL     1      -4.877   1.537  11.859  1.00  0.00    -0.248 NA
ATOM     35  C   UNL     1      -5.117  -0.252  10.382  1.00  0.00     0.031 C 
ATOM     36  C   UNL     1      -1.354   2.966   9.490  1.00  0.00     0.029 A 
ATOM     37  N   UNL     1      -2.643   3.370  11.270  1.00  0.00    -0.354 N 
ATOM     38  C   UNL     1      -6.010   0.808  12.194  1.00  0.00     0.074 A 
ATOM     39  C   UNL     1      -6.156  -0.232  11.201  1.00  0.00     0.031 C 
ATOM     40  C   UNL     1      -0.892   4.083  10.074  1.00  0.00     0.029 A 
ATOM     41  C   UNL     1      -1.707   4.375  11.249  1.00  0.00     0.049 A 
ATOM     42  H   UNL     1      -3.361   3.316  11.942  1.00  0.00     0.167 HD
ATOM     43  C   UNL     1      -6.833   0.966  13.257  1.00  0.00     0.037 A 
ATOM     44  C   UNL     1      -1.519   5.404  12.095  1.00  0.00     0.037 A 
ATOM     45  C   UNL     1      -6.663   1.984  14.259  1.00  0.00     0.049 A 
ATOM     46  C   UNL     1      -2.420   5.532  13.294  1.00  0.00     0.074 A 
ATOM     47  C   UNL     1      -7.400   2.196  15.410  1.00  0.00     0.029 A 
ATOM     48  N   UNL     1      -5.681   2.964  14.224  1.00  0.00    -0.354 N 
ATOM     49  N   UNL     1      -3.432   4.780  13.654  1.00  0.00    -0.248 NA
ATOM     50  C   UNL     1      -2.139   6.641  14.214  1.00  0.00     0.031 C 
ATOM     51  C   UNL     1      -6.891   3.331  16.050  1.00  0.00     0.029 A 
ATOM     52  C   UNL     1      -5.802   3.793  15.327  1.00  0.00     0.049 A 
ATOM     53  H   UNL     1      -4.999   3.056  13.520  1.00  0.00     0.167 HD
ATOM     54  C   UNL     1      -3.891   5.306  14.854  1.00  0.00     0.074 A 
ATOM     55  C   UNL     1      -3.029   6.426  15.172  1.00  0.00     0.031 C 
ATOM     56  C   UNL     1      -4.932   4.902  15.624  1.00  0.00     0.037 A 
BRANCH  43  57
ATOM     57  C   UNL     1      -7.981   0.005  13.393  1.00  0.00     0.064 A 
ATOM     58  C   UNL     1      -7.773  -1.353  13.684  1.00  0.00     0.173 A 
ATOM     59  C   UNL     1      -9.304   0.448  13.251  1.00  0.00     0.173 A 
ATOM     60  F   UNL     1      -6.527  -1.834  13.814  1.00  0.00    -0.203 F 
ATOM     61  C   UNL     1      -8.844  -2.236  13.793  1.00  0.00     0.198 A 
ATOM     62  C   UNL     1     -10.374  -0.431  13.395  1.00  0.00     0.198 A 
ATOM     63  F   UNL     1      -9.561   1.735  12.975  1.00  0.00    -0.203 F 
ATOM     64  F   UNL     1      -8.617  -3.539  14.013  1.00  0.00    -0.200 F 
ATOM     65  C   UNL     1     -10.144  -1.774  13.657  1.00  0.00     0.200 A 
ATOM     66  F   UNL     1     -11.631   0.020  13.275  1.00  0.00    -0.200 F 
ATOM     67  F   UNL     1     -11.174  -2.623  13.768  1.00  0.00    -0.200 F 
ENDBRANCH  43  57
BRANCH  44  68
ATOM     68  C   UNL     1      -0.399   6.356  11.873  1.00  0.00     0.064 A 
ATOM     69  C   UNL     1       0.705   6.385  12.738  1.00  0.00     0.173 A 
ATOM     70  C   UNL     1      -0.407   7.257  10.798  1.00  0.00     0.173 A 
ATOM     71  F   UNL     1       0.752   5.555  13.790  1.00  0.00    -0.203 F 
ATOM     72  C   UNL     1       1.744   7.294  12.551  1.00  0.00     0.198 A 
ATOM     73  C   UNL     1       0.647   8.145  10.595  1.00  0.00     0.198 A 
ATOM     74  F   UNL     1      -1.435   7.264   9.936  1.00  0.00    -0.203 F 
ATOM     75  F   UNL     1       2.762   7.332  13.422  1.00  0.00    -0.200 F 
ATOM     76  C   UNL     1       1.717   8.170  11.477  1.00  0.00     0.200 A 
ATOM     77  F   UNL     1       0.625   8.979   9.546  1.00  0.00    -0.200 F 
ATOM     78  F   UNL     1       2.718   9.042  11.296  1.00  0.00    -0.200 F 
ENDBRANCH  44  68
BRANCH  56  79
ATOM     79  C   UNL     1      -5.169   5.660  16.898  1.00  0.00     0.064 A 
ATOM     80  C   UNL     1      -5.644   6.980  16.895  1.00  0.00     0.173 A 
ATOM     81  C   UNL     1      -4.928   5.051  18.140  1.00  0.00     0.173 A 
ATOM     82  F   UNL     1      -5.878   7.610  15.734  1.00  0.00    -0.203 F 
ATOM     83  C   UNL     1      -5.826   7.677  18.086  1.00  0.00     0.198 A 
ATOM     84  C   UNL     1      -5.145   5.740  19.329  1.00  0.00     0.198 A 
ATOM     85  F   UNL     1      -4.484   3.787  18.199  1.00  0.00    -0.203 F 
ATOM     86  F   UNL     1      -6.216   8.959  18.056  1.00  0.00    -0.200 F 
ATOM     87  C   UNL     1      -5.581   7.056  19.301  1.00  0.00     0.200 A 
ATOM     88  F   UNL     1      -4.923   5.133  20.503  1.00  0.00    -0.200 F 
ATOM     89  F   UNL     1      -5.755   7.729  20.446  1.00  0.00    -0.200 F 
ENDBRANCH  56  79
ENDBRANCH  30  31
ENDBRANCH  22  25
ENDBRANCH  20  21
ENDBRANCH  19  20
ENDBRANCH   1  19
TORSDOF 15
