REMARK SMILES CSc1nc(O)nc(C)c1C(=O)N1C[C@@H](O)C[C@@H]1C(=O)NCCCCNC(=O)c1ccc(-c2c3nc(c(-c4c(F)c(F)c(F)c(F)c4F)c4ccc([nH]4)c(-c4c(F)c(F)c(F)c(F)c4F)c4nc(c(-c5c(F)c(F)c(F)c(F)c5F)c5ccc2[nH]5)C=C4)C=C3)cc1
REMARK SMILES IDX 23 1 22 2 21 3 19 4 20 5 18 7 13 8 14 9 15 10 17 11 11 12
REMARK SMILES IDX 12 13 10 14 3 15 4 16 5 17 8 18 7 19 9 20 2 21 1 22 6 23
REMARK SMILES IDX 16 25 24 27 25 28 26 29 27 30 28 32 29 33 30 34 91 35 31 36
REMARK SMILES IDX 90 37 32 38 33 39 34 40 84 41 35 42 89 43 83 44 85 45 36 46
REMARK SMILES IDX 88 47 82 48 81 49 37 51 69 52 49 53 68 54 50 55 53 56 67 57
REMARK SMILES IDX 86 58 51 59 52 60 66 62 87 63 54 64 38 65 39 66 47 67 40 68
REMARK SMILES IDX 41 69 45 70 48 71 42 72 43 73 46 74 44 75 70 76 71 77 79 78
REMARK SMILES IDX 72 79 73 80 77 81 80 82 74 83 75 84 78 85 76 86 55 87 56 88
REMARK SMILES IDX 64 89 57 90 58 91 62 92 65 93 59 94 60 95 63 96 61 97
REMARK H PARENT 21 6 6 24 16 26 26 31 85 50 53 61
REMARK Flexibility Score: inf
ROOT
ATOM      1  C   UNL     1      -3.706  -4.375   1.277  1.00  0.00     0.023 C 
ENDROOT
BRANCH   1   2
ATOM      2  C   UNL     1      -3.176  -3.254   0.393  1.00  0.00     0.116 C 
BRANCH   2   3
ATOM      3  N   UNL     1      -2.987  -2.021   1.126  1.00  0.00    -0.354 N 
ATOM      4  C   UNL     1      -1.834  -1.329   1.358  1.00  0.00     0.242 C 
ATOM      5  O   UNL     1      -1.914  -0.325   2.067  1.00  0.00    -0.273 OA
ATOM      6  H   UNL     1      -3.803  -1.626   1.510  1.00  0.00     0.163 HD
BRANCH   4   7
ATOM      7  C   UNL     1      -0.512  -1.862   0.766  1.00  0.00     0.177 C 
ATOM      8  N   UNL     1       0.631  -1.035   1.132  1.00  0.00    -0.324 N 
ATOM      9  C   UNL     1       1.595  -1.053   0.055  1.00  0.00     0.152 C 
ATOM     10  C   UNL     1       0.724  -1.061  -1.195  1.00  0.00     0.136 C 
ATOM     11  C   UNL     1      -0.510  -1.859  -0.772  1.00  0.00     0.069 C 
BRANCH   8  12
ATOM     12  C   UNL     1       0.972  -0.909   2.461  1.00  0.00     0.259 C 
ATOM     13  O   UNL     1       0.845  -1.873   3.213  1.00  0.00    -0.269 OA
BRANCH  12  14
ATOM     14  C   UNL     1       1.367   0.435   2.997  1.00  0.00     0.093 A 
ATOM     15  C   UNL     1       1.081   1.673   2.404  1.00  0.00     0.116 A 
ATOM     16  N   UNL     1       1.377   2.860   2.990  1.00  0.00    -0.188 NA
ATOM     17  C   UNL     1       1.914   2.802   4.196  1.00  0.00     0.315 A 
ATOM     18  C   UNL     1       1.976   0.526   4.259  1.00  0.00     0.058 A 
ATOM     19  N   UNL     1       2.245   1.711   4.870  1.00  0.00    -0.200 NA
ATOM     20  C   UNL     1       2.345  -0.659   5.108  1.00  0.00     0.068 C 
BRANCH  15  21
ATOM     21  S   UNL     1       0.207   1.961   0.869  1.00  0.00    -0.109 SA
ATOM     22  C   UNL     1       1.542   2.716  -0.089  1.00  0.00     0.092 C 
ENDBRANCH  15  21
BRANCH  17  23
ATOM     23  O   UNL     1       2.134   3.970   4.851  1.00  0.00    -0.479 OA
ATOM     24  H   UNL     1       1.924   4.785   4.439  1.00  0.00     0.297 HD
ENDBRANCH  17  23
ENDBRANCH  12  14
ENDBRANCH   8  12
BRANCH  10  25
ATOM     25  O   UNL     1       1.346  -1.694  -2.302  1.00  0.00    -0.391 OA
ATOM     26  H   UNL     1       1.564  -2.610  -2.069  1.00  0.00     0.211 HD
ENDBRANCH  10  25
ENDBRANCH   4   7
ENDBRANCH   2   3
ENDBRANCH   1   2
BRANCH   1  27
ATOM     27  C   UNL     1      -5.029  -4.067   1.976  1.00  0.00     0.023 C 
BRANCH  27  28
ATOM     28  C   UNL     1      -6.113  -3.495   1.072  1.00  0.00     0.116 C 
BRANCH  28  29
ATOM     29  N   UNL     1      -6.464  -4.391  -0.020  1.00  0.00    -0.352 N 
ATOM     30  C   UNL     1      -7.691  -4.924  -0.326  1.00  0.00     0.251 C 
ATOM     31  H   UNL     1      -5.725  -4.647  -0.618  1.00  0.00     0.163 HD
ATOM     32  O   UNL     1      -7.813  -5.773  -1.201  1.00  0.00    -0.269 OA
BRANCH  30  33
ATOM     33  C   UNL     1      -8.864  -4.477   0.445  1.00  0.00     0.039 A 
ATOM     34  C   UNL     1      -9.636  -5.429   1.111  1.00  0.00     0.014 A 
ATOM     35  C   UNL     1      -9.148  -3.112   0.558  1.00  0.00     0.014 A 
ATOM     36  C   UNL     1     -10.667  -5.005   1.948  1.00  0.00     0.010 A 
ATOM     37  C   UNL     1     -10.132  -2.690   1.443  1.00  0.00     0.010 A 
ATOM     38  C   UNL     1     -10.903  -3.634   2.138  1.00  0.00    -0.014 A 
BRANCH  38  39
ATOM     39  C   UNL     1     -11.983  -3.170   3.037  1.00  0.00     0.031 A 
ATOM     40  C   UNL     1     -13.200  -2.518   2.454  1.00  0.00     0.074 A 
ATOM     41  C   UNL     1     -11.852  -3.307   4.370  1.00  0.00     0.049 A 
ATOM     42  N   UNL     1     -14.258  -2.047   3.063  1.00  0.00    -0.248 NA
ATOM     43  C   UNL     1     -13.226  -2.356   0.991  1.00  0.00     0.031 C 
ATOM     44  C   UNL     1     -10.696  -3.892   5.049  1.00  0.00     0.029 A 
ATOM     45  N   UNL     1     -12.702  -2.963   5.390  1.00  0.00    -0.354 N 
ATOM     46  C   UNL     1     -15.073  -1.545   2.060  1.00  0.00     0.074 A 
ATOM     47  C   UNL     1     -14.362  -1.702   0.811  1.00  0.00     0.031 C 
ATOM     48  C   UNL     1     -10.922  -3.893   6.373  1.00  0.00     0.029 A 
ATOM     49  C   UNL     1     -12.225  -3.288   6.636  1.00  0.00     0.049 A 
ATOM     50  H   UNL     1     -13.571  -2.524   5.243  1.00  0.00     0.167 HD
ATOM     51  C   UNL     1     -16.320  -1.032   2.168  1.00  0.00     0.037 A 
ATOM     52  C   UNL     1     -12.785  -3.123   7.850  1.00  0.00     0.037 A 
ATOM     53  C   UNL     1     -17.026  -0.885   3.412  1.00  0.00     0.049 A 
ATOM     54  C   UNL     1     -14.155  -2.509   7.950  1.00  0.00     0.074 A 
ATOM     55  C   UNL     1     -18.308  -0.414   3.625  1.00  0.00     0.029 A 
ATOM     56  N   UNL     1     -16.502  -1.206   4.656  1.00  0.00    -0.354 N 
ATOM     57  N   UNL     1     -14.948  -2.100   6.990  1.00  0.00    -0.248 NA
ATOM     58  C   UNL     1     -14.709  -2.338   9.301  1.00  0.00     0.031 C 
ATOM     59  C   UNL     1     -18.546  -0.408   5.003  1.00  0.00     0.029 A 
ATOM     60  C   UNL     1     -17.428  -0.919   5.645  1.00  0.00     0.049 A 
ATOM     61  H   UNL     1     -15.605  -1.581   4.813  1.00  0.00     0.167 HD
ATOM     62  C   UNL     1     -16.102  -1.647   7.614  1.00  0.00     0.074 A 
ATOM     63  C   UNL     1     -15.910  -1.839   9.037  1.00  0.00     0.031 C 
ATOM     64  C   UNL     1     -17.221  -1.123   7.056  1.00  0.00     0.037 A 
BRANCH  51  65
ATOM     65  C   UNL     1     -17.003  -0.608   0.903  1.00  0.00     0.064 A 
ATOM     66  C   UNL     1     -17.448  -1.553  -0.036  1.00  0.00     0.173 A 
ATOM     67  C   UNL     1     -17.241   0.747   0.635  1.00  0.00     0.173 A 
ATOM     68  F   UNL     1     -17.230  -2.861   0.168  1.00  0.00    -0.203 F 
ATOM     69  C   UNL     1     -18.082  -1.153  -1.208  1.00  0.00     0.198 A 
ATOM     70  C   UNL     1     -17.901   1.141  -0.525  1.00  0.00     0.198 A 
ATOM     71  F   UNL     1     -16.837   1.689   1.501  1.00  0.00    -0.203 F 
ATOM     72  F   UNL     1     -18.456  -2.070  -2.111  1.00  0.00    -0.200 F 
ATOM     73  C   UNL     1     -18.315   0.193  -1.448  1.00  0.00     0.200 A 
ATOM     74  F   UNL     1     -18.135   2.441  -0.752  1.00  0.00    -0.200 F 
ATOM     75  F   UNL     1     -18.933   0.576  -2.574  1.00  0.00    -0.200 F 
ENDBRANCH  51  65
BRANCH  52  76
ATOM     76  C   UNL     1     -12.067  -3.602   9.058  1.00  0.00     0.064 A 
ATOM     77  C   UNL     1     -12.501  -4.747   9.740  1.00  0.00     0.173 A 
ATOM     78  C   UNL     1     -10.918  -2.954   9.534  1.00  0.00     0.173 A 
ATOM     79  F   UNL     1     -13.606  -5.389   9.332  1.00  0.00    -0.203 F 
ATOM     80  C   UNL     1     -11.815  -5.225  10.854  1.00  0.00     0.198 A 
ATOM     81  C   UNL     1     -10.220  -3.446  10.636  1.00  0.00     0.198 A 
ATOM     82  F   UNL     1     -10.460  -1.857   8.914  1.00  0.00    -0.203 F 
ATOM     83  F   UNL     1     -12.265  -6.309  11.501  1.00  0.00    -0.200 F 
ATOM     84  C   UNL     1     -10.671  -4.579  11.296  1.00  0.00     0.200 A 
ATOM     85  F   UNL     1      -9.108  -2.826  11.053  1.00  0.00    -0.200 F 
ATOM     86  F   UNL     1     -10.003  -5.047  12.360  1.00  0.00    -0.200 F 
ENDBRANCH  52  76
BRANCH  64  87
ATOM     87  C   UNL     1     -18.341  -0.731   7.973  1.00  0.00     0.064 A 
ATOM     88  C   UNL     1     -18.271   0.430   8.755  1.00  0.00     0.173 A 
ATOM     89  C   UNL     1     -19.534  -1.469   7.992  1.00  0.00     0.173 A 
ATOM     90  F   UNL     1     -17.147   1.161   8.780  1.00  0.00    -0.203 F 
ATOM     91  C   UNL     1     -19.356   0.837   9.526  1.00  0.00     0.198 A 
ATOM     92  C   UNL     1     -20.626  -1.045   8.743  1.00  0.00     0.198 A 
ATOM     93  F   UNL     1     -19.651  -2.583   7.253  1.00  0.00    -0.203 F 
ATOM     94  F   UNL     1     -19.262   1.939  10.283  1.00  0.00    -0.200 F 
ATOM     95  C   UNL     1     -20.536   0.106   9.510  1.00  0.00     0.200 A 
ATOM     96  F   UNL     1     -21.770  -1.743   8.714  1.00  0.00    -0.200 F 
ATOM     97  F   UNL     1     -21.587   0.513  10.234  1.00  0.00    -0.200 F 
ENDBRANCH  64  87
ENDBRANCH  38  39
ENDBRANCH  30  33
ENDBRANCH  28  29
ENDBRANCH  27  28
ENDBRANCH   1  27
TORSDOF 16
