REMARK SMILES COc1ccc2c(c1)C=C(C(=O)NCCCCNC(=O)c1ccc(-c3c4nc(c(-c5c(F)c(F)c(F)c(F)c5F)c5ccc([nH]5)c(-c5c(F)c(F)c(F)c(F)c5F)c5nc(c(-c6c(F)c(F)c(F)c(F)c6F)c6ccc3[nH]6)C=C5)C=C4)cc1)[C@H](C(F)(F)F)O2
REMARK SMILES IDX 16 1 15 2 14 3 13 4 11 5 12 6 10 8 3 9 4 10 8 11 5 12 7 13
REMARK SMILES IDX 6 14 9 15 89 16 84 17 2 18 1 19 85 20 86 21 87 22 88 23
REMARK SMILES IDX 17 24 18 25 19 26 20 28 21 29 22 30 83 31 23 32 82 33 24 34
REMARK SMILES IDX 25 35 26 36 76 37 27 38 81 39 75 40 77 41 28 42 80 43 74 44
REMARK SMILES IDX 73 45 29 47 61 48 41 49 60 50 42 51 45 52 59 53 78 54 43 55
REMARK SMILES IDX 44 56 58 58 79 59 46 60 30 61 31 62 39 63 32 64 33 65 37 66
REMARK SMILES IDX 40 67 34 68 35 69 38 70 36 71 62 72 63 73 71 74 64 75 65 76
REMARK SMILES IDX 69 77 72 78 66 79 67 80 70 81 68 82 47 83 48 84 56 85 49 86
REMARK SMILES IDX 50 87 54 88 57 89 51 90 52 91 55 92 53 93
REMARK H PARENT 13 7 18 27 77 46 45 57
REMARK Flexibility Score: inf
ROOT
ATOM      1  C   UNL     1      -5.344  -6.278   2.753  1.00  0.00     0.023 C 
ENDROOT
BRANCH   1   2
ATOM      2  C   UNL     1      -3.987  -5.573   2.682  1.00  0.00     0.023 C 
BRANCH   2   3
ATOM      3  C   UNL     1      -2.922  -6.156   3.620  1.00  0.00     0.116 C 
BRANCH   3   4
ATOM      4  N   UNL     1      -2.383  -7.385   3.063  1.00  0.00    -0.352 N 
ATOM      5  C   UNL     1      -1.345  -7.631   2.220  1.00  0.00     0.251 C 
ATOM      6  O   UNL     1      -1.216  -8.773   1.785  1.00  0.00    -0.270 OA
ATOM      7  H   UNL     1      -2.862  -8.195   3.351  1.00  0.00     0.163 HD
BRANCH   5   8
ATOM      8  C   UNL     1      -0.329  -6.603   1.863  1.00  0.00     0.067 C 
ATOM      9  C   UNL     1       1.133  -2.067   1.097  1.00  0.00     0.119 A 
ATOM     10  C   UNL     1       2.458  -2.494   1.023  1.00  0.00     0.050 A 
ATOM     11  C   UNL     1       0.114  -2.994   1.301  1.00  0.00     0.058 A 
ATOM     12  C   UNL     1       2.755  -3.857   1.137  1.00  0.00     0.051 A 
ATOM     13  C   UNL     1       0.413  -4.356   1.409  1.00  0.00     0.021 A 
ATOM     14  C   UNL     1       1.732  -4.785   1.331  1.00  0.00     0.128 A 
ATOM     15  C   UNL     1      -0.639  -5.312   1.693  1.00  0.00     0.025 C 
ATOM     16  O   UNL     1       2.106  -6.084   1.506  1.00  0.00    -0.475 OA
ATOM     17  C   UNL     1       1.074  -7.117   1.544  1.00  0.00     0.314 C 
BRANCH   9  18
ATOM     18  O   UNL     1       0.758  -0.753   1.084  1.00  0.00    -0.497 OA
ATOM     19  C   UNL     1       1.279  -0.032  -0.029  1.00  0.00     0.278 C 
ENDBRANCH   9  18
BRANCH  17  20
ATOM     20  C   UNL     1       1.602  -8.255   2.448  1.00  0.00     0.429 C 
ATOM     21  F   UNL     1       1.194  -9.479   2.042  1.00  0.00    -0.167 F 
ATOM     22  F   UNL     1       2.961  -8.303   2.429  1.00  0.00    -0.167 F 
ATOM     23  F   UNL     1       1.236  -8.097   3.741  1.00  0.00    -0.167 F 
ENDBRANCH  17  20
ENDBRANCH   5   8
ENDBRANCH   3   4
ENDBRANCH   2   3
ENDBRANCH   1   2
BRANCH   1  24
ATOM     24  C   UNL     1      -6.068  -6.122   4.083  1.00  0.00     0.116 C 
BRANCH  24  25
ATOM     25  N   UNL     1      -6.339  -4.737   4.429  1.00  0.00    -0.352 N 
ATOM     26  C   UNL     1      -7.375  -4.227   5.178  1.00  0.00     0.251 C 
ATOM     27  H   UNL     1      -5.697  -4.076   4.081  1.00  0.00     0.163 HD
ATOM     28  O   UNL     1      -7.524  -3.023   5.293  1.00  0.00    -0.269 OA
BRANCH  26  29
ATOM     29  C   UNL     1      -8.332  -5.161   5.808  1.00  0.00     0.039 A 
ATOM     30  C   UNL     1      -9.699  -4.921   5.655  1.00  0.00     0.014 A 
ATOM     31  C   UNL     1      -7.884  -6.272   6.527  1.00  0.00     0.014 A 
ATOM     32  C   UNL     1     -10.621  -5.827   6.180  1.00  0.00     0.010 A 
ATOM     33  C   UNL     1      -8.801  -7.210   6.986  1.00  0.00     0.010 A 
ATOM     34  C   UNL     1     -10.177  -6.992   6.826  1.00  0.00    -0.014 A 
BRANCH  34  35
ATOM     35  C   UNL     1     -11.137  -7.983   7.367  1.00  0.00     0.031 A 
ATOM     36  C   UNL     1     -11.215  -8.215   8.849  1.00  0.00     0.074 A 
ATOM     37  C   UNL     1     -11.884  -8.719   6.524  1.00  0.00     0.049 A 
ATOM     38  N   UNL     1     -11.932  -9.083   9.516  1.00  0.00    -0.248 NA
ATOM     39  C   UNL     1     -10.343  -7.382   9.692  1.00  0.00     0.031 C 
ATOM     40  C   UNL     1     -11.854  -8.623   5.064  1.00  0.00     0.029 A 
ATOM     41  N   UNL     1     -12.805  -9.704   6.775  1.00  0.00    -0.354 N 
ATOM     42  C   UNL     1     -11.582  -8.915  10.849  1.00  0.00     0.074 A 
ATOM     43  C   UNL     1     -10.550  -7.902  10.892  1.00  0.00     0.031 C 
ATOM     44  C   UNL     1     -12.732  -9.500   4.549  1.00  0.00     0.029 A 
ATOM     45  C   UNL     1     -13.362 -10.238   5.639  1.00  0.00     0.049 A 
ATOM     46  H   UNL     1     -13.043 -10.001   7.683  1.00  0.00     0.167 HD
ATOM     47  C   UNL     1     -12.092  -9.533  11.941  1.00  0.00     0.037 A 
ATOM     48  C   UNL     1     -14.280 -11.213   5.498  1.00  0.00     0.037 A 
ATOM     49  C   UNL     1     -13.142 -10.515  11.894  1.00  0.00     0.049 A 
ATOM     50  C   UNL     1     -14.855 -11.863   6.726  1.00  0.00     0.074 A 
ATOM     51  C   UNL     1     -13.774 -11.156  12.945  1.00  0.00     0.029 A 
ATOM     52  N   UNL     1     -13.716 -10.998  10.726  1.00  0.00    -0.354 N 
ATOM     53  N   UNL     1     -14.568 -11.648   7.987  1.00  0.00    -0.248 NA
ATOM     54  C   UNL     1     -15.892 -12.882   6.512  1.00  0.00     0.031 C 
ATOM     55  C   UNL     1     -14.707 -12.053  12.412  1.00  0.00     0.029 A 
ATOM     56  C   UNL     1     -14.688 -11.938  11.031  1.00  0.00     0.049 A 
ATOM     57  H   UNL     1     -13.470 -10.715   9.816  1.00  0.00     0.167 HD
ATOM     58  C   UNL     1     -15.408 -12.478   8.717  1.00  0.00     0.074 A 
ATOM     59  C   UNL     1     -16.222 -13.195   7.757  1.00  0.00     0.031 C 
ATOM     60  C   UNL     1     -15.497 -12.631  10.061  1.00  0.00     0.037 A 
BRANCH  47  61
ATOM     61  C   UNL     1     -11.517  -9.158  13.275  1.00  0.00     0.064 A 
ATOM     62  C   UNL     1     -11.734  -7.892  13.842  1.00  0.00     0.173 A 
ATOM     63  C   UNL     1     -10.745 -10.077  14.002  1.00  0.00     0.173 A 
ATOM     64  F   UNL     1     -12.454  -6.972  13.182  1.00  0.00    -0.203 F 
ATOM     65  C   UNL     1     -11.168  -7.548  15.066  1.00  0.00     0.198 A 
ATOM     66  C   UNL     1     -10.207  -9.740  15.241  1.00  0.00     0.198 A 
ATOM     67  F   UNL     1     -10.510 -11.302  13.509  1.00  0.00    -0.203 F 
ATOM     68  F   UNL     1     -11.340  -6.312  15.557  1.00  0.00    -0.200 F 
ATOM     69  C   UNL     1     -10.410  -8.473  15.767  1.00  0.00     0.200 A 
ATOM     70  F   UNL     1      -9.484 -10.638  15.923  1.00  0.00    -0.200 F 
ATOM     71  F   UNL     1      -9.866  -8.139  16.946  1.00  0.00    -0.200 F 
ENDBRANCH  47  61
BRANCH  48  72
ATOM     72  C   UNL     1     -14.742 -11.598   4.140  1.00  0.00     0.064 A 
ATOM     73  C   UNL     1     -16.026 -11.255   3.696  1.00  0.00     0.173 A 
ATOM     74  C   UNL     1     -13.910 -12.300   3.256  1.00  0.00     0.173 A 
ATOM     75  F   UNL     1     -16.863 -10.600   4.513  1.00  0.00    -0.203 F 
ATOM     76  C   UNL     1     -16.467 -11.614   2.424  1.00  0.00     0.198 A 
ATOM     77  C   UNL     1     -14.343 -12.636   1.975  1.00  0.00     0.198 A 
ATOM     78  F   UNL     1     -12.669 -12.644   3.631  1.00  0.00    -0.203 F 
ATOM     79  F   UNL     1     -17.713 -11.306   2.038  1.00  0.00    -0.200 F 
ATOM     80  C   UNL     1     -15.624 -12.298   1.563  1.00  0.00     0.200 A 
ATOM     81  F   UNL     1     -13.520 -13.285   1.140  1.00  0.00    -0.200 F 
ATOM     82  F   UNL     1     -16.046 -12.637   0.337  1.00  0.00    -0.200 F 
ENDBRANCH  48  72
BRANCH  60  83
ATOM     83  C   UNL     1     -16.542 -13.577  10.576  1.00  0.00     0.064 A 
ATOM     84  C   UNL     1     -16.402 -14.967  10.456  1.00  0.00     0.173 A 
ATOM     85  C   UNL     1     -17.678 -13.084  11.236  1.00  0.00     0.173 A 
ATOM     86  F   UNL     1     -15.340 -15.486   9.820  1.00  0.00    -0.203 F 
ATOM     87  C   UNL     1     -17.374 -15.829  10.956  1.00  0.00     0.198 A 
ATOM     88  C   UNL     1     -18.634 -13.949  11.760  1.00  0.00     0.198 A 
ATOM     89  F   UNL     1     -17.854 -11.762  11.383  1.00  0.00    -0.203 F 
ATOM     90  F   UNL     1     -17.243 -17.152  10.790  1.00  0.00    -0.200 F 
ATOM     91  C   UNL     1     -18.485 -15.320  11.613  1.00  0.00     0.200 A 
ATOM     92  F   UNL     1     -19.700 -13.457  12.405  1.00  0.00    -0.200 F 
ATOM     93  F   UNL     1     -19.416 -16.152  12.100  1.00  0.00    -0.200 F 
ENDBRANCH  60  83
ENDBRANCH  34  35
ENDBRANCH  26  29
ENDBRANCH  24  25
ENDBRANCH   1  24
TORSDOF 13
