REMARK SMILES Cc1ncn(CC[C@@H]2CCC[C@@]2([NH3+])C(=O)NCCCCNC(=O)c2ccc(-c3c4nc(c(-c5c(F)c(F)c(F)c(F)c5F)c5ccc([nH]5)c(-c5c(F)c(F)c(F)c(F)c5F)c5nc(c(-c6c(F)c(F)c(F)c(F)c6F)c6ccc3[nH]6)C=C5)C=C4)cc2)c1C
REMARK SMILES IDX 18 1 17 2 16 3 14 4 15 5 12 7 8 8 9 9 10 10 11 11 7 12 6 13
REMARK SMILES IDX 5 14 1 15 2 16 3 17 87 18 4 19 88 20 13 21 19 25 20 26 21 27
REMARK SMILES IDX 22 28 23 30 24 31 25 32 86 33 26 34 85 35 27 36 28 37 29 38
REMARK SMILES IDX 79 39 30 40 84 41 78 42 80 43 31 44 83 45 77 46 76 47 32 49
REMARK SMILES IDX 64 50 44 51 63 52 45 53 48 54 62 55 81 56 46 57 47 58 61 60
REMARK SMILES IDX 82 61 49 62 33 63 34 64 42 65 35 66 36 67 40 68 43 69 37 70
REMARK SMILES IDX 38 71 41 72 39 73 65 74 66 75 74 76 67 77 68 78 72 79 75 80
REMARK SMILES IDX 69 81 70 82 73 83 71 84 50 85 51 86 59 87 52 88 53 89 57 90
REMARK SMILES IDX 60 91 54 92 55 93 58 94 56 95
REMARK H PARENT 16 6 13 22 13 23 13 24 21 29 80 48 48 59
REMARK Flexibility Score: inf
ROOT
ATOM      1  C   UNL     1       8.018   4.044  -1.196  1.00  0.00     0.023 C 
ENDROOT
BRANCH   1   2
ATOM      2  C   UNL     1       7.563   4.868   0.016  1.00  0.00     0.116 C 
BRANCH   2   3
ATOM      3  N   UNL     1       6.455   5.770  -0.288  1.00  0.00    -0.351 N 
ATOM      4  C   UNL     1       5.096   5.621  -0.094  1.00  0.00     0.281 C 
ATOM      5  O   UNL     1       4.348   6.532  -0.451  1.00  0.00    -0.268 OA
ATOM      6  H   UNL     1       6.721   6.625  -0.699  1.00  0.00     0.163 HD
BRANCH   4   7
ATOM      7  C   UNL     1       4.578   4.359   0.645  1.00  0.00     0.176 C 
ATOM      8  C   UNL     1       3.047   4.067   0.608  1.00  0.00     0.062 C 
ATOM      9  C   UNL     1       3.075   2.610   1.121  1.00  0.00     0.011 C 
ATOM     10  C   UNL     1       4.165   1.942   0.320  1.00  0.00     0.008 C 
ATOM     11  C   UNL     1       5.042   3.093  -0.128  1.00  0.00     0.079 C 
BRANCH   8  12
ATOM     12  C   UNL     1       2.028   4.922   1.381  1.00  0.00     0.032 C 
BRANCH  12  13
ATOM     13  C   UNL     1       0.569   4.768   0.851  1.00  0.00     0.124 C 
BRANCH  13  14
ATOM     14  N   UNL     1       0.042   3.413   0.828  1.00  0.00    -0.335 N 
ATOM     15  C   UNL     1       0.322  -0.088  -0.010  1.00  0.00     0.069 C 
ATOM     16  C   UNL     1      -0.071   1.267   0.450  1.00  0.00     0.058 A 
ATOM     17  N   UNL     1      -0.503   1.466   1.739  1.00  0.00    -0.242 NA
ATOM     18  C   UNL     1       0.119   2.484  -0.195  1.00  0.00     0.037 A 
ATOM     19  C   UNL     1      -0.455   2.765   1.927  1.00  0.00     0.199 A 
ATOM     20  C   UNL     1       0.559   2.762  -1.585  1.00  0.00     0.066 C 
ENDBRANCH  13  14
ENDBRANCH  12  13
ENDBRANCH   8  12
BRANCH   7  21
ATOM     21  N   UNL     1       5.005   4.438   2.062  1.00  0.00    -0.345 N 
ATOM     22  H   UNL     1       4.671   3.615   2.564  1.00  0.00     0.345 HD
ATOM     23  H   UNL     1       4.613   5.278   2.489  1.00  0.00     0.345 HD
ATOM     24  H   UNL     1       6.023   4.476   2.109  1.00  0.00     0.345 HD
ENDBRANCH   7  21
ENDBRANCH   4   7
ENDBRANCH   2   3
ENDBRANCH   1   2
BRANCH   1  25
ATOM     25  C   UNL     1       9.197   4.621  -1.981  1.00  0.00     0.023 C 
BRANCH  25  26
ATOM     26  C   UNL     1      10.488   4.743  -1.183  1.00  0.00     0.116 C 
BRANCH  26  27
ATOM     27  N   UNL     1      10.975   3.470  -0.636  1.00  0.00    -0.352 N 
ATOM     28  C   UNL     1      11.974   3.289   0.316  1.00  0.00     0.251 C 
ATOM     29  H   UNL     1      10.547   2.654  -0.981  1.00  0.00     0.163 HD
ATOM     30  O   UNL     1      12.570   2.243   0.453  1.00  0.00    -0.269 OA
BRANCH  28  31
ATOM     31  C   UNL     1      12.230   4.427   1.212  1.00  0.00     0.039 A 
ATOM     32  C   UNL     1      13.502   4.952   1.455  1.00  0.00     0.014 A 
ATOM     33  C   UNL     1      11.083   5.033   1.704  1.00  0.00     0.014 A 
ATOM     34  C   UNL     1      13.594   6.149   2.163  1.00  0.00     0.010 A 
ATOM     35  C   UNL     1      11.166   6.316   2.141  1.00  0.00     0.010 A 
ATOM     36  C   UNL     1      12.410   6.820   2.495  1.00  0.00    -0.014 A 
BRANCH  36  37
ATOM     37  C   UNL     1      12.373   8.079   3.213  1.00  0.00     0.031 A 
ATOM     38  C   UNL     1      12.981   9.243   2.517  1.00  0.00     0.074 A 
ATOM     39  C   UNL     1      11.554   8.206   4.282  1.00  0.00     0.049 A 
ATOM     40  N   UNL     1      13.977   9.965   2.908  1.00  0.00    -0.248 NA
ATOM     41  C   UNL     1      12.499   9.583   1.168  1.00  0.00     0.031 C 
ATOM     42  C   UNL     1      10.630   7.222   4.871  1.00  0.00     0.029 A 
ATOM     43  N   UNL     1      11.281   9.324   4.996  1.00  0.00    -0.354 N 
ATOM     44  C   UNL     1      14.148  10.958   1.945  1.00  0.00     0.074 A 
ATOM     45  C   UNL     1      13.326  10.574   0.827  1.00  0.00     0.031 C 
ATOM     46  C   UNL     1       9.741   7.851   5.671  1.00  0.00     0.029 A 
ATOM     47  C   UNL     1      10.144   9.235   5.793  1.00  0.00     0.049 A 
ATOM     48  H   UNL     1      11.841  10.133   4.954  1.00  0.00     0.167 HD
ATOM     49  C   UNL     1      14.797  12.122   2.236  1.00  0.00     0.037 A 
ATOM     50  C   UNL     1       9.569  10.277   6.442  1.00  0.00     0.037 A 
ATOM     51  C   UNL     1      15.528  12.004   3.474  1.00  0.00     0.049 A 
ATOM     52  C   UNL     1      10.621  11.329   6.559  1.00  0.00     0.074 A 
ATOM     53  C   UNL     1      16.566  11.197   3.901  1.00  0.00     0.029 A 
ATOM     54  N   UNL     1      14.947  12.491   4.622  1.00  0.00    -0.354 N 
ATOM     55  N   UNL     1      11.714  11.169   7.262  1.00  0.00    -0.248 NA
ATOM     56  C   UNL     1      10.713  12.302   5.477  1.00  0.00     0.031 C 
ATOM     57  C   UNL     1      16.208  10.822   5.231  1.00  0.00     0.029 A 
ATOM     58  C   UNL     1      15.031  11.494   5.563  1.00  0.00     0.049 A 
ATOM     59  H   UNL     1      14.547  13.383   4.745  1.00  0.00     0.167 HD
ATOM     60  C   UNL     1      12.730  11.704   6.480  1.00  0.00     0.074 A 
ATOM     61  C   UNL     1      12.043  12.425   5.407  1.00  0.00     0.031 C 
ATOM     62  C   UNL     1      14.023  11.267   6.575  1.00  0.00     0.037 A 
BRANCH  49  63
ATOM     63  C   UNL     1      14.524  13.463   1.601  1.00  0.00     0.064 A 
ATOM     64  C   UNL     1      15.367  14.552   1.913  1.00  0.00     0.173 A 
ATOM     65  C   UNL     1      13.323  13.798   0.942  1.00  0.00     0.173 A 
ATOM     66  F   UNL     1      16.538  14.355   2.537  1.00  0.00    -0.203 F 
ATOM     67  C   UNL     1      14.987  15.875   1.672  1.00  0.00     0.198 A 
ATOM     68  C   UNL     1      12.971  15.116   0.656  1.00  0.00     0.198 A 
ATOM     69  F   UNL     1      12.391  12.884   0.648  1.00  0.00    -0.203 F 
ATOM     70  F   UNL     1      15.761  16.879   2.105  1.00  0.00    -0.200 F 
ATOM     71  C   UNL     1      13.784  16.157   1.053  1.00  0.00     0.200 A 
ATOM     72  F   UNL     1      11.795  15.369   0.063  1.00  0.00    -0.200 F 
ATOM     73  F   UNL     1      13.385  17.424   0.881  1.00  0.00    -0.200 F 
ENDBRANCH  49  63
BRANCH  50  74
ATOM     74  C   UNL     1       8.114  10.532   6.584  1.00  0.00     0.064 A 
ATOM     75  C   UNL     1       7.619  11.460   7.512  1.00  0.00     0.173 A 
ATOM     76  C   UNL     1       7.188  10.047   5.635  1.00  0.00     0.173 A 
ATOM     77  F   UNL     1       8.441  12.010   8.416  1.00  0.00    -0.203 F 
ATOM     78  C   UNL     1       6.282  11.883   7.488  1.00  0.00     0.198 A 
ATOM     79  C   UNL     1       5.856  10.463   5.615  1.00  0.00     0.198 A 
ATOM     80  F   UNL     1       7.577   9.223   4.651  1.00  0.00    -0.203 F 
ATOM     81  F   UNL     1       5.857  12.807   8.360  1.00  0.00    -0.200 F 
ATOM     82  C   UNL     1       5.405  11.389   6.535  1.00  0.00     0.200 A 
ATOM     83  F   UNL     1       5.031  10.004   4.663  1.00  0.00    -0.200 F 
ATOM     84  F   UNL     1       4.141  11.833   6.478  1.00  0.00    -0.200 F 
ENDBRANCH  50  74
BRANCH  62  85
ATOM     85  C   UNL     1      14.378  10.285   7.664  1.00  0.00     0.064 A 
ATOM     86  C   UNL     1      13.839   8.989   7.759  1.00  0.00     0.173 A 
ATOM     87  C   UNL     1      15.446  10.588   8.518  1.00  0.00     0.173 A 
ATOM     88  F   UNL     1      12.894   8.574   6.912  1.00  0.00    -0.203 F 
ATOM     89  C   UNL     1      14.317   8.059   8.682  1.00  0.00     0.198 A 
ATOM     90  C   UNL     1      15.947   9.648   9.418  1.00  0.00     0.198 A 
ATOM     91  F   UNL     1      16.050  11.783   8.436  1.00  0.00    -0.203 F 
ATOM     92  F   UNL     1      13.780   6.831   8.740  1.00  0.00    -0.200 F 
ATOM     93  C   UNL     1      15.378   8.388   9.506  1.00  0.00     0.200 A 
ATOM     94  F   UNL     1      17.010   9.953  10.174  1.00  0.00    -0.200 F 
ATOM     95  F   UNL     1      15.872   7.481  10.361  1.00  0.00    -0.200 F 
ENDBRANCH  62  85
ENDBRANCH  36  37
ENDBRANCH  28  31
ENDBRANCH  26  27
ENDBRANCH  25  26
ENDBRANCH   1  25
TORSDOF 15
