REMARK SMILES Cc1cc2n(n1)[C@H](C(F)(F)F)CCN2C(=O)c1cnn([C@@H](C)C(=O)NCCCCNC(=O)c2ccc(-c3c4nc(c(-c5c(F)c(F)c(F)c(F)c5F)c5ccc([nH]5)c(-c5c(F)c(F)c(F)c(F)c5F)c5nc(c(-c6c(F)c(F)c(F)c(F)c6F)c6ccc3[nH]6)C=C5)C=C4)cc2)c1
REMARK SMILES IDX 26 1 25 2 23 3 24 4 21 6 22 7 20 8 17 9 18 10 96 11 19 12
REMARK SMILES IDX 15 13 16 14 14 15 1 16 2 17 3 18 6 19 4 20 5 21 7 22 13 23
REMARK SMILES IDX 12 24 8 25 9 26 10 27 11 28 27 29 28 30 29 31 30 32 31 33
REMARK SMILES IDX 32 35 33 36 34 37 95 38 35 39 94 40 36 41 37 42 38 43 88 44
REMARK SMILES IDX 39 45 93 46 87 47 89 48 40 49 92 50 86 51 85 52 41 54 73 55
REMARK SMILES IDX 53 56 72 57 54 58 57 59 71 60 90 61 55 62 56 63 70 65 91 66
REMARK SMILES IDX 58 67 42 68 43 69 51 70 44 71 45 72 49 73 52 74 46 75 47 76
REMARK SMILES IDX 50 77 48 78 74 79 75 80 83 81 76 82 77 83 81 84 84 85 78 86
REMARK SMILES IDX 79 87 82 88 80 89 59 90 60 91 68 92 61 93 62 94 66 95 69 96
REMARK SMILES IDX 63 97 64 98 67 99 65 100
REMARK H PARENT 25 5 30 34 89 53 57 64
REMARK Flexibility Score: inf
ROOT
ATOM      1  C   UNL     1      -6.857   7.065   5.375  1.00  0.00     0.116 C 
ENDROOT
BRANCH   1   2
ATOM      2  N   UNL     1      -7.007   5.963   6.310  1.00  0.00    -0.354 N 
ATOM      3  C   UNL     1      -6.089   5.184   6.948  1.00  0.00     0.244 C 
ATOM      4  O   UNL     1      -6.546   4.257   7.630  1.00  0.00    -0.273 OA
ATOM      5  H   UNL     1      -7.942   5.739   6.521  1.00  0.00     0.163 HD
BRANCH   3   6
ATOM      6  C   UNL     1      -4.576   5.399   6.902  1.00  0.00     0.193 C 
ATOM      7  C   UNL     1      -4.101   6.713   7.515  1.00  0.00     0.044 C 
BRANCH   6   8
ATOM      8  N   UNL     1      -4.011   5.111   5.590  1.00  0.00    -0.260 N 
ATOM      9  C   UNL     1      -3.012   4.137   3.875  1.00  0.00     0.078 A 
ATOM     10  C   UNL     1      -3.735   5.278   3.509  1.00  0.00     0.149 A 
ATOM     11  C   UNL     1      -3.247   4.027   5.235  1.00  0.00     0.123 A 
ATOM     12  N   UNL     1      -4.174   5.962   4.562  1.00  0.00    -0.180 NA
BRANCH   9  13
ATOM     13  C   UNL     1      -2.300   3.183   3.057  1.00  0.00     0.262 C 
ATOM     14  O   UNL     1      -2.463   1.979   3.152  1.00  0.00    -0.269 OA
BRANCH  13  15
ATOM     15  N   UNL     1      -1.314   3.771   2.145  1.00  0.00    -0.293 N 
ATOM     16  C   UNL     1       0.954  -0.047  -0.221  1.00  0.00     0.069 C 
ATOM     17  C   UNL     1       0.474   1.279   0.242  1.00  0.00     0.062 A 
ATOM     18  C   UNL     1      -0.562   1.556   1.166  1.00  0.00     0.072 A 
ATOM     19  N   UNL     1       1.042   2.402  -0.212  1.00  0.00    -0.176 NA
ATOM     20  C   UNL     1      -0.554   2.923   1.325  1.00  0.00     0.134 A 
ATOM     21  N   UNL     1       0.440   3.366   0.492  1.00  0.00    -0.237 N 
ATOM     22  C   UNL     1       0.839   4.749   0.351  1.00  0.00     0.216 C 
ATOM     23  C   UNL     1      -0.890   5.192   2.215  1.00  0.00     0.130 C 
ATOM     24  C   UNL     1      -0.247   5.676   0.912  1.00  0.00     0.059 C 
BRANCH  22  25
ATOM     25  C   UNL     1       2.178   4.976   1.016  1.00  0.00     0.410 C 
ATOM     26  F   UNL     1       2.126   4.690   2.336  1.00  0.00    -0.169 F 
ATOM     27  F   UNL     1       3.177   4.264   0.463  1.00  0.00    -0.169 F 
ATOM     28  F   UNL     1       2.523   6.284   0.913  1.00  0.00    -0.169 F 
ENDBRANCH  22  25
ENDBRANCH  13  15
ENDBRANCH   9  13
ENDBRANCH   6   8
ENDBRANCH   3   6
ENDBRANCH   1   2
BRANCH   1  29
ATOM     29  C   UNL     1      -7.108   6.649   3.920  1.00  0.00     0.023 C 
BRANCH  29  30
ATOM     30  C   UNL     1      -8.566   6.403   3.521  1.00  0.00     0.023 C 
BRANCH  30  31
ATOM     31  C   UNL     1      -9.474   7.623   3.597  1.00  0.00     0.116 C 
BRANCH  31  32
ATOM     32  N   UNL     1      -9.029   8.723   2.744  1.00  0.00    -0.352 N 
ATOM     33  C   UNL     1      -9.429  10.043   2.786  1.00  0.00     0.251 C 
ATOM     34  H   UNL     1      -8.362   8.495   2.057  1.00  0.00     0.163 HD
ATOM     35  O   UNL     1      -9.266  10.787   1.827  1.00  0.00    -0.269 OA
BRANCH  33  36
ATOM     36  C   UNL     1     -10.065  10.543   4.015  1.00  0.00     0.039 A 
ATOM     37  C   UNL     1     -11.279  11.228   3.965  1.00  0.00     0.014 A 
ATOM     38  C   UNL     1      -9.461  10.240   5.233  1.00  0.00     0.014 A 
ATOM     39  C   UNL     1     -11.938  11.512   5.159  1.00  0.00     0.010 A 
ATOM     40  C   UNL     1     -10.166  10.415   6.403  1.00  0.00     0.010 A 
ATOM     41  C   UNL     1     -11.396  11.071   6.379  1.00  0.00    -0.014 A 
BRANCH  41  42
ATOM     42  C   UNL     1     -12.194  11.164   7.605  1.00  0.00     0.031 A 
ATOM     43  C   UNL     1     -13.545  10.539   7.529  1.00  0.00     0.074 A 
ATOM     44  C   UNL     1     -11.696  11.559   8.798  1.00  0.00     0.049 A 
ATOM     45  N   UNL     1     -14.694  11.109   7.686  1.00  0.00    -0.248 NA
ATOM     46  C   UNL     1     -13.637   9.119   7.150  1.00  0.00     0.031 C 
ATOM     47  C   UNL     1     -10.296  11.865   9.111  1.00  0.00     0.029 A 
ATOM     48  N   UNL     1     -12.309  11.654  10.018  1.00  0.00    -0.354 N 
ATOM     49  C   UNL     1     -15.645  10.088   7.630  1.00  0.00     0.074 A 
ATOM     50  C   UNL     1     -14.958   8.928   7.132  1.00  0.00     0.031 C 
ATOM     51  C   UNL     1     -10.122  11.864  10.449  1.00  0.00     0.029 A 
ATOM     52  C   UNL     1     -11.423  11.757  11.082  1.00  0.00     0.049 A 
ATOM     53  H   UNL     1     -13.287  11.650  10.131  1.00  0.00     0.167 HD
ATOM     54  C   UNL     1     -16.840  10.226   8.272  1.00  0.00     0.037 A 
ATOM     55  C   UNL     1     -11.707  11.765  12.404  1.00  0.00     0.037 A 
ATOM     56  C   UNL     1     -17.064  11.602   8.633  1.00  0.00     0.049 A 
ATOM     57  C   UNL     1     -13.116  12.176  12.579  1.00  0.00     0.074 A 
ATOM     58  C   UNL     1     -17.510  12.754   8.027  1.00  0.00     0.029 A 
ATOM     59  N   UNL     1     -16.466  11.964   9.806  1.00  0.00    -0.354 N 
ATOM     60  N   UNL     1     -13.559  13.367  12.285  1.00  0.00    -0.248 NA
ATOM     61  C   UNL     1     -14.142  11.164  12.809  1.00  0.00     0.031 C 
ATOM     62  C   UNL     1     -17.042  13.839   8.830  1.00  0.00     0.029 A 
ATOM     63  C   UNL     1     -16.340  13.321   9.913  1.00  0.00     0.049 A 
ATOM     64  H   UNL     1     -16.163  11.325  10.492  1.00  0.00     0.167 HD
ATOM     65  C   UNL     1     -14.857  13.149  11.875  1.00  0.00     0.074 A 
ATOM     66  C   UNL     1     -15.218  11.839  12.396  1.00  0.00     0.031 C 
ATOM     67  C   UNL     1     -15.397  13.875  10.856  1.00  0.00     0.037 A 
BRANCH  54  68
ATOM     68  C   UNL     1     -17.568   9.126   9.034  1.00  0.00     0.064 A 
ATOM     69  C   UNL     1     -18.777   9.452   9.694  1.00  0.00     0.173 A 
ATOM     70  C   UNL     1     -16.984   7.905   9.433  1.00  0.00     0.173 A 
ATOM     71  F   UNL     1     -19.440  10.579   9.394  1.00  0.00    -0.203 F 
ATOM     72  C   UNL     1     -19.287   8.681  10.745  1.00  0.00     0.198 A 
ATOM     73  C   UNL     1     -17.522   7.114  10.451  1.00  0.00     0.198 A 
ATOM     74  F   UNL     1     -15.819   7.473   8.941  1.00  0.00    -0.203 F 
ATOM     75  F   UNL     1     -20.358   9.109  11.427  1.00  0.00    -0.200 F 
ATOM     76  C   UNL     1     -18.649   7.520  11.133  1.00  0.00     0.200 A 
ATOM     77  F   UNL     1     -16.882   5.996  10.821  1.00  0.00    -0.200 F 
ATOM     78  F   UNL     1     -19.090   6.817  12.184  1.00  0.00    -0.200 F 
ENDBRANCH  54  68
BRANCH  55  79
ATOM     79  C   UNL     1     -10.864  11.304  13.526  1.00  0.00     0.064 A 
ATOM     80  C   UNL     1     -11.049  11.787  14.829  1.00  0.00     0.173 A 
ATOM     81  C   UNL     1     -10.020  10.186  13.379  1.00  0.00     0.173 A 
ATOM     82  F   UNL     1     -11.863  12.828  15.053  1.00  0.00    -0.203 F 
ATOM     83  C   UNL     1     -10.447  11.168  15.929  1.00  0.00     0.198 A 
ATOM     84  C   UNL     1      -9.415   9.573  14.475  1.00  0.00     0.198 A 
ATOM     85  F   UNL     1      -9.840   9.618  12.177  1.00  0.00    -0.203 F 
ATOM     86  F   UNL     1     -10.693  11.619  17.166  1.00  0.00    -0.200 F 
ATOM     87  C   UNL     1      -9.641  10.055  15.752  1.00  0.00     0.200 A 
ATOM     88  F   UNL     1      -8.661   8.479  14.293  1.00  0.00    -0.200 F 
ATOM     89  F   UNL     1      -9.114   9.424  16.810  1.00  0.00    -0.200 F 
ENDBRANCH  55  79
BRANCH  67  90
ATOM     90  C   UNL     1     -14.837  15.236  10.601  1.00  0.00     0.064 A 
ATOM     91  C   UNL     1     -13.535  15.486  10.141  1.00  0.00     0.173 A 
ATOM     92  C   UNL     1     -15.685  16.336  10.782  1.00  0.00     0.173 A 
ATOM     93  F   UNL     1     -12.692  14.480   9.872  1.00  0.00    -0.203 F 
ATOM     94  C   UNL     1     -13.091  16.788   9.917  1.00  0.00     0.198 A 
ATOM     95  C   UNL     1     -15.252  17.632  10.523  1.00  0.00     0.198 A 
ATOM     96  F   UNL     1     -16.952  16.149  11.184  1.00  0.00    -0.203 F 
ATOM     97  F   UNL     1     -11.835  17.008   9.502  1.00  0.00    -0.200 F 
ATOM     98  C   UNL     1     -13.952  17.859  10.102  1.00  0.00     0.200 A 
ATOM     99  F   UNL     1     -16.101  18.658  10.666  1.00  0.00    -0.200 F 
ATOM    100  F   UNL     1     -13.534  19.109   9.859  1.00  0.00    -0.200 F 
ENDBRANCH  67  90
ENDBRANCH  41  42
ENDBRANCH  33  36
ENDBRANCH  31  32
ENDBRANCH  30  31
ENDBRANCH  29  30
ENDBRANCH   1  29
TORSDOF 15
