REMARK SMILES COc1ccc(/C=C/C(=O)NCCCCNC(=O)c2ccc(-c3c4nc(c(-c5c(F)c(F)c(F)c(F)c5F)c5ccc([nH]5)c(-c5c(F)c(F)c(F)c(F)c5F)c5nc(c(-c6c(F)c(F)c(F)c(F)c6F)c6ccc3[nH]6)C=C5)C=C4)cc2)cc1S(=O)(=O)Nc1ccc(F)cc1F
REMARK SMILES IDX 12 1 11 2 9 3 10 4 8 6 7 7 6 8 3 9 4 10 83 11 5 12 82 13
REMARK SMILES IDX 2 14 1 15 84 16 85 17 86 18 87 19 88 21 89 22 94 23 90 24
REMARK SMILES IDX 93 25 95 26 91 27 92 28 13 29 14 30 15 31 16 32 17 33 18 35
REMARK SMILES IDX 19 36 20 37 81 38 21 39 80 40 22 41 23 42 24 43 74 44 25 45
REMARK SMILES IDX 79 46 73 47 75 48 26 49 78 50 72 51 71 52 27 54 59 55 39 56
REMARK SMILES IDX 58 57 40 58 43 59 57 60 76 61 41 62 42 63 56 65 77 66 44 67
REMARK SMILES IDX 28 68 29 69 37 70 30 71 31 72 35 73 38 74 32 75 33 76 36 77
REMARK SMILES IDX 34 78 60 79 61 80 69 81 62 82 63 83 67 84 70 85 64 86 65 87
REMARK SMILES IDX 68 88 66 89 45 90 46 91 54 92 47 93 48 94 52 95 55 96 49 97
REMARK SMILES IDX 50 98 53 99 51 100
REMARK H PARENT 11 5 87 20 16 34 75 53 43 64
REMARK Flexibility Score: inf
ROOT
ATOM      1  C   UNL     1       3.690   8.300  -1.263  1.00  0.00     0.116 C 
ENDROOT
BRANCH   1   2
ATOM      2  N   UNL     1       2.571   8.985  -1.879  1.00  0.00    -0.353 N 
ATOM      3  C   UNL     1       1.370   8.504  -2.292  1.00  0.00     0.243 C 
ATOM      4  O   UNL     1       0.541   9.264  -2.786  1.00  0.00    -0.270 OA
ATOM      5  H   UNL     1       2.701   9.951  -2.019  1.00  0.00     0.163 HD
BRANCH   3   6
ATOM      6  C   UNL     1       0.994   7.104  -2.009  1.00  0.00     0.072 C 
ATOM      7  C   UNL     1       1.699   6.004  -2.322  1.00  0.00     0.014 C 
BRANCH   7   8
ATOM      8  C   UNL     1       1.273   4.668  -1.874  1.00  0.00    -0.024 A 
ATOM      9  C   UNL     1       0.514   2.257  -0.643  1.00  0.00     0.139 A 
ATOM     10  C   UNL     1      -0.453   3.144  -1.122  1.00  0.00     0.048 A 
ATOM     11  C   UNL     1       1.853   2.473  -0.952  1.00  0.00     0.130 A 
ATOM     12  C   UNL     1      -0.077   4.331  -1.748  1.00  0.00     0.012 A 
ATOM     13  C   UNL     1       2.231   3.704  -1.533  1.00  0.00     0.034 A 
BRANCH   9  14
ATOM     14  O   UNL     1       0.022   1.189   0.044  1.00  0.00    -0.495 OA
ATOM     15  C   UNL     1       0.237   1.319   1.447  1.00  0.00     0.278 C 
ENDBRANCH   9  14
BRANCH  11  16
ATOM     16  S   UNL     1       3.164   1.286  -0.773  1.00  0.00     0.265 S 
ATOM     17  O   UNL     1       3.935   1.310  -2.000  1.00  0.00    -0.201 OA
ATOM     18  O   UNL     1       3.807   1.613   0.486  1.00  0.00    -0.201 OA
BRANCH  16  19
ATOM     19  N   UNL     1       2.604  -0.278  -0.556  1.00  0.00    -0.277 N 
ATOM     20  H   UNL     1       3.117  -0.863   0.047  1.00  0.00     0.180 HD
BRANCH  19  21
ATOM     21  C   UNL     1       1.444  -0.829  -1.174  1.00  0.00     0.085 A 
ATOM     22  C   UNL     1       0.728  -1.761  -0.406  1.00  0.00     0.033 A 
ATOM     23  C   UNL     1       0.927  -0.435  -2.415  1.00  0.00     0.150 A 
ATOM     24  C   UNL     1      -0.550  -2.160  -0.797  1.00  0.00     0.041 A 
ATOM     25  C   UNL     1      -0.347  -0.832  -2.810  1.00  0.00     0.080 A 
ATOM     26  F   UNL     1       1.596   0.417  -3.202  1.00  0.00    -0.205 F 
ATOM     27  C   UNL     1      -1.086  -1.666  -1.980  1.00  0.00     0.126 A 
ATOM     28  F   UNL     1      -2.342  -1.988  -2.314  1.00  0.00    -0.207 F 
ENDBRANCH  19  21
ENDBRANCH  16  19
ENDBRANCH  11  16
ENDBRANCH   7   8
ENDBRANCH   3   6
ENDBRANCH   1   2
BRANCH   1  29
ATOM     29  C   UNL     1       4.812   8.104  -2.281  1.00  0.00     0.023 C 
BRANCH  29  30
ATOM     30  C   UNL     1       5.574   9.389  -2.621  1.00  0.00     0.023 C 
BRANCH  30  31
ATOM     31  C   UNL     1       6.273  10.054  -1.441  1.00  0.00     0.116 C 
BRANCH  31  32
ATOM     32  N   UNL     1       7.205   9.173  -0.755  1.00  0.00    -0.352 N 
ATOM     33  C   UNL     1       8.413   9.482  -0.174  1.00  0.00     0.251 C 
ATOM     34  H   UNL     1       6.934   8.228  -0.698  1.00  0.00     0.163 HD
ATOM     35  O   UNL     1       9.135   8.606   0.271  1.00  0.00    -0.269 OA
BRANCH  33  36
ATOM     36  C   UNL     1       8.844  10.895  -0.134  1.00  0.00     0.039 A 
ATOM     37  C   UNL     1      10.122  11.218  -0.594  1.00  0.00     0.014 A 
ATOM     38  C   UNL     1       7.978  11.892   0.320  1.00  0.00     0.014 A 
ATOM     39  C   UNL     1      10.509  12.557  -0.660  1.00  0.00     0.010 A 
ATOM     40  C   UNL     1       8.338  13.228   0.188  1.00  0.00     0.010 A 
ATOM     41  C   UNL     1       9.607  13.573  -0.304  1.00  0.00    -0.014 A 
BRANCH  41  42
ATOM     42  C   UNL     1       9.970  15.004  -0.442  1.00  0.00     0.031 A 
ATOM     43  C   UNL     1      10.072  15.875   0.777  1.00  0.00     0.074 A 
ATOM     44  C   UNL     1      10.141  15.531  -1.670  1.00  0.00     0.049 A 
ATOM     45  N   UNL     1      10.313  17.159   0.860  1.00  0.00    -0.248 NA
ATOM     46  C   UNL     1       9.844  15.222   2.075  1.00  0.00     0.031 C 
ATOM     47  C   UNL     1      10.017  14.797  -2.930  1.00  0.00     0.029 A 
ATOM     48  N   UNL     1      10.445  16.811  -2.059  1.00  0.00    -0.354 N 
ATOM     49  C   UNL     1      10.249  17.467   2.212  1.00  0.00     0.074 A 
ATOM     50  C   UNL     1       9.893  16.250   2.908  1.00  0.00     0.031 C 
ATOM     51  C   UNL     1      10.266  15.632  -3.951  1.00  0.00     0.029 A 
ATOM     52  C   UNL     1      10.531  16.966  -3.421  1.00  0.00     0.049 A 
ATOM     53  H   UNL     1      10.588  17.549  -1.423  1.00  0.00     0.167 HD
ATOM     54  C   UNL     1      10.492  18.653   2.819  1.00  0.00     0.037 A 
ATOM     55  C   UNL     1      10.789  18.064  -4.157  1.00  0.00     0.037 A 
ATOM     56  C   UNL     1      10.871  19.854   2.123  1.00  0.00     0.049 A 
ATOM     57  C   UNL     1      11.050  19.370  -3.458  1.00  0.00     0.074 A 
ATOM     58  C   UNL     1      11.205  21.089   2.651  1.00  0.00     0.029 A 
ATOM     59  N   UNL     1      10.963  19.970   0.743  1.00  0.00    -0.354 N 
ATOM     60  N   UNL     1      11.063  19.634  -2.174  1.00  0.00    -0.248 NA
ATOM     61  C   UNL     1      11.339  20.530  -4.312  1.00  0.00     0.031 C 
ATOM     62  C   UNL     1      11.451  21.966   1.589  1.00  0.00     0.029 A 
ATOM     63  C   UNL     1      11.323  21.264   0.400  1.00  0.00     0.049 A 
ATOM     64  H   UNL     1      10.797  19.241   0.103  1.00  0.00     0.167 HD
ATOM     65  C   UNL     1      11.386  20.979  -2.064  1.00  0.00     0.074 A 
ATOM     66  C   UNL     1      11.578  21.474  -3.412  1.00  0.00     0.031 C 
ATOM     67  C   UNL     1      11.513  21.738  -0.947  1.00  0.00     0.037 A 
BRANCH  54  68
ATOM     68  C   UNL     1      10.354  18.706   4.314  1.00  0.00     0.064 A 
ATOM     69  C   UNL     1      11.256  18.045   5.161  1.00  0.00     0.173 A 
ATOM     70  C   UNL     1       9.321  19.448   4.908  1.00  0.00     0.173 A 
ATOM     71  F   UNL     1      12.254  17.312   4.644  1.00  0.00    -0.203 F 
ATOM     72  C   UNL     1      11.110  18.095   6.545  1.00  0.00     0.198 A 
ATOM     73  C   UNL     1       9.197  19.522   6.293  1.00  0.00     0.198 A 
ATOM     74  F   UNL     1       8.434  20.104   4.145  1.00  0.00    -0.203 F 
ATOM     75  F   UNL     1      11.951  17.409   7.331  1.00  0.00    -0.200 F 
ATOM     76  C   UNL     1      10.085  18.839   7.109  1.00  0.00     0.200 A 
ATOM     77  F   UNL     1       8.214  20.252   6.838  1.00  0.00    -0.200 F 
ATOM     78  F   UNL     1       9.949  18.890   8.441  1.00  0.00    -0.200 F 
ENDBRANCH  54  68
BRANCH  55  79
ATOM     79  C   UNL     1      10.841  17.967  -5.639  1.00  0.00     0.064 A 
ATOM     80  C   UNL     1      12.057  18.100  -6.325  1.00  0.00     0.173 A 
ATOM     81  C   UNL     1       9.685  17.741  -6.400  1.00  0.00     0.173 A 
ATOM     82  F   UNL     1      13.187  18.338  -5.642  1.00  0.00    -0.203 F 
ATOM     83  C   UNL     1      12.112  18.030  -7.715  1.00  0.00     0.198 A 
ATOM     84  C   UNL     1       9.745  17.643  -7.789  1.00  0.00     0.198 A 
ATOM     85  F   UNL     1       8.498  17.602  -5.792  1.00  0.00    -0.203 F 
ATOM     86  F   UNL     1      13.280  18.206  -8.347  1.00  0.00    -0.200 F 
ATOM     87  C   UNL     1      10.957  17.796  -8.446  1.00  0.00     0.200 A 
ATOM     88  F   UNL     1       8.629  17.403  -8.490  1.00  0.00    -0.200 F 
ATOM     89  F   UNL     1      11.010  17.724  -9.783  1.00  0.00    -0.200 F 
ENDBRANCH  55  79
BRANCH  67  90
ATOM     90  C   UNL     1      11.904  23.175  -1.133  1.00  0.00     0.064 A 
ATOM     91  C   UNL     1      11.011  24.118  -1.664  1.00  0.00     0.173 A 
ATOM     92  C   UNL     1      13.174  23.622  -0.738  1.00  0.00     0.173 A 
ATOM     93  F   UNL     1       9.791  23.738  -2.071  1.00  0.00    -0.203 F 
ATOM     94  C   UNL     1      11.386  25.451  -1.814  1.00  0.00     0.198 A 
ATOM     95  C   UNL     1      13.533  24.960  -0.861  1.00  0.00     0.198 A 
ATOM     96  F   UNL     1      14.062  22.761  -0.218  1.00  0.00    -0.203 F 
ATOM     97  F   UNL     1      10.534  26.325  -2.368  1.00  0.00    -0.200 F 
ATOM     98  C   UNL     1      12.642  25.872  -1.406  1.00  0.00     0.200 A 
ATOM     99  F   UNL     1      14.743  25.369  -0.452  1.00  0.00    -0.200 F 
ATOM    100  F   UNL     1      12.997  27.157  -1.544  1.00  0.00    -0.200 F 
ENDBRANCH  67  90
ENDBRANCH  41  42
ENDBRANCH  33  36
ENDBRANCH  31  32
ENDBRANCH  30  31
ENDBRANCH  29  30
ENDBRANCH   1  29
TORSDOF 16
