REMARK SMILES O=C(NCCCCNC(=O)[C@@H]1CCc2[nH]ncc2C1)c1ccc(-c2c3nc(c(-c4c(F)c(F)c(F)c(F)c4F)c4ccc([nH]4)c(-c4c(F)c(F)c(F)c(F)c4F)c4nc(c(-c5c(F)c(F)c(F)c(F)c5F)c5ccc2[nH]5)C=C4)C=C3)cc1
REMARK SMILES IDX 4 1 3 2 1 3 2 4 20 6 21 7 82 8 22 9 81 10 23 11 24 12 25 13
REMARK SMILES IDX 75 14 26 15 80 16 74 17 76 18 27 19 79 20 73 21 72 22 28 24
REMARK SMILES IDX 60 25 40 26 59 27 41 28 44 29 58 30 77 31 42 32 43 33 57 35
REMARK SMILES IDX 78 36 45 37 29 38 30 39 38 40 31 41 32 42 36 43 39 44 33 45
REMARK SMILES IDX 34 46 37 47 35 48 61 49 62 50 70 51 63 52 64 53 68 54 71 55
REMARK SMILES IDX 65 56 66 57 69 58 67 59 46 60 47 61 55 62 48 63 49 64 53 65
REMARK SMILES IDX 56 66 50 67 51 68 54 69 52 70 5 71 6 72 7 73 8 74 9 75 10 77
REMARK SMILES IDX 11 78 12 79 19 80 13 81 18 82 14 83 17 84 15 85 16 86
REMARK H PARENT 3 5 76 23 44 34 8 76 15 87
REMARK Flexibility Score: inf
ROOT
ATOM      1  C   UNL     1       4.548  -0.633  -1.217  1.00  0.00     0.116 C 
ENDROOT
BRANCH   1   2
ATOM      2  N   UNL     1       3.129  -0.322  -1.144  1.00  0.00    -0.352 N 
ATOM      3  O   UNL     1       1.176   0.183  -0.125  1.00  0.00    -0.269 OA
ATOM      4  C   UNL     1       2.394   0.063  -0.048  1.00  0.00     0.251 C 
ATOM      5  H   UNL     1       2.630  -0.397  -1.990  1.00  0.00     0.163 HD
BRANCH   4   6
ATOM      6  C   UNL     1       3.082   0.296   1.239  1.00  0.00     0.039 A 
ATOM      7  C   UNL     1       4.246   1.066   1.293  1.00  0.00     0.014 A 
ATOM      8  C   UNL     1       2.563  -0.280   2.401  1.00  0.00     0.014 A 
ATOM      9  C   UNL     1       4.963   1.147   2.480  1.00  0.00     0.010 A 
ATOM     10  C   UNL     1       3.245  -0.133   3.611  1.00  0.00     0.010 A 
ATOM     11  C   UNL     1       4.467   0.556   3.653  1.00  0.00    -0.014 A 
BRANCH  11  12
ATOM     12  C   UNL     1       5.218   0.723   4.922  1.00  0.00     0.031 A 
ATOM     13  C   UNL     1       5.857  -0.449   5.609  1.00  0.00     0.074 A 
ATOM     14  C   UNL     1       5.341   1.961   5.436  1.00  0.00     0.049 A 
ATOM     15  N   UNL     1       6.566  -0.472   6.710  1.00  0.00    -0.248 NA
ATOM     16  C   UNL     1       5.674  -1.769   4.987  1.00  0.00     0.031 C 
ATOM     17  C   UNL     1       4.747   3.171   4.863  1.00  0.00     0.029 A 
ATOM     18  N   UNL     1       6.015   2.412   6.542  1.00  0.00    -0.354 N 
ATOM     19  C   UNL     1       6.897  -1.804   6.923  1.00  0.00     0.074 A 
ATOM     20  C   UNL     1       6.294  -2.564   5.849  1.00  0.00     0.031 C 
ATOM     21  C   UNL     1       5.116   4.231   5.596  1.00  0.00     0.029 A 
ATOM     22  C   UNL     1       5.925   3.770   6.720  1.00  0.00     0.049 A 
ATOM     23  H   UNL     1       6.514   1.820   7.149  1.00  0.00     0.167 HD
ATOM     24  C   UNL     1       7.641  -2.337   7.922  1.00  0.00     0.037 A 
ATOM     25  C   UNL     1       6.425   4.558   7.688  1.00  0.00     0.037 A 
ATOM     26  C   UNL     1       8.255  -1.571   8.977  1.00  0.00     0.049 A 
ATOM     27  C   UNL     1       7.243   3.938   8.783  1.00  0.00     0.074 A 
ATOM     28  C   UNL     1       9.064  -2.015  10.009  1.00  0.00     0.029 A 
ATOM     29  N   UNL     1       8.127  -0.198   9.135  1.00  0.00    -0.354 N 
ATOM     30  N   UNL     1       7.578   2.682   8.953  1.00  0.00    -0.248 NA
ATOM     31  C   UNL     1       7.752   4.844   9.820  1.00  0.00     0.031 C 
ATOM     32  C   UNL     1       9.389  -0.919  10.816  1.00  0.00     0.029 A 
ATOM     33  C   UNL     1       8.822   0.216  10.260  1.00  0.00     0.049 A 
ATOM     34  H   UNL     1       7.616   0.394   8.536  1.00  0.00     0.167 HD
ATOM     35  C   UNL     1       8.343   2.646  10.108  1.00  0.00     0.074 A 
ATOM     36  C   UNL     1       8.445   4.011  10.585  1.00  0.00     0.031 C 
ATOM     37  C   UNL     1       8.908   1.578  10.722  1.00  0.00     0.037 A 
BRANCH  24  38
ATOM     38  C   UNL     1       7.828  -3.826   7.937  1.00  0.00     0.064 A 
ATOM     39  C   UNL     1       8.666  -4.474   7.018  1.00  0.00     0.173 A 
ATOM     40  C   UNL     1       7.206  -4.609   8.922  1.00  0.00     0.173 A 
ATOM     41  F   UNL     1       9.276  -3.773   6.050  1.00  0.00    -0.203 F 
ATOM     42  C   UNL     1       8.861  -5.852   7.074  1.00  0.00     0.198 A 
ATOM     43  C   UNL     1       7.423  -5.983   8.990  1.00  0.00     0.198 A 
ATOM     44  F   UNL     1       6.399  -4.038   9.829  1.00  0.00    -0.203 F 
ATOM     45  F   UNL     1       9.640  -6.454   6.165  1.00  0.00    -0.200 F 
ATOM     46  C   UNL     1       8.246  -6.604   8.064  1.00  0.00     0.200 A 
ATOM     47  F   UNL     1       6.836  -6.706   9.955  1.00  0.00    -0.200 F 
ATOM     48  F   UNL     1       8.444  -7.928   8.123  1.00  0.00    -0.200 F 
ENDBRANCH  24  38
BRANCH  25  49
ATOM     49  C   UNL     1       6.160   6.018   7.654  1.00  0.00     0.064 A 
ATOM     50  C   UNL     1       7.183   6.931   7.370  1.00  0.00     0.173 A 
ATOM     51  C   UNL     1       4.871   6.526   7.878  1.00  0.00     0.173 A 
ATOM     52  F   UNL     1       8.434   6.493   7.166  1.00  0.00    -0.203 F 
ATOM     53  C   UNL     1       6.929   8.300   7.321  1.00  0.00     0.198 A 
ATOM     54  C   UNL     1       4.614   7.892   7.800  1.00  0.00     0.198 A 
ATOM     55  F   UNL     1       3.857   5.690   8.146  1.00  0.00    -0.203 F 
ATOM     56  F   UNL     1       7.932   9.156   7.080  1.00  0.00    -0.200 F 
ATOM     57  C   UNL     1       5.644   8.778   7.528  1.00  0.00     0.200 A 
ATOM     58  F   UNL     1       3.367   8.347   7.983  1.00  0.00    -0.200 F 
ATOM     59  F   UNL     1       5.399  10.094   7.468  1.00  0.00    -0.200 F 
ENDBRANCH  25  49
BRANCH  37  60
ATOM     60  C   UNL     1       9.697   1.849  11.968  1.00  0.00     0.064 A 
ATOM     61  C   UNL     1       9.067   2.182  13.176  1.00  0.00     0.173 A 
ATOM     62  C   UNL     1      11.097   1.754  11.958  1.00  0.00     0.173 A 
ATOM     63  F   UNL     1       7.732   2.302  13.230  1.00  0.00    -0.203 F 
ATOM     64  C   UNL     1       9.813   2.435  14.324  1.00  0.00     0.198 A 
ATOM     65  C   UNL     1      11.837   1.981  13.114  1.00  0.00     0.198 A 
ATOM     66  F   UNL     1      11.745   1.435  10.828  1.00  0.00    -0.203 F 
ATOM     67  F   UNL     1       9.194   2.798  15.456  1.00  0.00    -0.200 F 
ATOM     68  C   UNL     1      11.195   2.329  14.294  1.00  0.00     0.200 A 
ATOM     69  F   UNL     1      13.172   1.869  13.086  1.00  0.00    -0.200 F 
ATOM     70  F   UNL     1      11.911   2.571  15.401  1.00  0.00    -0.200 F 
ENDBRANCH  37  60
ENDBRANCH  11  12
ENDBRANCH   4   6
ENDBRANCH   1   2
BRANCH   1  71
ATOM     71  C   UNL     1       4.866  -1.789  -2.156  1.00  0.00     0.023 C 
BRANCH  71  72
ATOM     72  C   UNL     1       4.442  -1.577  -3.612  1.00  0.00     0.023 C 
BRANCH  72  73
ATOM     73  C   UNL     1       5.014  -0.315  -4.257  1.00  0.00     0.116 C 
BRANCH  73  74
ATOM     74  N   UNL     1       6.455  -0.400  -4.416  1.00  0.00    -0.356 N 
ATOM     75  C   UNL     1       7.161  -0.884  -5.485  1.00  0.00     0.223 C 
ATOM     76  H   UNL     1       6.992  -0.069  -3.660  1.00  0.00     0.163 HD
ATOM     77  O   UNL     1       8.384  -0.974  -5.402  1.00  0.00    -0.275 OA
BRANCH  75  78
ATOM     78  C   UNL     1       6.394  -1.230  -6.744  1.00  0.00     0.083 C 
ATOM     79  C   UNL     1       7.066  -2.351  -7.574  1.00  0.00     0.020 C 
ATOM     80  C   UNL     1       6.234   0.053  -7.595  1.00  0.00     0.052 C 
ATOM     81  C   UNL     1       6.162  -2.781  -8.755  1.00  0.00     0.057 C 
ATOM     82  C   UNL     1       5.556  -0.296  -8.868  1.00  0.00    -0.006 A 
ATOM     83  C   UNL     1       5.545  -1.577  -9.373  1.00  0.00     0.038 A 
ATOM     84  C   UNL     1       4.816   0.458  -9.791  1.00  0.00     0.138 A 
ATOM     85  N   UNL     1       4.802  -1.533 -10.512  1.00  0.00    -0.282 N 
ATOM     86  N   UNL     1       4.346  -0.296 -10.791  1.00  0.00    -0.184 NA
ATOM     87  H   UNL     1       4.617  -2.321 -11.073  1.00  0.00     0.190 HD
ENDBRANCH  75  78
ENDBRANCH  73  74
ENDBRANCH  72  73
ENDBRANCH  71  72
ENDBRANCH   1  71
TORSDOF 11
