REMARK SMILES Cc1nc([C@]2(C)CCCO2)nc(C)c1C(=O)NCCCCNC(=O)c1ccc(-c2c3nc(c(-c4c(F)c(F)c(F)c(F)c4F)c4ccc([nH]4)c(-c4c(F)c(F)c(F)c(F)c4F)c4nc(c(-c5c(F)c(F)c(F)c(F)c5F)c5ccc2[nH]5)C=C4)C=C3)cc1
REMARK SMILES IDX 20 1 19 2 18 3 17 4 15 5 16 6 14 8 1 9 2 10 3 11 4 12 12 13
REMARK SMILES IDX 11 14 13 15 5 16 7 17 10 18 6 19 8 20 9 21 21 22 22 23 23 24
REMARK SMILES IDX 24 26 25 27 26 28 87 29 27 30 86 31 28 32 29 33 30 34 80 35
REMARK SMILES IDX 31 36 85 37 79 38 81 39 32 40 84 41 78 42 77 43 33 45 65 46
REMARK SMILES IDX 45 47 64 48 46 49 49 50 63 51 82 52 47 53 48 54 62 56 83 57
REMARK SMILES IDX 50 58 34 59 35 60 43 61 36 62 37 63 41 64 44 65 38 66 39 67
REMARK SMILES IDX 42 68 40 69 66 70 67 71 75 72 68 73 69 74 73 75 76 76 70 77
REMARK SMILES IDX 71 78 74 79 72 80 51 81 52 82 60 83 53 84 54 85 58 86 61 87
REMARK SMILES IDX 55 88 56 89 59 90 57 91
REMARK H PARENT 17 7 22 25 81 44 49 55
REMARK Flexibility Score: inf
ROOT
ATOM      1  C   UNL     1      -6.617  -6.804   4.336  1.00  0.00     0.023 C 
ENDROOT
BRANCH   1   2
ATOM      2  C   UNL     1      -5.565  -6.274   3.367  1.00  0.00     0.023 C 
BRANCH   2   3
ATOM      3  C   UNL     1      -6.098  -5.339   2.276  1.00  0.00     0.116 C 
BRANCH   3   4
ATOM      4  N   UNL     1      -5.845  -3.961   2.621  1.00  0.00    -0.352 N 
ATOM      5  C   UNL     1      -4.875  -3.015   2.454  1.00  0.00     0.254 C 
ATOM      6  O   UNL     1      -5.166  -1.985   3.075  1.00  0.00    -0.269 OA
ATOM      7  H   UNL     1      -6.601  -3.590   3.132  1.00  0.00     0.163 HD
BRANCH   5   8
ATOM      8  C   UNL     1      -3.592  -3.051   1.662  1.00  0.00     0.082 A 
ATOM      9  C   UNL     1      -3.191  -5.587   1.278  1.00  0.00     0.068 C 
ATOM     10  C   UNL     1      -2.880  -4.140   1.165  1.00  0.00     0.054 A 
ATOM     11  N   UNL     1      -1.694  -4.016   0.514  1.00  0.00    -0.234 NA
ATOM     12  C   UNL     1      -1.120  -2.819   0.384  1.00  0.00     0.160 A 
ATOM     13  C   UNL     1      -2.932  -1.821   1.424  1.00  0.00     0.054 A 
ATOM     14  N   UNL     1      -1.724  -1.705   0.797  1.00  0.00    -0.234 NA
ATOM     15  C   UNL     1      -3.449  -0.475   1.862  1.00  0.00     0.068 C 
BRANCH  12  16
ATOM     16  C   UNL     1       0.298  -2.777  -0.197  1.00  0.00     0.125 C 
ATOM     17  C   UNL     1       0.364  -3.383  -1.600  1.00  0.00     0.046 C 
ATOM     18  O   UNL     1       1.179  -3.623   0.591  1.00  0.00    -0.367 OA
ATOM     19  C   UNL     1       0.884  -1.365  -0.171  1.00  0.00     0.051 C 
ATOM     20  C   UNL     1       0.527  -4.867  -1.348  1.00  0.00     0.032 C 
ATOM     21  C   UNL     1       1.188  -4.938   0.016  1.00  0.00     0.161 C 
ENDBRANCH  12  16
ENDBRANCH   5   8
ENDBRANCH   3   4
ENDBRANCH   2   3
ENDBRANCH   1   2
BRANCH   1  22
ATOM     22  C   UNL     1      -7.697  -7.655   3.685  1.00  0.00     0.116 C 
BRANCH  22  23
ATOM     23  N   UNL     1      -7.186  -8.774   2.905  1.00  0.00    -0.352 N 
ATOM     24  C   UNL     1      -7.854  -9.928   2.569  1.00  0.00     0.251 C 
ATOM     25  H   UNL     1      -6.260  -8.694   2.581  1.00  0.00     0.163 HD
ATOM     26  O   UNL     1      -7.301 -10.831   1.955  1.00  0.00    -0.269 OA
BRANCH  24  27
ATOM     27  C   UNL     1      -9.246 -10.072   3.028  1.00  0.00     0.039 A 
ATOM     28  C   UNL     1      -9.566 -11.134   3.874  1.00  0.00     0.014 A 
ATOM     29  C   UNL     1     -10.184  -9.082   2.726  1.00  0.00     0.014 A 
ATOM     30  C   UNL     1     -10.818 -11.161   4.487  1.00  0.00     0.010 A 
ATOM     31  C   UNL     1     -11.399  -9.070   3.397  1.00  0.00     0.010 A 
ATOM     32  C   UNL     1     -11.724 -10.107   4.286  1.00  0.00    -0.014 A 
BRANCH  32  33
ATOM     33  C   UNL     1     -13.022 -10.066   5.000  1.00  0.00     0.031 A 
ATOM     34  C   UNL     1     -14.302 -10.152   4.221  1.00  0.00     0.074 A 
ATOM     35  C   UNL     1     -13.045  -9.877   6.333  1.00  0.00     0.049 A 
ATOM     36  N   UNL     1     -15.536 -10.063   4.646  1.00  0.00    -0.248 NA
ATOM     37  C   UNL     1     -14.177 -10.325   2.765  1.00  0.00     0.031 C 
ATOM     38  C   UNL     1     -11.866  -9.715   7.187  1.00  0.00     0.029 A 
ATOM     39  N   UNL     1     -14.101  -9.777   7.203  1.00  0.00    -0.354 N 
ATOM     40  C   UNL     1     -16.329 -10.150   3.511  1.00  0.00     0.074 A 
ATOM     41  C   UNL     1     -15.440 -10.241   2.374  1.00  0.00     0.031 C 
ATOM     42  C   UNL     1     -12.264  -9.561   8.461  1.00  0.00     0.029 A 
ATOM     43  C   UNL     1     -13.722  -9.583   8.509  1.00  0.00     0.049 A 
ATOM     44  H   UNL     1     -15.041  -9.838   6.918  1.00  0.00     0.167 HD
ATOM     45  C   UNL     1     -17.680 -10.181   3.427  1.00  0.00     0.037 A 
ATOM     46  C   UNL     1     -14.472  -9.439   9.618  1.00  0.00     0.037 A 
ATOM     47  C   UNL     1     -18.558 -10.132   4.564  1.00  0.00     0.049 A 
ATOM     48  C   UNL     1     -15.971  -9.496   9.500  1.00  0.00     0.074 A 
ATOM     49  C   UNL     1     -19.937 -10.242   4.595  1.00  0.00     0.029 A 
ATOM     50  N   UNL     1     -18.139  -9.961   5.875  1.00  0.00    -0.354 N 
ATOM     51  N   UNL     1     -16.710  -9.661   8.430  1.00  0.00    -0.248 NA
ATOM     52  C   UNL     1     -16.739  -9.350  10.744  1.00  0.00     0.031 C 
ATOM     53  C   UNL     1     -20.355 -10.101   5.923  1.00  0.00     0.029 A 
ATOM     54  C   UNL     1     -19.235  -9.941   6.722  1.00  0.00     0.049 A 
ATOM     55  H   UNL     1     -17.202  -9.868   6.161  1.00  0.00     0.167 HD
ATOM     56  C   UNL     1     -18.026  -9.657   8.872  1.00  0.00     0.074 A 
ATOM     57  C   UNL     1     -17.983  -9.493  10.310  1.00  0.00     0.031 C 
ATOM     58  C   UNL     1     -19.168  -9.776   8.151  1.00  0.00     0.037 A 
BRANCH  45  59
ATOM     59  C   UNL     1     -18.284 -10.285   2.059  1.00  0.00     0.064 A 
ATOM     60  C   UNL     1     -18.192 -11.465   1.305  1.00  0.00     0.173 A 
ATOM     61  C   UNL     1     -18.978  -9.202   1.502  1.00  0.00     0.173 A 
ATOM     62  F   UNL     1     -17.524 -12.524   1.788  1.00  0.00    -0.203 F 
ATOM     63  C   UNL     1     -18.747 -11.546   0.031  1.00  0.00     0.198 A 
ATOM     64  C   UNL     1     -19.556  -9.296   0.238  1.00  0.00     0.198 A 
ATOM     65  F   UNL     1     -19.096  -8.052   2.182  1.00  0.00    -0.203 F 
ATOM     66  F   UNL     1     -18.601 -12.666  -0.691  1.00  0.00    -0.200 F 
ATOM     67  C   UNL     1     -19.433 -10.464  -0.499  1.00  0.00     0.200 A 
ATOM     68  F   UNL     1     -20.227  -8.253  -0.269  1.00  0.00    -0.200 F 
ATOM     69  F   UNL     1     -19.969 -10.545  -1.724  1.00  0.00    -0.200 F 
ENDBRANCH  45  59
BRANCH  46  70
ATOM     70  C   UNL     1     -13.818  -9.260  10.939  1.00  0.00     0.064 A 
ATOM     71  C   UNL     1     -13.843 -10.285  11.896  1.00  0.00     0.173 A 
ATOM     72  C   UNL     1     -13.161  -8.068  11.275  1.00  0.00     0.173 A 
ATOM     73  F   UNL     1     -14.477 -11.435  11.627  1.00  0.00    -0.203 F 
ATOM     74  C   UNL     1     -13.251 -10.117  13.146  1.00  0.00     0.198 A 
ATOM     75  C   UNL     1     -12.549  -7.911  12.517  1.00  0.00     0.198 A 
ATOM     76  F   UNL     1     -13.105  -7.060  10.393  1.00  0.00    -0.203 F 
ATOM     77  F   UNL     1     -13.325 -11.098  14.056  1.00  0.00    -0.200 F 
ATOM     78  C   UNL     1     -12.600  -8.932  13.454  1.00  0.00     0.200 A 
ATOM     79  F   UNL     1     -11.910  -6.769  12.807  1.00  0.00    -0.200 F 
ATOM     80  F   UNL     1     -12.029  -8.772  14.655  1.00  0.00    -0.200 F 
ENDBRANCH  46  70
BRANCH  58  81
ATOM     81  C   UNL     1     -20.461  -9.747   8.909  1.00  0.00     0.064 A 
ATOM     82  C   UNL     1     -20.968  -8.553   9.441  1.00  0.00     0.173 A 
ATOM     83  C   UNL     1     -21.223 -10.915   9.062  1.00  0.00     0.173 A 
ATOM     84  F   UNL     1     -20.267  -7.414   9.332  1.00  0.00    -0.203 F 
ATOM     85  C   UNL     1     -22.185  -8.533  10.116  1.00  0.00     0.198 A 
ATOM     86  C   UNL     1     -22.451 -10.885   9.716  1.00  0.00     0.198 A 
ATOM     87  F   UNL     1     -20.782 -12.080   8.566  1.00  0.00    -0.203 F 
ATOM     88  F   UNL     1     -22.633  -7.388  10.651  1.00  0.00    -0.200 F 
ATOM     89  C   UNL     1     -22.929  -9.696  10.246  1.00  0.00     0.200 A 
ATOM     90  F   UNL     1     -23.174 -12.008   9.831  1.00  0.00    -0.200 F 
ATOM     91  F   UNL     1     -24.104  -9.673  10.889  1.00  0.00    -0.200 F 
ENDBRANCH  58  81
ENDBRANCH  32  33
ENDBRANCH  24  27
ENDBRANCH  22  23
ENDBRANCH   1  22
TORSDOF 12
