REMARK SMILES COc1ccc2[nH]cc([C@H](C(=O)NCCCCNC(=O)c3ccc(-c4c5nc(c(-c6c(F)c(F)c(F)c(F)c6F)c6ccc([nH]6)c(-c6c(F)c(F)c(F)c(F)c6F)c6nc(c(-c7c(F)c(F)c(F)c(F)c7F)c7ccc4[nH]7)C=C6)C=C5)cc3)[NH+]3CC[NH+](Cc4cccc5ccccc45)CC3)c2c1
REMARK SMILES IDX 15 1 14 2 13 3 11 4 12 5 10 7 9 8 3 9 4 10 102 11 5 12
REMARK SMILES IDX 101 13 6 14 7 15 8 16 2 18 1 19 84 20 85 21 100 22 86 24
REMARK SMILES IDX 99 25 87 26 88 28 89 29 90 30 98 31 91 32 93 33 97 34 92 35
REMARK SMILES IDX 94 36 96 37 95 38 16 39 17 40 18 41 19 42 20 44 21 45 22 46
REMARK SMILES IDX 83 47 23 48 82 49 24 50 25 51 26 52 76 53 27 54 81 55 75 56
REMARK SMILES IDX 77 57 28 58 80 59 74 60 73 61 29 63 61 64 41 65 60 66 42 67
REMARK SMILES IDX 45 68 59 69 78 70 43 71 44 72 58 74 79 75 46 76 30 77 31 78
REMARK SMILES IDX 39 79 32 80 33 81 37 82 40 83 34 84 35 85 38 86 36 87 62 88
REMARK SMILES IDX 63 89 71 90 64 91 65 92 69 93 72 94 66 95 67 96 70 97 68 98
REMARK SMILES IDX 47 99 48 100 56 101 49 102 50 103 54 104 57 105 51 106
REMARK SMILES IDX 52 107 55 108 53 109
REMARK H PARENT 13 6 7 17 84 23 87 27 18 43 77 62 45 73
REMARK Flexibility Score: inf
ROOT
ATOM      1  C   UNL     1      -0.061   5.130   2.186  1.00  0.00     0.023 C 
ENDROOT
BRANCH   1   2
ATOM      2  C   UNL     1      -0.445   3.638   2.352  1.00  0.00     0.116 C 
BRANCH   2   3
ATOM      3  N   UNL     1      -0.033   2.951   3.580  1.00  0.00    -0.351 N 
ATOM      4  C   UNL     1      -0.697   2.342   4.632  1.00  0.00     0.283 C 
ATOM      5  O   UNL     1      -0.034   1.419   5.117  1.00  0.00    -0.268 OA
ATOM      6  H   UNL     1       0.945   2.913   3.680  1.00  0.00     0.163 HD
BRANCH   4   7
ATOM      7  C   UNL     1      -2.137   2.744   5.143  1.00  0.00     0.308 C 
BRANCH   7   8
ATOM      8  C   UNL     1      -2.886   1.801   6.069  1.00  0.00     0.045 A 
ATOM      9  C   UNL     1      -1.057  -0.175   8.812  1.00  0.00     0.119 A 
ATOM     10  C   UNL     1      -2.194  -0.621   9.473  1.00  0.00     0.048 A 
ATOM     11  C   UNL     1      -1.153   0.666   7.704  1.00  0.00     0.057 A 
ATOM     12  C   UNL     1      -3.462  -0.280   9.001  1.00  0.00     0.030 A 
ATOM     13  C   UNL     1      -2.417   0.986   7.163  1.00  0.00     0.013 A 
ATOM     14  C   UNL     1      -3.542   0.503   7.840  1.00  0.00     0.046 A 
ATOM     15  N   UNL     1      -4.651   0.979   7.186  1.00  0.00    -0.361 N 
ATOM     16  C   UNL     1      -4.276   1.738   6.116  1.00  0.00     0.094 A 
ATOM     17  H   UNL     1      -5.582   0.799   7.450  1.00  0.00     0.166 HD
BRANCH   9  18
ATOM     18  O   UNL     1       0.201  -0.490   9.255  1.00  0.00    -0.497 OA
ATOM     19  C   UNL     1       0.447  -1.890   9.118  1.00  0.00     0.278 C 
ENDBRANCH   9  18
ENDBRANCH   7   8
BRANCH   7  20
ATOM     20  N   UNL     1      -2.243   4.092   5.729  1.00  0.00    -0.312 N 
ATOM     21  C   UNL     1      -2.251   4.463   7.145  1.00  0.00     0.325 C 
ATOM     22  C   UNL     1      -1.681   5.124   4.931  1.00  0.00     0.325 C 
ATOM     23  H   UNL     1      -3.253   3.949   5.714  1.00  0.00     0.349 HD
ATOM     24  C   UNL     1      -1.194   5.531   7.656  1.00  0.00     0.324 C 
ATOM     25  C   UNL     1      -0.296   5.530   5.456  1.00  0.00     0.324 C 
ATOM     26  N   UNL     1      -0.390   6.298   6.687  1.00  0.00    -0.322 N 
ATOM     27  H   UNL     1       0.510   6.401   7.156  1.00  0.00     0.348 HD
BRANCH  26  28
ATOM     28  C   UNL     1      -0.646   7.742   6.462  1.00  0.00     0.300 C 
BRANCH  28  29
ATOM     29  C   UNL     1      -1.841   8.125   5.584  1.00  0.00     0.014 A 
ATOM     30  C   UNL     1      -1.641   8.314   4.195  1.00  0.00     0.010 A 
ATOM     31  C   UNL     1      -3.164   8.031   6.082  1.00  0.00    -0.010 A 
ATOM     32  C   UNL     1      -2.712   8.232   3.303  1.00  0.00     0.001 A 
ATOM     33  C   UNL     1      -4.227   7.832   5.164  1.00  0.00    -0.018 A 
ATOM     34  C   UNL     1      -3.465   8.050   7.456  1.00  0.00     0.009 A 
ATOM     35  C   UNL     1      -3.986   7.930   3.783  1.00  0.00     0.009 A 
ATOM     36  C   UNL     1      -5.496   7.485   5.651  1.00  0.00     0.009 A 
ATOM     37  C   UNL     1      -4.747   7.774   7.922  1.00  0.00     0.001 A 
ATOM     38  C   UNL     1      -5.751   7.447   7.022  1.00  0.00     0.001 A 
ENDBRANCH  28  29
ENDBRANCH  26  28
ENDBRANCH   7  20
ENDBRANCH   4   7
ENDBRANCH   2   3
ENDBRANCH   1   2
BRANCH   1  39
ATOM     39  C   UNL     1       1.343   5.544   2.627  1.00  0.00     0.023 C 
BRANCH  39  40
ATOM     40  C   UNL     1       2.284   5.676   1.465  1.00  0.00     0.116 C 
BRANCH  40  41
ATOM     41  N   UNL     1       1.869   6.742   0.559  1.00  0.00    -0.352 N 
ATOM     42  C   UNL     1       2.649   7.577  -0.200  1.00  0.00     0.251 C 
ATOM     43  H   UNL     1       0.898   6.881   0.482  1.00  0.00     0.163 HD
ATOM     44  O   UNL     1       2.154   8.514  -0.805  1.00  0.00    -0.269 OA
BRANCH  42  45
ATOM     45  C   UNL     1       4.104   7.338  -0.234  1.00  0.00     0.039 A 
ATOM     46  C   UNL     1       4.972   8.429  -0.228  1.00  0.00     0.014 A 
ATOM     47  C   UNL     1       4.600   6.034  -0.233  1.00  0.00     0.014 A 
ATOM     48  C   UNL     1       6.343   8.197  -0.214  1.00  0.00     0.010 A 
ATOM     49  C   UNL     1       5.945   5.808  -0.038  1.00  0.00     0.010 A 
ATOM     50  C   UNL     1       6.832   6.884  -0.111  1.00  0.00    -0.014 A 
BRANCH  50  51
ATOM     51  C   UNL     1       8.272   6.587  -0.214  1.00  0.00     0.031 A 
ATOM     52  C   UNL     1       8.756   5.736  -1.358  1.00  0.00     0.074 A 
ATOM     53  C   UNL     1       9.110   7.046   0.730  1.00  0.00     0.049 A 
ATOM     54  N   UNL     1       9.964   5.315  -1.624  1.00  0.00    -0.248 NA
ATOM     55  C   UNL     1       7.737   5.247  -2.307  1.00  0.00     0.031 C 
ATOM     56  C   UNL     1       8.717   7.819   1.910  1.00  0.00     0.029 A 
ATOM     57  N   UNL     1      10.468   6.933   0.841  1.00  0.00    -0.354 N 
ATOM     58  C   UNL     1       9.838   4.502  -2.744  1.00  0.00     0.074 A 
ATOM     59  C   UNL     1       8.433   4.406  -3.052  1.00  0.00     0.031 C 
ATOM     60  C   UNL     1       9.818   8.156   2.599  1.00  0.00     0.029 A 
ATOM     61  C   UNL     1      10.984   7.589   1.930  1.00  0.00     0.049 A 
ATOM     62  H   UNL     1      11.022   6.430   0.201  1.00  0.00     0.167 HD
ATOM     63  C   UNL     1      10.816   3.928  -3.479  1.00  0.00     0.037 A 
ATOM     64  C   UNL     1      12.262   7.718   2.325  1.00  0.00     0.037 A 
ATOM     65  C   UNL     1      12.212   4.079  -3.179  1.00  0.00     0.049 A 
ATOM     66  C   UNL     1      13.335   7.094   1.474  1.00  0.00     0.074 A 
ATOM     67  C   UNL     1      13.304   3.595  -3.872  1.00  0.00     0.029 A 
ATOM     68  N   UNL     1      12.703   4.781  -2.085  1.00  0.00    -0.354 N 
ATOM     69  N   UNL     1      13.216   6.385   0.376  1.00  0.00    -0.248 NA
ATOM     70  C   UNL     1      14.720   7.303   1.907  1.00  0.00     0.031 C 
ATOM     71  C   UNL     1      14.456   3.961  -3.168  1.00  0.00     0.029 A 
ATOM     72  C   UNL     1      14.085   4.732  -2.076  1.00  0.00     0.049 A 
ATOM     73  H   UNL     1      12.149   5.245  -1.416  1.00  0.00     0.167 HD
ATOM     74  C   UNL     1      14.509   6.096  -0.035  1.00  0.00     0.074 A 
ATOM     75  C   UNL     1      15.396   6.722   0.927  1.00  0.00     0.031 C 
ATOM     76  C   UNL     1      14.932   5.383  -1.109  1.00  0.00     0.037 A 
BRANCH  63  77
ATOM     77  C   UNL     1      10.404   3.107  -4.668  1.00  0.00     0.064 A 
ATOM     78  C   UNL     1       9.784   3.682  -5.790  1.00  0.00     0.173 A 
ATOM     79  C   UNL     1      10.633   1.723  -4.690  1.00  0.00     0.173 A 
ATOM     80  F   UNL     1       9.520   4.998  -5.817  1.00  0.00    -0.203 F 
ATOM     81  C   UNL     1       9.377   2.900  -6.869  1.00  0.00     0.198 A 
ATOM     82  C   UNL     1      10.260   0.950  -5.787  1.00  0.00     0.198 A 
ATOM     83  F   UNL     1      11.218   1.117  -3.646  1.00  0.00    -0.203 F 
ATOM     84  F   UNL     1       8.727   3.464  -7.896  1.00  0.00    -0.200 F 
ATOM     85  C   UNL     1       9.624   1.536  -6.870  1.00  0.00     0.200 A 
ATOM     86  F   UNL     1      10.509  -0.367  -5.792  1.00  0.00    -0.200 F 
ATOM     87  F   UNL     1       9.238   0.785  -7.910  1.00  0.00    -0.200 F 
ENDBRANCH  63  77
BRANCH  64  88
ATOM     88  C   UNL     1      12.589   8.508   3.540  1.00  0.00     0.064 A 
ATOM     89  C   UNL     1      13.275   9.727   3.446  1.00  0.00     0.173 A 
ATOM     90  C   UNL     1      12.218   8.068   4.819  1.00  0.00     0.173 A 
ATOM     91  F   UNL     1      13.658  10.189   2.246  1.00  0.00    -0.203 F 
ATOM     92  C   UNL     1      13.605  10.459   4.585  1.00  0.00     0.198 A 
ATOM     93  C   UNL     1      12.520   8.816   5.955  1.00  0.00     0.198 A 
ATOM     94  F   UNL     1      11.546   6.917   4.964  1.00  0.00    -0.203 F 
ATOM     95  F   UNL     1      14.307  11.594   4.468  1.00  0.00    -0.200 F 
ATOM     96  C   UNL     1      13.223  10.005   5.838  1.00  0.00     0.200 A 
ATOM     97  F   UNL     1      12.130   8.384   7.162  1.00  0.00    -0.200 F 
ATOM     98  F   UNL     1      13.539  10.710   6.933  1.00  0.00    -0.200 F 
ENDBRANCH  64  88
BRANCH  76  99
ATOM     99  C   UNL     1      16.414   5.297  -1.328  1.00  0.00     0.064 A 
ATOM    100  C   UNL     1      17.249   4.560  -0.476  1.00  0.00     0.173 A 
ATOM    101  C   UNL     1      16.998   5.940  -2.430  1.00  0.00     0.173 A 
ATOM    102  F   UNL     1      16.739   3.936   0.597  1.00  0.00    -0.203 F 
ATOM    103  C   UNL     1      18.622   4.506  -0.696  1.00  0.00     0.198 A 
ATOM    104  C   UNL     1      18.365   5.849  -2.669  1.00  0.00     0.198 A 
ATOM    105  F   UNL     1      16.240   6.646  -3.283  1.00  0.00    -0.203 F 
ATOM    106  F   UNL     1      19.410   3.852   0.169  1.00  0.00    -0.200 F 
ATOM    107  C   UNL     1      19.177   5.144  -1.795  1.00  0.00     0.200 A 
ATOM    108  F   UNL     1      18.896   6.449  -3.744  1.00  0.00    -0.200 F 
ATOM    109  F   UNL     1      20.499   5.086  -2.007  1.00  0.00    -0.200 F 
ENDBRANCH  76  99
ENDBRANCH  50  51
ENDBRANCH  42  45
ENDBRANCH  40  41
ENDBRANCH  39  40
ENDBRANCH   1  39
TORSDOF 16
