REMARK SMILES NS(=O)(=O)c1ccc(-n2nc(C(=O)NCCCCCCCCCCC(=O)NCCCCNC(=O)c3ccc(-c4c5nc(c(-c6c(F)c(F)c(F)c(F)c6F)c6ccc([nH]6)c(-c6c(F)c(F)c(F)c(F)c6F)c6nc(c(-c7c(F)c(F)c(F)c(F)c7F)c7ccc4[nH]7)C=C6)C=C5)cc3)cc2-c2ccccc2)cc1
REMARK SMILES IDX 21 1 20 2 19 3 18 4 17 5 16 6 15 7 14 8 12 9 13 10 11 12
REMARK SMILES IDX 9 13 10 14 99 15 98 16 8 17 5 18 6 19 107 20 7 21 106 22
REMARK SMILES IDX 2 23 3 24 4 25 1 26 100 29 101 30 105 31 102 32 104 33
REMARK SMILES IDX 103 34 22 35 23 36 24 37 25 38 26 39 27 40 28 42 29 43 30 44
REMARK SMILES IDX 31 45 32 46 33 47 34 49 35 50 36 51 97 52 37 53 96 54 38 55
REMARK SMILES IDX 39 56 40 57 90 58 41 59 95 60 89 61 91 62 42 63 94 64 88 65
REMARK SMILES IDX 87 66 43 68 75 69 55 70 74 71 56 72 59 73 73 74 92 75 57 76
REMARK SMILES IDX 58 77 72 79 93 80 60 81 44 82 45 83 53 84 46 85 47 86 51 87
REMARK SMILES IDX 54 88 48 89 49 90 52 91 50 92 76 93 77 94 85 95 78 96 79 97
REMARK SMILES IDX 83 98 86 99 80 100 81 101 84 102 82 103 61 104 62 105 70 106
REMARK SMILES IDX 63 107 64 108 68 109 71 110 65 111 66 112 69 113 67 114
REMARK H PARENT 14 11 1 27 1 28 27 41 32 48 91 67 59 78
REMARK Flexibility Score: inf
ROOT
ATOM      1  C   UNL     1       7.445   3.301  14.644  1.00  0.00     0.000 C 
ENDROOT
BRANCH   1   2
ATOM      2  C   UNL     1       7.188   2.826  13.228  1.00  0.00     0.000 C 
BRANCH   2   3
ATOM      3  C   UNL     1       5.830   2.135  13.110  1.00  0.00     0.000 C 
BRANCH   3   4
ATOM      4  C   UNL     1       4.661   3.036  13.544  1.00  0.00     0.000 C 
BRANCH   4   5
ATOM      5  C   UNL     1       4.497   4.271  12.647  1.00  0.00     0.002 C 
BRANCH   5   6
ATOM      6  C   UNL     1       4.514   3.913  11.159  1.00  0.00     0.021 C 
BRANCH   6   7
ATOM      7  C   UNL     1       3.487   2.825  10.862  1.00  0.00     0.116 C 
BRANCH   7   8
ATOM      8  N   UNL     1       2.225   3.421  10.531  1.00  0.00    -0.351 N 
ATOM      9  C   UNL     1       1.586   3.599   9.334  1.00  0.00     0.271 C 
ATOM     10  O   UNL     1       0.523   4.223   9.384  1.00  0.00    -0.267 OA
ATOM     11  H   UNL     1       1.727   3.765  11.308  1.00  0.00     0.163 HD
BRANCH   9  12
ATOM     12  C   UNL     1       2.119   3.023   8.083  1.00  0.00     0.151 A 
ATOM     13  N   UNL     1       2.015   2.307   6.064  1.00  0.00    -0.232 N 
ATOM     14  N   UNL     1       1.392   3.105   6.952  1.00  0.00    -0.162 NA
ATOM     15  C   UNL     1       3.211   1.818   6.540  1.00  0.00     0.075 A 
ATOM     16  C   UNL     1       3.336   2.362   7.795  1.00  0.00     0.065 A 
BRANCH  13  17
ATOM     17  C   UNL     1       1.468   2.098   4.787  1.00  0.00     0.065 A 
ATOM     18  C   UNL     1       0.710   1.736   2.163  1.00  0.00     0.082 A 
ATOM     19  C   UNL     1       1.046   0.622   2.937  1.00  0.00     0.024 A 
ATOM     20  C   UNL     1       0.714   3.027   2.707  1.00  0.00     0.024 A 
ATOM     21  C   UNL     1       1.444   0.805   4.254  1.00  0.00     0.030 A 
ATOM     22  C   UNL     1       1.061   3.209   4.042  1.00  0.00     0.030 A 
BRANCH  18  23
ATOM     23  S   UNL     1       0.382   1.556   0.439  1.00  0.00     0.238 S 
ATOM     24  O   UNL     1       1.119   2.557  -0.279  1.00  0.00    -0.207 OA
ATOM     25  O   UNL     1      -1.045   1.344   0.269  1.00  0.00    -0.207 OA
BRANCH  23  26
ATOM     26  N   UNL     1       1.116   0.096   0.039  1.00  0.00    -0.225 NA
ATOM     27  H   UNL     1       0.976  -0.093  -0.954  1.00  0.00     0.137 HD
ATOM     28  H   UNL     1       0.701  -0.655   0.590  1.00  0.00     0.137 HD
ENDBRANCH  23  26
ENDBRANCH  18  23
ENDBRANCH  13  17
BRANCH  15  29
ATOM     29  C   UNL     1       4.211   1.052   5.812  1.00  0.00     0.000 A 
ATOM     30  C   UNL     1       4.851   1.604   4.698  1.00  0.00     0.010 A 
ATOM     31  C   UNL     1       4.589  -0.216   6.271  1.00  0.00     0.010 A 
ATOM     32  C   UNL     1       5.846   0.886   4.037  1.00  0.00     0.001 A 
ATOM     33  C   UNL     1       5.584  -0.933   5.607  1.00  0.00     0.001 A 
ATOM     34  C   UNL     1       6.210  -0.381   4.489  1.00  0.00     0.000 A 
ENDBRANCH  15  29
ENDBRANCH   9  12
ENDBRANCH   7   8
ENDBRANCH   6   7
ENDBRANCH   5   6
ENDBRANCH   4   5
ENDBRANCH   3   4
ENDBRANCH   2   3
ENDBRANCH   1   2
BRANCH   1  35
ATOM     35  C   UNL     1       7.539   2.128  15.621  1.00  0.00     0.001 C 
BRANCH  35  36
ATOM     36  C   UNL     1       8.947   1.794  16.065  1.00  0.00     0.010 C 
BRANCH  36  37
ATOM     37  C   UNL     1       9.705   2.949  16.712  1.00  0.00     0.100 C 
BRANCH  37  38
ATOM     38  C   UNL     1       9.380   3.229  18.170  1.00  0.00     0.219 C 
ATOM     39  O   UNL     1      10.150   2.840  19.053  1.00  0.00    -0.275 OA
ATOM     40  N   UNL     1       8.290   3.939  18.576  1.00  0.00    -0.356 N 
ATOM     41  H   UNL     1       8.227   4.042  19.553  1.00  0.00     0.163 HD
BRANCH  40  42
ATOM     42  C   UNL     1       7.201   4.574  17.853  1.00  0.00     0.116 C 
BRANCH  42  43
ATOM     43  C   UNL     1       5.861   3.821  18.016  1.00  0.00     0.023 C 
BRANCH  43  44
ATOM     44  C   UNL     1       5.018   4.135  19.252  1.00  0.00     0.023 C 
BRANCH  44  45
ATOM     45  C   UNL     1       4.468   5.545  19.282  1.00  0.00     0.116 C 
BRANCH  45  46
ATOM     46  N   UNL     1       3.460   5.827  18.252  1.00  0.00    -0.352 N 
ATOM     47  C   UNL     1       2.787   7.032  18.065  1.00  0.00     0.251 C 
ATOM     48  H   UNL     1       3.238   5.093  17.634  1.00  0.00     0.163 HD
ATOM     49  O   UNL     1       1.704   7.099  17.502  1.00  0.00    -0.269 OA
BRANCH  47  50
ATOM     50  C   UNL     1       3.493   8.256  18.481  1.00  0.00     0.039 A 
ATOM     51  C   UNL     1       2.939   9.315  19.208  1.00  0.00     0.014 A 
ATOM     52  C   UNL     1       4.840   8.240  18.183  1.00  0.00     0.014 A 
ATOM     53  C   UNL     1       3.799  10.335  19.636  1.00  0.00     0.010 A 
ATOM     54  C   UNL     1       5.619   8.924  19.049  1.00  0.00     0.010 A 
ATOM     55  C   UNL     1       5.177  10.139  19.501  1.00  0.00    -0.014 A 
BRANCH  55  56
ATOM     56  C   UNL     1       6.237  10.953  20.073  1.00  0.00     0.031 A 
ATOM     57  C   UNL     1       6.071  11.093  21.538  1.00  0.00     0.074 A 
ATOM     58  C   UNL     1       7.342  11.305  19.359  1.00  0.00     0.049 A 
ATOM     59  N   UNL     1       5.578  12.117  22.148  1.00  0.00    -0.248 NA
ATOM     60  C   UNL     1       6.189   9.902  22.402  1.00  0.00     0.031 C 
ATOM     61  C   UNL     1       7.702  10.974  17.969  1.00  0.00     0.029 A 
ATOM     62  N   UNL     1       8.422  12.050  19.754  1.00  0.00    -0.354 N 
ATOM     63  C   UNL     1       5.620  11.801  23.499  1.00  0.00     0.074 A 
ATOM     64  C   UNL     1       5.728  10.371  23.565  1.00  0.00     0.031 C 
ATOM     65  C   UNL     1       8.988  11.325  17.713  1.00  0.00     0.029 A 
ATOM     66  C   UNL     1       9.508  12.046  18.856  1.00  0.00     0.049 A 
ATOM     67  H   UNL     1       8.438  12.551  20.601  1.00  0.00     0.167 HD
ATOM     68  C   UNL     1       5.928  12.773  24.402  1.00  0.00     0.037 A 
ATOM     69  C   UNL     1      10.722  12.642  19.055  1.00  0.00     0.037 A 
ATOM     70  C   UNL     1       5.797  14.073  23.780  1.00  0.00     0.049 A 
ATOM     71  C   UNL     1      10.505  13.683  20.098  1.00  0.00     0.074 A 
ATOM     72  C   UNL     1       4.757  14.785  23.217  1.00  0.00     0.029 A 
ATOM     73  N   UNL     1       6.951  14.610  23.262  1.00  0.00    -0.354 N 
ATOM     74  N   UNL     1       9.734  14.720  19.904  1.00  0.00    -0.248 NA
ATOM     75  C   UNL     1      10.658  13.248  21.477  1.00  0.00     0.031 C 
ATOM     76  C   UNL     1       5.315  15.406  22.058  1.00  0.00     0.029 A 
ATOM     77  C   UNL     1       6.687  15.154  22.033  1.00  0.00     0.049 A 
ATOM     78  H   UNL     1       7.830  14.604  23.705  1.00  0.00     0.167 HD
ATOM     79  C   UNL     1       8.954  14.788  21.049  1.00  0.00     0.074 A 
ATOM     80  C   UNL     1       9.582  13.852  21.989  1.00  0.00     0.031 C 
ATOM     81  C   UNL     1       7.698  15.327  21.013  1.00  0.00     0.037 A 
BRANCH  68  82
ATOM     82  C   UNL     1       6.792  12.566  25.628  1.00  0.00     0.064 A 
ATOM     83  C   UNL     1       7.000  13.662  26.491  1.00  0.00     0.173 A 
ATOM     84  C   UNL     1       7.659  11.469  25.831  1.00  0.00     0.173 A 
ATOM     85  F   UNL     1       6.245  14.765  26.386  1.00  0.00    -0.203 F 
ATOM     86  C   UNL     1       8.049  13.691  27.415  1.00  0.00     0.198 A 
ATOM     87  C   UNL     1       8.675  11.483  26.787  1.00  0.00     0.198 A 
ATOM     88  F   UNL     1       7.644  10.381  25.056  1.00  0.00    -0.203 F 
ATOM     89  F   UNL     1       8.284  14.806  28.119  1.00  0.00    -0.200 F 
ATOM     90  C   UNL     1       8.891  12.604  27.556  1.00  0.00     0.200 A 
ATOM     91  F   UNL     1       9.493  10.425  26.891  1.00  0.00    -0.200 F 
ATOM     92  F   UNL     1       9.934  12.651  28.395  1.00  0.00    -0.200 F 
ENDBRANCH  68  82
BRANCH  69  93
ATOM     93  C   UNL     1      12.089  12.126  18.743  1.00  0.00     0.064 A 
ATOM     94  C   UNL     1      13.239  12.940  18.829  1.00  0.00     0.173 A 
ATOM     95  C   UNL     1      12.327  10.742  18.656  1.00  0.00     0.173 A 
ATOM     96  F   UNL     1      13.117  14.268  18.977  1.00  0.00    -0.203 F 
ATOM     97  C   UNL     1      14.536  12.399  18.841  1.00  0.00     0.198 A 
ATOM     98  C   UNL     1      13.619  10.203  18.674  1.00  0.00     0.198 A 
ATOM     99  F   UNL     1      11.305   9.876  18.652  1.00  0.00    -0.203 F 
ATOM    100  F   UNL     1      15.602  13.202  18.974  1.00  0.00    -0.200 F 
ATOM    101  C   UNL     1      14.723  11.029  18.775  1.00  0.00     0.200 A 
ATOM    102  F   UNL     1      13.782   8.872  18.657  1.00  0.00    -0.200 F 
ATOM    103  F   UNL     1      15.954  10.503  18.850  1.00  0.00    -0.200 F 
ENDBRANCH  69  93
BRANCH  81 104
ATOM    104  C   UNL     1       7.268  16.036  19.753  1.00  0.00     0.064 A 
ATOM    105  C   UNL     1       7.013  15.403  18.522  1.00  0.00     0.173 A 
ATOM    106  C   UNL     1       6.938  17.392  19.851  1.00  0.00     0.173 A 
ATOM    107  F   UNL     1       7.218  14.090  18.367  1.00  0.00    -0.203 F 
ATOM    108  C   UNL     1       6.476  16.103  17.439  1.00  0.00     0.198 A 
ATOM    109  C   UNL     1       6.373  18.081  18.782  1.00  0.00     0.198 A 
ATOM    110  F   UNL     1       7.106  18.035  21.016  1.00  0.00    -0.203 F 
ATOM    111  F   UNL     1       6.237  15.473  16.278  1.00  0.00    -0.200 F 
ATOM    112  C   UNL     1       6.150  17.441  17.573  1.00  0.00     0.200 A 
ATOM    113  F   UNL     1       6.011  19.362  18.937  1.00  0.00    -0.200 F 
ATOM    114  F   UNL     1       5.595  18.108  16.551  1.00  0.00    -0.200 F 
ENDBRANCH  81 104
ENDBRANCH  55  56
ENDBRANCH  47  50
ENDBRANCH  45  46
ENDBRANCH  44  45
ENDBRANCH  43  44
ENDBRANCH  42  43
ENDBRANCH  40  42
ENDBRANCH  37  38
ENDBRANCH  36  37
ENDBRANCH  35  36
ENDBRANCH   1  35
TORSDOF 26
