REMARK SMILES O=C(NCCCCNC(=O)[C@H]1C=C[C@H](N2C(=O)[C@H]3C[C@H]3C2=O)C1)c1ccc(-c2c3nc(c(-c4c(F)c(F)c(F)c(F)c4F)c4ccc([nH]4)c(-c4c(F)c(F)c(F)c(F)c4F)c4nc(c(-c5c(F)c(F)c(F)c(F)c5F)c5ccc2[nH]5)C=C4)C=C3)cc1
REMARK SMILES IDX 5 1 4 2 3 3 1 4 2 5 24 7 25 8 86 9 26 10 85 11 27 12 28 13
REMARK SMILES IDX 29 14 79 15 30 16 84 17 78 18 80 19 31 20 83 21 77 22 76 23
REMARK SMILES IDX 32 25 64 26 44 27 63 28 45 29 48 30 62 31 81 32 46 33 47 34
REMARK SMILES IDX 61 36 82 37 49 38 33 39 34 40 42 41 35 42 36 43 40 44 43 45
REMARK SMILES IDX 37 46 38 47 41 48 39 49 65 50 66 51 74 52 67 53 68 54 72 55
REMARK SMILES IDX 75 56 69 57 70 58 73 59 71 60 50 61 51 62 59 63 52 64 53 65
REMARK SMILES IDX 57 66 60 67 54 68 55 69 58 70 56 71 6 72 7 73 8 74 9 75
REMARK SMILES IDX 10 77 11 78 12 79 23 80 13 81 14 82 15 83 16 84 21 85 17 86
REMARK SMILES IDX 18 87 20 88 22 89 19 90
REMARK H PARENT 3 6 80 24 48 35 8 76
REMARK Flexibility Score: inf
ROOT
ATOM      1  C   UNL     1       4.824  -0.033  -2.786  1.00  0.00     0.023 C 
ENDROOT
BRANCH   1   2
ATOM      2  C   UNL     1       4.453   0.173  -1.327  1.00  0.00     0.116 C 
BRANCH   2   3
ATOM      3  N   UNL     1       3.025   0.354  -1.098  1.00  0.00    -0.352 N 
ATOM      4  O   UNL     1       1.067   0.038   0.006  1.00  0.00    -0.269 OA
ATOM      5  C   UNL     1       2.284  -0.094  -0.026  1.00  0.00     0.251 C 
ATOM      6  H   UNL     1       2.533   0.854  -1.789  1.00  0.00     0.163 HD
BRANCH   5   7
ATOM      7  C   UNL     1       2.996  -0.777   1.072  1.00  0.00     0.039 A 
ATOM      8  C   UNL     1       4.159  -0.208   1.590  1.00  0.00     0.014 A 
ATOM      9  C   UNL     1       2.562  -2.031   1.509  1.00  0.00     0.014 A 
ATOM     10  C   UNL     1       4.987  -0.971   2.394  1.00  0.00     0.010 A 
ATOM     11  C   UNL     1       3.339  -2.746   2.425  1.00  0.00     0.010 A 
ATOM     12  C   UNL     1       4.577  -2.237   2.847  1.00  0.00    -0.014 A 
BRANCH  12  13
ATOM     13  C   UNL     1       5.443  -2.944   3.825  1.00  0.00     0.031 A 
ATOM     14  C   UNL     1       6.074  -4.272   3.517  1.00  0.00     0.074 A 
ATOM     15  C   UNL     1       5.712  -2.317   4.988  1.00  0.00     0.049 A 
ATOM     16  N   UNL     1       6.905  -4.975   4.247  1.00  0.00    -0.248 NA
ATOM     17  C   UNL     1       5.727  -4.902   2.234  1.00  0.00     0.031 C 
ATOM     18  C   UNL     1       5.135  -1.034   5.401  1.00  0.00     0.029 A 
ATOM     19  N   UNL     1       6.556  -2.645   6.016  1.00  0.00    -0.354 N 
ATOM     20  C   UNL     1       7.175  -6.127   3.520  1.00  0.00     0.074 A 
ATOM     21  C   UNL     1       6.390  -6.049   2.306  1.00  0.00     0.031 C 
ATOM     22  C   UNL     1       5.692  -0.650   6.556  1.00  0.00     0.029 A 
ATOM     23  C   UNL     1       6.596  -1.698   7.010  1.00  0.00     0.049 A 
ATOM     24  H   UNL     1       7.082  -3.477   6.040  1.00  0.00     0.167 HD
ATOM     25  C   UNL     1       8.011  -7.146   3.835  1.00  0.00     0.037 A 
ATOM     26  C   UNL     1       7.265  -1.682   8.176  1.00  0.00     0.037 A 
ATOM     27  C   UNL     1       8.787  -7.213   5.050  1.00  0.00     0.049 A 
ATOM     28  C   UNL     1       8.162  -2.839   8.506  1.00  0.00     0.074 A 
ATOM     29  C   UNL     1       9.666  -8.201   5.461  1.00  0.00     0.029 A 
ATOM     30  N   UNL     1       8.776  -6.252   6.052  1.00  0.00    -0.354 N 
ATOM     31  N   UNL     1       8.424  -3.910   7.798  1.00  0.00    -0.248 NA
ATOM     32  C   UNL     1       8.856  -2.784   9.797  1.00  0.00     0.031 C 
ATOM     33  C   UNL     1      10.148  -7.862   6.731  1.00  0.00     0.029 A 
ATOM     34  C   UNL     1       9.619  -6.633   7.087  1.00  0.00     0.049 A 
ATOM     35  H   UNL     1       8.248  -5.421   6.031  1.00  0.00     0.167 HD
ATOM     36  C   UNL     1       9.321  -4.652   8.551  1.00  0.00     0.074 A 
ATOM     37  C   UNL     1       9.587  -3.887   9.752  1.00  0.00     0.031 C 
ATOM     38  C   UNL     1       9.867  -5.863   8.279  1.00  0.00     0.037 A 
BRANCH  25  39
ATOM     39  C   UNL     1       8.133  -8.284   2.859  1.00  0.00     0.064 A 
ATOM     40  C   UNL     1       8.779  -8.128   1.623  1.00  0.00     0.173 A 
ATOM     41  C   UNL     1       7.658  -9.563   3.190  1.00  0.00     0.173 A 
ATOM     42  F   UNL     1       9.243  -6.925   1.252  1.00  0.00    -0.203 F 
ATOM     43  C   UNL     1       8.928  -9.202   0.749  1.00  0.00     0.198 A 
ATOM     44  C   UNL     1       7.836 -10.643   2.327  1.00  0.00     0.198 A 
ATOM     45  F   UNL     1       7.040  -9.774   4.362  1.00  0.00    -0.203 F 
ATOM     46  F   UNL     1       9.515  -9.019  -0.442  1.00  0.00    -0.200 F 
ATOM     47  C   UNL     1       8.466 -10.460   1.105  1.00  0.00     0.200 A 
ATOM     48  F   UNL     1       7.403 -11.861   2.680  1.00  0.00    -0.200 F 
ATOM     49  F   UNL     1       8.624 -11.496   0.270  1.00  0.00    -0.200 F 
ENDBRANCH  25  39
BRANCH  26  50
ATOM     50  C   UNL     1       7.081  -0.548   9.119  1.00  0.00     0.064 A 
ATOM     51  C   UNL     1       8.136   0.319   9.433  1.00  0.00     0.173 A 
ATOM     52  C   UNL     1       5.840  -0.313   9.731  1.00  0.00     0.173 A 
ATOM     53  F   UNL     1       9.345   0.129   8.886  1.00  0.00    -0.203 F 
ATOM     54  C   UNL     1       7.963   1.359  10.343  1.00  0.00     0.198 A 
ATOM     55  C   UNL     1       5.657   0.751  10.608  1.00  0.00     0.198 A 
ATOM     56  F   UNL     1       4.794  -1.107   9.457  1.00  0.00    -0.203 F 
ATOM     57  F   UNL     1       9.003   2.138  10.671  1.00  0.00    -0.200 F 
ATOM     58  C   UNL     1       6.723   1.579  10.925  1.00  0.00     0.200 A 
ATOM     59  F   UNL     1       4.451   0.974  11.146  1.00  0.00    -0.200 F 
ATOM     60  F   UNL     1       6.557   2.583  11.796  1.00  0.00    -0.200 F 
ENDBRANCH  26  50
BRANCH  38  61
ATOM     61  C   UNL     1      10.825  -6.414   9.296  1.00  0.00     0.064 A 
ATOM     62  C   UNL     1      10.393  -6.835  10.563  1.00  0.00     0.173 A 
ATOM     63  C   UNL     1      12.193  -6.513   9.003  1.00  0.00     0.173 A 
ATOM     64  F   UNL     1       9.098  -6.745  10.900  1.00  0.00    -0.203 F 
ATOM     65  C   UNL     1      11.302  -7.293  11.514  1.00  0.00     0.198 A 
ATOM     66  C   UNL     1      13.094  -7.006   9.942  1.00  0.00     0.198 A 
ATOM     67  F   UNL     1      12.659  -6.129   7.804  1.00  0.00    -0.203 F 
ATOM     68  F   UNL     1      10.876  -7.620  12.741  1.00  0.00    -0.200 F 
ATOM     69  C   UNL     1      12.650  -7.382  11.201  1.00  0.00     0.200 A 
ATOM     70  F   UNL     1      14.394  -7.105   9.634  1.00  0.00    -0.200 F 
ATOM     71  F   UNL     1      13.524  -7.819  12.118  1.00  0.00    -0.200 F 
ENDBRANCH  38  61
ENDBRANCH  12  13
ENDBRANCH   5   7
ENDBRANCH   2   3
ENDBRANCH   1   2
BRANCH   1  72
ATOM     72  C   UNL     1       4.433   1.119  -3.708  1.00  0.00     0.023 C 
BRANCH  72  73
ATOM     73  C   UNL     1       5.048   2.466  -3.314  1.00  0.00     0.116 C 
BRANCH  73  74
ATOM     74  N   UNL     1       6.457   2.525  -3.656  1.00  0.00    -0.356 N 
ATOM     75  C   UNL     1       7.107   3.014  -4.750  1.00  0.00     0.227 C 
ATOM     76  H   UNL     1       7.053   2.141  -2.973  1.00  0.00     0.163 HD
ATOM     77  O   UNL     1       8.330   2.845  -4.784  1.00  0.00    -0.274 OA
BRANCH  75  78
ATOM     78  C   UNL     1       6.414   3.827  -5.856  1.00  0.00     0.103 C 
ATOM     79  C   UNL     1       4.988   3.471  -6.133  1.00  0.00    -0.016 C 
ATOM     80  C   UNL     1       6.333   5.320  -5.474  1.00  0.00     0.047 C 
ATOM     81  C   UNL     1       4.193   4.543  -6.077  1.00  0.00    -0.005 C 
ATOM     82  C   UNL     1       4.974   5.830  -5.984  1.00  0.00     0.117 C 
BRANCH  82  83
ATOM     83  N   UNL     1       4.885   6.392  -7.321  1.00  0.00    -0.275 N 
ATOM     84  C   UNL     1       3.672   6.853  -7.781  1.00  0.00     0.233 C 
ATOM     85  C   UNL     1       5.811   6.287  -8.319  1.00  0.00     0.233 C 
ATOM     86  O   UNL     1       2.670   7.121  -7.146  1.00  0.00    -0.274 OA
ATOM     87  C   UNL     1       3.703   6.864  -9.263  1.00  0.00     0.092 C 
ATOM     88  C   UNL     1       5.140   6.516  -9.626  1.00  0.00     0.092 C 
ATOM     89  O   UNL     1       6.998   6.007  -8.255  1.00  0.00    -0.274 OA
ATOM     90  C   UNL     1       4.535   7.824 -10.054  1.00  0.00     0.028 C 
ENDBRANCH  82  83
ENDBRANCH  75  78
ENDBRANCH  73  74
ENDBRANCH  72  73
ENDBRANCH   1  72
TORSDOF 12
