REMARK SMILES O=C(C[C@H]1C(=O)N[NH+]=C2c3ccc(F)cc3N=CN21)NCCCCNC(=O)c1ccc(-c2c3nc(c(-c4c(F)c(F)c(F)c(F)c4F)c4ccc([nH]4)c(-c4c(F)c(F)c(F)c(F)c4F)c4nc(c(-c5c(F)c(F)c(F)c(F)c5F)c5ccc2[nH]5)C=C4)C=C3)cc1
REMARK SMILES IDX 23 1 22 2 21 3 20 4 1 5 2 6 3 8 4 9 5 10 19 11 6 12 7 13
REMARK SMILES IDX 9 14 18 15 8 16 10 18 17 19 11 21 16 22 12 23 15 24 13 25
REMARK SMILES IDX 14 26 24 27 25 28 26 29 27 31 28 32 29 33 90 34 30 35 89 36
REMARK SMILES IDX 31 37 32 38 33 39 83 40 34 41 88 42 82 43 84 44 35 45 87 46
REMARK SMILES IDX 81 47 80 48 36 50 68 51 48 52 67 53 49 54 52 55 66 56 85 57
REMARK SMILES IDX 50 58 51 59 65 61 86 62 53 63 37 64 38 65 46 66 39 67 40 68
REMARK SMILES IDX 44 69 47 70 41 71 42 72 45 73 43 74 69 75 70 76 78 77 71 78
REMARK SMILES IDX 72 79 76 80 79 81 73 82 74 83 77 84 75 85 54 86 55 87 63 88
REMARK SMILES IDX 56 89 57 90 61 91 64 92 58 93 59 94 62 95 60 96
REMARK H PARENT 20 7 7 17 8 20 25 30 84 49 52 60
REMARK Flexibility Score: inf
ROOT
ATOM      1  C   UNL     1       3.096   3.226  -3.860  1.00  0.00     0.023 C 
ENDROOT
BRANCH   1   2
ATOM      2  C   UNL     1       3.655   2.161  -4.808  1.00  0.00     0.023 C 
BRANCH   2   3
ATOM      3  C   UNL     1       4.542   1.103  -4.145  1.00  0.00     0.116 C 
BRANCH   3   4
ATOM      4  N   UNL     1       3.791   0.306  -3.194  1.00  0.00    -0.356 N 
ATOM      5  O   UNL     1       5.121  -1.561  -3.319  1.00  0.00    -0.275 OA
ATOM      6  C   UNL     1       4.086  -1.019  -2.956  1.00  0.00     0.224 C 
ATOM      7  H   UNL     1       3.048   0.725  -2.703  1.00  0.00     0.163 HD
BRANCH   6   8
ATOM      8  C   UNL     1       2.944  -1.774  -2.330  1.00  0.00     0.160 C 
BRANCH   8   9
ATOM      9  C   UNL     1       3.212  -2.500  -1.016  1.00  0.00     0.284 C 
ATOM     10  C   UNL     1       1.866  -3.153  -0.711  1.00  0.00     0.300 C 
ATOM     11  N   UNL     1       4.280  -3.504  -1.043  1.00  0.00    -0.203 N 
ATOM     12  O   UNL     1       0.926  -2.523  -0.226  1.00  0.00    -0.267 OA
ATOM     13  N   UNL     1       1.706  -4.433  -1.183  1.00  0.00    -0.193 N 
ATOM     14  C   UNL     1       3.937  -4.832  -1.249  1.00  0.00     0.309 C 
ATOM     15  C   UNL     1       5.572  -3.139  -0.731  1.00  0.00     0.317 C 
ATOM     16  N   UNL     1       2.732  -5.294  -1.415  1.00  0.00    -0.169 N 
ATOM     17  H   UNL     1       0.790  -4.747  -1.365  1.00  0.00     0.216 HD
ATOM     18  C   UNL     1       5.051  -5.819  -1.118  1.00  0.00     0.092 A 
ATOM     19  N   UNL     1       6.562  -3.946  -0.515  1.00  0.00    -0.216 NA
ATOM     20  H   UNL     1       2.570  -6.224  -1.695  1.00  0.00     0.340 HD
ATOM     21  C   UNL     1       4.820  -7.195  -1.240  1.00  0.00     0.022 A 
ATOM     22  C   UNL     1       6.285  -5.324  -0.650  1.00  0.00     0.085 A 
ATOM     23  C   UNL     1       5.807  -8.092  -0.837  1.00  0.00     0.040 A 
ATOM     24  C   UNL     1       7.261  -6.239  -0.250  1.00  0.00     0.068 A 
ATOM     25  C   UNL     1       7.007  -7.606  -0.328  1.00  0.00     0.125 A 
ATOM     26  F   UNL     1       7.925  -8.473   0.120  1.00  0.00    -0.207 F 
ENDBRANCH   8   9
ENDBRANCH   6   8
ENDBRANCH   3   4
ENDBRANCH   2   3
ENDBRANCH   1   2
BRANCH   1  27
ATOM     27  C   UNL     1       4.145   4.045  -3.120  1.00  0.00     0.116 C 
BRANCH  27  28
ATOM     28  N   UNL     1       4.902   4.928  -3.992  1.00  0.00    -0.352 N 
ATOM     29  C   UNL     1       5.221   6.258  -3.817  1.00  0.00     0.251 C 
ATOM     30  H   UNL     1       5.234   4.519  -4.823  1.00  0.00     0.163 HD
ATOM     31  O   UNL     1       5.764   6.888  -4.711  1.00  0.00    -0.269 OA
BRANCH  29  32
ATOM     32  C   UNL     1       4.849   6.937  -2.552  1.00  0.00     0.039 A 
ATOM     33  C   UNL     1       5.067   6.322  -1.318  1.00  0.00     0.014 A 
ATOM     34  C   UNL     1       4.229   8.188  -2.611  1.00  0.00     0.014 A 
ATOM     35  C   UNL     1       4.495   6.862  -0.171  1.00  0.00     0.010 A 
ATOM     36  C   UNL     1       3.733   8.774  -1.441  1.00  0.00     0.010 A 
ATOM     37  C   UNL     1       3.806   8.085  -0.220  1.00  0.00    -0.014 A 
BRANCH  37  38
ATOM     38  C   UNL     1       3.145   8.603   1.008  1.00  0.00     0.031 A 
ATOM     39  C   UNL     1       1.646   8.736   1.077  1.00  0.00     0.074 A 
ATOM     40  C   UNL     1       3.891   8.888   2.093  1.00  0.00     0.049 A 
ATOM     41  N   UNL     1       0.896   9.138   2.074  1.00  0.00    -0.248 NA
ATOM     42  C   UNL     1       0.885   8.371  -0.129  1.00  0.00     0.031 C 
ATOM     43  C   UNL     1       5.349   8.786   2.160  1.00  0.00     0.029 A 
ATOM     44  N   UNL     1       3.528   9.294   3.353  1.00  0.00    -0.354 N 
ATOM     45  C   UNL     1      -0.413   9.089   1.613  1.00  0.00     0.074 A 
ATOM     46  C   UNL     1      -0.359   8.650   0.236  1.00  0.00     0.031 C 
ATOM     47  C   UNL     1       5.752   9.064   3.409  1.00  0.00     0.029 A 
ATOM     48  C   UNL     1       4.589   9.425   4.214  1.00  0.00     0.049 A 
ATOM     49  H   UNL     1       2.596   9.474   3.614  1.00  0.00     0.167 HD
ATOM     50  C   UNL     1      -1.558   9.368   2.282  1.00  0.00     0.037 A 
ATOM     51  C   UNL     1       4.627   9.805   5.506  1.00  0.00     0.037 A 
ATOM     52  C   UNL     1      -1.616   9.780   3.660  1.00  0.00     0.049 A 
ATOM     53  C   UNL     1       3.346  10.158   6.208  1.00  0.00     0.074 A 
ATOM     54  C   UNL     1      -2.733  10.063   4.428  1.00  0.00     0.029 A 
ATOM     55  N   UNL     1      -0.512   9.966   4.478  1.00  0.00    -0.354 N 
ATOM     56  N   UNL     1       2.116  10.101   5.760  1.00  0.00    -0.248 NA
ATOM     57  C   UNL     1       3.461  10.639   7.592  1.00  0.00     0.031 C 
ATOM     58  C   UNL     1      -2.303  10.461   5.697  1.00  0.00     0.029 A 
ATOM     59  C   UNL     1      -0.920  10.381   5.736  1.00  0.00     0.049 A 
ATOM     60  H   UNL     1       0.424   9.824   4.206  1.00  0.00     0.167 HD
ATOM     61  C   UNL     1       1.310  10.527   6.806  1.00  0.00     0.074 A 
ATOM     62  C   UNL     1       2.189  10.819   7.920  1.00  0.00     0.031 C 
ATOM     63  C   UNL     1      -0.037  10.669   6.836  1.00  0.00     0.037 A 
BRANCH  50  64
ATOM     64  C   UNL     1      -2.856   9.239   1.539  1.00  0.00     0.064 A 
ATOM     65  C   UNL     1      -3.395   7.985   1.216  1.00  0.00     0.173 A 
ATOM     66  C   UNL     1      -3.607  10.380   1.215  1.00  0.00     0.173 A 
ATOM     67  F   UNL     1      -2.712   6.865   1.493  1.00  0.00    -0.203 F 
ATOM     68  C   UNL     1      -4.632   7.879   0.584  1.00  0.00     0.198 A 
ATOM     69  C   UNL     1      -4.855  10.268   0.608  1.00  0.00     0.198 A 
ATOM     70  F   UNL     1      -3.140  11.602   1.509  1.00  0.00    -0.203 F 
ATOM     71  F   UNL     1      -5.114   6.671   0.257  1.00  0.00    -0.200 F 
ATOM     72  C   UNL     1      -5.365   9.019   0.290  1.00  0.00     0.200 A 
ATOM     73  F   UNL     1      -5.568  11.370   0.337  1.00  0.00    -0.200 F 
ATOM     74  F   UNL     1      -6.563   8.913  -0.302  1.00  0.00    -0.200 F 
ENDBRANCH  50  64
BRANCH  51  75
ATOM     75  C   UNL     1       5.931   9.862   6.214  1.00  0.00     0.064 A 
ATOM     76  C   UNL     1       6.240   8.944   7.227  1.00  0.00     0.173 A 
ATOM     77  C   UNL     1       6.904  10.814   5.876  1.00  0.00     0.173 A 
ATOM     78  F   UNL     1       5.333   8.028   7.600  1.00  0.00    -0.203 F 
ATOM     79  C   UNL     1       7.472   8.978   7.876  1.00  0.00     0.198 A 
ATOM     80  C   UNL     1       8.146  10.829   6.505  1.00  0.00     0.198 A 
ATOM     81  F   UNL     1       6.656  11.713   4.912  1.00  0.00    -0.203 F 
ATOM     82  F   UNL     1       7.732   8.108   8.861  1.00  0.00    -0.200 F 
ATOM     83  C   UNL     1       8.427   9.914   7.508  1.00  0.00     0.200 A 
ATOM     84  F   UNL     1       9.071  11.725   6.135  1.00  0.00    -0.200 F 
ATOM     85  F   UNL     1       9.618   9.936   8.122  1.00  0.00    -0.200 F 
ENDBRANCH  51  75
BRANCH  63  86
ATOM     86  C   UNL     1      -0.654  11.154   8.115  1.00  0.00     0.064 A 
ATOM     87  C   UNL     1      -0.544  12.492   8.517  1.00  0.00     0.173 A 
ATOM     88  C   UNL     1      -1.421  10.288   8.909  1.00  0.00     0.173 A 
ATOM     89  F   UNL     1       0.190  13.355   7.798  1.00  0.00    -0.203 F 
ATOM     90  C   UNL     1      -1.167  12.944   9.677  1.00  0.00     0.198 A 
ATOM     91  C   UNL     1      -2.065  10.749  10.054  1.00  0.00     0.198 A 
ATOM     92  F   UNL     1      -1.563   9.000   8.563  1.00  0.00    -0.203 F 
ATOM     93  F   UNL     1      -1.021  14.220  10.061  1.00  0.00    -0.200 F 
ATOM     94  C   UNL     1      -1.935  12.075  10.439  1.00  0.00     0.200 A 
ATOM     95  F   UNL     1      -2.817   9.912  10.781  1.00  0.00    -0.200 F 
ATOM     96  F   UNL     1      -2.547  12.515  11.546  1.00  0.00    -0.200 F 
ENDBRANCH  63  86
ENDBRANCH  37  38
ENDBRANCH  29  32
ENDBRANCH  27  28
ENDBRANCH   1  27
TORSDOF 12
