REMARK SMILES COc1ccc2cc([C@H](C)C(=O)NCCCCNC(=O)c3ccc(-c4c5nc(c(-c6c(F)c(F)c(F)c(F)c6F)c6ccc([nH]6)c(-c6c(F)c(F)c(F)c(F)c6F)c6nc(c(-c7c(F)c(F)c(F)c(F)c7F)c7ccc4[nH]7)C=C6)C=C5)cc3)ccc2c1
REMARK SMILES IDX 15 1 14 2 13 3 11 4 12 5 9 7 10 8 8 9 3 10 4 11 87 12 5 13
REMARK SMILES IDX 86 14 6 15 85 16 7 17 84 18 2 19 1 20 16 21 17 22 18 23
REMARK SMILES IDX 19 24 20 26 21 27 22 28 83 29 23 30 82 31 24 32 25 33 26 34
REMARK SMILES IDX 76 35 27 36 81 37 75 38 77 39 28 40 80 41 74 42 73 43 29 45
REMARK SMILES IDX 61 46 41 47 60 48 42 49 45 50 59 51 78 52 43 53 44 54 58 56
REMARK SMILES IDX 79 57 46 58 30 59 31 60 39 61 32 62 33 63 37 64 40 65 34 66
REMARK SMILES IDX 35 67 38 68 36 69 62 70 63 71 71 72 64 73 65 74 69 75 72 76
REMARK SMILES IDX 66 77 67 78 70 79 68 80 47 81 48 82 56 83 49 84 50 85 54 86
REMARK SMILES IDX 57 87 51 88 52 89 55 90 53 91
REMARK H PARENT 13 6 18 25 77 44 45 55
REMARK Flexibility Score: inf
ROOT
ATOM      1  C   UNL     1       4.211  -4.302   3.789  1.00  0.00     0.023 C 
ENDROOT
BRANCH   1   2
ATOM      2  C   UNL     1       3.897  -5.731   3.369  1.00  0.00     0.116 C 
BRANCH   2   3
ATOM      3  N   UNL     1       3.635  -6.617   4.484  1.00  0.00    -0.356 N 
ATOM      4  C   UNL     1       2.794  -7.684   4.599  1.00  0.00     0.227 C 
ATOM      5  O   UNL     1       2.946  -8.389   5.604  1.00  0.00    -0.274 OA
ATOM      6  H   UNL     1       4.151  -6.415   5.298  1.00  0.00     0.163 HD
BRANCH   4   7
ATOM      7  C   UNL     1       1.701  -8.022   3.577  1.00  0.00     0.105 C 
ATOM      8  C   UNL     1       0.817  -6.838   3.180  1.00  0.00     0.023 C 
BRANCH   7   9
ATOM      9  C   UNL     1       2.139  -8.859   2.381  1.00  0.00    -0.035 A 
ATOM     10  C   UNL     1       2.362 -12.132  -1.513  1.00  0.00     0.119 A 
ATOM     11  C   UNL     1       1.174 -12.418  -0.846  1.00  0.00     0.047 A 
ATOM     12  C   UNL     1       3.206 -11.134  -1.033  1.00  0.00     0.055 A 
ATOM     13  C   UNL     1       0.809 -11.672   0.281  1.00  0.00     0.012 A 
ATOM     14  C   UNL     1       2.851 -10.384   0.095  1.00  0.00    -0.015 A 
ATOM     15  C   UNL     1       1.635 -10.642   0.761  1.00  0.00    -0.018 A 
ATOM     16  C   UNL     1       3.695  -9.385   0.578  1.00  0.00     0.009 A 
ATOM     17  C   UNL     1       1.290  -9.868   1.889  1.00  0.00     0.013 A 
ATOM     18  C   UNL     1       3.347  -8.647   1.710  1.00  0.00     0.005 A 
BRANCH  10  19
ATOM     19  O   UNL     1       2.810 -12.826  -2.603  1.00  0.00    -0.497 OA
ATOM     20  C   UNL     1       1.821 -12.975  -3.618  1.00  0.00     0.278 C 
ENDBRANCH  10  19
ENDBRANCH   7   9
ENDBRANCH   4   7
ENDBRANCH   2   3
ENDBRANCH   1   2
BRANCH   1  21
ATOM     21  C   UNL     1       5.494  -4.133   4.606  1.00  0.00     0.023 C 
BRANCH  21  22
ATOM     22  C   UNL     1       6.737  -4.830   4.060  1.00  0.00     0.116 C 
BRANCH  22  23
ATOM     23  N   UNL     1       7.075  -4.445   2.697  1.00  0.00    -0.352 N 
ATOM     24  C   UNL     1       8.277  -4.019   2.184  1.00  0.00     0.251 C 
ATOM     25  H   UNL     1       6.335  -4.496   2.050  1.00  0.00     0.163 HD
ATOM     26  O   UNL     1       8.360  -3.657   1.014  1.00  0.00    -0.269 OA
BRANCH  24  27
ATOM     27  C   UNL     1       9.463  -3.951   3.062  1.00  0.00     0.039 A 
ATOM     28  C   UNL     1      10.195  -2.763   3.110  1.00  0.00     0.014 A 
ATOM     29  C   UNL     1       9.820  -5.035   3.868  1.00  0.00     0.014 A 
ATOM     30  C   UNL     1      11.231  -2.628   4.036  1.00  0.00     0.010 A 
ATOM     31  C   UNL     1      10.804  -4.874   4.839  1.00  0.00     0.010 A 
ATOM     32  C   UNL     1      11.511  -3.665   4.941  1.00  0.00    -0.014 A 
BRANCH  32  33
ATOM     33  C   UNL     1      12.527  -3.500   6.011  1.00  0.00     0.031 A 
ATOM     34  C   UNL     1      13.757  -4.363   6.022  1.00  0.00     0.074 A 
ATOM     35  C   UNL     1      12.310  -2.620   7.009  1.00  0.00     0.049 A 
ATOM     36  N   UNL     1      14.713  -4.431   6.914  1.00  0.00    -0.248 NA
ATOM     37  C   UNL     1      13.921  -5.292   4.893  1.00  0.00     0.031 C 
ATOM     38  C   UNL     1      11.136  -1.754   7.135  1.00  0.00     0.029 A 
ATOM     39  N   UNL     1      13.065  -2.316   8.114  1.00  0.00    -0.354 N 
ATOM     40  C   UNL     1      15.584  -5.412   6.458  1.00  0.00     0.074 A 
ATOM     41  C   UNL     1      15.015  -5.952   5.243  1.00  0.00     0.031 C 
ATOM     42  C   UNL     1      11.262  -1.000   8.239  1.00  0.00     0.029 A 
ATOM     43  C   UNL     1      12.503  -1.355   8.919  1.00  0.00     0.049 A 
ATOM     44  H   UNL     1      13.928  -2.746   8.312  1.00  0.00     0.167 HD
ATOM     45  C   UNL     1      16.764  -5.808   6.991  1.00  0.00     0.037 A 
ATOM     46  C   UNL     1      12.939  -0.825  10.078  1.00  0.00     0.037 A 
ATOM     47  C   UNL     1      17.340  -5.256   8.188  1.00  0.00     0.049 A 
ATOM     48  C   UNL     1      14.246  -1.298  10.656  1.00  0.00     0.074 A 
ATOM     49  C   UNL     1      18.547  -5.569   8.790  1.00  0.00     0.029 A 
ATOM     50  N   UNL     1      16.749  -4.271   8.966  1.00  0.00    -0.354 N 
ATOM     51  N   UNL     1      15.084  -2.189  10.189  1.00  0.00    -0.248 NA
ATOM     52  C   UNL     1      14.668  -0.684  11.924  1.00  0.00     0.031 C 
ATOM     53  C   UNL     1      18.672  -4.796   9.949  1.00  0.00     0.029 A 
ATOM     54  C   UNL     1      17.562  -3.971  10.046  1.00  0.00     0.049 A 
ATOM     55  H   UNL     1      15.880  -3.848   8.777  1.00  0.00     0.167 HD
ATOM     56  C   UNL     1      16.146  -2.220  11.082  1.00  0.00     0.074 A 
ATOM     57  C   UNL     1      15.852  -1.248  12.115  1.00  0.00     0.031 C 
ATOM     58  C   UNL     1      17.264  -2.985  11.052  1.00  0.00     0.037 A 
BRANCH  45  59
ATOM     59  C   UNL     1      17.522  -6.882   6.268  1.00  0.00     0.064 A 
ATOM     60  C   UNL     1      18.146  -6.631   5.036  1.00  0.00     0.173 A 
ATOM     61  C   UNL     1      17.660  -8.162   6.825  1.00  0.00     0.173 A 
ATOM     62  F   UNL     1      18.032  -5.428   4.455  1.00  0.00    -0.203 F 
ATOM     63  C   UNL     1      18.857  -7.630   4.376  1.00  0.00     0.198 A 
ATOM     64  C   UNL     1      18.396  -9.149   6.176  1.00  0.00     0.198 A 
ATOM     65  F   UNL     1      17.087  -8.452   8.003  1.00  0.00    -0.203 F 
ATOM     66  F   UNL     1      19.406  -7.380   3.179  1.00  0.00    -0.200 F 
ATOM     67  C   UNL     1      18.988  -8.885   4.950  1.00  0.00     0.200 A 
ATOM     68  F   UNL     1      18.533 -10.359   6.738  1.00  0.00    -0.200 F 
ATOM     69  F   UNL     1      19.681  -9.843   4.319  1.00  0.00    -0.200 F 
ENDBRANCH  45  59
BRANCH  46  70
ATOM     70  C   UNL     1      12.151   0.234  10.762  1.00  0.00     0.064 A 
ATOM     71  C   UNL     1      12.630   1.550  10.831  1.00  0.00     0.173 A 
ATOM     72  C   UNL     1      10.926  -0.048  11.383  1.00  0.00     0.173 A 
ATOM     73  F   UNL     1      13.808   1.864  10.271  1.00  0.00    -0.203 F 
ATOM     74  C   UNL     1      11.927   2.538  11.518  1.00  0.00     0.198 A 
ATOM     75  C   UNL     1      10.210   0.947  12.046  1.00  0.00     0.198 A 
ATOM     76  F   UNL     1      10.423  -1.290  11.343  1.00  0.00    -0.203 F 
ATOM     77  F   UNL     1      12.435   3.774  11.613  1.00  0.00    -0.200 F 
ATOM     78  C   UNL     1      10.716   2.236  12.121  1.00  0.00     0.200 A 
ATOM     79  F   UNL     1       9.034   0.655  12.618  1.00  0.00    -0.200 F 
ATOM     80  F   UNL     1      10.042   3.185  12.785  1.00  0.00    -0.200 F 
ENDBRANCH  46  70
BRANCH  58  81
ATOM     81  C   UNL     1      18.276  -2.767  12.138  1.00  0.00     0.064 A 
ATOM     82  C   UNL     1      18.050  -3.201  13.453  1.00  0.00     0.173 A 
ATOM     83  C   UNL     1      19.502  -2.149  11.850  1.00  0.00     0.173 A 
ATOM     84  F   UNL     1      16.886  -3.782  13.781  1.00  0.00    -0.203 F 
ATOM     85  C   UNL     1      19.006  -3.001  14.445  1.00  0.00     0.198 A 
ATOM     86  C   UNL     1      20.467  -1.977  12.838  1.00  0.00     0.198 A 
ATOM     87  F   UNL     1      19.768  -1.722  10.606  1.00  0.00    -0.203 F 
ATOM     88  F   UNL     1      18.751  -3.381  15.704  1.00  0.00    -0.200 F 
ATOM     89  C   UNL     1      20.215  -2.396  14.135  1.00  0.00     0.200 A 
ATOM     90  F   UNL     1      21.639  -1.403  12.534  1.00  0.00    -0.200 F 
ATOM     91  F   UNL     1      21.137  -2.210  15.091  1.00  0.00    -0.200 F 
ENDBRANCH  58  81
ENDBRANCH  32  33
ENDBRANCH  24  27
ENDBRANCH  22  23
ENDBRANCH  21  22
ENDBRANCH   1  21
TORSDOF 13
