REMARK SMILES C[C@H](C(=O)NC1CCCC1)[N@H+]1CCn2nc(CCC(=O)NCCCCNC(=O)c3ccc(-c4c5nc(c(-c6c(F)c(F)c(F)c(F)c6F)c6ccc([nH]6)c(-c6c(F)c(F)c(F)c(F)c6F)c6nc(c(-c7c(F)c(F)c(F)c(F)c7F)c7ccc4[nH]7)C=C6)C=C5)cc3)cc2C1
REMARK SMILES IDX 22 1 21 2 19 3 20 4 18 6 17 7 16 8 11 9 12 10 94 11 13 13
REMARK SMILES IDX 93 14 14 15 92 16 15 17 2 18 1 19 3 20 4 21 5 22 6 24 7 25
REMARK SMILES IDX 10 26 8 27 9 28 23 29 24 30 25 31 26 32 27 33 28 35 29 36
REMARK SMILES IDX 30 37 91 38 31 39 90 40 32 41 33 42 34 43 84 44 35 45 89 46
REMARK SMILES IDX 83 47 85 48 36 49 88 50 82 51 81 52 37 54 69 55 49 56 68 57
REMARK SMILES IDX 50 58 53 59 67 60 86 61 51 62 52 63 66 65 87 66 54 67 38 68
REMARK SMILES IDX 39 69 47 70 40 71 41 72 45 73 48 74 42 75 43 76 46 77 44 78
REMARK SMILES IDX 70 79 71 80 79 81 72 82 73 83 77 84 80 85 74 86 75 87 78 88
REMARK SMILES IDX 76 89 55 90 56 91 64 92 57 93 58 94 62 95 65 96 59 97 60 98
REMARK SMILES IDX 63 99 61 100
REMARK H PARENT 21 5 11 12 5 23 26 34 85 53 53 64
REMARK Flexibility Score: inf
ROOT
ATOM      1  C   UNL     1      -2.218  -0.847  -5.016  1.00  0.00     0.116 C 
ENDROOT
BRANCH   1   2
ATOM      2  N   UNL     1      -3.273  -0.474  -5.943  1.00  0.00    -0.356 N 
ATOM      3  C   UNL     1      -4.148   0.572  -5.893  1.00  0.00     0.220 C 
ATOM      4  O   UNL     1      -5.081   0.587  -6.700  1.00  0.00    -0.275 OA
ATOM      5  H   UNL     1      -3.371  -1.065  -6.724  1.00  0.00     0.163 HD
BRANCH   3   6
ATOM      6  C   UNL     1      -3.963   1.714  -4.913  1.00  0.00     0.106 C 
BRANCH   6   7
ATOM      7  C   UNL     1      -4.881   1.625  -3.683  1.00  0.00     0.068 C 
BRANCH   7   8
ATOM      8  C   UNL     1      -4.162   1.131  -2.469  1.00  0.00     0.063 A 
ATOM      9  N   UNL     1      -0.925  -0.915  -0.185  1.00  0.00    -0.318 N 
ATOM     10  C   UNL     1      -2.035  -1.644   0.451  1.00  0.00     0.287 C 
ATOM     11  C   UNL     1      -1.248   0.485  -0.396  1.00  0.00     0.319 C 
ATOM     12  H   UNL     1      -0.845  -1.373  -1.093  1.00  0.00     0.349 HD
ATOM     13  C   UNL     1      -3.408  -1.478  -0.258  1.00  0.00     0.206 C 
ATOM     14  C   UNL     1      -2.517   0.675  -1.094  1.00  0.00     0.093 A 
ATOM     15  N   UNL     1      -3.537  -0.210  -0.952  1.00  0.00    -0.258 N 
ATOM     16  C   UNL     1      -2.937   1.631  -1.977  1.00  0.00     0.055 A 
ATOM     17  N   UNL     1      -4.582   0.064  -1.764  1.00  0.00    -0.177 NA
BRANCH   9  18
ATOM     18  C   UNL     1       0.448  -1.118   0.374  1.00  0.00     0.271 C 
ATOM     19  C   UNL     1       0.710  -2.049   1.560  1.00  0.00     0.086 C 
BRANCH  18  20
ATOM     20  C   UNL     1       1.339   0.159   0.459  1.00  0.00     0.278 C 
ATOM     21  O   UNL     1       2.252   0.301  -0.371  1.00  0.00    -0.268 OA
ATOM     22  N   UNL     1       1.242   1.173   1.359  1.00  0.00    -0.348 N 
ATOM     23  H   UNL     1       2.031   1.758   1.291  1.00  0.00     0.163 HD
BRANCH  22  24
ATOM     24  C   UNL     1       0.337   1.677   2.401  1.00  0.00     0.082 C 
ATOM     25  C   UNL     1      -0.583   2.822   1.931  1.00  0.00     0.025 C 
ATOM     26  C   UNL     1      -0.551   0.694   3.139  1.00  0.00     0.025 C 
ATOM     27  C   UNL     1      -1.964   2.556   2.535  1.00  0.00     0.002 C 
ATOM     28  C   UNL     1      -1.755   1.495   3.604  1.00  0.00     0.002 C 
ENDBRANCH  22  24
ENDBRANCH  18  20
ENDBRANCH   9  18
ENDBRANCH   7   8
ENDBRANCH   6   7
ENDBRANCH   3   6
ENDBRANCH   1   2
BRANCH   1  29
ATOM     29  C   UNL     1      -2.783  -1.632  -3.836  1.00  0.00     0.023 C 
BRANCH  29  30
ATOM     30  C   UNL     1      -2.961  -3.140  -4.005  1.00  0.00     0.023 C 
BRANCH  30  31
ATOM     31  C   UNL     1      -1.708  -3.934  -3.665  1.00  0.00     0.116 C 
BRANCH  31  32
ATOM     32  N   UNL     1      -1.353  -3.888  -2.240  1.00  0.00    -0.352 N 
ATOM     33  C   UNL     1      -0.179  -4.310  -1.636  1.00  0.00     0.251 C 
ATOM     34  H   UNL     1      -2.035  -3.510  -1.639  1.00  0.00     0.163 HD
ATOM     35  O   UNL     1      -0.115  -4.590  -0.455  1.00  0.00    -0.269 OA
BRANCH  33  36
ATOM     36  C   UNL     1       0.996  -4.439  -2.507  1.00  0.00     0.039 A 
ATOM     37  C   UNL     1       1.579  -5.691  -2.709  1.00  0.00     0.014 A 
ATOM     38  C   UNL     1       1.246  -3.364  -3.345  1.00  0.00     0.014 A 
ATOM     39  C   UNL     1       2.263  -5.915  -3.900  1.00  0.00     0.010 A 
ATOM     40  C   UNL     1       1.767  -3.645  -4.585  1.00  0.00     0.010 A 
ATOM     41  C   UNL     1       2.273  -4.915  -4.884  1.00  0.00    -0.014 A 
BRANCH  41  42
ATOM     42  C   UNL     1       2.635  -5.244  -6.267  1.00  0.00     0.031 A 
ATOM     43  C   UNL     1       2.094  -6.519  -6.849  1.00  0.00     0.074 A 
ATOM     44  C   UNL     1       3.191  -4.360  -7.122  1.00  0.00     0.049 A 
ATOM     45  N   UNL     1       2.764  -7.527  -7.310  1.00  0.00    -0.248 NA
ATOM     46  C   UNL     1       0.636  -6.707  -6.915  1.00  0.00     0.031 C 
ATOM     47  C   UNL     1       3.525  -2.946  -6.922  1.00  0.00     0.029 A 
ATOM     48  N   UNL     1       3.455  -4.545  -8.443  1.00  0.00    -0.354 N 
ATOM     49  C   UNL     1       1.837  -8.426  -7.842  1.00  0.00     0.074 A 
ATOM     50  C   UNL     1       0.537  -7.912  -7.486  1.00  0.00     0.031 C 
ATOM     51  C   UNL     1       3.684  -2.348  -8.120  1.00  0.00     0.029 A 
ATOM     52  C   UNL     1       3.682  -3.376  -9.142  1.00  0.00     0.049 A 
ATOM     53  H   UNL     1       3.482  -5.435  -8.864  1.00  0.00     0.167 HD
ATOM     54  C   UNL     1       2.207  -9.450  -8.667  1.00  0.00     0.037 A 
ATOM     55  C   UNL     1       3.854  -3.251 -10.475  1.00  0.00     0.037 A 
ATOM     56  C   UNL     1       3.628  -9.675  -8.633  1.00  0.00     0.049 A 
ATOM     57  C   UNL     1       4.310  -4.571 -10.981  1.00  0.00     0.074 A 
ATOM     58  C   UNL     1       4.534  -9.980  -7.634  1.00  0.00     0.029 A 
ATOM     59  N   UNL     1       4.395  -9.229  -9.682  1.00  0.00    -0.354 N 
ATOM     60  N   UNL     1       5.457  -5.112 -10.664  1.00  0.00    -0.248 NA
ATOM     61  C   UNL     1       3.304  -5.496 -11.481  1.00  0.00     0.031 C 
ATOM     62  C   UNL     1       5.676  -9.177  -7.929  1.00  0.00     0.029 A 
ATOM     63  C   UNL     1       5.408  -8.495  -9.118  1.00  0.00     0.049 A 
ATOM     64  H   UNL     1       4.249  -9.401 -10.640  1.00  0.00     0.167 HD
ATOM     65  C   UNL     1       5.185  -6.464 -10.519  1.00  0.00     0.074 A 
ATOM     66  C   UNL     1       3.875  -6.654 -11.137  1.00  0.00     0.031 C 
ATOM     67  C   UNL     1       5.907  -7.257  -9.671  1.00  0.00     0.037 A 
BRANCH  54  68
ATOM     68  C   UNL     1       1.337 -10.095  -9.718  1.00  0.00     0.064 A 
ATOM     69  C   UNL     1       1.739 -11.307 -10.320  1.00  0.00     0.173 A 
ATOM     70  C   UNL     1       0.272  -9.427 -10.353  1.00  0.00     0.173 A 
ATOM     71  F   UNL     1       2.765 -12.013  -9.819  1.00  0.00    -0.203 F 
ATOM     72  C   UNL     1       1.153 -11.782 -11.498  1.00  0.00     0.198 A 
ATOM     73  C   UNL     1      -0.347  -9.930 -11.499  1.00  0.00     0.198 A 
ATOM     74  F   UNL     1      -0.133  -8.214  -9.954  1.00  0.00    -0.203 F 
ATOM     75  F   UNL     1       1.644 -12.878 -12.094  1.00  0.00    -0.200 F 
ATOM     76  C   UNL     1       0.110 -11.092 -12.087  1.00  0.00     0.200 A 
ATOM     77  F   UNL     1      -1.342  -9.236 -12.070  1.00  0.00    -0.200 F 
ATOM     78  F   UNL     1      -0.419 -11.515 -13.243  1.00  0.00    -0.200 F 
ENDBRANCH  54  68
BRANCH  55  79
ATOM     79  C   UNL     1       3.417  -2.123 -11.321  1.00  0.00     0.064 A 
ATOM     80  C   UNL     1       3.947  -1.926 -12.602  1.00  0.00     0.173 A 
ATOM     81  C   UNL     1       2.298  -1.337 -10.973  1.00  0.00     0.173 A 
ATOM     82  F   UNL     1       4.980  -2.667 -13.025  1.00  0.00    -0.203 F 
ATOM     83  C   UNL     1       3.384  -1.002 -13.489  1.00  0.00     0.198 A 
ATOM     84  C   UNL     1       1.746  -0.407 -11.853  1.00  0.00     0.198 A 
ATOM     85  F   UNL     1       1.665  -1.514  -9.804  1.00  0.00    -0.203 F 
ATOM     86  F   UNL     1       3.884  -0.877 -14.726  1.00  0.00    -0.200 F 
ATOM     87  C   UNL     1       2.283  -0.248 -13.116  1.00  0.00     0.200 A 
ATOM     88  F   UNL     1       0.661   0.292 -11.489  1.00  0.00    -0.200 F 
ATOM     89  F   UNL     1       1.716   0.602 -13.984  1.00  0.00    -0.200 F 
ENDBRANCH  55  79
BRANCH  67  90
ATOM     90  C   UNL     1       7.159  -6.702  -9.042  1.00  0.00     0.064 A 
ATOM     91  C   UNL     1       7.180  -5.577  -8.200  1.00  0.00     0.173 A 
ATOM     92  C   UNL     1       8.345  -7.443  -9.139  1.00  0.00     0.173 A 
ATOM     93  F   UNL     1       6.070  -4.874  -7.959  1.00  0.00    -0.203 F 
ATOM     94  C   UNL     1       8.335  -5.189  -7.525  1.00  0.00     0.198 A 
ATOM     95  C   UNL     1       9.491  -7.076  -8.434  1.00  0.00     0.198 A 
ATOM     96  F   UNL     1       8.379  -8.566  -9.875  1.00  0.00    -0.203 F 
ATOM     97  F   UNL     1       8.319  -4.107  -6.732  1.00  0.00    -0.200 F 
ATOM     98  C   UNL     1       9.488  -5.945  -7.635  1.00  0.00     0.200 A 
ATOM     99  F   UNL     1      10.589  -7.841  -8.502  1.00  0.00    -0.200 F 
ATOM    100  F   UNL     1      10.587  -5.600  -6.949  1.00  0.00    -0.200 F 
ENDBRANCH  67  90
ENDBRANCH  41  42
ENDBRANCH  33  36
ENDBRANCH  31  32
ENDBRANCH  30  31
ENDBRANCH  29  30
ENDBRANCH   1  29
TORSDOF 16
