REMARK SMILES O=C(NCCCCNC(=O)c1ccc(NC(=O)c2ccc([N+](=O)[O-])cc2Cl)cc1Cl)c1ccc(-c2c3nc(c(-c4c(F)c(F)c(F)c(F)c4F)c4ccc([nH]4)c(-c4c(F)c(F)c(F)c(F)c4F)c4nc(c(-c5c(F)c(F)c(F)c(F)c5F)c5ccc2[nH]5)C=C4)C=C3)cc1
REMARK SMILES IDX 6 1 5 2 4 3 3 4 1 5 2 6 31 8 32 9 93 10 33 11 92 12 34 13
REMARK SMILES IDX 35 14 36 15 86 16 37 17 91 18 85 19 87 20 38 21 90 22 84 23
REMARK SMILES IDX 83 24 39 26 71 27 51 28 70 29 52 30 55 31 69 32 88 33 53 34
REMARK SMILES IDX 54 35 68 37 89 38 56 39 40 40 41 41 49 42 42 43 43 44 47 45
REMARK SMILES IDX 50 46 44 47 45 48 48 49 46 50 72 51 73 52 81 53 74 54 75 55
REMARK SMILES IDX 79 56 82 57 76 58 77 59 80 60 78 61 57 62 58 63 66 64 59 65
REMARK SMILES IDX 60 66 64 67 67 68 61 69 62 70 65 71 63 72 7 73 8 74 9 75
REMARK SMILES IDX 10 77 11 78 12 79 29 80 13 81 28 82 30 83 14 84 15 85 16 86
REMARK SMILES IDX 17 88 18 89 19 90 26 91 20 92 25 93 27 94 21 95 22 96 23 97
REMARK SMILES IDX 24 98
REMARK H PARENT 3 7 87 25 55 36 8 76 15 87
REMARK Flexibility Score: inf
ROOT
ATOM      1  C   UNL     1       4.511   0.269   3.793  1.00  0.00     0.023 C 
ENDROOT
BRANCH   1   2
ATOM      2  C   UNL     1       4.964   0.762   2.420  1.00  0.00     0.023 C 
BRANCH   2   3
ATOM      3  C   UNL     1       4.597  -0.129   1.240  1.00  0.00     0.116 C 
BRANCH   3   4
ATOM      4  N   UNL     1       3.162  -0.261   1.048  1.00  0.00    -0.352 N 
ATOM      5  O   UNL     1       1.167  -0.009   0.027  1.00  0.00    -0.269 OA
ATOM      6  C   UNL     1       2.392   0.054  -0.045  1.00  0.00     0.251 C 
ATOM      7  H   UNL     1       2.669  -0.631   1.815  1.00  0.00     0.163 HD
BRANCH   6   8
ATOM      8  C   UNL     1       3.030   0.501  -1.302  1.00  0.00     0.039 A 
ATOM      9  C   UNL     1       4.133  -0.173  -1.831  1.00  0.00     0.014 A 
ATOM     10  C   UNL     1       2.499   1.609  -1.970  1.00  0.00     0.014 A 
ATOM     11  C   UNL     1       4.790   0.340  -2.946  1.00  0.00     0.010 A 
ATOM     12  C   UNL     1       3.112   2.076  -3.135  1.00  0.00     0.010 A 
ATOM     13  C   UNL     1       4.281   1.464  -3.615  1.00  0.00    -0.014 A 
BRANCH  13  14
ATOM     14  C   UNL     1       4.944   1.952  -4.849  1.00  0.00     0.031 A 
ATOM     15  C   UNL     1       5.593   3.305  -4.897  1.00  0.00     0.074 A 
ATOM     16  C   UNL     1       4.941   1.165  -5.941  1.00  0.00     0.049 A 
ATOM     17  N   UNL     1       6.177   3.906  -5.904  1.00  0.00    -0.248 NA
ATOM     18  C   UNL     1       5.575   4.093  -3.656  1.00  0.00     0.031 C 
ATOM     19  C   UNL     1       4.324  -0.160  -6.019  1.00  0.00     0.029 A 
ATOM     20  N   UNL     1       5.463   1.364  -7.194  1.00  0.00    -0.354 N 
ATOM     21  C   UNL     1       6.576   5.147  -5.427  1.00  0.00     0.074 A 
ATOM     22  C   UNL     1       6.147   5.224  -4.046  1.00  0.00     0.031 C 
ATOM     23  C   UNL     1       4.513  -0.661  -7.247  1.00  0.00     0.029 A 
ATOM     24  C   UNL     1       5.213   0.329  -8.059  1.00  0.00     0.049 A 
ATOM     25  H   UNL     1       5.967   2.171  -7.447  1.00  0.00     0.167 HD
ATOM     26  C   UNL     1       7.243   6.128  -6.083  1.00  0.00     0.037 A 
ATOM     27  C   UNL     1       5.487   0.200  -9.370  1.00  0.00     0.037 A 
ATOM     28  C   UNL     1       7.680   6.035  -7.453  1.00  0.00     0.049 A 
ATOM     29  C   UNL     1       6.212   1.306 -10.079  1.00  0.00     0.074 A 
ATOM     30  C   UNL     1       8.418   6.947  -8.188  1.00  0.00     0.029 A 
ATOM     31  N   UNL     1       7.406   4.970  -8.300  1.00  0.00    -0.354 N 
ATOM     32  N   UNL     1       6.632   2.453  -9.604  1.00  0.00    -0.248 NA
ATOM     33  C   UNL     1       6.501   1.102 -11.505  1.00  0.00     0.031 C 
ATOM     34  C   UNL     1       8.546   6.457  -9.492  1.00  0.00     0.029 A 
ATOM     35  C   UNL     1       7.933   5.217  -9.559  1.00  0.00     0.049 A 
ATOM     36  H   UNL     1       6.911   4.158  -8.044  1.00  0.00     0.167 HD
ATOM     37  C   UNL     1       7.246   3.103 -10.664  1.00  0.00     0.074 A 
ATOM     38  C   UNL     1       7.157   2.215 -11.806  1.00  0.00     0.031 C 
ATOM     39  C   UNL     1       7.830   4.325 -10.687  1.00  0.00     0.037 A 
BRANCH  26  40
ATOM     40  C   UNL     1       7.522   7.400  -5.335  1.00  0.00     0.064 A 
ATOM     41  C   UNL     1       8.460   7.457  -4.293  1.00  0.00     0.173 A 
ATOM     42  C   UNL     1       6.862   8.588  -5.688  1.00  0.00     0.173 A 
ATOM     43  F   UNL     1       9.113   6.349  -3.911  1.00  0.00    -0.203 F 
ATOM     44  C   UNL     1       8.703   8.648  -3.611  1.00  0.00     0.198 A 
ATOM     45  C   UNL     1       7.128   9.782  -5.023  1.00  0.00     0.198 A 
ATOM     46  F   UNL     1       5.962   8.592  -6.682  1.00  0.00    -0.203 F 
ATOM     47  F   UNL     1       9.567   8.667  -2.587  1.00  0.00    -0.200 F 
ATOM     48  C   UNL     1       8.041   9.809  -3.980  1.00  0.00     0.200 A 
ATOM     49  F   UNL     1       6.497  10.906  -5.388  1.00  0.00    -0.200 F 
ATOM     50  F   UNL     1       8.277  10.954  -3.324  1.00  0.00    -0.200 F 
ENDBRANCH  26  40
BRANCH  27  51
ATOM     51  C   UNL     1       5.050  -1.028 -10.081  1.00  0.00     0.064 A 
ATOM     52  C   UNL     1       5.975  -1.997 -10.487  1.00  0.00     0.173 A 
ATOM     53  C   UNL     1       3.689  -1.281 -10.313  1.00  0.00     0.173 A 
ATOM     54  F   UNL     1       7.287  -1.790 -10.300  1.00  0.00    -0.203 F 
ATOM     55  C   UNL     1       5.556  -3.175 -11.102  1.00  0.00     0.198 A 
ATOM     56  C   UNL     1       3.270  -2.470 -10.902  1.00  0.00     0.198 A 
ATOM     57  F   UNL     1       2.766  -0.386  -9.933  1.00  0.00    -0.203 F 
ATOM     58  F   UNL     1       6.461  -4.077 -11.503  1.00  0.00    -0.200 F 
ATOM     59  C   UNL     1       4.203  -3.415 -11.299  1.00  0.00     0.200 A 
ATOM     60  F   UNL     1       1.962  -2.706 -11.073  1.00  0.00    -0.200 F 
ATOM     61  F   UNL     1       3.800  -4.557 -11.871  1.00  0.00    -0.200 F 
ENDBRANCH  27  51
BRANCH  39  62
ATOM     62  C   UNL     1       8.436   4.772 -11.985  1.00  0.00     0.064 A 
ATOM     63  C   UNL     1       7.639   5.181 -13.063  1.00  0.00     0.173 A 
ATOM     64  C   UNL     1       9.830   4.838 -12.132  1.00  0.00     0.173 A 
ATOM     65  F   UNL     1       6.302   5.119 -12.976  1.00  0.00    -0.203 F 
ATOM     66  C   UNL     1       8.217   5.628 -14.249  1.00  0.00     0.198 A 
ATOM     67  C   UNL     1      10.403   5.309 -13.309  1.00  0.00     0.198 A 
ATOM     68  F   UNL     1      10.634   4.460 -11.127  1.00  0.00    -0.203 F 
ATOM     69  F   UNL     1       7.437   5.981 -15.280  1.00  0.00    -0.200 F 
ATOM     70  C   UNL     1       9.597   5.700 -14.367  1.00  0.00     0.200 A 
ATOM     71  F   UNL     1      11.737   5.388 -13.418  1.00  0.00    -0.200 F 
ATOM     72  F   UNL     1      10.151   6.141 -15.505  1.00  0.00    -0.200 F 
ENDBRANCH  39  62
ENDBRANCH  13  14
ENDBRANCH   6   8
ENDBRANCH   3   4
ENDBRANCH   2   3
ENDBRANCH   1   2
BRANCH   1  73
ATOM     73  C   UNL     1       4.818  -1.192   4.111  1.00  0.00     0.116 C 
BRANCH  73  74
ATOM     74  N   UNL     1       6.218  -1.550   3.954  1.00  0.00    -0.352 N 
ATOM     75  C   UNL     1       6.987  -2.398   4.713  1.00  0.00     0.252 C 
ATOM     76  H   UNL     1       6.681  -1.124   3.196  1.00  0.00     0.163 HD
ATOM     77  O   UNL     1       8.161  -2.600   4.417  1.00  0.00    -0.269 OA
BRANCH  75  78
ATOM     78  C   UNL     1       6.449  -2.966   5.962  1.00  0.00     0.058 A 
ATOM     79  C   UNL     1       7.121  -2.620   7.135  1.00  0.00     0.017 A 
ATOM     80  C   UNL     1       5.333  -3.799   6.034  1.00  0.00     0.055 A 
ATOM     81  C   UNL     1       6.603  -2.995   8.376  1.00  0.00     0.027 A 
ATOM     82  C   UNL     1       4.785  -4.115   7.285  1.00  0.00     0.047 A 
ATOM     83  Cl  UNL     1       4.590  -4.486   4.635  1.00  0.00    -0.083 Cl
ATOM     84  C   UNL     1       5.378  -3.653   8.469  1.00  0.00     0.043 A 
BRANCH  84  85
ATOM     85  N   UNL     1       4.668  -3.881   9.666  1.00  0.00    -0.322 N 
ATOM     86  C   UNL     1       4.798  -3.387  10.947  1.00  0.00     0.257 C 
ATOM     87  H   UNL     1       3.929  -4.523   9.567  1.00  0.00     0.170 HD
ATOM     88  O   UNL     1       4.061  -3.789  11.845  1.00  0.00    -0.269 OA
BRANCH  86  89
ATOM     89  C   UNL     1       5.828  -2.400  11.296  1.00  0.00     0.059 A 
ATOM     90  C   UNL     1       6.902  -2.863  12.071  1.00  0.00     0.022 A 
ATOM     91  C   UNL     1       5.799  -1.078  10.834  1.00  0.00     0.060 A 
ATOM     92  C   UNL     1       8.004  -2.037  12.294  1.00  0.00     0.086 A 
ATOM     93  C   UNL     1       6.905  -0.250  11.045  1.00  0.00     0.107 A 
ATOM     94  Cl  UNL     1       4.465  -0.439   9.944  1.00  0.00    -0.083 Cl
ATOM     95  C   UNL     1       8.014  -0.745  11.749  1.00  0.00     0.270 A 
BRANCH  95  96
ATOM     96  N   UNL     1       9.222   0.080  11.870  1.00  0.00     0.062 N 
ATOM     97  O   UNL     1      10.100  -0.301  12.656  1.00  0.00    -0.258 OA
ATOM     98  O   UNL     1       9.297   1.090  11.158  1.00  0.00    -0.258 OA
ENDBRANCH  95  96
ENDBRANCH  86  89
ENDBRANCH  84  85
ENDBRANCH  75  78
ENDBRANCH  73  74
ENDBRANCH   1  73
TORSDOF 14
