REMARK SMILES CC(C)(C)c1ccc(C(=O)N/C(=C/c2ccc(O)cc2)C(=O)NCCCCNC(=O)c2ccc(-c3c4nc(c(-c5c(F)c(F)c(F)c(F)c5F)c5ccc([nH]5)c(-c5c(F)c(F)c(F)c(F)c5F)c5nc(c(-c6c(F)c(F)c(F)c(F)c6F)c6ccc3[nH]6)C=C5)C=C4)cc2)cc1
REMARK SMILES IDX 25 1 24 2 23 3 21 4 22 5 12 7 13 8 11 9 9 10 10 11 8 13 5 14
REMARK SMILES IDX 6 15 95 16 7 17 94 18 2 19 1 20 3 21 4 22 14 23 15 24 20 25
REMARK SMILES IDX 16 26 19 27 17 28 18 29 26 31 27 32 28 33 29 34 30 36 31 37
REMARK SMILES IDX 32 38 93 39 33 40 92 41 34 42 35 43 36 44 86 45 37 46 91 47
REMARK SMILES IDX 85 48 87 49 38 50 90 51 84 52 83 53 39 55 71 56 51 57 70 58
REMARK SMILES IDX 52 59 55 60 69 61 88 62 53 63 54 64 68 66 89 67 56 68 40 69
REMARK SMILES IDX 41 70 49 71 42 72 43 73 47 74 50 75 44 76 45 77 48 78 46 79
REMARK SMILES IDX 72 80 73 81 81 82 74 83 75 84 79 85 82 86 76 87 77 88 80 89
REMARK SMILES IDX 78 90 57 91 58 92 66 93 59 94 60 95 64 96 67 97 61 98 62 99
REMARK SMILES IDX 65 100 63 101
REMARK H PARENT 23 6 11 12 18 30 28 35 87 54 55 65
REMARK Flexibility Score: inf
ROOT
ATOM      1  C   UNL     1       4.317   5.074   5.225  1.00  0.00     0.023 C 
ENDROOT
BRANCH   1   2
ATOM      2  C   UNL     1       3.349   4.231   6.051  1.00  0.00     0.116 C 
BRANCH   2   3
ATOM      3  N   UNL     1       3.010   2.961   5.462  1.00  0.00    -0.351 N 
ATOM      4  C   UNL     1       3.146   1.753   6.082  1.00  0.00     0.267 C 
ATOM      5  O   UNL     1       3.807   0.903   5.477  1.00  0.00    -0.268 OA
ATOM      6  H   UNL     1       2.654   2.965   4.544  1.00  0.00     0.163 HD
BRANCH   4   7
ATOM      7  C   UNL     1       2.416   1.357   7.373  1.00  0.00     0.107 C 
ATOM      8  C   UNL     1       2.106   2.075   8.478  1.00  0.00     0.040 C 
BRANCH   7   9
ATOM      9  N   UNL     1       2.051   0.011   7.466  1.00  0.00    -0.317 N 
ATOM     10  C   UNL     1       1.715  -0.919   6.502  1.00  0.00     0.255 C 
ATOM     11  O   UNL     1       1.673  -2.111   6.809  1.00  0.00    -0.269 OA
ATOM     12  H   UNL     1       2.030  -0.338   8.386  1.00  0.00     0.170 HD
BRANCH  10  13
ATOM     13  C   UNL     1       1.267  -0.512   5.145  1.00  0.00     0.040 A 
ATOM     14  C   UNL     1       0.553   0.254   2.513  1.00  0.00    -0.043 A 
ATOM     15  C   UNL     1       1.258  -0.937   2.759  1.00  0.00     0.005 A 
ATOM     16  C   UNL     1       0.145   1.007   3.631  1.00  0.00     0.005 A 
ATOM     17  C   UNL     1       1.610  -1.317   4.059  1.00  0.00     0.014 A 
ATOM     18  C   UNL     1       0.480   0.621   4.933  1.00  0.00     0.014 A 
BRANCH  14  19
ATOM     19  C   UNL     1       0.244   0.756   1.092  1.00  0.00    -0.013 C 
ATOM     20  C   UNL     1       0.808  -0.150  -0.026  1.00  0.00     0.016 C 
ATOM     21  C   UNL     1       0.871   2.156   0.896  1.00  0.00     0.016 C 
ATOM     22  C   UNL     1      -1.282   0.848   0.888  1.00  0.00     0.016 C 
ENDBRANCH  14  19
ENDBRANCH  10  13
ENDBRANCH   7   9
BRANCH   8  23
ATOM     23  C   UNL     1       2.183   3.500   8.787  1.00  0.00    -0.023 A 
ATOM     24  C   UNL     1       3.325   4.067   9.364  1.00  0.00     0.012 A 
ATOM     25  C   UNL     1       1.074   4.312   8.502  1.00  0.00     0.012 A 
ATOM     26  C   UNL     1       3.393   5.451   9.542  1.00  0.00     0.047 A 
ATOM     27  C   UNL     1       1.143   5.695   8.687  1.00  0.00     0.047 A 
ATOM     28  C   UNL     1       2.317   6.254   9.175  1.00  0.00     0.115 A 
BRANCH  28  29
ATOM     29  O   UNL     1       2.473   7.601   9.297  1.00  0.00    -0.508 OA
ATOM     30  H   UNL     1       3.276   7.951   9.630  1.00  0.00     0.293 HD
ENDBRANCH  28  29
ENDBRANCH   8  23
ENDBRANCH   4   7
ENDBRANCH   2   3
ENDBRANCH   1   2
BRANCH   1  31
ATOM     31  C   UNL     1       3.694   5.877   4.090  1.00  0.00     0.023 C 
BRANCH  31  32
ATOM     32  C   UNL     1       2.527   6.787   4.464  1.00  0.00     0.116 C 
BRANCH  32  33
ATOM     33  N   UNL     1       2.768   7.671   5.600  1.00  0.00    -0.352 N 
ATOM     34  C   UNL     1       2.502   9.016   5.723  1.00  0.00     0.251 C 
ATOM     35  H   UNL     1       3.177   7.246   6.388  1.00  0.00     0.163 HD
ATOM     36  O   UNL     1       2.674   9.600   6.788  1.00  0.00    -0.269 OA
BRANCH  34  37
ATOM     37  C   UNL     1       2.031   9.761   4.539  1.00  0.00     0.039 A 
ATOM     38  C   UNL     1       2.817  10.799   4.032  1.00  0.00     0.014 A 
ATOM     39  C   UNL     1       0.877   9.348   3.872  1.00  0.00     0.014 A 
ATOM     40  C   UNL     1       2.511  11.341   2.782  1.00  0.00     0.010 A 
ATOM     41  C   UNL     1       0.617   9.837   2.597  1.00  0.00     0.010 A 
ATOM     42  C   UNL     1       1.451  10.813   2.027  1.00  0.00    -0.014 A 
BRANCH  42  43
ATOM     43  C   UNL     1       1.234  11.204   0.611  1.00  0.00     0.031 A 
ATOM     44  C   UNL     1      -0.041  11.880   0.202  1.00  0.00     0.074 A 
ATOM     45  C   UNL     1       2.137  10.839  -0.322  1.00  0.00     0.049 A 
ATOM     46  N   UNL     1      -0.478  12.169  -0.998  1.00  0.00    -0.248 NA
ATOM     47  C   UNL     1      -0.965  12.250   1.285  1.00  0.00     0.031 C 
ATOM     48  C   UNL     1       3.389  10.127  -0.056  1.00  0.00     0.029 A 
ATOM     49  N   UNL     1       2.131  10.996  -1.686  1.00  0.00    -0.354 N 
ATOM     50  C   UNL     1      -1.732  12.735  -0.815  1.00  0.00     0.074 A 
ATOM     51  C   UNL     1      -2.006  12.709   0.606  1.00  0.00     0.031 C 
ATOM     52  C   UNL     1       4.036   9.925  -1.214  1.00  0.00     0.029 A 
ATOM     53  C   UNL     1       3.230  10.455  -2.308  1.00  0.00     0.049 A 
ATOM     54  H   UNL     1       1.408  11.454  -2.172  1.00  0.00     0.167 HD
ATOM     55  C   UNL     1      -2.569  13.247  -1.748  1.00  0.00     0.037 A 
ATOM     56  C   UNL     1       3.544  10.382  -3.616  1.00  0.00     0.037 A 
ATOM     57  C   UNL     1      -2.279  13.297  -3.156  1.00  0.00     0.049 A 
ATOM     58  C   UNL     1       2.599  10.962  -4.631  1.00  0.00     0.074 A 
ATOM     59  C   UNL     1      -3.032  13.856  -4.173  1.00  0.00     0.029 A 
ATOM     60  N   UNL     1      -1.141  12.766  -3.746  1.00  0.00    -0.354 N 
ATOM     61  N   UNL     1       1.444  11.552  -4.441  1.00  0.00    -0.248 NA
ATOM     62  C   UNL     1       2.999  10.866  -6.042  1.00  0.00     0.031 C 
ATOM     63  C   UNL     1      -2.366  13.634  -5.383  1.00  0.00     0.029 A 
ATOM     64  C   UNL     1      -1.180  12.969  -5.116  1.00  0.00     0.049 A 
ATOM     65  H   UNL     1      -0.413  12.313  -3.262  1.00  0.00     0.167 HD
ATOM     66  C   UNL     1       0.990  11.916  -5.700  1.00  0.00     0.074 A 
ATOM     67  C   UNL     1       2.000  11.492  -6.648  1.00  0.00     0.031 C 
ATOM     68  C   UNL     1      -0.161  12.544  -6.041  1.00  0.00     0.037 A 
BRANCH  55  69
ATOM     69  C   UNL     1      -3.878  13.799  -1.269  1.00  0.00     0.064 A 
ATOM     70  C   UNL     1      -3.946  14.997  -0.542  1.00  0.00     0.173 A 
ATOM     71  C   UNL     1      -5.080  13.137  -1.559  1.00  0.00     0.173 A 
ATOM     72  F   UNL     1      -2.822  15.660  -0.228  1.00  0.00    -0.203 F 
ATOM     73  C   UNL     1      -5.167  15.496  -0.096  1.00  0.00     0.198 A 
ATOM     74  C   UNL     1      -6.302  13.654  -1.134  1.00  0.00     0.198 A 
ATOM     75  F   UNL     1      -5.071  11.990  -2.254  1.00  0.00    -0.203 F 
ATOM     76  F   UNL     1      -5.202  16.615   0.641  1.00  0.00    -0.200 F 
ATOM     77  C   UNL     1      -6.343  14.828  -0.397  1.00  0.00     0.200 A 
ATOM     78  F   UNL     1      -7.440  13.011  -1.433  1.00  0.00    -0.200 F 
ATOM     79  F   UNL     1      -7.518  15.310   0.033  1.00  0.00    -0.200 F 
ENDBRANCH  55  69
BRANCH  56  80
ATOM     80  C   UNL     1       4.823   9.755  -4.038  1.00  0.00     0.064 A 
ATOM     81  C   UNL     1       5.874  10.538  -4.536  1.00  0.00     0.173 A 
ATOM     82  C   UNL     1       5.025   8.370  -3.952  1.00  0.00     0.173 A 
ATOM     83  F   UNL     1       5.719  11.864  -4.656  1.00  0.00    -0.203 F 
ATOM     84  C   UNL     1       7.072   9.958  -4.945  1.00  0.00     0.198 A 
ATOM     85  C   UNL     1       6.233   7.793  -4.340  1.00  0.00     0.198 A 
ATOM     86  F   UNL     1       4.052   7.577  -3.478  1.00  0.00    -0.203 F 
ATOM     87  F   UNL     1       8.046  10.726  -5.452  1.00  0.00    -0.200 F 
ATOM     88  C   UNL     1       7.253   8.587  -4.842  1.00  0.00     0.200 A 
ATOM     89  F   UNL     1       6.408   6.470  -4.227  1.00  0.00    -0.200 F 
ATOM     90  F   UNL     1       8.408   8.030  -5.232  1.00  0.00    -0.200 F 
ENDBRANCH  56  80
BRANCH  68  91
ATOM     91  C   UNL     1      -0.380  12.833  -7.495  1.00  0.00     0.064 A 
ATOM     92  C   UNL     1      -0.740  11.821  -8.396  1.00  0.00     0.173 A 
ATOM     93  C   UNL     1      -0.280  14.145  -7.981  1.00  0.00     0.173 A 
ATOM     94  F   UNL     1      -0.831  10.549  -7.979  1.00  0.00    -0.203 F 
ATOM     95  C   UNL     1      -0.978  12.110  -9.736  1.00  0.00     0.198 A 
ATOM     96  C   UNL     1      -0.541  14.434  -9.317  1.00  0.00     0.198 A 
ATOM     97  F   UNL     1       0.058  15.148  -7.156  1.00  0.00    -0.203 F 
ATOM     98  F   UNL     1      -1.287  11.123 -10.588  1.00  0.00    -0.200 F 
ATOM     99  C   UNL     1      -0.886  13.417 -10.194  1.00  0.00     0.200 A 
ATOM    100  F   UNL     1      -0.463  15.698  -9.755  1.00  0.00    -0.200 F 
ATOM    101  F   UNL     1      -1.126  13.695 -11.483  1.00  0.00    -0.200 F 
ENDBRANCH  68  91
ENDBRANCH  42  43
ENDBRANCH  34  37
ENDBRANCH  32  33
ENDBRANCH  31  32
ENDBRANCH   1  31
TORSDOF 16
