REMARK SMILES Cc1n[nH]c2c1[C@@]1(C(=O)N([C@@H](C)C(=O)NCCCCNC(=O)c3ccc(-c4c5nc(c(-c6c(F)c(F)c(F)c(F)c6F)c6ccc([nH]6)c(-c6c(F)c(F)c(F)c(F)c6F)c6nc(c(-c7c(F)c(F)c(F)c(F)c7F)c7ccc4[nH]7)C=C6)C=C5)cc3)c3ccccc31)C(C#N)=C(N)O2
REMARK SMILES IDX 17 1 16 2 15 3 13 4 14 5 11 7 12 8 10 9 1 10 2 11 3 12 6 13
REMARK SMILES IDX 4 14 5 15 7 16 97 18 8 19 91 20 92 21 95 22 9 23 86 24 90 25
REMARK SMILES IDX 87 26 89 27 88 28 93 29 94 30 96 31 18 34 19 35 20 36 21 37
REMARK SMILES IDX 22 39 23 40 24 41 85 42 25 43 84 44 26 45 27 46 28 47 78 48
REMARK SMILES IDX 29 49 83 50 77 51 79 52 30 53 82 54 76 55 75 56 31 58 63 59
REMARK SMILES IDX 43 60 62 61 44 62 47 63 61 64 80 65 45 66 46 67 60 69 81 70
REMARK SMILES IDX 48 71 32 72 33 73 41 74 34 75 35 76 39 77 42 78 36 79 37 80
REMARK SMILES IDX 40 81 38 82 64 83 65 84 73 85 66 86 67 87 71 88 74 89 68 90
REMARK SMILES IDX 69 91 72 92 70 93 49 94 50 95 58 96 51 97 52 98 56 99 59 100
REMARK SMILES IDX 53 101 54 102 57 103 55 104
REMARK H PARENT 15 6 4 17 96 32 96 33 20 38 79 57 47 68
REMARK Flexibility Score: inf
ROOT
ATOM      1  C   UNL     1      -1.840   4.388  -0.482  1.00  0.00     0.023 C 
ENDROOT
BRANCH   1   2
ATOM      2  C   UNL     1      -1.597   3.788  -1.874  1.00  0.00     0.116 C 
BRANCH   2   3
ATOM      3  N   UNL     1      -0.769   4.614  -2.703  1.00  0.00    -0.354 N 
ATOM      4  C   UNL     1       0.509   4.337  -3.127  1.00  0.00     0.242 C 
ATOM      5  O   UNL     1       1.060   5.139  -3.886  1.00  0.00    -0.273 OA
ATOM      6  H   UNL     1      -1.156   5.469  -3.000  1.00  0.00     0.163 HD
BRANCH   4   7
ATOM      7  C   UNL     1       1.228   3.021  -2.697  1.00  0.00     0.176 C 
ATOM      8  C   UNL     1       0.526   1.769  -3.239  1.00  0.00     0.042 C 
BRANCH   7   9
ATOM      9  N   UNL     1       1.486   3.003  -1.245  1.00  0.00    -0.298 N 
ATOM     10  C   UNL     1       1.011  -0.166   0.062  1.00  0.00     0.069 C 
ATOM     11  C   UNL     1       0.634   0.391   1.399  1.00  0.00     0.068 A 
ATOM     12  N   UNL     1       0.044  -0.329   2.363  1.00  0.00    -0.177 NA
ATOM     13  C   UNL     1       0.817   1.731   1.831  1.00  0.00     0.063 A 
ATOM     14  N   UNL     1      -0.172   0.567   3.367  1.00  0.00    -0.246 N 
ATOM     15  C   UNL     1       0.222   1.832   3.054  1.00  0.00     0.222 A 
ATOM     16  C   UNL     1       1.198   2.955   1.098  1.00  0.00     0.149 C 
ATOM     17  H   UNL     1      -0.573   0.324   4.233  1.00  0.00     0.193 HD
ATOM     18  O   UNL     1       0.005   2.950   3.753  1.00  0.00    -0.422 OA
ATOM     19  C   UNL     1       0.558   2.790  -0.227  1.00  0.00     0.248 C 
ATOM     20  C   UNL     1       2.628   2.915   0.746  1.00  0.00     0.002 A 
ATOM     21  C   UNL     1       0.693   4.185   1.771  1.00  0.00     0.114 C 
ATOM     22  C   UNL     1       0.211   4.167   3.047  1.00  0.00     0.208 C 
ATOM     23  O   UNL     1      -0.564   2.303  -0.239  1.00  0.00    -0.273 OA
ATOM     24  C   UNL     1       2.766   2.971  -0.653  1.00  0.00     0.050 A 
ATOM     25  C   UNL     1       3.693   2.845   1.611  1.00  0.00     0.008 A 
ATOM     26  C   UNL     1       4.008   2.914  -1.230  1.00  0.00     0.027 A 
ATOM     27  C   UNL     1       4.947   2.806   1.037  1.00  0.00     0.001 A 
ATOM     28  C   UNL     1       5.104   2.833  -0.364  1.00  0.00     0.002 A 
BRANCH  21  29
ATOM     29  C   UNL     1       0.820   5.549   1.111  1.00  0.00     0.102 C 
ATOM     30  N   UNL     1       0.926   6.679   0.564  1.00  0.00    -0.193 NA
ENDBRANCH  21  29
BRANCH  22  31
ATOM     31  N   UNL     1      -0.106   5.304   3.740  1.00  0.00    -0.369 N 
ATOM     32  H   UNL     1       0.010   6.186   3.317  1.00  0.00     0.159 HD
ATOM     33  H   UNL     1      -0.449   5.241   4.660  1.00  0.00     0.159 HD
ENDBRANCH  22  31
ENDBRANCH   7   9
ENDBRANCH   4   7
ENDBRANCH   2   3
ENDBRANCH   1   2
BRANCH   1  34
ATOM     34  C   UNL     1      -2.754   5.551  -0.583  1.00  0.00     0.023 C 
BRANCH  34  35
ATOM     35  C   UNL     1      -4.032   5.035  -1.192  1.00  0.00     0.116 C 
BRANCH  35  36
ATOM     36  N   UNL     1      -4.754   4.108  -0.330  1.00  0.00    -0.352 N 
ATOM     37  C   UNL     1      -6.003   4.212   0.252  1.00  0.00     0.251 C 
ATOM     38  H   UNL     1      -4.275   3.271  -0.131  1.00  0.00     0.163 HD
ATOM     39  O   UNL     1      -6.395   3.317   0.999  1.00  0.00    -0.269 OA
BRANCH  37  40
ATOM     40  C   UNL     1      -6.876   5.426   0.147  1.00  0.00     0.039 A 
ATOM     41  C   UNL     1      -6.381   6.506  -0.449  1.00  0.00     0.014 A 
ATOM     42  C   UNL     1      -7.578   5.788   1.338  1.00  0.00     0.014 A 
ATOM     43  C   UNL     1      -6.049   7.628   0.637  1.00  0.00     0.010 A 
ATOM     44  C   UNL     1      -7.728   7.051   1.956  1.00  0.00     0.010 A 
ATOM     45  C   UNL     1      -6.484   7.521   2.304  1.00  0.00    -0.014 A 
BRANCH  45  46
ATOM     46  C   UNL     1      -6.421   8.009   4.225  1.00  0.00     0.031 A 
ATOM     47  C   UNL     1      -7.661   9.264   3.192  1.00  0.00     0.074 A 
ATOM     48  C   UNL     1      -5.710   7.245   5.768  1.00  0.00     0.049 A 
ATOM     49  N   UNL     1      -7.297  10.284   2.335  1.00  0.00    -0.248 NA
ATOM     50  C   UNL     1      -9.262   9.356   2.120  1.00  0.00     0.031 C 
ATOM     51  C   UNL     1      -4.971   6.452   7.404  1.00  0.00     0.029 A 
ATOM     52  N   UNL     1      -5.424   8.062   7.352  1.00  0.00    -0.354 N 
ATOM     53  C   UNL     1      -8.458  11.206   2.356  1.00  0.00     0.074 A 
ATOM     54  C   UNL     1      -9.637  10.649   1.895  1.00  0.00     0.031 C 
ATOM     55  C   UNL     1      -4.961   6.327   8.907  1.00  0.00     0.029 A 
ATOM     56  C   UNL     1      -5.655   7.511   8.950  1.00  0.00     0.049 A 
ATOM     57  H   UNL     1      -5.076   8.980   7.282  1.00  0.00     0.167 HD
ATOM     58  C   UNL     1      -8.623  11.915   3.481  1.00  0.00     0.037 A 
ATOM     59  C   UNL     1      -6.400   7.957  10.039  1.00  0.00     0.037 A 
ATOM     60  C   UNL     1      -7.360  11.948   4.079  1.00  0.00     0.049 A 
ATOM     61  C   UNL     1      -6.763   9.083   9.227  1.00  0.00     0.074 A 
ATOM     62  C   UNL     1      -6.150  12.234   3.486  1.00  0.00     0.029 A 
ATOM     63  N   UNL     1      -7.146  11.043   5.057  1.00  0.00    -0.354 N 
ATOM     64  N   UNL     1      -5.883   9.970   8.813  1.00  0.00    -0.248 NA
ATOM     65  C   UNL     1      -7.946   8.822   8.434  1.00  0.00     0.031 C 
ATOM     66  C   UNL     1      -5.175  11.610   4.251  1.00  0.00     0.029 A 
ATOM     67  C   UNL     1      -5.811  10.927   5.263  1.00  0.00     0.049 A 
ATOM     68  H   UNL     1      -7.845  10.548   5.543  1.00  0.00     0.167 HD
ATOM     69  C   UNL     1      -6.230  10.179   7.484  1.00  0.00     0.074 A 
ATOM     70  C   UNL     1      -7.592   9.547   7.380  1.00  0.00     0.031 C 
ATOM     71  C   UNL     1      -5.311  10.374   6.457  1.00  0.00     0.037 A 
BRANCH  58  72
ATOM     72  C   UNL     1      -9.880  12.347   4.102  1.00  0.00     0.064 A 
ATOM     73  C   UNL     1      -9.798  13.663   4.522  1.00  0.00     0.173 A 
ATOM     74  C   UNL     1     -11.068  11.621   4.345  1.00  0.00     0.173 A 
ATOM     75  F   UNL     1      -8.686  14.369   4.272  1.00  0.00    -0.203 F 
ATOM     76  C   UNL     1     -10.843  14.256   5.183  1.00  0.00     0.198 A 
ATOM     77  C   UNL     1     -12.133  12.232   4.997  1.00  0.00     0.198 A 
ATOM     78  F   UNL     1     -11.218  10.340   3.967  1.00  0.00    -0.203 F 
ATOM     79  F   UNL     1     -10.709  15.520   5.593  1.00  0.00    -0.200 F 
ATOM     80  C   UNL     1     -12.008  13.546   5.422  1.00  0.00     0.200 A 
ATOM     81  F   UNL     1     -13.267  11.554   5.226  1.00  0.00    -0.200 F 
ATOM     82  F   UNL     1     -13.012  14.141   6.073  1.00  0.00    -0.200 F 
ENDBRANCH  58  72
BRANCH  59  83
ATOM     83  C   UNL     1      -7.321   7.131  10.998  1.00  0.00     0.064 A 
ATOM     84  C   UNL     1      -7.539   7.479  12.351  1.00  0.00     0.173 A 
ATOM     85  C   UNL     1      -8.193   6.118  10.515  1.00  0.00     0.173 A 
ATOM     86  F   UNL     1      -6.710   8.338  12.957  1.00  0.00    -0.203 F 
ATOM     87  C   UNL     1      -8.629   6.983  13.104  1.00  0.00     0.198 A 
ATOM     88  C   UNL     1      -9.291   5.628  11.259  1.00  0.00     0.198 A 
ATOM     89  F   UNL     1      -8.027   5.635   9.276  1.00  0.00    -0.203 F 
ATOM     90  F   UNL     1      -8.847   7.431  14.351  1.00  0.00    -0.200 F 
ATOM     91  C   UNL     1      -9.525   6.089  12.543  1.00  0.00     0.200 A 
ATOM     92  F   UNL     1     -10.160   4.768  10.701  1.00  0.00    -0.200 F 
ATOM     93  F   UNL     1     -10.608   5.690  13.228  1.00  0.00    -0.200 F 
ENDBRANCH  59  83
BRANCH  71  94
ATOM     94  C   UNL     1      -3.765  10.329   6.586  1.00  0.00     0.064 A 
ATOM     95  C   UNL     1      -2.880   9.212   6.445  1.00  0.00     0.173 A 
ATOM     96  C   UNL     1      -3.127  11.549   6.760  1.00  0.00     0.173 A 
ATOM     97  F   UNL     1      -3.276   7.977   6.136  1.00  0.00    -0.203 F 
ATOM     98  C   UNL     1      -1.515   9.280   6.673  1.00  0.00     0.198 A 
ATOM     99  C   UNL     1      -1.738  11.636   6.877  1.00  0.00     0.198 A 
ATOM    100  F   UNL     1      -3.851  12.677   6.756  1.00  0.00    -0.203 F 
ATOM    101  F   UNL     1      -0.785   8.152   6.690  1.00  0.00    -0.200 F 
ATOM    102  C   UNL     1      -0.939  10.502   6.870  1.00  0.00     0.200 A 
ATOM    103  F   UNL     1      -1.166  12.838   7.007  1.00  0.00    -0.200 F 
ATOM    104  F   UNL     1       0.387  10.585   7.018  1.00  0.00    -0.200 F 
ENDBRANCH  71  94
ENDBRANCH  45  46
ENDBRANCH  37  40
ENDBRANCH  35  36
ENDBRANCH  34  35
ENDBRANCH   1  34
TORSDOF 14
