REMARK SMILES Cc1ccc2occ(/C=N/NC(=O)CCC(=O)Nc3ccc(C(=O)NCCCCNC(=O)c4ccc(-c5c6nc(c(-c7c(F)c(F)c(F)c(F)c7F)c7ccc([nH]7)c(-c7c(F)c(F)c(F)c(F)c7F)c7nc(c(-c8c(F)c(F)c(F)c(F)c8F)c8ccc5[nH]8)C=C7)C=C6)cc4)cc3)c(=O)c2c1
REMARK SMILES IDX 23 1 24 2 25 3 22 5 19 6 20 7 97 8 21 9 96 10 18 11 16 12
REMARK SMILES IDX 17 13 15 15 14 16 12 17 11 18 13 20 10 21 9 22 8 23 1 24
REMARK SMILES IDX 2 25 3 26 101 27 4 28 100 29 5 30 98 31 6 32 99 33 7 34
REMARK SMILES IDX 26 35 27 36 28 37 29 38 30 39 31 40 32 42 33 43 34 44 95 45
REMARK SMILES IDX 35 46 94 47 36 48 37 49 38 50 88 51 39 52 93 53 87 54 89 55
REMARK SMILES IDX 40 56 92 57 86 58 85 59 41 61 73 62 53 63 72 64 54 65 57 66
REMARK SMILES IDX 71 67 90 68 55 69 56 70 70 72 91 73 58 74 42 75 43 76 51 77
REMARK SMILES IDX 44 78 45 79 49 80 52 81 46 82 47 83 50 84 48 85 74 86 75 87
REMARK SMILES IDX 83 88 76 89 77 90 81 91 84 92 78 93 79 94 82 95 80 96 59 97
REMARK SMILES IDX 60 98 68 99 61 100 62 101 66 102 69 103 63 104 64 105 67 106
REMARK SMILES IDX 65 107
REMARK H PARENT 25 4 18 14 11 19 30 41 89 60 57 71
REMARK Flexibility Score: inf
ROOT
ATOM      1  C   UNL     1      10.977   1.454  -1.032  1.00  0.00     0.251 C 
ATOM      2  O   UNL     1      11.792   0.603  -1.384  1.00  0.00    -0.269 OA
ATOM      3  N   UNL     1      11.448   2.586  -0.393  1.00  0.00    -0.352 N 
ATOM      4  H   UNL     1      12.418   2.564  -0.221  1.00  0.00     0.163 HD
ENDROOT
BRANCH   1   5
ATOM      5  C   UNL     1       9.538   1.244  -1.344  1.00  0.00     0.039 A 
ATOM      6  C   UNL     1       6.793   1.020  -2.046  1.00  0.00     0.041 A 
ATOM      7  C   UNL     1       7.743   0.184  -2.638  1.00  0.00     0.027 A 
ATOM      8  C   UNL     1       7.256   1.928  -1.126  1.00  0.00     0.027 A 
ATOM      9  C   UNL     1       9.116   0.326  -2.320  1.00  0.00     0.016 A 
ATOM     10  C   UNL     1       8.561   1.953  -0.687  1.00  0.00     0.016 A 
BRANCH   6  11
ATOM     11  N   UNL     1       5.416   0.853  -2.283  1.00  0.00    -0.326 N 
ATOM     12  C   UNL     1       4.319   1.554  -1.839  1.00  0.00     0.224 C 
ATOM     13  O   UNL     1       3.210   1.016  -1.948  1.00  0.00    -0.275 OA
ATOM     14  H   UNL     1       5.199   0.097  -2.875  1.00  0.00     0.169 HD
BRANCH  12  15
ATOM     15  C   UNL     1       4.404   3.003  -1.360  1.00  0.00     0.110 C 
BRANCH  15  16
ATOM     16  C   UNL     1       4.235   3.313   0.136  1.00  0.00     0.112 C 
BRANCH  16  17
ATOM     17  C   UNL     1       5.305   2.841   1.128  1.00  0.00     0.240 C 
ATOM     18  N   UNL     1       5.380   1.511   1.487  1.00  0.00    -0.247 N 
ATOM     19  H   UNL     1       6.105   1.248   2.100  1.00  0.00     0.193 HD
ATOM     20  O   UNL     1       6.162   3.624   1.551  1.00  0.00    -0.273 OA
BRANCH  18  21
ATOM     21  N   UNL     1       4.536   0.534   1.063  1.00  0.00    -0.180 NA
ATOM     22  C   UNL     1       3.312   0.747   1.422  1.00  0.00     0.148 C 
BRANCH  22  23
ATOM     23  C   UNL     1       2.137   0.070   0.872  1.00  0.00     0.078 A 
ATOM     24  C   UNL     1      -3.967   0.806  -0.122  1.00  0.00     0.044 C 
ATOM     25  C   UNL     1      -2.657   0.080  -0.075  1.00  0.00    -0.050 A 
ATOM     26  C   UNL     1      -2.572  -1.308  -0.262  1.00  0.00     0.007 A 
ATOM     27  C   UNL     1      -1.489   0.804   0.160  1.00  0.00     0.019 A 
ATOM     28  C   UNL     1      -1.336  -1.966  -0.205  1.00  0.00     0.048 A 
ATOM     29  C   UNL     1      -0.269   0.135   0.251  1.00  0.00     0.066 A 
ATOM     30  C   UNL     1      -0.179  -1.242   0.061  1.00  0.00     0.137 A 
ATOM     31  C   UNL     1       0.927   0.875   0.641  1.00  0.00     0.201 A 
ATOM     32  O   UNL     1       1.008  -1.931   0.149  1.00  0.00    -0.463 OA
ATOM     33  O   UNL     1       0.910   2.088   0.817  1.00  0.00    -0.288 OA
ATOM     34  C   UNL     1       2.112  -1.236   0.596  1.00  0.00     0.209 A 
ENDBRANCH  22  23
ENDBRANCH  18  21
ENDBRANCH  16  17
ENDBRANCH  15  16
ENDBRANCH  12  15
ENDBRANCH   6  11
ENDBRANCH   1   5
BRANCH   3  35
ATOM     35  C   UNL     1      10.801   3.810   0.079  1.00  0.00     0.116 C 
BRANCH  35  36
ATOM     36  C   UNL     1      10.432   3.721   1.571  1.00  0.00     0.023 C 
BRANCH  36  37
ATOM     37  C   UNL     1      11.559   4.161   2.503  1.00  0.00     0.023 C 
BRANCH  37  38
ATOM     38  C   UNL     1      11.822   5.661   2.474  1.00  0.00     0.116 C 
BRANCH  38  39
ATOM     39  N   UNL     1      10.777   6.452   3.105  1.00  0.00    -0.352 N 
ATOM     40  C   UNL     1      10.912   7.681   3.719  1.00  0.00     0.251 C 
ATOM     41  H   UNL     1       9.871   6.067   3.093  1.00  0.00     0.163 HD
ATOM     42  O   UNL     1       9.978   8.206   4.301  1.00  0.00    -0.269 OA
BRANCH  40  43
ATOM     43  C   UNL     1      12.243   8.332   3.705  1.00  0.00     0.039 A 
ATOM     44  C   UNL     1      12.807   8.737   4.916  1.00  0.00     0.014 A 
ATOM     45  C   UNL     1      12.955   8.469   2.511  1.00  0.00     0.014 A 
ATOM     46  C   UNL     1      14.123   9.204   4.940  1.00  0.00     0.010 A 
ATOM     47  C   UNL     1      14.289   8.863   2.546  1.00  0.00     0.010 A 
ATOM     48  C   UNL     1      14.889   9.226   3.762  1.00  0.00    -0.014 A 
BRANCH  48  49
ATOM     49  C   UNL     1      16.324   9.609   3.780  1.00  0.00     0.031 A 
ATOM     50  C   UNL     1      16.789  10.829   3.037  1.00  0.00     0.074 A 
ATOM     51  C   UNL     1      17.219   8.812   4.397  1.00  0.00     0.049 A 
ATOM     52  N   UNL     1      18.006  11.280   2.864  1.00  0.00    -0.248 NA
ATOM     53  C   UNL     1      15.751  11.633   2.374  1.00  0.00     0.031 C 
ATOM     54  C   UNL     1      16.900   7.572   5.106  1.00  0.00     0.029 A 
ATOM     55  N   UNL     1      18.582   8.921   4.515  1.00  0.00    -0.354 N 
ATOM     56  C   UNL     1      17.881  12.406   2.063  1.00  0.00     0.074 A 
ATOM     57  C   UNL     1      16.477  12.542   1.739  1.00  0.00     0.031 C 
ATOM     58  C   UNL     1      18.032   7.045   5.601  1.00  0.00     0.029 A 
ATOM     59  C   UNL     1      19.159   7.889   5.216  1.00  0.00     0.049 A 
ATOM     60  H   UNL     1      19.099   9.667   4.133  1.00  0.00     0.167 HD
ATOM     61  C   UNL     1      18.846  13.263   1.653  1.00  0.00     0.037 A 
ATOM     62  C   UNL     1      20.451   7.648   5.508  1.00  0.00     0.037 A 
ATOM     63  C   UNL     1      20.238  13.143   2.002  1.00  0.00     0.049 A 
ATOM     64  C   UNL     1      21.504   8.618   5.045  1.00  0.00     0.074 A 
ATOM     65  C   UNL     1      21.281  13.996   1.691  1.00  0.00     0.029 A 
ATOM     66  N   UNL     1      20.779  12.100   2.738  1.00  0.00    -0.354 N 
ATOM     67  N   UNL     1      21.365   9.721   4.350  1.00  0.00    -0.248 NA
ATOM     68  C   UNL     1      22.894   8.314   5.413  1.00  0.00     0.031 C 
ATOM     69  C   UNL     1      22.462  13.449   2.204  1.00  0.00     0.029 A 
ATOM     70  C   UNL     1      22.146  12.279   2.876  1.00  0.00     0.049 A 
ATOM     71  H   UNL     1      20.268  11.344   3.109  1.00  0.00     0.167 HD
ATOM     72  C   UNL     1      22.639  10.257   4.225  1.00  0.00     0.074 A 
ATOM     73  C   UNL     1      23.539   9.364   4.923  1.00  0.00     0.031 C 
ATOM     74  C   UNL     1      23.027  11.389   3.588  1.00  0.00     0.037 A 
BRANCH  61  75
ATOM     75  C   UNL     1      18.429  14.414   0.786  1.00  0.00     0.064 A 
ATOM     76  C   UNL     1      17.669  15.479   1.294  1.00  0.00     0.173 A 
ATOM     77  C   UNL     1      18.822  14.473  -0.559  1.00  0.00     0.173 A 
ATOM     78  F   UNL     1      17.258  15.466   2.571  1.00  0.00    -0.203 F 
ATOM     79  C   UNL     1      17.294  16.545   0.481  1.00  0.00     0.198 A 
ATOM     80  C   UNL     1      18.471  15.555  -1.362  1.00  0.00     0.198 A 
ATOM     81  F   UNL     1      19.555  13.484  -1.094  1.00  0.00    -0.203 F 
ATOM     82  F   UNL     1      16.527  17.526   0.976  1.00  0.00    -0.200 F 
ATOM     83  C   UNL     1      17.701  16.585  -0.844  1.00  0.00     0.200 A 
ATOM     84  F   UNL     1      18.876  15.599  -2.639  1.00  0.00    -0.200 F 
ATOM     85  F   UNL     1      17.345  17.615  -1.625  1.00  0.00    -0.200 F 
ENDBRANCH  61  75
BRANCH  62  86
ATOM     86  C   UNL     1      20.820   6.449   6.306  1.00  0.00     0.064 A 
ATOM     87  C   UNL     1      21.283   6.578   7.622  1.00  0.00     0.173 A 
ATOM     88  C   UNL     1      20.721   5.157   5.772  1.00  0.00     0.173 A 
ATOM     89  F   UNL     1      21.415   7.796   8.169  1.00  0.00    -0.203 F 
ATOM     90  C   UNL     1      21.652   5.461   8.369  1.00  0.00     0.198 A 
ATOM     91  C   UNL     1      21.065   4.038   6.529  1.00  0.00     0.198 A 
ATOM     92  F   UNL     1      20.279   4.979   4.518  1.00  0.00    -0.203 F 
ATOM     93  F   UNL     1      22.133   5.617   9.610  1.00  0.00    -0.200 F 
ATOM     94  C   UNL     1      21.537   4.192   7.824  1.00  0.00     0.200 A 
ATOM     95  F   UNL     1      20.940   2.812   6.003  1.00  0.00    -0.200 F 
ATOM     96  F   UNL     1      21.889   3.117   8.543  1.00  0.00    -0.200 F 
ENDBRANCH  62  86
BRANCH  74  97
ATOM     97  C   UNL     1      24.481  11.753   3.651  1.00  0.00     0.064 A 
ATOM     98  C   UNL     1      25.449  11.052   2.918  1.00  0.00     0.173 A 
ATOM     99  C   UNL     1      24.902  12.853   4.414  1.00  0.00     0.173 A 
ATOM    100  F   UNL     1      25.098   9.984   2.186  1.00  0.00    -0.203 F 
ATOM    101  C   UNL     1      26.789  11.427   2.962  1.00  0.00     0.198 A 
ATOM    102  C   UNL     1      26.238  13.242   4.433  1.00  0.00     0.198 A 
ATOM    103  F   UNL     1      24.014  13.560   5.129  1.00  0.00    -0.203 F 
ATOM    104  F   UNL     1      27.703  10.719   2.284  1.00  0.00    -0.200 F 
ATOM    105  C   UNL     1      27.181  12.526   3.712  1.00  0.00     0.200 A 
ATOM    106  F   UNL     1      26.613  14.312   5.148  1.00  0.00    -0.200 F 
ATOM    107  F   UNL     1      28.470  12.892   3.743  1.00  0.00    -0.200 F 
ENDBRANCH  74  97
ENDBRANCH  48  49
ENDBRANCH  40  43
ENDBRANCH  38  39
ENDBRANCH  37  38
ENDBRANCH  36  37
ENDBRANCH  35  36
ENDBRANCH   3  35
TORSDOF 17
