REMARK SMILES O=C(NCCCCNC(=O)[C@@]12CCC(=O)N1c1cc(Cl)ccc1S2)c1ccc(-c2c3nc(c(-c4c(F)c(F)c(F)c(F)c4F)c4ccc([nH]4)c(-c4c(F)c(F)c(F)c(F)c4F)c4nc(c(-c5c(F)c(F)c(F)c(F)c5F)c5ccc2[nH]5)C=C4)C=C3)cc1
REMARK SMILES IDX 4 1 3 2 1 3 2 4 25 6 26 7 87 8 27 9 86 10 28 11 29 12 30 13
REMARK SMILES IDX 80 14 31 15 85 16 79 17 81 18 32 19 84 20 78 21 77 22 33 24
REMARK SMILES IDX 65 25 45 26 64 27 46 28 49 29 63 30 82 31 47 32 48 33 62 35
REMARK SMILES IDX 83 36 50 37 34 38 35 39 43 40 36 41 37 42 41 43 44 44 38 45
REMARK SMILES IDX 39 46 42 47 40 48 66 49 67 50 75 51 68 52 69 53 73 54 76 55
REMARK SMILES IDX 70 56 71 57 74 58 72 59 51 60 52 61 60 62 53 63 54 64 58 65
REMARK SMILES IDX 61 66 55 67 56 68 59 69 57 70 5 71 6 72 7 73 8 74 9 75 10 77
REMARK SMILES IDX 11 78 12 79 16 80 24 81 13 82 14 83 17 84 23 85 15 86 18 87
REMARK SMILES IDX 22 88 19 89 21 90 20 91
REMARK H PARENT 3 5 81 23 49 34 8 76
REMARK Flexibility Score: inf
ROOT
ATOM      1  C   UNL     1       4.790  -1.222  -0.544  1.00  0.00     0.116 C 
ENDROOT
BRANCH   1   2
ATOM      2  N   UNL     1       3.359  -1.021  -0.693  1.00  0.00    -0.352 N 
ATOM      3  O   UNL     1       1.328  -0.155  -0.271  1.00  0.00    -0.269 OA
ATOM      4  C   UNL     1       2.536  -0.124  -0.057  1.00  0.00     0.251 C 
ATOM      5  H   UNL     1       2.915  -1.613  -1.343  1.00  0.00     0.163 HD
BRANCH   4   6
ATOM      6  C   UNL     1       3.089   0.857   0.903  1.00  0.00     0.039 A 
ATOM      7  C   UNL     1       2.357   1.139   2.061  1.00  0.00     0.014 A 
ATOM      8  C   UNL     1       4.291   1.526   0.662  1.00  0.00     0.014 A 
ATOM      9  C   UNL     1       2.840   2.072   2.980  1.00  0.00     0.010 A 
ATOM     10  C   UNL     1       4.816   2.389   1.619  1.00  0.00     0.010 A 
ATOM     11  C   UNL     1       4.078   2.699   2.769  1.00  0.00    -0.014 A 
BRANCH  11  12
ATOM     12  C   UNL     1       4.564   3.756   3.689  1.00  0.00     0.031 A 
ATOM     13  C   UNL     1       4.686   5.171   3.194  1.00  0.00     0.074 A 
ATOM     14  C   UNL     1       4.907   3.449   4.954  1.00  0.00     0.049 A 
ATOM     15  N   UNL     1       5.093   6.239   3.831  1.00  0.00    -0.248 NA
ATOM     16  C   UNL     1       4.333   5.414   1.785  1.00  0.00     0.031 C 
ATOM     17  C   UNL     1       4.873   2.107   5.536  1.00  0.00     0.029 A 
ATOM     18  N   UNL     1       5.345   4.248   5.979  1.00  0.00    -0.354 N 
ATOM     19  C   UNL     1       5.055   7.268   2.899  1.00  0.00     0.074 A 
ATOM     20  C   UNL     1       4.659   6.688   1.637  1.00  0.00     0.031 C 
ATOM     21  C   UNL     1       5.231   2.183   6.829  1.00  0.00     0.029 A 
ATOM     22  C   UNL     1       5.544   3.572   7.157  1.00  0.00     0.049 A 
ATOM     23  H   UNL     1       5.502   5.215   5.880  1.00  0.00     0.167 HD
ATOM     24  C   UNL     1       5.288   8.588   3.088  1.00  0.00     0.037 A 
ATOM     25  C   UNL     1       5.923   4.026   8.367  1.00  0.00     0.037 A 
ATOM     26  C   UNL     1       5.626   9.171   4.356  1.00  0.00     0.049 A 
ATOM     27  C   UNL     1       6.189   5.495   8.553  1.00  0.00     0.074 A 
ATOM     28  C   UNL     1       5.793  10.506   4.672  1.00  0.00     0.029 A 
ATOM     29  N   UNL     1       5.843   8.449   5.519  1.00  0.00    -0.354 N 
ATOM     30  N   UNL     1       6.077   6.470   7.684  1.00  0.00    -0.248 NA
ATOM     31  C   UNL     1       6.637   5.928   9.885  1.00  0.00     0.031 C 
ATOM     32  C   UNL     1       6.152  10.590   6.021  1.00  0.00     0.029 A 
ATOM     33  C   UNL     1       6.174   9.310   6.552  1.00  0.00     0.049 A 
ATOM     34  H   UNL     1       5.773   7.470   5.599  1.00  0.00     0.167 HD
ATOM     35  C   UNL     1       6.428   7.630   8.362  1.00  0.00     0.074 A 
ATOM     36  C   UNL     1       6.742   7.240   9.721  1.00  0.00     0.031 C 
ATOM     37  C   UNL     1       6.487   8.901   7.897  1.00  0.00     0.037 A 
BRANCH  24  38
ATOM     38  C   UNL     1       5.155   9.491   1.898  1.00  0.00     0.064 A 
ATOM     39  C   UNL     1       3.904   9.771   1.327  1.00  0.00     0.173 A 
ATOM     40  C   UNL     1       6.285  10.104   1.337  1.00  0.00     0.173 A 
ATOM     41  F   UNL     1       2.795   9.198   1.819  1.00  0.00    -0.203 F 
ATOM     42  C   UNL     1       3.792  10.604   0.218  1.00  0.00     0.198 A 
ATOM     43  C   UNL     1       6.166  10.961   0.246  1.00  0.00     0.198 A 
ATOM     44  F   UNL     1       7.503   9.875   1.849  1.00  0.00    -0.203 F 
ATOM     45  F   UNL     1       2.593  10.812  -0.343  1.00  0.00    -0.200 F 
ATOM     46  C   UNL     1       4.922  11.203  -0.318  1.00  0.00     0.200 A 
ATOM     47  F   UNL     1       7.257  11.548  -0.265  1.00  0.00    -0.200 F 
ATOM     48  F   UNL     1       4.812  12.008  -1.384  1.00  0.00    -0.200 F 
ENDBRANCH  24  38
BRANCH  25  49
ATOM     49  C   UNL     1       6.021   3.078   9.506  1.00  0.00     0.064 A 
ATOM     50  C   UNL     1       5.059   3.088  10.526  1.00  0.00     0.173 A 
ATOM     51  C   UNL     1       7.043   2.122   9.580  1.00  0.00     0.173 A 
ATOM     52  F   UNL     1       4.073   3.997  10.506  1.00  0.00    -0.203 F 
ATOM     53  C   UNL     1       5.117   2.177  11.578  1.00  0.00     0.198 A 
ATOM     54  C   UNL     1       7.088   1.197  10.622  1.00  0.00     0.198 A 
ATOM     55  F   UNL     1       7.984   2.070   8.626  1.00  0.00    -0.203 F 
ATOM     56  F   UNL     1       4.196   2.220  12.550  1.00  0.00    -0.200 F 
ATOM     57  C   UNL     1       6.126   1.227  11.620  1.00  0.00     0.200 A 
ATOM     58  F   UNL     1       8.057   0.272  10.653  1.00  0.00    -0.200 F 
ATOM     59  F   UNL     1       6.172   0.340  12.624  1.00  0.00    -0.200 F 
ENDBRANCH  25  49
BRANCH  37  60
ATOM     60  C   UNL     1       6.920   9.975   8.849  1.00  0.00     0.064 A 
ATOM     61  C   UNL     1       8.270  10.133   9.192  1.00  0.00     0.173 A 
ATOM     62  C   UNL     1       6.001  10.922   9.324  1.00  0.00     0.173 A 
ATOM     63  F   UNL     1       9.182   9.245   8.770  1.00  0.00    -0.203 F 
ATOM     64  C   UNL     1       8.685  11.207   9.974  1.00  0.00     0.198 A 
ATOM     65  C   UNL     1       6.423  12.007  10.086  1.00  0.00     0.198 A 
ATOM     66  F   UNL     1       4.700  10.816   9.013  1.00  0.00    -0.203 F 
ATOM     67  F   UNL     1       9.979  11.335  10.300  1.00  0.00    -0.200 F 
ATOM     68  C   UNL     1       7.764  12.149  10.409  1.00  0.00     0.200 A 
ATOM     69  F   UNL     1       5.535  12.925  10.492  1.00  0.00    -0.200 F 
ATOM     70  F   UNL     1       8.171  13.198  11.138  1.00  0.00    -0.200 F 
ENDBRANCH  37  60
ENDBRANCH  11  12
ENDBRANCH   4   6
ENDBRANCH   1   2
BRANCH   1  71
ATOM     71  C   UNL     1       5.244  -2.658  -0.781  1.00  0.00     0.023 C 
BRANCH  71  72
ATOM     72  C   UNL     1       4.744  -3.309  -2.073  1.00  0.00     0.023 C 
BRANCH  72  73
ATOM     73  C   UNL     1       5.035  -2.530  -3.355  1.00  0.00     0.116 C 
BRANCH  73  74
ATOM     74  N   UNL     1       6.211  -2.939  -4.110  1.00  0.00    -0.353 N 
ATOM     75  C   UNL     1       6.479  -4.012  -4.927  1.00  0.00     0.257 C 
ATOM     76  H   UNL     1       6.970  -2.320  -4.017  1.00  0.00     0.163 HD
ATOM     77  O   UNL     1       7.434  -3.854  -5.698  1.00  0.00    -0.271 OA
BRANCH  75  78
ATOM     78  C   UNL     1       5.756  -5.402  -4.794  1.00  0.00     0.177 C 
ATOM     79  C   UNL     1       4.228  -5.322  -4.721  1.00  0.00     0.061 C 
ATOM     80  N   UNL     1       5.947  -6.276  -5.960  1.00  0.00    -0.287 N 
ATOM     81  S   UNL     1       6.586  -6.262  -3.375  1.00  0.00    -0.085 SA
ATOM     82  C   UNL     1       3.692  -5.883  -6.041  1.00  0.00     0.104 C 
ATOM     83  C   UNL     1       4.914  -6.132  -6.875  1.00  0.00     0.228 C 
ATOM     84  C   UNL     1       6.396  -7.586  -5.641  1.00  0.00     0.061 A 
ATOM     85  C   UNL     1       6.789  -7.742  -4.312  1.00  0.00     0.034 A 
ATOM     86  O   UNL     1       4.907  -6.395  -8.066  1.00  0.00    -0.274 OA
ATOM     87  C   UNL     1       6.236  -8.702  -6.458  1.00  0.00     0.048 A 
ATOM     88  C   UNL     1       7.076  -8.991  -3.783  1.00  0.00     0.019 A 
ATOM     89  C   UNL     1       6.447  -9.967  -5.910  1.00  0.00     0.043 A 
ATOM     90  C   UNL     1       6.883 -10.115  -4.588  1.00  0.00     0.022 A 
ATOM     91  Cl  UNL     1       6.065 -11.367  -6.835  1.00  0.00    -0.084 Cl
ENDBRANCH  75  78
ENDBRANCH  73  74
ENDBRANCH  72  73
ENDBRANCH  71  72
ENDBRANCH   1  71
TORSDOF 11
