REMARK SMILES CC(C)Cc1cc2c(cc1Cl)C=C(C(=O)NCCCCNC(=O)c1ccc(-c3c4nc(c(-c5c(F)c(F)c(F)c(F)c5F)c5ccc([nH]5)c(-c5c(F)c(F)c(F)c(F)c5F)c5nc(c(-c6c(F)c(F)c(F)c(F)c6F)c6ccc3[nH]6)C=C5)C=C4)cc1)[C@@H](C(F)(F)F)O2
REMARK SMILES IDX 18 1 17 2 16 3 14 4 15 5 13 7 5 8 6 9 10 10 7 11 9 12 11 13
REMARK SMILES IDX 8 14 92 15 12 16 87 17 4 18 2 19 1 20 3 21 88 22 89 23 90 24
REMARK SMILES IDX 91 25 19 26 20 27 21 28 22 29 23 31 24 32 25 33 86 34 26 35
REMARK SMILES IDX 85 36 27 37 28 38 29 39 79 40 30 41 84 42 78 43 80 44 31 45
REMARK SMILES IDX 83 46 77 47 76 48 32 50 64 51 44 52 63 53 45 54 48 55 62 56
REMARK SMILES IDX 81 57 46 58 47 59 61 61 82 62 49 63 33 64 34 65 42 66 35 67
REMARK SMILES IDX 36 68 40 69 43 70 37 71 38 72 41 73 39 74 65 75 66 76 74 77
REMARK SMILES IDX 67 78 68 79 72 80 75 81 69 82 70 83 73 84 71 85 50 86 51 87
REMARK SMILES IDX 59 88 52 89 53 90 57 91 60 92 54 93 55 94 58 95 56 96
REMARK H PARENT 16 6 21 30 80 49 48 60
REMARK Flexibility Score: inf
ROOT
ATOM      1  C   UNL     1       0.194  -7.517   3.447  1.00  0.00     0.023 C 
ENDROOT
BRANCH   1   2
ATOM      2  C   UNL     1      -1.277  -7.234   3.155  1.00  0.00     0.116 C 
BRANCH   2   3
ATOM      3  N   UNL     1      -1.921  -6.476   4.216  1.00  0.00    -0.352 N 
ATOM      4  C   UNL     1      -2.345  -5.202   4.405  1.00  0.00     0.251 C 
ATOM      5  O   UNL     1      -2.882  -4.981   5.495  1.00  0.00    -0.270 OA
ATOM      6  H   UNL     1      -2.094  -7.036   5.007  1.00  0.00     0.163 HD
BRANCH   4   7
ATOM      7  C   UNL     1      -2.194  -4.089   3.419  1.00  0.00     0.067 C 
ATOM      8  C   UNL     1      -1.573   0.482   1.346  1.00  0.00    -0.025 A 
ATOM      9  C   UNL     1      -1.466  -0.840   0.892  1.00  0.00     0.052 A 
ATOM     10  C   UNL     1      -2.065   0.694   2.642  1.00  0.00     0.045 A 
ATOM     11  C   UNL     1      -1.740  -1.913   1.732  1.00  0.00     0.128 A 
ATOM     12  C   UNL     1      -2.392  -0.391   3.470  1.00  0.00     0.032 A 
ATOM     13  Cl  UNL     1      -2.261   2.281   3.295  1.00  0.00    -0.084 Cl
ATOM     14  C   UNL     1      -2.199  -1.703   3.026  1.00  0.00     0.019 A 
ATOM     15  O   UNL     1      -1.447  -3.137   1.220  1.00  0.00    -0.475 OA
ATOM     16  C   UNL     1      -2.386  -2.849   3.907  1.00  0.00     0.025 C 
ATOM     17  C   UNL     1      -1.867  -4.303   1.968  1.00  0.00     0.314 C 
BRANCH   8  18
ATOM     18  C   UNL     1      -1.075   1.579   0.431  1.00  0.00     0.040 C 
BRANCH  18  19
ATOM     19  C   UNL     1       0.458   1.784   0.493  1.00  0.00    -0.013 C 
ATOM     20  C   UNL     1       1.258   0.569   0.003  1.00  0.00     0.008 C 
ATOM     21  C   UNL     1       0.849   3.000  -0.351  1.00  0.00     0.008 C 
ENDBRANCH  18  19
ENDBRANCH   8  18
BRANCH  17  22
ATOM     22  C   UNL     1      -3.010  -4.970   1.183  1.00  0.00     0.429 C 
ATOM     23  F   UNL     1      -2.550  -5.444  -0.002  1.00  0.00    -0.167 F 
ATOM     24  F   UNL     1      -3.549  -6.027   1.833  1.00  0.00    -0.167 F 
ATOM     25  F   UNL     1      -4.019  -4.112   0.914  1.00  0.00    -0.167 F 
ENDBRANCH  17  22
ENDBRANCH   4   7
ENDBRANCH   2   3
ENDBRANCH   1   2
BRANCH   1  26
ATOM     26  C   UNL     1       0.446  -8.791   4.257  1.00  0.00     0.023 C 
BRANCH  26  27
ATOM     27  C   UNL     1      -0.144 -10.071   3.670  1.00  0.00     0.116 C 
BRANCH  27  28
ATOM     28  N   UNL     1       0.240 -10.344   2.291  1.00  0.00    -0.352 N 
ATOM     29  C   UNL     1       0.208 -11.558   1.636  1.00  0.00     0.251 C 
ATOM     30  H   UNL     1       0.560  -9.575   1.767  1.00  0.00     0.163 HD
ATOM     31  O   UNL     1       0.635 -11.672   0.493  1.00  0.00    -0.269 OA
BRANCH  29  32
ATOM     32  C   UNL     1      -0.291 -12.739   2.370  1.00  0.00     0.039 A 
ATOM     33  C   UNL     1      -1.519 -12.683   3.028  1.00  0.00     0.014 A 
ATOM     34  C   UNL     1       0.534 -13.859   2.502  1.00  0.00     0.014 A 
ATOM     35  C   UNL     1      -1.825 -13.647   3.978  1.00  0.00     0.010 A 
ATOM     36  C   UNL     1       0.180 -14.874   3.395  1.00  0.00     0.010 A 
ATOM     37  C   UNL     1      -0.965 -14.738   4.195  1.00  0.00    -0.014 A 
BRANCH  37  38
ATOM     38  C   UNL     1      -1.268 -15.675   5.309  1.00  0.00     0.031 A 
ATOM     39  C   UNL     1      -0.368 -15.752   6.515  1.00  0.00     0.074 A 
ATOM     40  C   UNL     1      -2.420 -16.371   5.284  1.00  0.00     0.049 A 
ATOM     41  N   UNL     1      -0.538 -16.421   7.629  1.00  0.00    -0.248 NA
ATOM     42  C   UNL     1       0.885 -14.981   6.472  1.00  0.00     0.031 C 
ATOM     43  C   UNL     1      -3.376 -16.369   4.176  1.00  0.00     0.029 A 
ATOM     44  N   UNL     1      -3.008 -17.171   6.231  1.00  0.00    -0.354 N 
ATOM     45  C   UNL     1       0.586 -16.166   8.404  1.00  0.00     0.074 A 
ATOM     46  C   UNL     1       1.449 -15.305   7.627  1.00  0.00     0.031 C 
ATOM     47  C   UNL     1      -4.466 -17.062   4.537  1.00  0.00     0.029 A 
ATOM     48  C   UNL     1      -4.263 -17.602   5.878  1.00  0.00     0.049 A 
ATOM     49  H   UNL     1      -2.572 -17.412   7.081  1.00  0.00     0.167 HD
ATOM     50  C   UNL     1       0.864 -16.595   9.658  1.00  0.00     0.037 A 
ATOM     51  C   UNL     1      -5.155 -18.344   6.561  1.00  0.00     0.037 A 
ATOM     52  C   UNL     1      -0.013 -17.417  10.449  1.00  0.00     0.049 A 
ATOM     53  C   UNL     1      -4.806 -18.835   7.936  1.00  0.00     0.074 A 
ATOM     54  C   UNL     1       0.164 -17.863  11.747  1.00  0.00     0.029 A 
ATOM     55  N   UNL     1      -1.234 -17.911  10.018  1.00  0.00    -0.354 N 
ATOM     56  N   UNL     1      -3.747 -18.572   8.660  1.00  0.00    -0.248 NA
ATOM     57  C   UNL     1      -5.767 -19.742   8.580  1.00  0.00     0.031 C 
ATOM     58  C   UNL     1      -0.934 -18.658  12.089  1.00  0.00     0.029 A 
ATOM     59  C   UNL     1      -1.809 -18.681  11.015  1.00  0.00     0.049 A 
ATOM     60  H   UNL     1      -1.633 -17.740   9.134  1.00  0.00     0.167 HD
ATOM     61  C   UNL     1      -3.909 -19.281   9.841  1.00  0.00     0.074 A 
ATOM     62  C   UNL     1      -5.182 -19.965   9.750  1.00  0.00     0.031 C 
ATOM     63  C   UNL     1      -3.071 -19.364  10.902  1.00  0.00     0.037 A 
BRANCH  50  64
ATOM     64  C   UNL     1       2.171 -16.185  10.268  1.00  0.00     0.064 A 
ATOM     65  C   UNL     1       2.378 -14.885  10.749  1.00  0.00     0.173 A 
ATOM     66  C   UNL     1       3.198 -17.125  10.444  1.00  0.00     0.173 A 
ATOM     67  F   UNL     1       1.430 -13.949  10.595  1.00  0.00    -0.203 F 
ATOM     68  C   UNL     1       3.572 -14.537  11.377  1.00  0.00     0.198 A 
ATOM     69  C   UNL     1       4.382 -16.779  11.091  1.00  0.00     0.198 A 
ATOM     70  F   UNL     1       3.045 -18.384  10.007  1.00  0.00    -0.203 F 
ATOM     71  F   UNL     1       3.759 -13.282  11.807  1.00  0.00    -0.200 F 
ATOM     72  C   UNL     1       4.569 -15.486  11.554  1.00  0.00     0.200 A 
ATOM     73  F   UNL     1       5.339 -17.699  11.271  1.00  0.00    -0.200 F 
ATOM     74  F   UNL     1       5.711 -15.152  12.171  1.00  0.00    -0.200 F 
ENDBRANCH  50  64
BRANCH  51  75
ATOM     75  C   UNL     1      -6.472 -18.651   5.948  1.00  0.00     0.064 A 
ATOM     76  C   UNL     1      -7.644 -18.056   6.432  1.00  0.00     0.173 A 
ATOM     77  C   UNL     1      -6.580 -19.512   4.846  1.00  0.00     0.173 A 
ATOM     78  F   UNL     1      -7.591 -17.240   7.495  1.00  0.00    -0.203 F 
ATOM     79  C   UNL     1      -8.877 -18.310   5.836  1.00  0.00     0.198 A 
ATOM     80  C   UNL     1      -7.810 -19.747   4.236  1.00  0.00     0.198 A 
ATOM     81  F   UNL     1      -5.485 -20.103   4.347  1.00  0.00    -0.203 F 
ATOM     82  F   UNL     1      -9.987 -17.746   6.330  1.00  0.00    -0.200 F 
ATOM     83  C   UNL     1      -8.958 -19.148   4.733  1.00  0.00     0.200 A 
ATOM     84  F   UNL     1      -7.880 -20.545   3.162  1.00  0.00    -0.200 F 
ATOM     85  F   UNL     1     -10.142 -19.380   4.150  1.00  0.00    -0.200 F 
ENDBRANCH  51  75
BRANCH  63  86
ATOM     86  C   UNL     1      -3.485 -20.239  12.045  1.00  0.00     0.064 A 
ATOM     87  C   UNL     1      -3.368 -21.633  11.963  1.00  0.00     0.173 A 
ATOM     88  C   UNL     1      -3.917 -19.680  13.256  1.00  0.00     0.173 A 
ATOM     89  F   UNL     1      -2.970 -22.211  10.820  1.00  0.00    -0.203 F 
ATOM     90  C   UNL     1      -3.672 -22.439  13.056  1.00  0.00     0.198 A 
ATOM     91  C   UNL     1      -4.202 -20.488  14.353  1.00  0.00     0.198 A 
ATOM     92  F   UNL     1      -4.038 -18.350  13.382  1.00  0.00    -0.203 F 
ATOM     93  F   UNL     1      -3.571 -23.772  12.952  1.00  0.00    -0.200 F 
ATOM     94  C   UNL     1      -4.079 -21.866  14.252  1.00  0.00     0.200 A 
ATOM     95  F   UNL     1      -4.584 -19.933  15.511  1.00  0.00    -0.200 F 
ATOM     96  F   UNL     1      -4.354 -22.643  15.309  1.00  0.00    -0.200 F 
ENDBRANCH  63  86
ENDBRANCH  37  38
ENDBRANCH  29  32
ENDBRANCH  27  28
ENDBRANCH  26  27
ENDBRANCH   1  26
TORSDOF 14
