REMARK SMILES Cc1cc2c(c(C)c1Cl)C=C(C(=O)NCCCCNC(=O)c1ccc(-c3c4nc(c(-c5c(F)c(F)c(F)c(F)c5F)c5ccc([nH]5)c(-c5c(F)c(F)c(F)c(F)c5F)c5nc(c(-c6c(F)c(F)c(F)c(F)c6F)c6ccc3[nH]6)C=C5)C=C4)cc1)[C@@H](C(F)(F)F)O2
REMARK SMILES IDX 17 1 16 2 15 3 14 4 12 5 13 6 11 8 1 9 2 10 3 11 8 12 4 13
REMARK SMILES IDX 6 14 9 15 5 16 90 17 7 18 10 19 85 20 86 21 87 22 88 23
REMARK SMILES IDX 89 24 18 25 19 26 20 27 21 29 22 30 23 31 84 32 24 33 83 34
REMARK SMILES IDX 25 35 26 36 27 37 77 38 28 39 82 40 76 41 78 42 29 43 81 44
REMARK SMILES IDX 75 45 74 46 30 48 62 49 42 50 61 51 43 52 46 53 60 54 79 55
REMARK SMILES IDX 44 56 45 57 59 59 80 60 47 61 31 62 32 63 40 64 33 65 34 66
REMARK SMILES IDX 38 67 41 68 35 69 36 70 39 71 37 72 63 73 64 74 72 75 65 76
REMARK SMILES IDX 66 77 70 78 73 79 67 80 68 81 71 82 69 83 48 84 49 85 57 86
REMARK SMILES IDX 50 87 51 88 55 89 58 90 52 91 53 92 56 93 54 94
REMARK H PARENT 14 7 19 28 78 47 46 58
REMARK Flexibility Score: inf
ROOT
ATOM      1  C   UNL     1       0.565  -6.409   8.822  1.00  0.00     0.023 C 
ENDROOT
BRANCH   1   2
ATOM      2  C   UNL     1       0.602  -5.812   7.413  1.00  0.00     0.023 C 
BRANCH   2   3
ATOM      3  C   UNL     1      -0.750  -5.314   6.912  1.00  0.00     0.116 C 
BRANCH   3   4
ATOM      4  N   UNL     1      -1.040  -3.972   7.383  1.00  0.00    -0.352 N 
ATOM      5  C   UNL     1      -1.034  -2.721   6.865  1.00  0.00     0.251 C 
ATOM      6  O   UNL     1      -1.353  -1.829   7.658  1.00  0.00    -0.270 OA
ATOM      7  H   UNL     1      -1.313  -3.971   8.328  1.00  0.00     0.163 HD
BRANCH   5   8
ATOM      8  C   UNL     1      -0.684  -2.368   5.457  1.00  0.00     0.067 C 
ATOM      9  C   UNL     1       0.945   0.443  -0.190  1.00  0.00     0.046 C 
ATOM     10  C   UNL     1       0.481   0.123   1.206  1.00  0.00    -0.028 A 
ATOM     11  C   UNL     1       0.534  -1.209   1.626  1.00  0.00     0.052 A 
ATOM     12  C   UNL     1       0.061   1.108   2.123  1.00  0.00     0.047 A 
ATOM     13  C   UNL     1       0.153  -1.560   2.917  1.00  0.00     0.128 A 
ATOM     14  C   UNL     1      -0.345   0.761   3.436  1.00  0.00    -0.021 A 
ATOM     15  Cl  UNL     1       0.082   2.772   1.619  1.00  0.00    -0.084 Cl
ATOM     16  C   UNL     1      -0.276  -0.597   3.833  1.00  0.00     0.022 A 
ATOM     17  O   UNL     1       0.282  -2.884   3.224  1.00  0.00    -0.475 OA
ATOM     18  C   UNL     1      -0.820   1.803   4.422  1.00  0.00     0.047 C 
ATOM     19  C   UNL     1      -0.584  -1.051   5.194  1.00  0.00     0.026 C 
ATOM     20  C   UNL     1      -0.484  -3.367   4.357  1.00  0.00     0.314 C 
BRANCH  20  21
ATOM     21  C   UNL     1      -1.806  -3.976   3.857  1.00  0.00     0.429 C 
ATOM     22  F   UNL     1      -1.564  -5.081   3.107  1.00  0.00    -0.167 F 
ATOM     23  F   UNL     1      -2.610  -4.375   4.872  1.00  0.00    -0.167 F 
ATOM     24  F   UNL     1      -2.524  -3.119   3.099  1.00  0.00    -0.167 F 
ENDBRANCH  20  21
ENDBRANCH   5   8
ENDBRANCH   3   4
ENDBRANCH   2   3
ENDBRANCH   1   2
BRANCH   1  25
ATOM     25  C   UNL     1      -0.450  -7.530   9.032  1.00  0.00     0.116 C 
BRANCH  25  26
ATOM     26  N   UNL     1      -0.375  -8.589   8.035  1.00  0.00    -0.352 N 
ATOM     27  C   UNL     1      -0.633  -9.928   8.202  1.00  0.00     0.251 C 
ATOM     28  H   UNL     1      -0.105  -8.312   7.130  1.00  0.00     0.163 HD
ATOM     29  O   UNL     1      -0.467 -10.725   7.286  1.00  0.00    -0.269 OA
BRANCH  27  30
ATOM     30  C   UNL     1      -1.070 -10.398   9.528  1.00  0.00     0.039 A 
ATOM     31  C   UNL     1      -0.310 -11.373  10.177  1.00  0.00     0.014 A 
ATOM     32  C   UNL     1      -2.171  -9.809  10.156  1.00  0.00     0.014 A 
ATOM     33  C   UNL     1      -0.611 -11.705  11.496  1.00  0.00     0.010 A 
ATOM     34  C   UNL     1      -2.431 -10.097  11.490  1.00  0.00     0.010 A 
ATOM     35  C   UNL     1      -1.648 -11.041  12.172  1.00  0.00    -0.014 A 
BRANCH  35  36
ATOM     36  C   UNL     1      -1.921 -11.321  13.600  1.00  0.00     0.031 A 
ATOM     37  C   UNL     1      -3.195 -12.004  13.998  1.00  0.00     0.074 A 
ATOM     38  C   UNL     1      -1.040 -10.920  14.536  1.00  0.00     0.049 A 
ATOM     39  N   UNL     1      -3.627 -12.314  15.193  1.00  0.00    -0.248 NA
ATOM     40  C   UNL     1      -4.119 -12.365  12.910  1.00  0.00     0.031 C 
ATOM     41  C   UNL     1       0.211 -10.207  14.270  1.00  0.00     0.029 A 
ATOM     42  N   UNL     1      -1.060 -11.057  15.901  1.00  0.00    -0.354 N 
ATOM     43  C   UNL     1      -4.869 -12.901  15.001  1.00  0.00     0.074 A 
ATOM     44  C   UNL     1      -5.150 -12.854  13.583  1.00  0.00     0.031 C 
ATOM     45  C   UNL     1       0.855 -10.003  15.430  1.00  0.00     0.029 A 
ATOM     46  C   UNL     1       0.052 -10.546  16.522  1.00  0.00     0.049 A 
ATOM     47  H   UNL     1      -1.803 -11.482  16.389  1.00  0.00     0.167 HD
ATOM     48  C   UNL     1      -5.687 -13.458  15.923  1.00  0.00     0.037 A 
ATOM     49  C   UNL     1       0.388 -10.528  17.826  1.00  0.00     0.037 A 
ATOM     50  C   UNL     1      -5.391 -13.531  17.328  1.00  0.00     0.049 A 
ATOM     51  C   UNL     1      -0.544 -11.143  18.832  1.00  0.00     0.074 A 
ATOM     52  C   UNL     1      -6.128 -14.128  18.335  1.00  0.00     0.029 A 
ATOM     53  N   UNL     1      -4.260 -12.991  17.921  1.00  0.00    -0.354 N 
ATOM     54  N   UNL     1      -1.690 -11.748  18.634  1.00  0.00    -0.248 NA
ATOM     55  C   UNL     1      -0.139 -11.072  20.244  1.00  0.00     0.031 C 
ATOM     56  C   UNL     1      -5.456 -13.924  19.544  1.00  0.00     0.029 A 
ATOM     57  C   UNL     1      -4.287 -13.226  19.285  1.00  0.00     0.049 A 
ATOM     58  H   UNL     1      -3.544 -12.512  17.444  1.00  0.00     0.167 HD
ATOM     59  C   UNL     1      -2.134 -12.144  19.886  1.00  0.00     0.074 A 
ATOM     60  C   UNL     1      -1.130 -11.721  20.841  1.00  0.00     0.031 C 
ATOM     61  C   UNL     1      -3.274 -12.799  20.215  1.00  0.00     0.037 A 
BRANCH  48  62
ATOM     62  C   UNL     1      -6.970 -14.056  15.434  1.00  0.00     0.064 A 
ATOM     63  C   UNL     1      -6.983 -15.262  14.717  1.00  0.00     0.173 A 
ATOM     64  C   UNL     1      -8.199 -13.440  15.710  1.00  0.00     0.173 A 
ATOM     65  F   UNL     1      -5.831 -15.880  14.416  1.00  0.00    -0.203 F 
ATOM     66  C   UNL     1      -8.180 -15.818  14.275  1.00  0.00     0.198 A 
ATOM     67  C   UNL     1      -9.395 -14.011  15.287  1.00  0.00     0.198 A 
ATOM     68  F   UNL     1      -8.239 -12.286  16.394  1.00  0.00    -0.203 F 
ATOM     69  F   UNL     1      -8.165 -16.949  13.556  1.00  0.00    -0.200 F 
ATOM     70  C   UNL     1      -9.385 -15.196  14.565  1.00  0.00     0.200 A 
ATOM     71  F   UNL     1     -10.560 -13.414  15.574  1.00  0.00    -0.200 F 
ATOM     72  F   UNL     1     -10.536 -15.736  14.143  1.00  0.00    -0.200 F 
ENDBRANCH  48  62
BRANCH  49  73
ATOM     73  C   UNL     1       1.690  -9.951  18.244  1.00  0.00     0.064 A 
ATOM     74  C   UNL     1       2.741 -10.786  18.647  1.00  0.00     0.173 A 
ATOM     75  C   UNL     1       1.920  -8.569  18.229  1.00  0.00     0.173 A 
ATOM     76  F   UNL     1       2.559 -12.114  18.693  1.00  0.00    -0.203 F 
ATOM     77  C   UNL     1       3.973 -10.259  19.026  1.00  0.00     0.198 A 
ATOM     78  C   UNL     1       3.159  -8.043  18.591  1.00  0.00     0.198 A 
ATOM     79  F   UNL     1       0.946  -7.730  17.847  1.00  0.00    -0.203 F 
ATOM     80  F   UNL     1       4.953 -11.077  19.431  1.00  0.00    -0.200 F 
ATOM     81  C   UNL     1       4.183  -8.889  18.993  1.00  0.00     0.200 A 
ATOM     82  F   UNL     1       3.362  -6.720  18.547  1.00  0.00    -0.200 F 
ATOM     83  F   UNL     1       5.371  -8.382  19.350  1.00  0.00    -0.200 F 
ENDBRANCH  49  73
BRANCH  61  84
ATOM     84  C   UNL     1      -3.500 -13.110  21.663  1.00  0.00     0.064 A 
ATOM     85  C   UNL     1      -3.932 -12.121  22.557  1.00  0.00     0.173 A 
ATOM     86  C   UNL     1      -3.370 -14.423  22.138  1.00  0.00     0.173 A 
ATOM     87  F   UNL     1      -4.057 -10.850  22.149  1.00  0.00    -0.203 F 
ATOM     88  C   UNL     1      -4.226 -12.438  23.880  1.00  0.00     0.198 A 
ATOM     89  C   UNL     1      -3.684 -14.739  23.456  1.00  0.00     0.198 A 
ATOM     90  F   UNL     1      -2.965 -15.402  21.315  1.00  0.00    -0.203 F 
ATOM     91  F   UNL     1      -4.622 -11.476  24.725  1.00  0.00    -0.200 F 
ATOM     92  C   UNL     1      -4.112 -13.747  24.325  1.00  0.00     0.200 A 
ATOM     93  F   UNL     1      -3.585 -16.006  23.882  1.00  0.00    -0.200 F 
ATOM     94  F   UNL     1      -4.414 -14.052  25.595  1.00  0.00    -0.200 F 
ENDBRANCH  61  84
ENDBRANCH  35  36
ENDBRANCH  27  30
ENDBRANCH  25  26
ENDBRANCH   1  25
TORSDOF 12
