REMARK SMILES C[C@H]1C[N@H+]2CCC[C@@H]2CN1c1cc(Cl)ccc1C(=O)NCCCCNC(=O)c1ccc(-c2c3nc(c(-c4c(F)c(F)c(F)c(F)c4F)c4ccc([nH]4)c(-c4c(F)c(F)c(F)c(F)c4F)c4nc(c(-c5c(F)c(F)c(F)c(F)c5F)c5ccc2[nH]5)C=C4)C=C3)cc1
REMARK SMILES IDX 23 1 22 2 21 3 20 4 18 5 19 6 17 8 11 9 12 10 13 11 16 12
REMARK SMILES IDX 14 13 15 14 10 15 1 16 2 17 3 18 4 19 9 20 5 21 8 22 6 24
REMARK SMILES IDX 7 25 24 26 25 27 26 28 27 30 28 31 29 32 90 33 30 34 89 35
REMARK SMILES IDX 31 36 32 37 33 38 83 39 34 40 88 41 82 42 84 43 35 44 87 45
REMARK SMILES IDX 81 46 80 47 36 49 68 50 48 51 67 52 49 53 52 54 66 55 85 56
REMARK SMILES IDX 50 57 51 58 65 60 86 61 53 62 37 63 38 64 46 65 39 66 40 67
REMARK SMILES IDX 44 68 47 69 41 70 42 71 45 72 43 73 69 74 70 75 78 76 71 77
REMARK SMILES IDX 72 78 76 79 79 80 73 81 74 82 77 83 75 84 54 85 55 86 63 87
REMARK SMILES IDX 56 88 57 89 61 90 64 91 58 92 59 93 62 94 60 95
REMARK H PARENT 20 7 4 23 25 29 84 48 52 59
REMARK Flexibility Score: inf
ROOT
ATOM      1  C   UNL     1       2.639   3.495   2.946  1.00  0.00     0.023 C 
ENDROOT
BRANCH   1   2
ATOM      2  C   UNL     1       2.627   2.224   2.088  1.00  0.00     0.023 C 
BRANCH   2   3
ATOM      3  C   UNL     1       2.744   2.413   0.580  1.00  0.00     0.116 C 
BRANCH   3   4
ATOM      4  N   UNL     1       4.065   2.541   0.026  1.00  0.00    -0.352 N 
ATOM      5  C   UNL     1       4.522   2.245  -1.243  1.00  0.00     0.253 C 
ATOM      6  O   UNL     1       5.570   2.813  -1.573  1.00  0.00    -0.269 OA
ATOM      7  H   UNL     1       4.746   2.892   0.644  1.00  0.00     0.163 HD
BRANCH   5   8
ATOM      8  C   UNL     1       3.963   1.216  -2.196  1.00  0.00     0.063 A 
ATOM      9  C   UNL     1       2.620   0.948  -2.565  1.00  0.00     0.052 A 
ATOM     10  C   UNL     1       2.381  -0.064  -3.530  1.00  0.00     0.047 A 
ATOM     11  C   UNL     1       3.414  -0.787  -4.121  1.00  0.00     0.043 A 
ATOM     12  C   UNL     1       4.992   0.471  -2.831  1.00  0.00     0.017 A 
ATOM     13  Cl  UNL     1       3.058  -2.002  -5.286  1.00  0.00    -0.084 Cl
ATOM     14  C   UNL     1       4.726  -0.519  -3.779  1.00  0.00     0.021 A 
BRANCH   9  15
ATOM     15  N   UNL     1       1.518   1.652  -2.073  1.00  0.00    -0.357 N 
ATOM     16  C   UNL     1       0.589  -0.325  -0.787  1.00  0.00     0.037 C 
ATOM     17  C   UNL     1       0.277   0.927  -1.632  1.00  0.00     0.134 C 
ATOM     18  C   UNL     1      -0.643   1.890  -0.802  1.00  0.00     0.287 C 
ATOM     19  N   UNL     1      -0.878   3.174  -1.479  1.00  0.00    -0.329 N 
ATOM     20  C   UNL     1       1.247   2.937  -2.772  1.00  0.00     0.182 C 
ATOM     21  C   UNL     1      -1.572   4.171  -0.664  1.00  0.00     0.262 C 
ATOM     22  C   UNL     1       0.406   3.802  -1.833  1.00  0.00     0.203 C 
ATOM     23  H   UNL     1      -1.455   2.930  -2.284  1.00  0.00     0.348 HD
ATOM     24  C   UNL     1      -1.041   5.518  -1.176  1.00  0.00     0.068 C 
ATOM     25  C   UNL     1      -0.057   5.163  -2.294  1.00  0.00     0.073 C 
ENDBRANCH   9  15
ENDBRANCH   5   8
ENDBRANCH   3   4
ENDBRANCH   2   3
ENDBRANCH   1   2
BRANCH   1  26
ATOM     26  C   UNL     1       1.593   4.576   2.647  1.00  0.00     0.116 C 
BRANCH  26  27
ATOM     27  N   UNL     1       0.206   4.142   2.698  1.00  0.00    -0.352 N 
ATOM     28  C   UNL     1      -0.950   4.861   2.938  1.00  0.00     0.251 C 
ATOM     29  H   UNL     1       0.069   3.180   2.536  1.00  0.00     0.163 HD
ATOM     30  O   UNL     1      -2.026   4.279   2.908  1.00  0.00    -0.269 OA
BRANCH  28  31
ATOM     31  C   UNL     1      -0.918   6.306   3.294  1.00  0.00     0.039 A 
ATOM     32  C   UNL     1      -1.851   6.761   4.237  1.00  0.00     0.014 A 
ATOM     33  C   UNL     1       0.012   7.205   2.770  1.00  0.00     0.014 A 
ATOM     34  C   UNL     1      -1.752   8.053   4.756  1.00  0.00     0.010 A 
ATOM     35  C   UNL     1       0.160   8.470   3.340  1.00  0.00     0.010 A 
ATOM     36  C   UNL     1      -0.692   8.886   4.370  1.00  0.00    -0.014 A 
BRANCH  36  37
ATOM     37  C   UNL     1      -0.399  10.127   5.130  1.00  0.00     0.031 A 
ATOM     38  C   UNL     1      -0.531  11.478   4.494  1.00  0.00     0.074 A 
ATOM     39  C   UNL     1       0.053  10.006   6.395  1.00  0.00     0.049 A 
ATOM     40  N   UNL     1      -0.325  12.660   5.018  1.00  0.00    -0.248 NA
ATOM     41  C   UNL     1      -0.921  11.508   3.076  1.00  0.00     0.031 C 
ATOM     42  C   UNL     1       0.306   8.734   7.080  1.00  0.00     0.029 A 
ATOM     43  N   UNL     1       0.383  10.952   7.331  1.00  0.00    -0.354 N 
ATOM     44  C   UNL     1      -0.570  13.573   4.000  1.00  0.00     0.074 A 
ATOM     45  C   UNL     1      -0.878  12.807   2.812  1.00  0.00     0.031 C 
ATOM     46  C   UNL     1       0.716   8.979   8.333  1.00  0.00     0.029 A 
ATOM     47  C   UNL     1       0.778  10.421   8.536  1.00  0.00     0.049 A 
ATOM     48  H   UNL     1       0.341  11.920   7.157  1.00  0.00     0.167 HD
ATOM     49  C   UNL     1      -0.564  14.926   4.065  1.00  0.00     0.037 A 
ATOM     50  C   UNL     1       1.137  11.032   9.681  1.00  0.00     0.037 A 
ATOM     51  C   UNL     1      -0.251  15.674   5.256  1.00  0.00     0.049 A 
ATOM     52  C   UNL     1       1.094  12.535   9.733  1.00  0.00     0.074 A 
ATOM     53  C   UNL     1      -0.225  17.045   5.439  1.00  0.00     0.029 A 
ATOM     54  N   UNL     1       0.091  15.102   6.475  1.00  0.00    -0.354 N 
ATOM     55  N   UNL     1       0.787  13.386   8.784  1.00  0.00    -0.248 NA
ATOM     56  C   UNL     1       1.426  13.162  11.019  1.00  0.00     0.031 C 
ATOM     57  C   UNL     1       0.155  17.303   6.762  1.00  0.00     0.029 A 
ATOM     58  C   UNL     1       0.328  16.093   7.414  1.00  0.00     0.049 A 
ATOM     59  H   UNL     1       0.155  14.135   6.646  1.00  0.00     0.167 HD
ATOM     60  C   UNL     1       0.867  14.645   9.360  1.00  0.00     0.074 A 
ATOM     61  C   UNL     1       1.223  14.444  10.751  1.00  0.00     0.031 C 
ATOM     62  C   UNL     1       0.675  15.860   8.792  1.00  0.00     0.037 A 
BRANCH  49  63
ATOM     63  C   UNL     1      -0.929  15.680   2.819  1.00  0.00     0.064 A 
ATOM     64  C   UNL     1      -2.246  15.680   2.330  1.00  0.00     0.173 A 
ATOM     65  C   UNL     1       0.026  16.434   2.122  1.00  0.00     0.173 A 
ATOM     66  F   UNL     1      -3.196  14.967   2.953  1.00  0.00    -0.203 F 
ATOM     67  C   UNL     1      -2.585  16.383   1.177  1.00  0.00     0.198 A 
ATOM     68  C   UNL     1      -0.322  17.158   0.984  1.00  0.00     0.198 A 
ATOM     69  F   UNL     1       1.298  16.475   2.548  1.00  0.00    -0.203 F 
ATOM     70  F   UNL     1      -3.838  16.328   0.705  1.00  0.00    -0.200 F 
ATOM     71  C   UNL     1      -1.625  17.126   0.508  1.00  0.00     0.200 A 
ATOM     72  F   UNL     1       0.605  17.884   0.343  1.00  0.00    -0.200 F 
ATOM     73  F   UNL     1      -1.953  17.805  -0.600  1.00  0.00    -0.200 F 
ENDBRANCH  49  63
BRANCH  50  74
ATOM     74  C   UNL     1       1.517  10.231  10.875  1.00  0.00     0.064 A 
ATOM     75  C   UNL     1       0.700  10.201  12.014  1.00  0.00     0.173 A 
ATOM     76  C   UNL     1       2.706   9.488  10.909  1.00  0.00     0.173 A 
ATOM     77  F   UNL     1      -0.441  10.906  12.037  1.00  0.00    -0.203 F 
ATOM     78  C   UNL     1       1.072   9.488  13.152  1.00  0.00     0.198 A 
ATOM     79  C   UNL     1       3.063   8.749  12.037  1.00  0.00     0.198 A 
ATOM     80  F   UNL     1       3.519   9.470   9.843  1.00  0.00    -0.203 F 
ATOM     81  F   UNL     1       0.298   9.524  14.245  1.00  0.00    -0.200 F 
ATOM     82  C   UNL     1       2.251   8.759  13.161  1.00  0.00     0.200 A 
ATOM     83  F   UNL     1       4.195   8.033  12.036  1.00  0.00    -0.200 F 
ATOM     84  F   UNL     1       2.609   8.074  14.256  1.00  0.00    -0.200 F 
ENDBRANCH  50  74
BRANCH  62  85
ATOM     85  C   UNL     1       0.828  17.053   9.686  1.00  0.00     0.064 A 
ATOM     86  C   UNL     1       2.087  17.470  10.143  1.00  0.00     0.173 A 
ATOM     87  C   UNL     1      -0.296  17.795  10.080  1.00  0.00     0.173 A 
ATOM     88  F   UNL     1       3.188  16.781   9.806  1.00  0.00    -0.203 F 
ATOM     89  C   UNL     1       2.213  18.568  10.988  1.00  0.00     0.198 A 
ATOM     90  C   UNL     1      -0.163  18.909  10.903  1.00  0.00     0.198 A 
ATOM     91  F   UNL     1      -1.521  17.438   9.666  1.00  0.00    -0.203 F 
ATOM     92  F   UNL     1       3.419  18.915  11.457  1.00  0.00    -0.200 F 
ATOM     93  C   UNL     1       1.089  19.289  11.363  1.00  0.00     0.200 A 
ATOM     94  F   UNL     1      -1.248  19.611  11.257  1.00  0.00    -0.200 F 
ATOM     95  F   UNL     1       1.212  20.345  12.178  1.00  0.00    -0.200 F 
ENDBRANCH  62  85
ENDBRANCH  36  37
ENDBRANCH  28  31
ENDBRANCH  26  27
ENDBRANCH   1  26
TORSDOF 12
