REMARK SMILES C[C@H]1N=c2ccc(OC(F)(F)F)cc2=C1CCN1C(=O)c2ccc(C(=O)NCCCCNC(=O)c3ccc(-c4c5nc(c(-c6c(F)c(F)c(F)c(F)c6F)c6ccc([nH]6)c(-c6c(F)c(F)c(F)c(F)c6F)c6nc(c(-c7c(F)c(F)c(F)c(F)c7F)c7ccc4[nH]7)C=C6)C=C5)cc3)cc2C1=O
REMARK SMILES IDX 28 1 27 2 25 3 26 4 24 6 18 7 19 8 100 9 20 10 21 11 99 12
REMARK SMILES IDX 101 13 22 14 98 15 23 16 17 17 16 18 15 19 1 20 2 21 3 22
REMARK SMILES IDX 4 23 14 24 5 25 13 26 6 27 7 28 8 29 9 30 10 31 11 32 12 33
REMARK SMILES IDX 29 34 30 35 31 36 32 37 33 38 34 40 35 41 36 42 97 43 37 44
REMARK SMILES IDX 96 45 38 46 39 47 40 48 90 49 41 50 95 51 89 52 91 53 42 54
REMARK SMILES IDX 94 55 88 56 87 57 43 59 75 60 55 61 74 62 56 63 59 64 73 65
REMARK SMILES IDX 92 66 57 67 58 68 72 70 93 71 60 72 44 73 45 74 53 75 46 76
REMARK SMILES IDX 47 77 51 78 54 79 48 80 49 81 52 82 50 83 76 84 77 85 85 86
REMARK SMILES IDX 78 87 79 88 83 89 86 90 80 91 81 92 84 93 82 94 61 95 62 96
REMARK SMILES IDX 70 97 63 98 64 99 68 100 71 101 65 102 66 103 69 104 67 105
REMARK H PARENT 27 5 32 39 91 58 59 69
REMARK Flexibility Score: inf
ROOT
ATOM      1  C   UNL     1       0.862  -2.913   4.599  1.00  0.00     0.116 C 
ENDROOT
BRANCH   1   2
ATOM      2  N   UNL     1       0.903  -4.286   4.116  1.00  0.00    -0.352 N 
ATOM      3  C   UNL     1       1.243  -4.801   2.892  1.00  0.00     0.251 C 
ATOM      4  O   UNL     1       1.418  -6.010   2.768  1.00  0.00    -0.269 OA
ATOM      5  H   UNL     1       0.641  -4.961   4.784  1.00  0.00     0.163 HD
BRANCH   3   6
ATOM      6  C   UNL     1       1.458  -3.934   1.716  1.00  0.00     0.040 A 
ATOM      7  N   UNL     1       0.793  -0.681  -1.432  1.00  0.00    -0.274 N 
ATOM      8  C   UNL     1       2.030  -1.276  -1.467  1.00  0.00     0.261 C 
ATOM      9  C   UNL     1      -0.077  -1.418  -0.679  1.00  0.00     0.261 C 
ATOM     10  O   UNL     1       2.996  -1.009  -2.150  1.00  0.00    -0.269 OA
ATOM     11  C   UNL     1       2.003  -2.353  -0.474  1.00  0.00     0.053 A 
ATOM     12  C   UNL     1       0.728  -2.394   0.062  1.00  0.00     0.054 A 
ATOM     13  O   UNL     1      -1.286  -1.319  -0.578  1.00  0.00    -0.269 OA
ATOM     14  C   UNL     1       3.019  -3.163  -0.007  1.00  0.00     0.015 A 
ATOM     15  C   UNL     1       0.420  -3.165   1.174  1.00  0.00     0.028 A 
ATOM     16  C   UNL     1       2.731  -3.975   1.096  1.00  0.00     0.015 A 
BRANCH   7  17
ATOM     17  C   UNL     1       0.448   0.484  -2.234  1.00  0.00     0.134 C 
BRANCH  17  18
ATOM     18  C   UNL     1      -0.428   1.570  -1.561  1.00  0.00     0.056 C 
BRANCH  18  19
ATOM     19  C   UNL     1       0.135   2.360  -0.400  1.00  0.00    -0.035 C 
ATOM     20  C   UNL     1       0.452   0.677   1.580  1.00  0.00     0.038 C 
ATOM     21  C   UNL     1      -0.145   1.964   1.043  1.00  0.00     0.129 C 
ATOM     22  N   UNL     1       0.433   3.044   1.877  1.00  0.00    -0.277 NA
ATOM     23  C   UNL     1       0.870   3.892   1.006  1.00  0.00     0.066 A 
ATOM     24  C   UNL     1       0.658   3.596  -0.420  1.00  0.00     0.005 A 
ATOM     25  C   UNL     1       1.579   5.135   1.341  1.00  0.00     0.032 A 
ATOM     26  C   UNL     1       0.907   4.614  -1.406  1.00  0.00     0.057 A 
ATOM     27  C   UNL     1       1.849   6.009   0.362  1.00  0.00     0.049 A 
ATOM     28  C   UNL     1       1.417   5.804  -1.018  1.00  0.00     0.130 A 
BRANCH  28  29
ATOM     29  O   UNL     1       1.537   6.828  -1.937  1.00  0.00    -0.406 OA
BRANCH  29  30
ATOM     30  C   UNL     1       1.565   8.171  -1.461  1.00  0.00     0.573 C 
ATOM     31  F   UNL     1       0.656   8.383  -0.485  1.00  0.00    -0.132 F 
ATOM     32  F   UNL     1       2.797   8.474  -0.995  1.00  0.00    -0.132 F 
ATOM     33  F   UNL     1       1.286   9.009  -2.483  1.00  0.00    -0.132 F 
ENDBRANCH  29  30
ENDBRANCH  28  29
ENDBRANCH  18  19
ENDBRANCH  17  18
ENDBRANCH   7  17
ENDBRANCH   3   6
ENDBRANCH   1   2
BRANCH   1  34
ATOM     34  C   UNL     1      -0.413  -2.607   5.395  1.00  0.00     0.023 C 
BRANCH  34  35
ATOM     35  C   UNL     1      -0.660  -3.473   6.637  1.00  0.00     0.023 C 
BRANCH  35  36
ATOM     36  C   UNL     1       0.346  -3.330   7.778  1.00  0.00     0.116 C 
BRANCH  36  37
ATOM     37  N   UNL     1       0.268  -2.052   8.473  1.00  0.00    -0.352 N 
ATOM     38  C   UNL     1       0.159  -1.770   9.819  1.00  0.00     0.251 C 
ATOM     39  H   UNL     1       0.298  -1.261   7.888  1.00  0.00     0.163 HD
ATOM     40  O   UNL     1       0.013  -0.606  10.185  1.00  0.00    -0.269 OA
BRANCH  38  41
ATOM     41  C   UNL     1       0.165  -2.854  10.833  1.00  0.00     0.039 A 
ATOM     42  C   UNL     1       1.040  -3.934  10.738  1.00  0.00     0.014 A 
ATOM     43  C   UNL     1      -0.739  -2.793  11.901  1.00  0.00     0.014 A 
ATOM     44  C   UNL     1       0.868  -5.040  11.569  1.00  0.00     0.010 A 
ATOM     45  C   UNL     1      -0.848  -3.868  12.794  1.00  0.00     0.010 A 
ATOM     46  C   UNL     1      -0.098  -5.035  12.590  1.00  0.00    -0.014 A 
BRANCH  46  47
ATOM     47  C   UNL     1      -0.332  -6.281  13.376  1.00  0.00     0.031 A 
ATOM     48  C   UNL     1      -1.650  -7.012  13.285  1.00  0.00     0.074 A 
ATOM     49  C   UNL     1       0.674  -6.818  14.094  1.00  0.00     0.049 A 
ATOM     50  N   UNL     1      -1.992  -8.168  13.802  1.00  0.00    -0.248 NA
ATOM     51  C   UNL     1      -2.726  -6.365  12.518  1.00  0.00     0.031 C 
ATOM     52  C   UNL     1       1.996  -6.216  14.266  1.00  0.00     0.029 A 
ATOM     53  N   UNL     1       0.759  -8.007  14.777  1.00  0.00    -0.354 N 
ATOM     54  C   UNL     1      -3.313  -8.379  13.428  1.00  0.00     0.074 A 
ATOM     55  C   UNL     1      -3.731  -7.214  12.680  1.00  0.00     0.031 C 
ATOM     56  C   UNL     1       2.780  -7.066  14.945  1.00  0.00     0.029 A 
ATOM     57  C   UNL     1       2.005  -8.251  15.304  1.00  0.00     0.049 A 
ATOM     58  H   UNL     1      -0.000  -8.626  14.880  1.00  0.00     0.167 HD
ATOM     59  C   UNL     1      -4.101  -9.457  13.662  1.00  0.00     0.037 A 
ATOM     60  C   UNL     1       2.475  -9.307  15.995  1.00  0.00     0.037 A 
ATOM     61  C   UNL     1      -3.682 -10.632  14.378  1.00  0.00     0.049 A 
ATOM     62  C   UNL     1       1.565 -10.469  16.283  1.00  0.00     0.074 A 
ATOM     63  C   UNL     1      -4.401 -11.789  14.627  1.00  0.00     0.029 A 
ATOM     64  N   UNL     1      -2.436 -10.802  14.961  1.00  0.00    -0.354 N 
ATOM     65  N   UNL     1       0.332 -10.669  15.887  1.00  0.00    -0.248 NA
ATOM     66  C   UNL     1       2.108 -11.547  17.123  1.00  0.00     0.031 C 
ATOM     67  C   UNL     1      -3.607 -12.639  15.402  1.00  0.00     0.029 A 
ATOM     68  C   UNL     1      -2.378 -12.032  15.597  1.00  0.00     0.049 A 
ATOM     69  H   UNL     1      -1.702 -10.146  14.929  1.00  0.00     0.167 HD
ATOM     70  C   UNL     1      -0.045 -11.894  16.421  1.00  0.00     0.074 A 
ATOM     71  C   UNL     1       1.096 -12.405  17.149  1.00  0.00     0.031 C 
ATOM     72  C   UNL     1      -1.237 -12.531  16.321  1.00  0.00     0.037 A 
BRANCH  59  73
ATOM     73  C   UNL     1      -5.505  -9.431  13.130  1.00  0.00     0.064 A 
ATOM     74  C   UNL     1      -5.772  -9.568  11.760  1.00  0.00     0.173 A 
ATOM     75  C   UNL     1      -6.598  -9.354  14.007  1.00  0.00     0.173 A 
ATOM     76  F   UNL     1      -4.763  -9.638  10.879  1.00  0.00    -0.203 F 
ATOM     77  C   UNL     1      -7.081  -9.612  11.286  1.00  0.00     0.198 A 
ATOM     78  C   UNL     1      -7.905  -9.426  13.532  1.00  0.00     0.198 A 
ATOM     79  F   UNL     1      -6.398  -9.234  15.328  1.00  0.00    -0.203 F 
ATOM     80  F   UNL     1      -7.312  -9.711   9.969  1.00  0.00    -0.200 F 
ATOM     81  C   UNL     1      -8.146  -9.551  12.172  1.00  0.00     0.200 A 
ATOM     82  F   UNL     1      -8.933  -9.384  14.392  1.00  0.00    -0.200 F 
ATOM     83  F   UNL     1      -9.404  -9.612  11.716  1.00  0.00    -0.200 F 
ENDBRANCH  59  73
BRANCH  60  84
ATOM     84  C   UNL     1       3.891  -9.315  16.450  1.00  0.00     0.064 A 
ATOM     85  C   UNL     1       4.822 -10.201  15.893  1.00  0.00     0.173 A 
ATOM     86  C   UNL     1       4.345  -8.423  17.433  1.00  0.00     0.173 A 
ATOM     87  F   UNL     1       4.432 -11.089  14.966  1.00  0.00    -0.203 F 
ATOM     88  C   UNL     1       6.155 -10.195  16.302  1.00  0.00     0.198 A 
ATOM     89  C   UNL     1       5.683  -8.399  17.820  1.00  0.00     0.198 A 
ATOM     90  F   UNL     1       3.493  -7.556  17.998  1.00  0.00    -0.203 F 
ATOM     91  F   UNL     1       7.019 -11.073  15.775  1.00  0.00    -0.200 F 
ATOM     92  C   UNL     1       6.586  -9.288  17.258  1.00  0.00     0.200 A 
ATOM     93  F   UNL     1       6.098  -7.509  18.733  1.00  0.00    -0.200 F 
ATOM     94  F   UNL     1       7.870  -9.272  17.639  1.00  0.00    -0.200 F 
ENDBRANCH  60  84
BRANCH  72  95
ATOM     95  C   UNL     1      -1.387 -13.851  17.017  1.00  0.00     0.064 A 
ATOM     96  C   UNL     1      -1.524 -13.925  18.411  1.00  0.00     0.173 A 
ATOM     97  C   UNL     1      -1.494 -15.040  16.281  1.00  0.00     0.173 A 
ATOM     98  F   UNL     1      -1.417 -12.817  19.159  1.00  0.00    -0.203 F 
ATOM     99  C   UNL     1      -1.761 -15.143  19.042  1.00  0.00     0.198 A 
ATOM    100  C   UNL     1      -1.757 -16.253  16.913  1.00  0.00     0.198 A 
ATOM    101  F   UNL     1      -1.377 -15.021  14.944  1.00  0.00    -0.203 F 
ATOM    102  F   UNL     1      -1.869 -15.194  20.377  1.00  0.00    -0.200 F 
ATOM    103  C   UNL     1      -1.889 -16.303  18.292  1.00  0.00     0.200 A 
ATOM    104  F   UNL     1      -1.896 -17.370  16.186  1.00  0.00    -0.200 F 
ATOM    105  F   UNL     1      -2.142 -17.471  18.900  1.00  0.00    -0.200 F 
ENDBRANCH  72  95
ENDBRANCH  46  47
ENDBRANCH  38  41
ENDBRANCH  36  37
ENDBRANCH  35  36
ENDBRANCH  34  35
ENDBRANCH   1  34
TORSDOF 16
