REMARK SMILES C[NH2+][C@]1(C(=O)NCCCCNC(=O)c2ccc(-c3c4nc(c(-c5c(F)c(F)c(F)c(F)c5F)c5ccc([nH]5)c(-c5c(F)c(F)c(F)c(F)c5F)c5nc(c(-c6c(F)c(F)c(F)c(F)c6F)c6ccc3[nH]6)C=C5)C=C4)cc2)CCC[C@H]1CCOC1C[C@@H](C)C[C@H](C)C1
REMARK SMILES IDX 7 1 6 2 4 3 5 4 3 6 77 7 80 8 78 9 79 10 2 11 1 12 81 15
REMARK SMILES IDX 82 16 83 17 84 18 85 19 91 20 86 21 89 22 87 23 88 24 90 25
REMARK SMILES IDX 8 26 9 27 10 28 11 29 12 30 13 32 14 33 15 34 76 35 16 36
REMARK SMILES IDX 75 37 17 38 18 39 19 40 69 41 20 42 74 43 68 44 70 45 21 46
REMARK SMILES IDX 73 47 67 48 66 49 22 51 54 52 34 53 53 54 35 55 38 56 52 57
REMARK SMILES IDX 71 58 36 59 37 60 51 62 72 63 39 64 23 65 24 66 32 67 25 68
REMARK SMILES IDX 26 69 30 70 33 71 27 72 28 73 31 74 29 75 55 76 56 77 64 78
REMARK SMILES IDX 57 79 58 80 62 81 65 82 59 83 60 84 63 85 61 86 40 87 41 88
REMARK SMILES IDX 49 89 42 90 43 91 47 92 50 93 44 94 45 95 48 96 46 97
REMARK H PARENT 6 5 2 13 2 14 11 31 70 50 38 61
REMARK Flexibility Score: inf
ROOT
ATOM      1  C   UNL     1       0.628   0.681  -2.012  1.00  0.00     0.116 C 
ENDROOT
BRANCH   1   2
ATOM      2  N   UNL     1       0.860   1.342  -0.769  1.00  0.00    -0.351 N 
ATOM      3  C   UNL     1       0.054   1.394   0.310  1.00  0.00     0.281 C 
ATOM      4  O   UNL     1       0.510   2.039   1.270  1.00  0.00    -0.268 OA
ATOM      5  H   UNL     1       1.716   1.821  -0.690  1.00  0.00     0.163 HD
BRANCH   3   6
ATOM      6  C   UNL     1      -1.421   0.825   0.365  1.00  0.00     0.178 C 
ATOM      7  C   UNL     1      -2.295   1.830  -0.427  1.00  0.00     0.079 C 
ATOM      8  C   UNL     1      -1.856  -0.624  -0.185  1.00  0.00     0.063 C 
ATOM      9  C   UNL     1      -3.546   1.072  -0.817  1.00  0.00     0.008 C 
ATOM     10  C   UNL     1      -3.022  -0.304  -1.171  1.00  0.00     0.011 C 
BRANCH   6  11
ATOM     11  N   UNL     1      -1.738   0.893   1.838  1.00  0.00    -0.336 N 
ATOM     12  C   UNL     1      -3.064   1.184   2.335  1.00  0.00     0.331 C 
ATOM     13  H   UNL     1      -1.484  -0.016   2.224  1.00  0.00     0.346 HD
ATOM     14  H   UNL     1      -1.220   1.724   2.125  1.00  0.00     0.346 HD
ENDBRANCH   6  11
BRANCH   8  15
ATOM     15  C   UNL     1      -1.045  -1.835  -0.848  1.00  0.00     0.039 C 
BRANCH  15  16
ATOM     16  C   UNL     1       0.166  -2.685  -0.288  1.00  0.00     0.161 C 
BRANCH  16  17
ATOM     17  O   UNL     1      -0.055  -3.971   0.296  1.00  0.00    -0.378 OA
BRANCH  17  18
ATOM     18  C   UNL     1      -0.164  -4.345   1.676  1.00  0.00     0.118 C 
ATOM     19  C   UNL     1       0.396  -3.517   2.835  1.00  0.00     0.035 C 
ATOM     20  C   UNL     1      -1.628  -4.663   1.970  1.00  0.00     0.035 C 
ATOM     21  C   UNL     1      -0.343  -2.216   3.128  1.00  0.00    -0.011 C 
ATOM     22  C   UNL     1      -2.386  -3.355   1.885  1.00  0.00    -0.011 C 
ATOM     23  C   UNL     1       0.401  -1.091   2.416  1.00  0.00     0.008 C 
ATOM     24  C   UNL     1      -1.891  -2.358   2.957  1.00  0.00     0.006 C 
ATOM     25  C   UNL     1      -3.894  -3.558   1.787  1.00  0.00     0.008 C 
ENDBRANCH  17  18
ENDBRANCH  16  17
ENDBRANCH  15  16
ENDBRANCH   8  15
ENDBRANCH   3   6
ENDBRANCH   1   2
BRANCH   1  26
ATOM     26  C   UNL     1       1.512   1.197  -3.130  1.00  0.00     0.023 C 
BRANCH  26  27
ATOM     27  C   UNL     1       2.941   0.659  -3.060  1.00  0.00     0.023 C 
BRANCH  27  28
ATOM     28  C   UNL     1       3.050  -0.865  -3.008  1.00  0.00     0.116 C 
BRANCH  28  29
ATOM     29  N   UNL     1       2.347  -1.516  -4.106  1.00  0.00    -0.352 N 
ATOM     30  C   UNL     1       2.847  -2.072  -5.262  1.00  0.00     0.251 C 
ATOM     31  H   UNL     1       1.369  -1.566  -4.007  1.00  0.00     0.163 HD
ATOM     32  O   UNL     1       2.104  -2.382  -6.177  1.00  0.00    -0.269 OA
BRANCH  30  33
ATOM     33  C   UNL     1       4.306  -2.257  -5.389  1.00  0.00     0.039 A 
ATOM     34  C   UNL     1       4.950  -1.805  -6.541  1.00  0.00     0.014 A 
ATOM     35  C   UNL     1       5.035  -2.838  -4.350  1.00  0.00     0.014 A 
ATOM     36  C   UNL     1       6.343  -1.857  -6.610  1.00  0.00     0.010 A 
ATOM     37  C   UNL     1       6.422  -2.795  -4.378  1.00  0.00     0.010 A 
ATOM     38  C   UNL     1       7.092  -2.305  -5.509  1.00  0.00    -0.014 A 
BRANCH  38  39
ATOM     39  C   UNL     1       8.576  -2.264  -5.520  1.00  0.00     0.031 A 
ATOM     40  C   UNL     1       9.368  -3.535  -5.392  1.00  0.00     0.074 A 
ATOM     41  C   UNL     1       9.210  -1.076  -5.581  1.00  0.00     0.049 A 
ATOM     42  N   UNL     1      10.665  -3.700  -5.329  1.00  0.00    -0.248 NA
ATOM     43  C   UNL     1       8.601  -4.787  -5.292  1.00  0.00     0.031 C 
ATOM     44  C   UNL     1       8.553   0.231  -5.651  1.00  0.00     0.029 A 
ATOM     45  N   UNL     1      10.549  -0.774  -5.588  1.00  0.00    -0.354 N 
ATOM     46  C   UNL     1      10.865  -5.065  -5.173  1.00  0.00     0.074 A 
ATOM     47  C   UNL     1       9.558  -5.677  -5.083  1.00  0.00     0.031 C 
ATOM     48  C   UNL     1       9.489   1.190  -5.725  1.00  0.00     0.029 A 
ATOM     49  C   UNL     1      10.810   0.573  -5.664  1.00  0.00     0.049 A 
ATOM     50  H   UNL     1      11.255  -1.458  -5.542  1.00  0.00     0.167 HD
ATOM     51  C   UNL     1      12.033  -5.750  -5.137  1.00  0.00     0.037 A 
ATOM     52  C   UNL     1      11.983   1.235  -5.675  1.00  0.00     0.037 A 
ATOM     53  C   UNL     1      13.331  -5.138  -5.244  1.00  0.00     0.049 A 
ATOM     54  C   UNL     1      13.267   0.450  -5.615  1.00  0.00     0.074 A 
ATOM     55  C   UNL     1      14.572  -5.749  -5.276  1.00  0.00     0.029 A 
ATOM     56  N   UNL     1      13.556  -3.771  -5.329  1.00  0.00    -0.354 N 
ATOM     57  N   UNL     1      13.443  -0.847  -5.547  1.00  0.00    -0.248 NA
ATOM     58  C   UNL     1      14.515   1.224  -5.641  1.00  0.00     0.031 C 
ATOM     59  C   UNL     1      15.550  -4.750  -5.319  1.00  0.00     0.029 A 
ATOM     60  C   UNL     1      14.918  -3.519  -5.384  1.00  0.00     0.049 A 
ATOM     61  H   UNL     1      12.852  -3.083  -5.348  1.00  0.00     0.167 HD
ATOM     62  C   UNL     1      14.817  -1.047  -5.556  1.00  0.00     0.074 A 
ATOM     63  C   UNL     1      15.428   0.263  -5.652  1.00  0.00     0.031 C 
ATOM     64  C   UNL     1      15.511  -2.210  -5.489  1.00  0.00     0.037 A 
BRANCH  51  65
ATOM     65  C   UNL     1      11.959  -7.242  -4.976  1.00  0.00     0.064 A 
ATOM     66  C   UNL     1      11.443  -8.068  -5.987  1.00  0.00     0.173 A 
ATOM     67  C   UNL     1      12.440  -7.857  -3.811  1.00  0.00     0.173 A 
ATOM     68  F   UNL     1      10.959  -7.532  -7.117  1.00  0.00    -0.203 F 
ATOM     69  C   UNL     1      11.382  -9.450  -5.823  1.00  0.00     0.198 A 
ATOM     70  C   UNL     1      12.411  -9.242  -3.665  1.00  0.00     0.198 A 
ATOM     71  F   UNL     1      12.949  -7.117  -2.814  1.00  0.00    -0.203 F 
ATOM     72  F   UNL     1      10.834 -10.212  -6.779  1.00  0.00    -0.200 F 
ATOM     73  C   UNL     1      11.873 -10.036  -4.667  1.00  0.00     0.200 A 
ATOM     74  F   UNL     1      12.901  -9.808  -2.554  1.00  0.00    -0.200 F 
ATOM     75  F   UNL     1      11.823 -11.366  -4.515  1.00  0.00    -0.200 F 
ENDBRANCH  51  65
BRANCH  52  76
ATOM     76  C   UNL     1      12.001   2.719  -5.766  1.00  0.00     0.064 A 
ATOM     77  C   UNL     1      12.496   3.366  -6.908  1.00  0.00     0.173 A 
ATOM     78  C   UNL     1      11.539   3.522  -4.713  1.00  0.00     0.173 A 
ATOM     79  F   UNL     1      12.968   2.643  -7.935  1.00  0.00    -0.203 F 
ATOM     80  C   UNL     1      12.554   4.756  -6.982  1.00  0.00     0.198 A 
ATOM     81  C   UNL     1      11.566   4.913  -4.802  1.00  0.00     0.198 A 
ATOM     82  F   UNL     1      11.049   2.956  -3.601  1.00  0.00    -0.203 F 
ATOM     83  F   UNL     1      13.083   5.346  -8.062  1.00  0.00    -0.200 F 
ATOM     84  C   UNL     1      12.084   5.529  -5.931  1.00  0.00     0.200 A 
ATOM     85  F   UNL     1      11.094   5.655  -3.791  1.00  0.00    -0.200 F 
ATOM     86  F   UNL     1      12.137   6.865  -6.003  1.00  0.00    -0.200 F 
ENDBRANCH  52  76
BRANCH  64  87
ATOM     87  C   UNL     1      17.010  -2.125  -5.562  1.00  0.00     0.064 A 
ATOM     88  C   UNL     1      17.774  -1.587  -4.516  1.00  0.00     0.173 A 
ATOM     89  C   UNL     1      17.693  -2.625  -6.682  1.00  0.00     0.173 A 
ATOM     90  F   UNL     1      17.170  -1.083  -3.429  1.00  0.00    -0.203 F 
ATOM     91  C   UNL     1      19.162  -1.524  -4.602  1.00  0.00     0.198 A 
ATOM     92  C   UNL     1      19.082  -2.593  -6.749  1.00  0.00     0.198 A 
ATOM     93  F   UNL     1      17.012  -3.158  -7.708  1.00  0.00    -0.203 F 
ATOM     94  F   UNL     1      19.867  -0.954  -3.615  1.00  0.00    -0.200 F 
ATOM     95  C   UNL     1      19.816  -2.034  -5.714  1.00  0.00     0.200 A 
ATOM     96  F   UNL     1      19.712  -3.104  -7.816  1.00  0.00    -0.200 F 
ATOM     97  F   UNL     1      21.152  -1.980  -5.791  1.00  0.00    -0.200 F 
ENDBRANCH  64  87
ENDBRANCH  38  39
ENDBRANCH  30  33
ENDBRANCH  28  29
ENDBRANCH  27  28
ENDBRANCH  26  27
ENDBRANCH   1  26
TORSDOF 16
