REMARK SMILES O=C(NCCCCNC(=O)[C@@H]1[C@@H](C(=O)Nc2cccc([N+](=O)[O-])c2)[C@@H]2C=C[C@H]1O2)c1ccc(-c2c3nc(c(-c4c(F)c(F)c(F)c(F)c4F)c4ccc([nH]4)c(-c4c(F)c(F)c(F)c(F)c4F)c4nc(c(-c5c(F)c(F)c(F)c(F)c5F)c5ccc2[nH]5)C=C4)C=C3)cc1
REMARK SMILES IDX 6 1 5 2 4 3 3 4 1 5 2 6 30 8 31 9 92 10 32 11 91 12 33 13
REMARK SMILES IDX 34 14 35 15 85 16 36 17 90 18 84 19 86 20 37 21 89 22 83 23
REMARK SMILES IDX 82 24 38 26 70 27 50 28 69 29 51 30 54 31 68 32 87 33 52 34
REMARK SMILES IDX 53 35 67 37 88 38 55 39 39 40 40 41 48 42 41 43 42 44 46 45
REMARK SMILES IDX 49 46 43 47 44 48 47 49 45 50 71 51 72 52 80 53 73 54 74 55
REMARK SMILES IDX 78 56 81 57 75 58 76 59 79 60 77 61 56 62 57 63 65 64 58 65
REMARK SMILES IDX 59 66 63 67 66 68 60 69 61 70 64 71 62 72 7 73 8 74 9 75
REMARK SMILES IDX 10 77 11 78 12 79 28 80 25 81 27 82 29 83 26 84 13 85 14 86
REMARK SMILES IDX 15 87 16 89 17 90 24 91 18 92 20 93 19 94 21 95 22 96 23 97
REMARK H PARENT 3 7 86 25 54 36 8 76 15 88
REMARK Flexibility Score: inf
ROOT
ATOM      1  C   UNL     1       4.625   1.259   3.241  1.00  0.00     0.023 C 
ENDROOT
BRANCH   1   2
ATOM      2  C   UNL     1       5.029   1.520   1.799  1.00  0.00     0.023 C 
BRANCH   2   3
ATOM      3  C   UNL     1       4.562   0.481   0.803  1.00  0.00     0.116 C 
BRANCH   3   4
ATOM      4  N   UNL     1       3.128   0.232   0.829  1.00  0.00    -0.352 N 
ATOM      5  O   UNL     1       1.114  -0.247  -0.099  1.00  0.00    -0.269 OA
ATOM      6  C   UNL     1       2.328  -0.136  -0.227  1.00  0.00     0.251 C 
ATOM      7  H   UNL     1       2.681   0.339   1.699  1.00  0.00     0.163 HD
BRANCH   6   8
ATOM      8  C   UNL     1       2.965  -0.347  -1.541  1.00  0.00     0.039 A 
ATOM      9  C   UNL     1       4.100  -1.155  -1.640  1.00  0.00     0.014 A 
ATOM     10  C   UNL     1       2.480   0.344  -2.653  1.00  0.00     0.014 A 
ATOM     11  C   UNL     1       4.841  -1.149  -2.811  1.00  0.00     0.010 A 
ATOM     12  C   UNL     1       3.174   0.270  -3.860  1.00  0.00     0.010 A 
ATOM     13  C   UNL     1       4.376  -0.451  -3.937  1.00  0.00    -0.014 A 
BRANCH  13  14
ATOM     14  C   UNL     1       5.131  -0.557  -5.207  1.00  0.00     0.031 A 
ATOM     15  C   UNL     1       5.810   0.634  -5.813  1.00  0.00     0.074 A 
ATOM     16  C   UNL     1       5.222  -1.769  -5.786  1.00  0.00     0.049 A 
ATOM     17  N   UNL     1       6.504   0.709  -6.921  1.00  0.00    -0.248 NA
ATOM     18  C   UNL     1       5.695   1.911  -5.091  1.00  0.00     0.031 C 
ATOM     19  C   UNL     1       4.599  -2.992  -5.273  1.00  0.00     0.029 A 
ATOM     20  N   UNL     1       5.884  -2.179  -6.912  1.00  0.00    -0.354 N 
ATOM     21  C   UNL     1       6.889   2.037  -7.042  1.00  0.00     0.074 A 
ATOM     22  C   UNL     1       6.338   2.741  -5.902  1.00  0.00     0.031 C 
ATOM     23  C   UNL     1       4.952  -4.024  -6.051  1.00  0.00     0.029 A 
ATOM     24  C   UNL     1       5.763  -3.525  -7.153  1.00  0.00     0.049 A 
ATOM     25  H   UNL     1       6.396  -1.570  -7.490  1.00  0.00     0.167 HD
ATOM     26  C   UNL     1       7.636   2.609  -8.016  1.00  0.00     0.037 A 
ATOM     27  C   UNL     1       6.238  -4.273  -8.165  1.00  0.00     0.037 A 
ATOM     28  C   UNL     1       8.191   1.893  -9.137  1.00  0.00     0.049 A 
ATOM     29  C   UNL     1       7.040  -3.606  -9.241  1.00  0.00     0.074 A 
ATOM     30  C   UNL     1       8.977   2.375 -10.168  1.00  0.00     0.029 A 
ATOM     31  N   UNL     1       8.016   0.535  -9.371  1.00  0.00    -0.354 N 
ATOM     32  N   UNL     1       7.399  -2.349  -9.342  1.00  0.00    -0.248 NA
ATOM     33  C   UNL     1       7.494  -4.457 -10.347  1.00  0.00     0.031 C 
ATOM     34  C   UNL     1       9.247   1.319 -11.046  1.00  0.00     0.029 A 
ATOM     35  C   UNL     1       8.665   0.168 -10.539  1.00  0.00     0.049 A 
ATOM     36  H   UNL     1       7.506  -0.076  -8.792  1.00  0.00     0.167 HD
ATOM     37  C   UNL     1       8.128  -2.257 -10.518  1.00  0.00     0.074 A 
ATOM     38  C   UNL     1       8.179  -3.592 -11.082  1.00  0.00     0.031 C 
ATOM     39  C   UNL     1       8.697  -1.165 -11.083  1.00  0.00     0.037 A 
BRANCH  26  40
ATOM     40  C   UNL     1       7.885   4.087  -7.931  1.00  0.00     0.064 A 
ATOM     41  C   UNL     1       8.773   4.632  -6.992  1.00  0.00     0.173 A 
ATOM     42  C   UNL     1       7.267   4.964  -8.835  1.00  0.00     0.173 A 
ATOM     43  F   UNL     1       9.380   3.838  -6.097  1.00  0.00    -0.203 F 
ATOM     44  C   UNL     1       9.022   6.002  -6.952  1.00  0.00     0.198 A 
ATOM     45  C   UNL     1       7.536   6.331  -8.808  1.00  0.00     0.198 A 
ATOM     46  F   UNL     1       6.412   4.494  -9.756  1.00  0.00    -0.203 F 
ATOM     47  F   UNL     1       9.850   6.504  -6.026  1.00  0.00    -0.200 F 
ATOM     48  C   UNL     1       8.409   6.849  -7.864  1.00  0.00     0.200 A 
ATOM     49  F   UNL     1       6.951   7.146  -9.697  1.00  0.00    -0.200 F 
ATOM     50  F   UNL     1       8.657   8.165  -7.830  1.00  0.00    -0.200 F 
ENDBRANCH  26  40
BRANCH  27  51
ATOM     51  C   UNL     1       5.952  -5.728  -8.194  1.00  0.00     0.064 A 
ATOM     52  C   UNL     1       6.968  -6.665  -7.967  1.00  0.00     0.173 A 
ATOM     53  C   UNL     1       4.652  -6.210  -8.409  1.00  0.00     0.173 A 
ATOM     54  F   UNL     1       8.229  -6.250  -7.772  1.00  0.00    -0.203 F 
ATOM     55  C   UNL     1       6.696  -8.030  -7.961  1.00  0.00     0.198 A 
ATOM     56  C   UNL     1       4.376  -7.574  -8.374  1.00  0.00     0.198 A 
ATOM     57  F   UNL     1       3.644  -5.351  -8.622  1.00  0.00    -0.203 F 
ATOM     58  F   UNL     1       7.690  -8.908  -7.770  1.00  0.00    -0.200 F 
ATOM     59  C   UNL     1       5.399  -8.483  -8.155  1.00  0.00     0.200 A 
ATOM     60  F   UNL     1       3.119  -8.005  -8.543  1.00  0.00    -0.200 F 
ATOM     61  F   UNL     1       5.136  -9.797  -8.133  1.00  0.00    -0.200 F 
ENDBRANCH  27  51
BRANCH  39  62
ATOM     62  C   UNL     1       9.436  -1.380 -12.368  1.00  0.00     0.064 A 
ATOM     63  C   UNL     1       8.756  -1.606 -13.574  1.00  0.00     0.173 A 
ATOM     64  C   UNL     1      10.838  -1.342 -12.397  1.00  0.00     0.173 A 
ATOM     65  F   UNL     1       7.416  -1.670 -13.590  1.00  0.00    -0.203 F 
ATOM     66  C   UNL     1       9.455  -1.810 -14.760  1.00  0.00     0.198 A 
ATOM     67  C   UNL     1      11.532  -1.522 -13.589  1.00  0.00     0.198 A 
ATOM     68  F   UNL     1      11.532  -1.127 -11.270  1.00  0.00    -0.203 F 
ATOM     69  F   UNL     1       8.787  -2.070 -15.892  1.00  0.00    -0.200 F 
ATOM     70  C   UNL     1      10.841  -1.762 -14.768  1.00  0.00     0.200 A 
ATOM     71  F   UNL     1      12.871  -1.468 -13.598  1.00  0.00    -0.200 F 
ATOM     72  F   UNL     1      11.512  -1.958 -15.911  1.00  0.00    -0.200 F 
ENDBRANCH  39  62
ENDBRANCH  13  14
ENDBRANCH   6   8
ENDBRANCH   3   4
ENDBRANCH   2   3
ENDBRANCH   1   2
BRANCH   1  73
ATOM     73  C   UNL     1       5.044  -0.092   3.828  1.00  0.00     0.116 C 
BRANCH  73  74
ATOM     74  N   UNL     1       6.431  -0.125   4.232  1.00  0.00    -0.356 N 
ATOM     75  C   UNL     1       7.031   0.098   5.425  1.00  0.00     0.227 C 
ATOM     76  H   UNL     1       7.055  -0.351   3.505  1.00  0.00     0.163 HD
ATOM     77  O   UNL     1       8.229  -0.213   5.479  1.00  0.00    -0.275 OA
BRANCH  75  78
ATOM     78  C   UNL     1       6.346   0.651   6.677  1.00  0.00     0.127 C 
ATOM     79  C   UNL     1       5.061   1.537   6.612  1.00  0.00     0.127 C 
ATOM     80  C   UNL     1       7.352   1.652   7.322  1.00  0.00     0.155 C 
ATOM     81  C   UNL     1       5.606   2.888   7.050  1.00  0.00     0.155 C 
ATOM     82  C   UNL     1       7.747   2.700   6.319  1.00  0.00     0.004 C 
ATOM     83  O   UNL     1       6.464   2.468   8.132  1.00  0.00    -0.365 OA
ATOM     84  C   UNL     1       6.644   3.422   6.102  1.00  0.00     0.004 C 
BRANCH  79  85
ATOM     85  C   UNL     1       3.915   0.815   7.347  1.00  0.00     0.231 C 
ATOM     86  O   UNL     1       3.324  -0.088   6.732  1.00  0.00    -0.274 OA
ATOM     87  N   UNL     1       3.601   0.903   8.665  1.00  0.00    -0.325 N 
ATOM     88  H   UNL     1       3.150   0.103   9.019  1.00  0.00     0.169 HD
BRANCH  87  89
ATOM     89  C   UNL     1       3.793   1.906   9.613  1.00  0.00     0.048 A 
ATOM     90  C   UNL     1       4.085   1.530  10.925  1.00  0.00     0.026 A 
ATOM     91  C   UNL     1       3.660   3.252   9.303  1.00  0.00     0.111 A 
ATOM     92  C   UNL     1       4.434   2.498  11.871  1.00  0.00     0.009 A 
ATOM     93  C   UNL     1       4.092   4.216  10.220  1.00  0.00     0.271 A 
ATOM     94  C   UNL     1       4.487   3.844  11.508  1.00  0.00     0.086 A 
BRANCH  93  95
ATOM     95  N   UNL     1       4.205   5.613   9.787  1.00  0.00     0.062 N 
ATOM     96  O   UNL     1       4.754   6.413  10.556  1.00  0.00    -0.258 OA
ATOM     97  O   UNL     1       3.760   5.905   8.667  1.00  0.00    -0.258 OA
ENDBRANCH  93  95
ENDBRANCH  87  89
ENDBRANCH  79  85
ENDBRANCH  75  78
ENDBRANCH  73  74
ENDBRANCH   1  73
TORSDOF 14
