REMARK SMILES COc1ccc(C(=O)CCCC(=O)NCCCCNC(=O)c2ccc(-c3c4nc(c(-c5c(F)c(F)c(F)c(F)c5F)c5ccc([nH]5)c(-c5c(F)c(F)c(F)c(F)c5F)c5nc(c(-c6c(F)c(F)c(F)c(F)c6F)c6ccc3[nH]6)C=C5)C=C4)cc2)cc1
REMARK SMILES IDX 15 1 14 2 12 3 13 4 11 6 10 7 9 8 7 9 8 10 6 11 3 12 4 13
REMARK SMILES IDX 86 14 5 15 85 16 2 17 1 18 16 19 17 20 18 21 19 22 20 23
REMARK SMILES IDX 21 25 22 26 23 27 84 28 24 29 83 30 25 31 26 32 27 33 77 34
REMARK SMILES IDX 28 35 82 36 76 37 78 38 29 39 81 40 75 41 74 42 30 44 62 45
REMARK SMILES IDX 42 46 61 47 43 48 46 49 60 50 79 51 44 52 45 53 59 55 80 56
REMARK SMILES IDX 47 57 31 58 32 59 40 60 33 61 34 62 38 63 41 64 35 65 36 66
REMARK SMILES IDX 39 67 37 68 63 69 64 70 72 71 65 72 66 73 70 74 73 75 67 76
REMARK SMILES IDX 68 77 71 78 69 79 48 80 49 81 57 82 50 83 51 84 55 85 58 86
REMARK SMILES IDX 52 87 53 88 56 89 54 90
REMARK H PARENT 14 5 19 24 78 43 46 54
REMARK Flexibility Score: inf
ROOT
ATOM      1  C   UNL     1       4.663   5.050   2.318  1.00  0.00     0.116 C 
ENDROOT
BRANCH   1   2
ATOM      2  N   UNL     1       5.650   4.145   2.866  1.00  0.00    -0.356 N 
ATOM      3  C   UNL     1       5.647   3.192   3.826  1.00  0.00     0.220 C 
ATOM      4  O   UNL     1       6.735   2.631   4.010  1.00  0.00    -0.275 OA
ATOM      5  H   UNL     1       6.532   4.247   2.440  1.00  0.00     0.163 HD
BRANCH   3   6
ATOM      6  C   UNL     1       4.421   2.680   4.579  1.00  0.00     0.100 C 
BRANCH   6   7
ATOM      7  C   UNL     1       3.570   3.562   5.489  1.00  0.00     0.018 C 
BRANCH   7   8
ATOM      8  C   UNL     1       2.687   4.695   4.980  1.00  0.00     0.081 C 
BRANCH   8   9
ATOM      9  C   UNL     1       1.279   4.505   4.399  1.00  0.00     0.162 C 
ATOM     10  O   UNL     1       0.359   5.164   4.899  1.00  0.00    -0.294 OA
BRANCH   9  11
ATOM     11  C   UNL     1       0.930   3.676   3.193  1.00  0.00     0.018 A 
ATOM     12  C   UNL     1       0.084   2.094   0.991  1.00  0.00     0.118 A 
ATOM     13  C   UNL     1      -0.822   2.905   1.669  1.00  0.00     0.047 A 
ATOM     14  C   UNL     1       1.419   2.128   1.364  1.00  0.00     0.047 A 
ATOM     15  C   UNL     1      -0.407   3.676   2.764  1.00  0.00     0.015 A 
ATOM     16  C   UNL     1       1.828   2.926   2.441  1.00  0.00     0.015 A 
BRANCH  12  17
ATOM     17  O   UNL     1      -0.422   1.345  -0.033  1.00  0.00    -0.497 OA
ATOM     18  C   UNL     1       0.302   0.153  -0.332  1.00  0.00     0.278 C 
ENDBRANCH  12  17
ENDBRANCH   9  11
ENDBRANCH   8   9
ENDBRANCH   7   8
ENDBRANCH   6   7
ENDBRANCH   3   6
ENDBRANCH   1   2
BRANCH   1  19
ATOM     19  C   UNL     1       4.918   6.494   2.757  1.00  0.00     0.023 C 
BRANCH  19  20
ATOM     20  C   UNL     1       5.683   7.313   1.724  1.00  0.00     0.023 C 
BRANCH  20  21
ATOM     21  C   UNL     1       4.897   7.593   0.447  1.00  0.00     0.116 C 
BRANCH  21  22
ATOM     22  N   UNL     1       3.727   8.438   0.649  1.00  0.00    -0.352 N 
ATOM     23  C   UNL     1       3.282   9.473  -0.141  1.00  0.00     0.251 C 
ATOM     24  H   UNL     1       3.188   8.244   1.450  1.00  0.00     0.163 HD
ATOM     25  O   UNL     1       2.318  10.155   0.188  1.00  0.00    -0.269 OA
BRANCH  23  26
ATOM     26  C   UNL     1       4.025   9.784  -1.377  1.00  0.00     0.039 A 
ATOM     27  C   UNL     1       4.533  11.072  -1.552  1.00  0.00     0.014 A 
ATOM     28  C   UNL     1       4.310   8.772  -2.298  1.00  0.00     0.014 A 
ATOM     29  C   UNL     1       5.411  11.324  -2.607  1.00  0.00     0.010 A 
ATOM     30  C   UNL     1       5.243   9.005  -3.300  1.00  0.00     0.010 A 
ATOM     31  C   UNL     1       5.812  10.280  -3.457  1.00  0.00    -0.014 A 
BRANCH  31  32
ATOM     32  C   UNL     1       6.838  10.491  -4.508  1.00  0.00     0.031 A 
ATOM     33  C   UNL     1       6.476  10.312  -5.954  1.00  0.00     0.074 A 
ATOM     34  C   UNL     1       8.112  10.755  -4.156  1.00  0.00     0.049 A 
ATOM     35  N   UNL     1       7.247  10.347  -7.011  1.00  0.00    -0.248 NA
ATOM     36  C   UNL     1       5.065  10.018  -6.248  1.00  0.00     0.031 C 
ATOM     37  C   UNL     1       8.602  10.891  -2.783  1.00  0.00     0.029 A 
ATOM     38  N   UNL     1       9.232  10.942  -4.927  1.00  0.00    -0.354 N 
ATOM     39  C   UNL     1       6.421  10.055  -8.088  1.00  0.00     0.074 A 
ATOM     40  C   UNL     1       5.101   9.797  -7.554  1.00  0.00     0.031 C 
ATOM     41  C   UNL     1       9.918  11.161  -2.810  1.00  0.00     0.029 A 
ATOM     42  C   UNL     1      10.370  11.185  -4.197  1.00  0.00     0.049 A 
ATOM     43  H   UNL     1       9.221  10.906  -5.911  1.00  0.00     0.167 HD
ATOM     44  C   UNL     1       6.730  10.029  -9.406  1.00  0.00     0.037 A 
ATOM     45  C   UNL     1      11.636  11.399  -4.603  1.00  0.00     0.037 A 
ATOM     46  C   UNL     1       8.031  10.332  -9.938  1.00  0.00     0.049 A 
ATOM     47  C   UNL     1      11.945  11.400  -6.075  1.00  0.00     0.074 A 
ATOM     48  C   UNL     1       8.426  10.406 -11.262  1.00  0.00     0.029 A 
ATOM     49  N   UNL     1       9.148  10.621  -9.169  1.00  0.00    -0.354 N 
ATOM     50  N   UNL     1      11.141  11.189  -7.089  1.00  0.00    -0.248 NA
ATOM     51  C   UNL     1      13.337  11.675  -6.461  1.00  0.00     0.031 C 
ATOM     52  C   UNL     1       9.792  10.710 -11.294  1.00  0.00     0.029 A 
ATOM     53  C   UNL     1      10.237  10.862  -9.991  1.00  0.00     0.049 A 
ATOM     54  H   UNL     1       9.165  10.651  -8.185  1.00  0.00     0.167 HD
ATOM     55  C   UNL     1      11.919  11.331  -8.229  1.00  0.00     0.074 A 
ATOM     56  C   UNL     1      13.258  11.658  -7.784  1.00  0.00     0.031 C 
ATOM     57  C   UNL     1      11.558  11.200  -9.528  1.00  0.00     0.037 A 
BRANCH  44  58
ATOM     58  C   UNL     1       5.634   9.672 -10.365  1.00  0.00     0.064 A 
ATOM     59  C   UNL     1       4.571  10.550 -10.624  1.00  0.00     0.173 A 
ATOM     60  C   UNL     1       5.660   8.450 -11.052  1.00  0.00     0.173 A 
ATOM     61  F   UNL     1       4.494  11.725  -9.980  1.00  0.00    -0.203 F 
ATOM     62  C   UNL     1       3.559  10.206 -11.516  1.00  0.00     0.198 A 
ATOM     63  C   UNL     1       4.661   8.121 -11.965  1.00  0.00     0.198 A 
ATOM     64  F   UNL     1       6.656   7.576 -10.842  1.00  0.00    -0.203 F 
ATOM     65  F   UNL     1       2.529  11.040 -11.711  1.00  0.00    -0.200 F 
ATOM     66  C   UNL     1       3.608   8.995 -12.190  1.00  0.00     0.200 A 
ATOM     67  F   UNL     1       4.714   6.954 -12.623  1.00  0.00    -0.200 F 
ATOM     68  F   UNL     1       2.635   8.667 -13.051  1.00  0.00    -0.200 F 
ENDBRANCH  44  58
BRANCH  45  69
ATOM     69  C   UNL     1      12.703  11.665  -3.604  1.00  0.00     0.064 A 
ATOM     70  C   UNL     1      13.261  12.945  -3.475  1.00  0.00     0.173 A 
ATOM     71  C   UNL     1      13.192  10.652  -2.768  1.00  0.00     0.173 A 
ATOM     72  F   UNL     1      12.840  13.941  -4.269  1.00  0.00    -0.203 F 
ATOM     73  C   UNL     1      14.282  13.197  -2.562  1.00  0.00     0.198 A 
ATOM     74  C   UNL     1      14.196  10.911  -1.837  1.00  0.00     0.198 A 
ATOM     75  F   UNL     1      12.688   9.412  -2.849  1.00  0.00    -0.203 F 
ATOM     76  F   UNL     1      14.827  14.419  -2.490  1.00  0.00    -0.200 F 
ATOM     77  C   UNL     1      14.746  12.181  -1.740  1.00  0.00     0.200 A 
ATOM     78  F   UNL     1      14.634   9.930  -1.036  1.00  0.00    -0.200 F 
ATOM     79  F   UNL     1      15.727  12.424  -0.860  1.00  0.00    -0.200 F 
ENDBRANCH  45  69
BRANCH  57  80
ATOM     80  C   UNL     1      12.614  11.446 -10.563  1.00  0.00     0.064 A 
ATOM     81  C   UNL     1      13.632  10.513 -10.807  1.00  0.00     0.173 A 
ATOM     82  C   UNL     1      12.578  12.605 -11.352  1.00  0.00     0.173 A 
ATOM     83  F   UNL     1      13.717   9.397 -10.067  1.00  0.00    -0.203 F 
ATOM     84  C   UNL     1      14.588  10.742 -11.793  1.00  0.00     0.198 A 
ATOM     85  C   UNL     1      13.520  12.818 -12.354  1.00  0.00     0.198 A 
ATOM     86  F   UNL     1      11.620  13.524 -11.160  1.00  0.00    -0.203 F 
ATOM     87  F   UNL     1      15.575   9.856 -11.984  1.00  0.00    -0.200 F 
ATOM     88  C   UNL     1      14.527  11.889 -12.570  1.00  0.00     0.200 A 
ATOM     89  F   UNL     1      13.454  13.922 -13.111  1.00  0.00    -0.200 F 
ATOM     90  F   UNL     1      15.444  12.103 -13.524  1.00  0.00    -0.200 F 
ENDBRANCH  57  80
ENDBRANCH  31  32
ENDBRANCH  23  26
ENDBRANCH  21  22
ENDBRANCH  20  21
ENDBRANCH  19  20
ENDBRANCH   1  19
TORSDOF 16
