REMARK SMILES Cc1ccc(S(=O)(=O)Nc2ccc(N3CCCCCC3)cc2C(=O)NCCCCNC(=O)c2ccc(-c3c4nc(c(-c5c(F)c(F)c(F)c(F)c5F)c5ccc([nH]5)c(-c5c(F)c(F)c(F)c(F)c5F)c5nc(c(-c6c(F)c(F)c(F)c(F)c6F)c6ccc3[nH]6)C=C5)C=C4)cc2)cc1
REMARK SMILES IDX 26 1 25 2 23 3 24 4 22 6 10 7 11 8 12 9 21 10 13 11 9 12
REMARK SMILES IDX 6 14 7 15 8 16 5 17 1 18 2 19 3 20 97 21 4 22 96 23 14 24
REMARK SMILES IDX 15 25 16 26 17 27 18 28 20 30 19 31 27 33 28 34 29 35 30 36
REMARK SMILES IDX 31 37 32 39 33 40 34 41 95 42 35 43 94 44 36 45 37 46 38 47
REMARK SMILES IDX 88 48 39 49 93 50 87 51 89 52 40 53 92 54 86 55 85 56 41 58
REMARK SMILES IDX 73 59 53 60 72 61 54 62 57 63 71 64 90 65 55 66 56 67 70 69
REMARK SMILES IDX 91 70 58 71 42 72 43 73 51 74 44 75 45 76 49 77 52 78 46 79
REMARK SMILES IDX 47 80 50 81 48 82 74 83 75 84 83 85 76 86 77 87 81 88 84 89
REMARK SMILES IDX 78 90 79 91 82 92 80 93 59 94 60 95 68 96 61 97 62 98 66 99
REMARK SMILES IDX 69 100 63 101 64 102 67 103 65 104
REMARK H PARENT 25 5 9 13 30 38 89 57 57 68
REMARK Flexibility Score: 90.00
ROOT
ATOM      1  C   UNL     1       0.593   2.792  -2.873  1.00  0.00     0.116 C 
ENDROOT
BRANCH   1   2
ATOM      2  N   UNL     1      -0.621   1.976  -2.915  1.00  0.00    -0.352 N 
ATOM      3  C   UNL     1      -1.889   2.058  -2.366  1.00  0.00     0.253 C 
ATOM      4  O   UNL     1      -2.708   1.232  -2.766  1.00  0.00    -0.269 OA
ATOM      5  H   UNL     1      -0.507   1.170  -3.469  1.00  0.00     0.163 HD
BRANCH   3   6
ATOM      6  C   UNL     1      -2.264   3.036  -1.304  1.00  0.00     0.066 A 
ATOM      7  C   UNL     1      -3.185   2.739  -0.284  1.00  0.00     0.062 A 
ATOM      8  C   UNL     1      -3.324   3.629   0.792  1.00  0.00     0.030 A 
ATOM      9  C   UNL     1      -2.539   4.792   0.858  1.00  0.00     0.028 A 
ATOM     10  C   UNL     1      -1.682   4.303  -1.309  1.00  0.00     0.042 A 
ATOM     11  C   UNL     1      -1.696   5.152  -0.197  1.00  0.00     0.038 A 
BRANCH   7  12
ATOM     12  N   UNL     1      -4.000   1.555  -0.317  1.00  0.00    -0.279 N 
ATOM     13  H   UNL     1      -4.837   1.556  -0.836  1.00  0.00     0.180 HD
BRANCH  12  14
ATOM     14  S   UNL     1      -3.541   0.158   0.525  1.00  0.00     0.261 S 
ATOM     15  O   UNL     1      -4.132  -0.962  -0.188  1.00  0.00    -0.201 OA
ATOM     16  O   UNL     1      -3.887   0.390   1.909  1.00  0.00    -0.201 OA
BRANCH  14  17
ATOM     17  C   UNL     1      -1.777  -0.002   0.454  1.00  0.00     0.087 A 
ATOM     18  C   UNL     1       2.498  -0.455   0.502  1.00  0.00     0.044 C 
ATOM     19  C   UNL     1       1.006  -0.304   0.480  1.00  0.00    -0.051 A 
ATOM     20  C   UNL     1       0.192  -1.294  -0.086  1.00  0.00     0.005 A 
ATOM     21  C   UNL     1       0.411   0.812   1.077  1.00  0.00     0.005 A 
ATOM     22  C   UNL     1      -1.197  -1.139  -0.114  1.00  0.00     0.022 A 
ATOM     23  C   UNL     1      -0.975   0.949   1.090  1.00  0.00     0.022 A 
ENDBRANCH  14  17
ENDBRANCH  12  14
ENDBRANCH   7  12
BRANCH  11  24
ATOM     24  N   UNL     1      -0.864   6.277  -0.135  1.00  0.00    -0.372 N 
BRANCH  24  25
ATOM     25  C   UNL     1       0.114   6.298   0.964  1.00  0.00     0.116 C 
BRANCH  25  26
ATOM     26  C   UNL     1      -0.057   7.540   1.835  1.00  0.00     0.021 C 
BRANCH  26  27
ATOM     27  C   UNL     1       0.361   8.857   1.183  1.00  0.00     0.002 C 
BRANCH  27  28
ATOM     28  C   UNL     1      -0.301   9.151  -0.162  1.00  0.00     0.002 CG0
ATOM     29  G   UNL     1       0.234   8.249  -1.267  1.00  0.00     0.000 G0
ENDBRANCH  27  28
ENDBRANCH  26  27
ENDBRANCH  25  26
ENDBRANCH  24  25
BRANCH  24  30
ATOM     30  C   UNL     1      -0.488   6.915  -1.403  1.00  0.00     0.116 C 
BRANCH  30  31
ATOM     31  C   UNL     1       0.234   8.249  -1.267  1.00  0.00     0.021 CG0
ATOM     32  G   UNL     1      -0.301   9.151  -0.162  1.00  0.00     0.000 G0
ENDBRANCH  30  31
ENDBRANCH  24  30
ENDBRANCH  11  24
ENDBRANCH   3   6
ENDBRANCH   1   2
BRANCH   1  33
ATOM     33  C   UNL     1       1.806   2.174  -2.179  1.00  0.00     0.023 C 
BRANCH  33  34
ATOM     34  C   UNL     1       2.294   0.843  -2.730  1.00  0.00     0.023 C 
BRANCH  34  35
ATOM     35  C   UNL     1       2.855   0.909  -4.138  1.00  0.00     0.116 C 
BRANCH  35  36
ATOM     36  N   UNL     1       4.268   1.268  -4.230  1.00  0.00    -0.352 N 
ATOM     37  C   UNL     1       5.094   1.334  -5.346  1.00  0.00     0.251 C 
ATOM     38  H   UNL     1       4.699   1.497  -3.376  1.00  0.00     0.163 HD
ATOM     39  O   UNL     1       6.291   1.569  -5.215  1.00  0.00    -0.269 OA
BRANCH  37  40
ATOM     40  C   UNL     1       4.492   1.315  -6.706  1.00  0.00     0.039 A 
ATOM     41  C   UNL     1       4.854   2.369  -7.553  1.00  0.00     0.014 A 
ATOM     42  C   UNL     1       3.311   0.626  -6.922  1.00  0.00     0.014 A 
ATOM     43  C   UNL     1       3.873   2.973  -8.326  1.00  0.00     0.010 A 
ATOM     44  C   UNL     1       2.293   1.317  -7.529  1.00  0.00     0.010 A 
ATOM     45  C   UNL     1       2.567   2.533  -8.162  1.00  0.00    -0.014 A 
BRANCH  45  46
ATOM     46  C   UNL     1       1.407   3.189  -8.723  1.00  0.00     0.031 A 
ATOM     47  C   UNL     1       0.921   2.657 -10.002  1.00  0.00     0.074 A 
ATOM     48  C   UNL     1       0.736   4.125  -8.019  1.00  0.00     0.049 A 
ATOM     49  N   UNL     1       0.100   3.265 -10.775  1.00  0.00    -0.248 NA
ATOM     50  C   UNL     1       1.392   1.387 -10.544  1.00  0.00     0.031 C 
ATOM     51  C   UNL     1      -0.600   4.652  -8.277  1.00  0.00     0.029 A 
ATOM     52  N   UNL     1       1.226   4.936  -6.982  1.00  0.00    -0.354 N 
ATOM     53  C   UNL     1      -0.288   2.376 -11.751  1.00  0.00     0.074 A 
ATOM     54  C   UNL     1       0.620   1.266 -11.624  1.00  0.00     0.031 C 
ATOM     55  C   UNL     1      -0.717   5.851  -7.683  1.00  0.00     0.029 A 
ATOM     56  C   UNL     1       0.587   6.196  -7.153  1.00  0.00     0.049 A 
ATOM     57  H   UNL     1       1.873   4.686  -6.285  1.00  0.00     0.167 HD
ATOM     58  C   UNL     1      -1.423   2.662 -12.450  1.00  0.00     0.037 A 
ATOM     59  C   UNL     1       1.326   7.292  -7.515  1.00  0.00     0.037 A 
ATOM     60  C   UNL     1      -1.874   4.023 -12.128  1.00  0.00     0.049 A 
ATOM     61  C   UNL     1       1.040   7.772  -8.925  1.00  0.00     0.074 A 
ATOM     62  C   UNL     1      -2.821   4.559 -11.271  1.00  0.00     0.029 A 
ATOM     63  N   UNL     1      -1.029   5.073 -12.448  1.00  0.00    -0.354 N 
ATOM     64  N   UNL     1       0.176   7.218  -9.731  1.00  0.00    -0.248 NA
ATOM     65  C   UNL     1       1.779   8.857  -9.565  1.00  0.00     0.031 C 
ATOM     66  C   UNL     1      -2.501   5.938 -11.059  1.00  0.00     0.029 A 
ATOM     67  C   UNL     1      -1.384   6.249 -11.815  1.00  0.00     0.049 A 
ATOM     68  H   UNL     1      -0.261   4.991 -13.059  1.00  0.00     0.167 HD
ATOM     69  C   UNL     1       0.242   7.810 -10.962  1.00  0.00     0.074 A 
ATOM     70  C   UNL     1       1.286   8.812 -10.814  1.00  0.00     0.031 C 
ATOM     71  C   UNL     1      -0.543   7.424 -12.016  1.00  0.00     0.037 A 
BRANCH  58  72
ATOM     72  C   UNL     1      -2.243   1.654 -13.230  1.00  0.00     0.064 A 
ATOM     73  C   UNL     1      -3.596   1.929 -13.524  1.00  0.00     0.173 A 
ATOM     74  C   UNL     1      -1.809   0.381 -13.657  1.00  0.00     0.173 A 
ATOM     75  F   UNL     1      -4.139   3.123 -13.253  1.00  0.00    -0.203 F 
ATOM     76  C   UNL     1      -4.451   0.986 -14.106  1.00  0.00     0.198 A 
ATOM     77  C   UNL     1      -2.671  -0.575 -14.205  1.00  0.00     0.198 A 
ATOM     78  F   UNL     1      -0.528   0.014 -13.621  1.00  0.00    -0.203 F 
ATOM     79  F   UNL     1      -5.729   1.309 -14.346  1.00  0.00    -0.200 F 
ATOM     80  C   UNL     1      -3.995  -0.276 -14.422  1.00  0.00     0.200 A 
ATOM     81  F   UNL     1      -2.195  -1.788 -14.525  1.00  0.00    -0.200 F 
ATOM     82  F   UNL     1      -4.818  -1.189 -14.954  1.00  0.00    -0.200 F 
ENDBRANCH  58  72
BRANCH  59  83
ATOM     83  C   UNL     1       2.661   7.282  -6.837  1.00  0.00     0.064 A 
ATOM     84  C   UNL     1       2.618   7.185  -5.430  1.00  0.00     0.173 A 
ATOM     85  C   UNL     1       3.772   6.741  -7.493  1.00  0.00     0.173 A 
ATOM     86  F   UNL     1       1.617   7.763  -4.746  1.00  0.00    -0.203 F 
ATOM     87  C   UNL     1       3.437   6.279  -4.767  1.00  0.00     0.198 A 
ATOM     88  C   UNL     1       4.647   5.904  -6.803  1.00  0.00     0.198 A 
ATOM     89  F   UNL     1       3.918   6.879  -8.818  1.00  0.00    -0.203 F 
ATOM     90  F   UNL     1       3.181   5.965  -3.487  1.00  0.00    -0.200 F 
ATOM     91  C   UNL     1       4.415   5.595  -5.469  1.00  0.00     0.200 A 
ATOM     92  F   UNL     1       5.643   5.301  -7.465  1.00  0.00    -0.200 F 
ATOM     93  F   UNL     1       5.088   4.601  -4.875  1.00  0.00    -0.200 F 
ENDBRANCH  59  83
BRANCH  71  94
ATOM     94  C   UNL     1      -0.537   8.121 -13.357  1.00  0.00     0.064 A 
ATOM     95  C   UNL     1      -0.359   9.508 -13.487  1.00  0.00     0.173 A 
ATOM     96  C   UNL     1      -0.801   7.434 -14.566  1.00  0.00     0.173 A 
ATOM     97  F   UNL     1      -0.275  10.299 -12.408  1.00  0.00    -0.203 F 
ATOM     98  C   UNL     1      -0.296  10.133 -14.735  1.00  0.00     0.198 A 
ATOM     99  C   UNL     1      -0.802   8.070 -15.805  1.00  0.00     0.198 A 
ATOM    100  F   UNL     1      -1.052   6.120 -14.604  1.00  0.00    -0.203 F 
ATOM    101  F   UNL     1      -0.027  11.443 -14.805  1.00  0.00    -0.200 F 
ATOM    102  C   UNL     1      -0.513   9.413 -15.893  1.00  0.00     0.200 A 
ATOM    103  F   UNL     1      -1.073   7.362 -16.911  1.00  0.00    -0.200 F 
ATOM    104  F   UNL     1      -0.456  10.012 -17.089  1.00  0.00    -0.200 F 
ENDBRANCH  71  94
ENDBRANCH  45  46
ENDBRANCH  37  40
ENDBRANCH  35  36
ENDBRANCH  34  35
ENDBRANCH  33  34
ENDBRANCH   1  33
TORSDOF 15
