REMARK SMILES CC(C)Cc1ccc([C@H](C)C(=O)NCCCCNC(=O)c2ccc(-c3c4nc(c(-c5c(F)c(F)c(F)c(F)c5F)c5ccc([nH]5)c(-c5c(F)c(F)c(F)c(F)c5F)c5nc(c(-c6c(F)c(F)c(F)c(F)c6F)c6ccc3[nH]6)C=C5)C=C4)cc2)cc1
REMARK SMILES IDX 15 1 14 2 13 3 11 4 12 5 9 7 10 8 8 9 5 10 6 11 85 12 7 13
REMARK SMILES IDX 84 14 4 15 2 16 1 17 3 18 16 19 17 20 18 21 19 22 20 24
REMARK SMILES IDX 21 25 22 26 83 27 23 28 82 29 24 30 25 31 26 32 76 33 27 34
REMARK SMILES IDX 81 35 75 36 77 37 28 38 80 39 74 40 73 41 29 43 61 44 41 45
REMARK SMILES IDX 60 46 42 47 45 48 59 49 78 50 43 51 44 52 58 54 79 55 46 56
REMARK SMILES IDX 30 57 31 58 39 59 32 60 33 61 37 62 40 63 34 64 35 65 38 66
REMARK SMILES IDX 36 67 62 68 63 69 71 70 64 71 65 72 69 73 72 74 66 75 67 76
REMARK SMILES IDX 70 77 68 78 47 79 48 80 56 81 49 82 50 83 54 84 57 85 51 86
REMARK SMILES IDX 52 87 55 88 53 89
REMARK H PARENT 13 6 18 23 77 42 45 53
REMARK Flexibility Score: inf
ROOT
ATOM      1  C   UNL     1      -3.826   0.686   4.677  1.00  0.00     0.023 C 
ENDROOT
BRANCH   1   2
ATOM      2  C   UNL     1      -3.298  -0.650   5.181  1.00  0.00     0.116 C 
BRANCH   2   3
ATOM      3  N   UNL     1      -4.115  -1.763   4.726  1.00  0.00    -0.356 N 
ATOM      4  C   UNL     1      -3.727  -2.964   4.203  1.00  0.00     0.227 C 
ATOM      5  O   UNL     1      -4.606  -3.805   3.995  1.00  0.00    -0.274 OA
ATOM      6  H   UNL     1      -5.087  -1.632   4.805  1.00  0.00     0.163 HD
BRANCH   4   7
ATOM      7  C   UNL     1      -2.262  -3.249   3.859  1.00  0.00     0.105 C 
ATOM      8  C   UNL     1      -1.869  -2.377   2.655  1.00  0.00     0.023 C 
BRANCH   7   9
ATOM      9  C   UNL     1      -1.299  -3.221   5.047  1.00  0.00    -0.036 A 
ATOM     10  C   UNL     1       0.511  -3.259   7.227  1.00  0.00    -0.048 A 
ATOM     11  C   UNL     1      -0.865  -3.212   7.451  1.00  0.00     0.004 A 
ATOM     12  C   UNL     1       0.981  -3.293   5.911  1.00  0.00     0.004 A 
ATOM     13  C   UNL     1      -1.755  -3.226   6.377  1.00  0.00     0.005 A 
ATOM     14  C   UNL     1       0.087  -3.282   4.838  1.00  0.00     0.005 A 
BRANCH  10  15
ATOM     15  C   UNL     1       1.463  -3.393   8.389  1.00  0.00     0.038 C 
BRANCH  15  16
ATOM     16  C   UNL     1       1.477  -4.826   8.959  1.00  0.00    -0.013 C 
ATOM     17  C   UNL     1       1.998  -5.846   7.941  1.00  0.00     0.008 C 
ATOM     18  C   UNL     1       2.324  -4.880  10.229  1.00  0.00     0.008 C 
ENDBRANCH  15  16
ENDBRANCH  10  15
ENDBRANCH   7   9
ENDBRANCH   4   7
ENDBRANCH   2   3
ENDBRANCH   1   2
BRANCH   1  19
ATOM     19  C   UNL     1      -5.185   1.081   5.252  1.00  0.00     0.023 C 
BRANCH  19  20
ATOM     20  C   UNL     1      -5.260   1.101   6.775  1.00  0.00     0.116 C 
BRANCH  20  21
ATOM     21  N   UNL     1      -4.305   2.019   7.378  1.00  0.00    -0.352 N 
ATOM     22  C   UNL     1      -4.527   3.022   8.290  1.00  0.00     0.251 C 
ATOM     23  H   UNL     1      -3.369   1.905   7.093  1.00  0.00     0.163 HD
ATOM     24  O   UNL     1      -3.633   3.807   8.587  1.00  0.00    -0.269 OA
BRANCH  22  25
ATOM     25  C   UNL     1      -5.869   3.167   8.890  1.00  0.00     0.039 A 
ATOM     26  C   UNL     1      -6.471   4.426   8.905  1.00  0.00     0.014 A 
ATOM     27  C   UNL     1      -6.542   2.053   9.398  1.00  0.00     0.014 A 
ATOM     28  C   UNL     1      -7.784   4.555   9.362  1.00  0.00     0.010 A 
ATOM     29  C   UNL     1      -7.875   2.168   9.774  1.00  0.00     0.010 A 
ATOM     30  C   UNL     1      -8.509   3.420   9.761  1.00  0.00    -0.014 A 
BRANCH  30  31
ATOM     31  C   UNL     1      -9.935   3.519  10.163  1.00  0.00     0.031 A 
ATOM     32  C   UNL     1     -10.352   3.162  11.561  1.00  0.00     0.074 A 
ATOM     33  C   UNL     1     -10.863   3.864   9.249  1.00  0.00     0.049 A 
ATOM     34  N   UNL     1     -11.551   3.127  12.086  1.00  0.00    -0.248 NA
ATOM     35  C   UNL     1      -9.281   2.759  12.485  1.00  0.00     0.031 C 
ATOM     36  C   UNL     1     -10.590   4.185   7.847  1.00  0.00     0.029 A 
ATOM     37  N   UNL     1     -12.224   3.994   9.361  1.00  0.00    -0.354 N 
ATOM     38  C   UNL     1     -11.378   2.687  13.391  1.00  0.00     0.074 A 
ATOM     39  C   UNL     1      -9.969   2.406  13.559  1.00  0.00     0.031 C 
ATOM     40  C   UNL     1     -11.743   4.506   7.238  1.00  0.00     0.029 A 
ATOM     41  C   UNL     1     -12.839   4.373   8.193  1.00  0.00     0.049 A 
ATOM     42  H   UNL     1     -12.714   3.831  10.199  1.00  0.00     0.167 HD
ATOM     43  C   UNL     1     -12.306   2.554  14.369  1.00  0.00     0.037 A 
ATOM     44  C   UNL     1     -14.141   4.586   7.922  1.00  0.00     0.037 A 
ATOM     45  C   UNL     1     -13.705   2.850  14.200  1.00  0.00     0.049 A 
ATOM     46  C   UNL     1     -15.156   4.414   9.019  1.00  0.00     0.074 A 
ATOM     47  C   UNL     1     -14.716   2.809  15.143  1.00  0.00     0.029 A 
ATOM     48  N   UNL     1     -14.291   3.235  13.002  1.00  0.00    -0.354 N 
ATOM     49  N   UNL     1     -14.973   4.072  10.271  1.00  0.00    -0.248 NA
ATOM     50  C   UNL     1     -16.560   4.663   8.664  1.00  0.00     0.031 C 
ATOM     51  C   UNL     1     -15.923   3.114  14.503  1.00  0.00     0.029 A 
ATOM     52  C   UNL     1     -15.656   3.405  13.175  1.00  0.00     0.049 A 
ATOM     53  H   UNL     1     -13.809   3.368  12.154  1.00  0.00     0.167 HD
ATOM     54  C   UNL     1     -16.230   4.093  10.861  1.00  0.00     0.074 A 
ATOM     55  C   UNL     1     -17.166   4.495   9.831  1.00  0.00     0.031 C 
ATOM     56  C   UNL     1     -16.576   3.808  12.140  1.00  0.00     0.037 A 
BRANCH  43  57
ATOM     57  C   UNL     1     -11.832   2.058  15.706  1.00  0.00     0.064 A 
ATOM     58  C   UNL     1     -10.986   2.827  16.521  1.00  0.00     0.173 A 
ATOM     59  C   UNL     1     -12.234   0.801  16.183  1.00  0.00     0.173 A 
ATOM     60  F   UNL     1     -10.563   4.032  16.110  1.00  0.00    -0.203 F 
ATOM     61  C   UNL     1     -10.525   2.337  17.741  1.00  0.00     0.198 A 
ATOM     62  C   UNL     1     -11.800   0.331  17.419  1.00  0.00     0.198 A 
ATOM     63  F   UNL     1     -13.048   0.027  15.449  1.00  0.00    -0.203 F 
ATOM     64  F   UNL     1      -9.664   3.062  18.469  1.00  0.00    -0.200 F 
ATOM     65  C   UNL     1     -10.936   1.093  18.191  1.00  0.00     0.200 A 
ATOM     66  F   UNL     1     -12.210  -0.867  17.860  1.00  0.00    -0.200 F 
ATOM     67  F   UNL     1     -10.492   0.623  19.365  1.00  0.00    -0.200 F 
ENDBRANCH  43  57
BRANCH  44  68
ATOM     68  C   UNL     1     -14.550   5.023   6.562  1.00  0.00     0.064 A 
ATOM     69  C   UNL     1     -15.020   6.325   6.340  1.00  0.00     0.173 A 
ATOM     70  C   UNL     1     -14.466   4.162   5.458  1.00  0.00     0.173 A 
ATOM     71  F   UNL     1     -15.137   7.179   7.367  1.00  0.00    -0.203 F 
ATOM     72  C   UNL     1     -15.404   6.745   5.068  1.00  0.00     0.198 A 
ATOM     73  C   UNL     1     -14.824   4.592   4.182  1.00  0.00     0.198 A 
ATOM     74  F   UNL     1     -14.018   2.908   5.617  1.00  0.00    -0.203 F 
ATOM     75  F   UNL     1     -15.886   7.982   4.891  1.00  0.00    -0.200 F 
ATOM     76  C   UNL     1     -15.299   5.880   3.989  1.00  0.00     0.200 A 
ATOM     77  F   UNL     1     -14.706   3.759   3.139  1.00  0.00    -0.200 F 
ATOM     78  F   UNL     1     -15.659   6.288   2.764  1.00  0.00    -0.200 F 
ENDBRANCH  44  68
BRANCH  56  79
ATOM     79  C   UNL     1     -18.025   3.954  12.511  1.00  0.00     0.064 A 
ATOM     80  C   UNL     1     -19.001   3.061  12.044  1.00  0.00     0.173 A 
ATOM     81  C   UNL     1     -18.434   4.978  13.379  1.00  0.00     0.173 A 
ATOM     82  F   UNL     1     -18.665   2.074  11.201  1.00  0.00    -0.203 F 
ATOM     83  C   UNL     1     -20.337   3.205  12.411  1.00  0.00     0.198 A 
ATOM     84  C   UNL     1     -19.764   5.099  13.770  1.00  0.00     0.198 A 
ATOM     85  F   UNL     1     -17.540   5.855  13.860  1.00  0.00    -0.203 F 
ATOM     86  F   UNL     1     -21.260   2.372  11.912  1.00  0.00    -0.200 F 
ATOM     87  C   UNL     1     -20.716   4.218  13.279  1.00  0.00     0.200 A 
ATOM     88  F   UNL     1     -20.126   6.069  14.621  1.00  0.00    -0.200 F 
ATOM     89  F   UNL     1     -22.000   4.350  13.638  1.00  0.00    -0.200 F 
ENDBRANCH  56  79
ENDBRANCH  30  31
ENDBRANCH  22  25
ENDBRANCH  20  21
ENDBRANCH  19  20
ENDBRANCH   1  19
TORSDOF 14
