REMARK SMILES C[C@H]1[NH2+]CC[C@H]1C(=O)N1CCC(C(=O)NCCCCNC(=O)c2ccc(-c3c4nc(c(-c5c(F)c(F)c(F)c(F)c5F)c5ccc([nH]5)c(-c5c(F)c(F)c(F)c(F)c5F)c5nc(c(-c6c(F)c(F)c(F)c(F)c6F)c6ccc3[nH]6)C=C5)C=C4)cc2)CC1
REMARK SMILES IDX 18 1 17 2 16 3 15 4 13 5 14 6 12 8 7 9 8 10 9 11 10 12 87 13
REMARK SMILES IDX 11 14 86 15 6 16 1 17 2 18 3 19 4 20 5 23 19 24 20 25 21 26
REMARK SMILES IDX 22 28 23 29 24 30 85 31 25 32 84 33 26 34 27 35 28 36 78 37
REMARK SMILES IDX 29 38 83 39 77 40 79 41 30 42 82 43 76 44 75 45 31 47 63 48
REMARK SMILES IDX 43 49 62 50 44 51 47 52 61 53 80 54 45 55 46 56 60 58 81 59
REMARK SMILES IDX 48 60 32 61 33 62 41 63 34 64 35 65 39 66 42 67 36 68 37 69
REMARK SMILES IDX 40 70 38 71 64 72 65 73 73 74 66 75 67 76 71 77 74 78 68 79
REMARK SMILES IDX 69 80 72 81 70 82 49 83 50 84 58 85 51 86 52 87 56 88 59 89
REMARK SMILES IDX 53 90 54 91 57 92 55 93
REMARK H PARENT 15 7 3 21 3 22 20 27 79 46 47 57
REMARK Flexibility Score: inf
ROOT
ATOM      1  C   UNL     1       4.921   7.506  -0.597  1.00  0.00     0.023 C 
ENDROOT
BRANCH   1   2
ATOM      2  C   UNL     1       3.857   6.449  -0.306  1.00  0.00     0.023 C 
BRANCH   2   3
ATOM      3  C   UNL     1       4.416   5.120   0.197  1.00  0.00     0.116 C 
BRANCH   3   4
ATOM      4  N   UNL     1       5.005   5.261   1.518  1.00  0.00    -0.356 N 
ATOM      5  C   UNL     1       4.586   4.809   2.730  1.00  0.00     0.223 C 
ATOM      6  O   UNL     1       5.251   5.122   3.721  1.00  0.00    -0.275 OA
ATOM      7  H   UNL     1       5.849   5.769   1.539  1.00  0.00     0.163 HD
BRANCH   5   8
ATOM      8  C   UNL     1       3.378   3.893   2.873  1.00  0.00     0.082 C 
ATOM      9  C   UNL     1       1.133   2.195   0.197  1.00  0.00     0.231 C 
ATOM     10  O   UNL     1       1.668   2.962  -0.604  1.00  0.00    -0.274 OA
ATOM     11  N   UNL     1       1.338   2.314   1.564  1.00  0.00    -0.342 N 
ATOM     12  C   UNL     1       0.921   3.537   2.237  1.00  0.00     0.120 C 
ATOM     13  C   UNL     1       2.459   1.643   2.192  1.00  0.00     0.120 C 
ATOM     14  C   UNL     1       2.061   4.538   2.418  1.00  0.00     0.035 C 
ATOM     15  C   UNL     1       3.687   2.533   2.239  1.00  0.00     0.035 C 
BRANCH   9  16
ATOM     16  C   UNL     1       0.129   1.134  -0.262  1.00  0.00     0.142 C 
ATOM     17  C   UNL     1       1.742  -0.906   0.084  1.00  0.00     0.076 C 
ATOM     18  C   UNL     1       0.628  -0.241  -0.713  1.00  0.00     0.192 C 
ATOM     19  N   UNL     1      -0.573  -1.102  -0.662  1.00  0.00    -0.343 N 
ATOM     20  C   UNL     1      -1.564  -0.487   0.221  1.00  0.00     0.261 C 
ATOM     21  H   UNL     1      -0.319  -2.022  -0.301  1.00  0.00     0.346 HD
ATOM     22  H   UNL     1      -0.963  -1.206  -1.599  1.00  0.00     0.346 HD
ATOM     23  C   UNL     1      -0.977   0.815   0.730  1.00  0.00     0.081 C 
ENDBRANCH   9  16
ENDBRANCH   5   8
ENDBRANCH   3   4
ENDBRANCH   2   3
ENDBRANCH   1   2
BRANCH   1  24
ATOM     24  C   UNL     1       5.999   7.072  -1.582  1.00  0.00     0.116 C 
BRANCH  24  25
ATOM     25  N   UNL     1       5.462   6.683  -2.877  1.00  0.00    -0.352 N 
ATOM     26  C   UNL     1       5.890   7.048  -4.132  1.00  0.00     0.251 C 
ATOM     27  H   UNL     1       4.688   6.076  -2.851  1.00  0.00     0.163 HD
ATOM     28  O   UNL     1       5.250   6.742  -5.126  1.00  0.00    -0.269 OA
BRANCH  26  29
ATOM     29  C   UNL     1       7.123   7.851  -4.263  1.00  0.00     0.039 A 
ATOM     30  C   UNL     1       7.097   9.000  -5.055  1.00  0.00     0.014 A 
ATOM     31  C   UNL     1       8.284   7.492  -3.573  1.00  0.00     0.014 A 
ATOM     32  C   UNL     1       8.217   9.831  -5.099  1.00  0.00     0.010 A 
ATOM     33  C   UNL     1       9.370   8.359  -3.556  1.00  0.00     0.010 A 
ATOM     34  C   UNL     1       9.348   9.537  -4.318  1.00  0.00    -0.014 A 
BRANCH  34  35
ATOM     35  C   UNL     1      10.519  10.448  -4.288  1.00  0.00     0.031 A 
ATOM     36  C   UNL     1      11.850   9.977  -4.802  1.00  0.00     0.074 A 
ATOM     37  C   UNL     1      10.398  11.675  -3.745  1.00  0.00     0.049 A 
ATOM     38  N   UNL     1      13.006  10.590  -4.794  1.00  0.00    -0.248 NA
ATOM     39  C   UNL     1      11.892   8.624  -5.382  1.00  0.00     0.031 C 
ATOM     40  C   UNL     1       9.169  12.233  -3.176  1.00  0.00     0.029 A 
ATOM     41  N   UNL     1      11.324  12.674  -3.575  1.00  0.00    -0.354 N 
ATOM     42  C   UNL     1      13.909   9.699  -5.358  1.00  0.00     0.074 A 
ATOM     43  C   UNL     1      13.183   8.480  -5.640  1.00  0.00     0.031 C 
ATOM     44  C   UNL     1       9.411  13.482  -2.746  1.00  0.00     0.029 A 
ATOM     45  C   UNL     1      10.818  13.799  -2.970  1.00  0.00     0.049 A 
ATOM     46  H   UNL     1      12.263  12.592  -3.860  1.00  0.00     0.167 HD
ATOM     47  C   UNL     1      15.219   9.890  -5.644  1.00  0.00     0.037 A 
ATOM     48  C   UNL     1      11.425  14.952  -2.630  1.00  0.00     0.037 A 
ATOM     49  C   UNL     1      15.935  11.110  -5.379  1.00  0.00     0.049 A 
ATOM     50  C   UNL     1      12.890  15.125  -2.932  1.00  0.00     0.074 A 
ATOM     51  C   UNL     1      17.256  11.414  -5.658  1.00  0.00     0.029 A 
ATOM     52  N   UNL     1      15.385  12.230  -4.773  1.00  0.00    -0.354 N 
ATOM     53  N   UNL     1      13.720  14.296  -3.515  1.00  0.00    -0.248 NA
ATOM     54  C   UNL     1      13.500  16.400  -2.530  1.00  0.00     0.031 C 
ATOM     55  C   UNL     1      17.516  12.705  -5.187  1.00  0.00     0.029 A 
ATOM     56  C   UNL     1      16.345  13.223  -4.658  1.00  0.00     0.049 A 
ATOM     57  H   UNL     1      14.452  12.309  -4.470  1.00  0.00     0.167 HD
ATOM     58  C   UNL     1      14.937  14.959  -3.583  1.00  0.00     0.074 A 
ATOM     59  C   UNL     1      14.734  16.266  -2.994  1.00  0.00     0.031 C 
ATOM     60  C   UNL     1      16.119  14.526  -4.087  1.00  0.00     0.037 A 
BRANCH  47  61
ATOM     61  C   UNL     1      15.959   8.757  -6.293  1.00  0.00     0.064 A 
ATOM     62  C   UNL     1      15.697   8.378  -7.619  1.00  0.00     0.173 A 
ATOM     63  C   UNL     1      16.965   8.068  -5.601  1.00  0.00     0.173 A 
ATOM     64  F   UNL     1      14.735   8.997  -8.321  1.00  0.00    -0.203 F 
ATOM     65  C   UNL     1      16.397   7.335  -8.218  1.00  0.00     0.198 A 
ATOM     66  C   UNL     1      17.684   7.045  -6.213  1.00  0.00     0.198 A 
ATOM     67  F   UNL     1      17.259   8.393  -4.332  1.00  0.00    -0.203 F 
ATOM     68  F   UNL     1      16.097   6.961  -9.470  1.00  0.00    -0.200 F 
ATOM     69  C   UNL     1      17.395   6.675  -7.518  1.00  0.00     0.200 A 
ATOM     70  F   UNL     1      18.658   6.416  -5.540  1.00  0.00    -0.200 F 
ATOM     71  F   UNL     1      18.075   5.677  -8.100  1.00  0.00    -0.200 F 
ENDBRANCH  47  61
BRANCH  48  72
ATOM     72  C   UNL     1      10.651  16.047  -1.987  1.00  0.00     0.064 A 
ATOM     73  C   UNL     1      10.415  17.252  -2.665  1.00  0.00     0.173 A 
ATOM     74  C   UNL     1      10.162  15.929  -0.679  1.00  0.00     0.173 A 
ATOM     75  F   UNL     1      10.882  17.421  -3.911  1.00  0.00    -0.203 F 
ATOM     76  C   UNL     1       9.746  18.307  -2.048  1.00  0.00     0.198 A 
ATOM     77  C   UNL     1       9.466  16.974  -0.073  1.00  0.00     0.198 A 
ATOM     78  F   UNL     1      10.357  14.797   0.013  1.00  0.00    -0.203 F 
ATOM     79  F   UNL     1       9.587  19.468  -2.699  1.00  0.00    -0.200 F 
ATOM     80  C   UNL     1       9.269  18.166  -0.754  1.00  0.00     0.200 A 
ATOM     81  F   UNL     1       8.995  16.830   1.173  1.00  0.00    -0.200 F 
ATOM     82  F   UNL     1       8.630  19.183  -0.160  1.00  0.00    -0.200 F 
ENDBRANCH  48  72
BRANCH  60  83
ATOM     83  C   UNL     1      17.270  15.489  -4.068  1.00  0.00     0.064 A 
ATOM     84  C   UNL     1      17.919  15.839  -2.875  1.00  0.00     0.173 A 
ATOM     85  C   UNL     1      17.751  16.040  -5.265  1.00  0.00     0.173 A 
ATOM     86  F   UNL     1      17.486  15.351  -1.703  1.00  0.00    -0.203 F 
ATOM     87  C   UNL     1      18.991  16.727  -2.879  1.00  0.00     0.198 A 
ATOM     88  C   UNL     1      18.843  16.902  -5.269  1.00  0.00     0.198 A 
ATOM     89  F   UNL     1      17.169  15.731  -6.434  1.00  0.00    -0.203 F 
ATOM     90  F   UNL     1      19.565  17.086  -1.723  1.00  0.00    -0.200 F 
ATOM     91  C   UNL     1      19.457  17.251  -4.076  1.00  0.00     0.200 A 
ATOM     92  F   UNL     1      19.300  17.397  -6.428  1.00  0.00    -0.200 F 
ATOM     93  F   UNL     1      20.494  18.100  -4.078  1.00  0.00    -0.200 F 
ENDBRANCH  60  83
ENDBRANCH  34  35
ENDBRANCH  26  29
ENDBRANCH  24  25
ENDBRANCH   1  24
TORSDOF 12
