REMARK SMILES CC[C@H]1CCC[C@@H]([NH2+][C@@](C)(CC)C(=O)NCCCCNC(=O)c2ccc(-c3c4nc(c(-c5c(F)c(F)c(F)c(F)c5F)c5ccc([nH]5)c(-c5c(F)c(F)c(F)c(F)c5F)c5nc(c(-c6c(F)c(F)c(F)c(F)c6F)c6ccc3[nH]6)C=C5)C=C4)cc2)C1
REMARK SMILES IDX 17 1 16 2 15 3 13 4 14 5 9 7 10 8 8 9 7 12 3 13 4 14 86 15
REMARK SMILES IDX 5 16 6 17 2 18 1 19 11 20 12 21 18 22 19 23 20 24 21 25
REMARK SMILES IDX 22 27 23 28 24 29 85 30 25 31 84 32 26 33 27 34 28 35 78 36
REMARK SMILES IDX 29 37 83 38 77 39 79 40 30 41 82 42 76 43 75 44 31 46 63 47
REMARK SMILES IDX 43 48 62 49 44 50 47 51 61 52 80 53 45 54 46 55 60 57 81 58
REMARK SMILES IDX 48 59 32 60 33 61 41 62 34 63 35 64 39 65 42 66 36 67 37 68
REMARK SMILES IDX 40 69 38 70 64 71 65 72 73 73 66 74 67 75 71 76 74 77 68 78
REMARK SMILES IDX 69 79 72 80 70 81 49 82 50 83 58 84 51 85 52 86 56 87 59 88
REMARK SMILES IDX 53 89 54 90 57 91 55 92
REMARK H PARENT 15 6 8 10 8 11 20 26 79 45 47 56
REMARK Flexibility Score: inf
ROOT
ATOM      1  C   UNL     1       4.250   5.964  -0.676  1.00  0.00     0.023 C 
ENDROOT
BRANCH   1   2
ATOM      2  C   UNL     1       4.699   5.838   0.780  1.00  0.00     0.116 C 
BRANCH   2   3
ATOM      3  N   UNL     1       3.621   5.967   1.749  1.00  0.00    -0.351 N 
ATOM      4  C   UNL     1       2.897   5.049   2.470  1.00  0.00     0.281 C 
ATOM      5  O   UNL     1       2.059   5.527   3.243  1.00  0.00    -0.268 OA
ATOM      6  H   UNL     1       3.357   6.900   1.922  1.00  0.00     0.163 HD
BRANCH   4   7
ATOM      7  C   UNL     1       3.104   3.499   2.292  1.00  0.00     0.172 C 
ATOM      8  C   UNL     1       4.528   3.142   2.796  1.00  0.00     0.090 C 
BRANCH   7   9
ATOM      9  N   UNL     1       2.266   2.732   3.262  1.00  0.00    -0.331 N 
ATOM     10  H   UNL     1       2.721   1.826   3.379  1.00  0.00     0.347 HD
ATOM     11  H   UNL     1       2.220   3.369   4.057  1.00  0.00     0.347 HD
BRANCH   9  12
ATOM     12  C   UNL     1       0.862   2.452   3.010  1.00  0.00     0.183 C 
ATOM     13  C   UNL     1       0.829  -0.182   2.834  1.00  0.00    -0.006 C 
ATOM     14  C   UNL     1       0.051  -0.224   4.155  1.00  0.00     0.004 C 
ATOM     15  C   UNL     1       0.611   1.184   2.157  1.00  0.00     0.068 C 
ATOM     16  C   UNL     1       0.389   0.955   5.064  1.00  0.00     0.006 C 
ATOM     17  C   UNL     1       0.138   2.293   4.367  1.00  0.00     0.065 C 
BRANCH  13  18
ATOM     18  C   UNL     1       2.283  -0.655   3.049  1.00  0.00     0.000 C 
ATOM     19  C   UNL     1       3.162  -0.657   1.809  1.00  0.00     0.004 C 
ENDBRANCH  13  18
ENDBRANCH   9  12
ENDBRANCH   7   9
BRANCH   7  20
ATOM     20  C   UNL     1       2.921   3.115   0.801  1.00  0.00     0.075 C 
ATOM     21  C   UNL     1       1.684   3.676   0.088  1.00  0.00     0.011 C 
ENDBRANCH   7  20
ENDBRANCH   4   7
ENDBRANCH   2   3
ENDBRANCH   1   2
BRANCH   1  22
ATOM     22  C   UNL     1       3.838   7.364  -1.104  1.00  0.00     0.023 C 
BRANCH  22  23
ATOM     23  C   UNL     1       4.926   8.410  -0.935  1.00  0.00     0.116 C 
BRANCH  23  24
ATOM     24  N   UNL     1       6.179   8.048  -1.586  1.00  0.00    -0.352 N 
ATOM     25  C   UNL     1       7.053   8.866  -2.258  1.00  0.00     0.251 C 
ATOM     26  H   UNL     1       6.431   7.098  -1.536  1.00  0.00     0.163 HD
ATOM     27  O   UNL     1       8.021   8.407  -2.852  1.00  0.00    -0.269 OA
BRANCH  25  28
ATOM     28  C   UNL     1       6.774  10.312  -2.283  1.00  0.00     0.039 A 
ATOM     29  C   UNL     1       6.717  10.969  -3.512  1.00  0.00     0.014 A 
ATOM     30  C   UNL     1       6.478  10.983  -1.093  1.00  0.00     0.014 A 
ATOM     31  C   UNL     1       6.292  12.295  -3.554  1.00  0.00     0.010 A 
ATOM     32  C   UNL     1       5.972  12.272  -1.147  1.00  0.00     0.010 A 
ATOM     33  C   UNL     1       5.880  12.941  -2.377  1.00  0.00    -0.014 A 
BRANCH  33  34
ATOM     34  C   UNL     1       5.368  14.331  -2.400  1.00  0.00     0.031 A 
ATOM     35  C   UNL     1       6.124  15.408  -1.678  1.00  0.00     0.074 A 
ATOM     36  C   UNL     1       4.196  14.601  -3.005  1.00  0.00     0.049 A 
ATOM     37  N   UNL     1       5.804  16.663  -1.492  1.00  0.00    -0.248 NA
ATOM     38  C   UNL     1       7.395  15.013  -1.048  1.00  0.00     0.031 C 
ATOM     39  C   UNL     1       3.346  13.622  -3.685  1.00  0.00     0.029 A 
ATOM     40  N   UNL     1       3.508  15.781  -3.130  1.00  0.00    -0.354 N 
ATOM     41  C   UNL     1       6.825  17.199  -0.721  1.00  0.00     0.074 A 
ATOM     42  C   UNL     1       7.740  16.122  -0.413  1.00  0.00     0.031 C 
ATOM     43  C   UNL     1       2.259  14.245  -4.170  1.00  0.00     0.029 A 
ATOM     44  C   UNL     1       2.320  15.657  -3.808  1.00  0.00     0.049 A 
ATOM     45  H   UNL     1       3.836  16.637  -2.769  1.00  0.00     0.167 HD
ATOM     46  C   UNL     1       7.002  18.483  -0.332  1.00  0.00     0.037 A 
ATOM     47  C   UNL     1       1.384  16.582  -4.094  1.00  0.00     0.037 A 
ATOM     48  C   UNL     1       6.101  19.554  -0.663  1.00  0.00     0.049 A 
ATOM     49  C   UNL     1       1.611  18.005  -3.660  1.00  0.00     0.074 A 
ATOM     50  C   UNL     1       6.203  20.897  -0.349  1.00  0.00     0.029 A 
ATOM     51  N   UNL     1       4.931  19.399  -1.392  1.00  0.00    -0.354 N 
ATOM     52  N   UNL     1       2.610  18.514  -2.981  1.00  0.00    -0.248 NA
ATOM     53  C   UNL     1       0.586  18.986  -4.043  1.00  0.00     0.031 C 
ATOM     54  C   UNL     1       5.079  21.551  -0.864  1.00  0.00     0.029 A 
ATOM     55  C   UNL     1       4.299  20.622  -1.535  1.00  0.00     0.049 A 
ATOM     56  H   UNL     1       4.600  18.546  -1.755  1.00  0.00     0.167 HD
ATOM     57  C   UNL     1       2.349  19.873  -2.877  1.00  0.00     0.074 A 
ATOM     58  C   UNL     1       1.106  20.113  -3.580  1.00  0.00     0.031 C 
ATOM     59  C   UNL     1       3.070  20.837  -2.253  1.00  0.00     0.037 A 
BRANCH  46  60
ATOM     60  C   UNL     1       8.227  18.798   0.473  1.00  0.00     0.064 A 
ATOM     61  C   UNL     1       9.507  18.762  -0.102  1.00  0.00     0.173 A 
ATOM     62  C   UNL     1       8.125  19.164   1.823  1.00  0.00     0.173 A 
ATOM     63  F   UNL     1       9.661  18.401  -1.385  1.00  0.00    -0.203 F 
ATOM     64  C   UNL     1      10.641  19.055   0.651  1.00  0.00     0.198 A 
ATOM     65  C   UNL     1       9.258  19.486   2.565  1.00  0.00     0.198 A 
ATOM     66  F   UNL     1       6.925  19.215   2.421  1.00  0.00    -0.203 F 
ATOM     67  F   UNL     1      11.855  18.965   0.092  1.00  0.00    -0.200 F 
ATOM     68  C   UNL     1      10.515  19.424   1.981  1.00  0.00     0.200 A 
ATOM     69  F   UNL     1       9.135  19.852   3.849  1.00  0.00    -0.200 F 
ATOM     70  F   UNL     1      11.606  19.713   2.703  1.00  0.00    -0.200 F 
ENDBRANCH  46  60
BRANCH  47  71
ATOM     71  C   UNL     1       0.162  16.199  -4.847  1.00  0.00     0.064 A 
ATOM     72  C   UNL     1      -0.045  16.642  -6.161  1.00  0.00     0.173 A 
ATOM     73  C   UNL     1      -0.831  15.397  -4.266  1.00  0.00     0.173 A 
ATOM     74  F   UNL     1       0.867  17.426  -6.754  1.00  0.00    -0.203 F 
ATOM     75  C   UNL     1      -1.211  16.322  -6.854  1.00  0.00     0.198 A 
ATOM     76  C   UNL     1      -1.983  15.053  -4.971  1.00  0.00     0.198 A 
ATOM     77  F   UNL     1      -0.678  14.940  -3.014  1.00  0.00    -0.203 F 
ATOM     78  F   UNL     1      -1.405  16.802  -8.090  1.00  0.00    -0.200 F 
ATOM     79  C   UNL     1      -2.177  15.524  -6.260  1.00  0.00     0.200 A 
ATOM     80  F   UNL     1      -2.908  14.270  -4.398  1.00  0.00    -0.200 F 
ATOM     81  F   UNL     1      -3.298  15.218  -6.927  1.00  0.00    -0.200 F 
ENDBRANCH  47  71
BRANCH  59  82
ATOM     82  C   UNL     1       2.551  22.241  -2.335  1.00  0.00     0.064 A 
ATOM     83  C   UNL     1       1.424  22.651  -1.610  1.00  0.00     0.173 A 
ATOM     84  C   UNL     1       3.218  23.198  -3.116  1.00  0.00     0.173 A 
ATOM     85  F   UNL     1       0.745  21.769  -0.861  1.00  0.00    -0.203 F 
ATOM     86  C   UNL     1       0.968  23.965  -1.682  1.00  0.00     0.198 A 
ATOM     87  C   UNL     1       2.776  24.516  -3.163  1.00  0.00     0.198 A 
ATOM     88  F   UNL     1       4.306  22.855  -3.822  1.00  0.00    -0.203 F 
ATOM     89  F   UNL     1      -0.138  24.325  -1.016  1.00  0.00    -0.200 F 
ATOM     90  C   UNL     1       1.648  24.897  -2.451  1.00  0.00     0.200 A 
ATOM     91  F   UNL     1       3.442  25.419  -3.896  1.00  0.00    -0.200 F 
ATOM     92  F   UNL     1       1.212  26.162  -2.513  1.00  0.00    -0.200 F 
ENDBRANCH  59  82
ENDBRANCH  33  34
ENDBRANCH  25  28
ENDBRANCH  23  24
ENDBRANCH  22  23
ENDBRANCH   1  22
TORSDOF 15
