REMARK SMILES C#Cc1cccc(NS(=O)(=O)c2cc(C)c(C(=O)NCCCCNC(=O)c3ccc(-c4c5nc(c(-c6c(F)c(F)c(F)c(F)c6F)c6ccc([nH]6)c(-c6c(F)c(F)c(F)c(F)c6F)c6nc(c(-c7c(F)c(F)c(F)c(F)c7F)c7ccc4[nH]7)C=C6)C=C5)cc3)s2)c1
REMARK SMILES IDX 20 1 19 2 17 3 18 4 16 6 12 7 13 8 90 9 14 10 15 11 9 12
REMARK SMILES IDX 10 13 11 14 8 15 7 17 3 18 4 19 91 20 5 21 6 22 2 23 1 24
REMARK SMILES IDX 21 25 22 26 23 27 24 28 25 29 26 31 27 32 28 33 89 34 29 35
REMARK SMILES IDX 88 36 30 37 31 38 32 39 82 40 33 41 87 42 81 43 83 44 34 45
REMARK SMILES IDX 86 46 80 47 79 48 35 50 67 51 47 52 66 53 48 54 51 55 65 56
REMARK SMILES IDX 84 57 49 58 50 59 64 61 85 62 52 63 36 64 37 65 45 66 38 67
REMARK SMILES IDX 39 68 43 69 46 70 40 71 41 72 44 73 42 74 68 75 69 76 77 77
REMARK SMILES IDX 70 78 71 79 75 80 78 81 72 82 73 83 76 84 74 85 53 86 54 87
REMARK SMILES IDX 62 88 55 89 56 90 60 91 63 92 57 93 58 94 61 95 59 96
REMARK H PARENT 19 5 8 16 24 30 83 49 51 60
REMARK Flexibility Score: inf
ROOT
ATOM      1  C   UNL     1       6.100   4.555  -0.013  1.00  0.00     0.116 C 
ENDROOT
BRANCH   1   2
ATOM      2  N   UNL     1       7.009   3.557   0.471  1.00  0.00    -0.351 N 
ATOM      3  C   UNL     1       6.945   2.194   0.569  1.00  0.00     0.261 C 
ATOM      4  O   UNL     1       7.972   1.715   1.067  1.00  0.00    -0.268 OA
ATOM      5  H   UNL     1       7.856   3.932   0.804  1.00  0.00     0.163 HD
BRANCH   3   6
ATOM      6  C   UNL     1       5.823   1.364   0.100  1.00  0.00     0.096 A 
ATOM      7  C   UNL     1       4.562  -0.773  -0.281  1.00  0.00     0.141 A 
ATOM      8  C   UNL     1       4.037   0.297  -0.964  1.00  0.00     0.038 A 
ATOM      9  S   UNL     1       6.099  -0.360   0.311  1.00  0.00    -0.116 S 
ATOM     10  C   UNL     1       4.523   1.528  -0.391  1.00  0.00    -0.026 A 
ATOM     11  C   UNL     1       3.571   2.674  -0.324  1.00  0.00     0.046 C 
BRANCH   7  12
ATOM     12  S   UNL     1       3.948  -2.403   0.052  1.00  0.00     0.271 S 
ATOM     13  O   UNL     1       4.540  -2.814   1.307  1.00  0.00    -0.200 OA
ATOM     14  O   UNL     1       4.192  -3.136  -1.173  1.00  0.00    -0.200 OA
BRANCH  12  15
ATOM     15  N   UNL     1       2.268  -2.457   0.277  1.00  0.00    -0.279 N 
ATOM     16  H   UNL     1       1.856  -3.347   0.364  1.00  0.00     0.180 HD
BRANCH  15  17
ATOM     17  C   UNL     1       1.398  -1.325   0.351  1.00  0.00     0.050 A 
ATOM     18  C   UNL     1      -0.816  -0.396  -0.050  1.00  0.00     0.026 A 
ATOM     19  C   UNL     1      -0.386   0.845   0.412  1.00  0.00     0.017 A 
ATOM     20  C   UNL     1       0.079  -1.473  -0.106  1.00  0.00     0.044 A 
ATOM     21  C   UNL     1       0.876   0.960   0.978  1.00  0.00     0.003 A 
ATOM     22  C   UNL     1       1.737  -0.142   1.006  1.00  0.00     0.027 A 
BRANCH  18  23
ATOM     23  C   UNL     1      -2.212  -0.545  -0.334  1.00  0.00    -0.070 C 
ATOM     24  C   UNL     1      -3.408  -0.564  -0.413  1.00  0.00     0.010 C 
ENDBRANCH  18  23
ENDBRANCH  15  17
ENDBRANCH  12  15
ENDBRANCH   7  12
ENDBRANCH   3   6
ENDBRANCH   1   2
BRANCH   1  25
ATOM     25  C   UNL     1       5.178   5.041   1.110  1.00  0.00     0.023 C 
BRANCH  25  26
ATOM     26  C   UNL     1       5.536   6.438   1.603  1.00  0.00     0.023 C 
BRANCH  26  27
ATOM     27  C   UNL     1       5.304   7.511   0.550  1.00  0.00     0.116 C 
BRANCH  27  28
ATOM     28  N   UNL     1       3.899   7.748   0.253  1.00  0.00    -0.352 N 
ATOM     29  C   UNL     1       3.307   8.950  -0.064  1.00  0.00     0.251 C 
ATOM     30  H   UNL     1       3.306   6.962   0.282  1.00  0.00     0.163 HD
ATOM     31  O   UNL     1       2.094   9.041  -0.207  1.00  0.00    -0.269 OA
BRANCH  29  32
ATOM     32  C   UNL     1       4.170  10.145  -0.170  1.00  0.00     0.039 A 
ATOM     33  C   UNL     1       3.864  11.266   0.601  1.00  0.00     0.014 A 
ATOM     34  C   UNL     1       5.339  10.104  -0.934  1.00  0.00     0.014 A 
ATOM     35  C   UNL     1       4.774  12.321   0.662  1.00  0.00     0.010 A 
ATOM     36  C   UNL     1       6.288  11.108  -0.789  1.00  0.00     0.010 A 
ATOM     37  C   UNL     1       6.015  12.231   0.007  1.00  0.00    -0.014 A 
BRANCH  37  38
ATOM     38  C   UNL     1       7.033  13.304   0.142  1.00  0.00     0.031 A 
ATOM     39  C   UNL     1       7.498  14.057  -1.074  1.00  0.00     0.074 A 
ATOM     40  C   UNL     1       7.572  13.572   1.349  1.00  0.00     0.049 A 
ATOM     41  N   UNL     1       8.404  14.997  -1.170  1.00  0.00    -0.248 NA
ATOM     42  C   UNL     1       6.882  13.688  -2.359  1.00  0.00     0.031 C 
ATOM     43  C   UNL     1       7.241  12.880   2.596  1.00  0.00     0.029 A 
ATOM     44  N   UNL     1       8.515  14.496   1.725  1.00  0.00    -0.354 N 
ATOM     45  C   UNL     1       8.466  15.326  -2.518  1.00  0.00     0.074 A 
ATOM     46  C   UNL     1       7.561  14.438  -3.213  1.00  0.00     0.031 C 
ATOM     47  C   UNL     1       7.942  13.426   3.602  1.00  0.00     0.029 A 
ATOM     48  C   UNL     1       8.811  14.469   3.067  1.00  0.00     0.049 A 
ATOM     49  H   UNL     1       8.939  15.120   1.093  1.00  0.00     0.167 HD
ATOM     50  C   UNL     1       9.187  16.301  -3.118  1.00  0.00     0.037 A 
ATOM     51  C   UNL     1       9.693  15.194   3.782  1.00  0.00     0.037 A 
ATOM     52  C   UNL     1      10.080  17.189  -2.421  1.00  0.00     0.049 A 
ATOM     53  C   UNL     1      10.516  16.244   3.080  1.00  0.00     0.074 A 
ATOM     54  C   UNL     1      10.824  18.238  -2.932  1.00  0.00     0.029 A 
ATOM     55  N   UNL     1      10.357  17.127  -1.063  1.00  0.00    -0.354 N 
ATOM     56  N   UNL     1      10.510  16.595   1.817  1.00  0.00    -0.248 NA
ATOM     57  C   UNL     1      11.463  17.005   3.907  1.00  0.00     0.031 C 
ATOM     58  C   UNL     1      11.604  18.764  -1.900  1.00  0.00     0.029 A 
ATOM     59  C   UNL     1      11.287  18.099  -0.727  1.00  0.00     0.049 A 
ATOM     60  H   UNL     1       9.953  16.488  -0.432  1.00  0.00     0.167 HD
ATOM     61  C   UNL     1      11.422  17.636   1.705  1.00  0.00     0.074 A 
ATOM     62  C   UNL     1      11.947  17.874   3.032  1.00  0.00     0.031 C 
ATOM     63  C   UNL     1      11.793  18.332   0.602  1.00  0.00     0.037 A 
BRANCH  50  64
ATOM     64  C   UNL     1       9.043  16.462  -4.605  1.00  0.00     0.064 A 
ATOM     65  C   UNL     1       7.847  16.914  -5.186  1.00  0.00     0.173 A 
ATOM     66  C   UNL     1      10.129  16.210  -5.457  1.00  0.00     0.173 A 
ATOM     67  F   UNL     1       6.774  17.159  -4.419  1.00  0.00    -0.203 F 
ATOM     68  C   UNL     1       7.737  17.079  -6.564  1.00  0.00     0.198 A 
ATOM     69  C   UNL     1      10.026  16.412  -6.830  1.00  0.00     0.198 A 
ATOM     70  F   UNL     1      11.297  15.780  -4.955  1.00  0.00    -0.203 F 
ATOM     71  F   UNL     1       6.569  17.460  -7.099  1.00  0.00    -0.200 F 
ATOM     72  C   UNL     1       8.828  16.838  -7.383  1.00  0.00     0.200 A 
ATOM     73  F   UNL     1      11.088  16.196  -7.619  1.00  0.00    -0.200 F 
ATOM     74  F   UNL     1       8.725  17.012  -8.708  1.00  0.00    -0.200 F 
ENDBRANCH  50  64
BRANCH  51  75
ATOM     75  C   UNL     1       9.852  14.958   5.244  1.00  0.00     0.064 A 
ATOM     76  C   UNL     1       9.519  15.948   6.180  1.00  0.00     0.173 A 
ATOM     77  C   UNL     1      10.375  13.752   5.735  1.00  0.00     0.173 A 
ATOM     78  F   UNL     1       9.032  17.127   5.763  1.00  0.00    -0.203 F 
ATOM     79  C   UNL     1       9.738  15.757   7.543  1.00  0.00     0.198 A 
ATOM     80  C   UNL     1      10.556  13.547   7.101  1.00  0.00     0.198 A 
ATOM     81  F   UNL     1      10.705  12.768   4.886  1.00  0.00    -0.203 F 
ATOM     82  F   UNL     1       9.476  16.747   8.407  1.00  0.00    -0.200 F 
ATOM     83  C   UNL     1      10.252  14.554   8.003  1.00  0.00     0.200 A 
ATOM     84  F   UNL     1      11.035  12.375   7.541  1.00  0.00    -0.200 F 
ATOM     85  F   UNL     1      10.465  14.371   9.313  1.00  0.00    -0.200 F 
ENDBRANCH  51  75
BRANCH  63  86
ATOM     86  C   UNL     1      12.778  19.453   0.787  1.00  0.00     0.064 A 
ATOM     87  C   UNL     1      14.117  19.218   1.133  1.00  0.00     0.173 A 
ATOM     88  C   UNL     1      12.382  20.784   0.575  1.00  0.00     0.173 A 
ATOM     89  F   UNL     1      14.546  17.966   1.358  1.00  0.00    -0.203 F 
ATOM     90  C   UNL     1      15.012  20.272   1.295  1.00  0.00     0.198 A 
ATOM     91  C   UNL     1      13.289  21.832   0.697  1.00  0.00     0.198 A 
ATOM     92  F   UNL     1      11.116  21.067   0.233  1.00  0.00    -0.203 F 
ATOM     93  F   UNL     1      16.270  20.026   1.686  1.00  0.00    -0.200 F 
ATOM     94  C   UNL     1      14.600  21.577   1.067  1.00  0.00     0.200 A 
ATOM     95  F   UNL     1      12.894  23.090   0.455  1.00  0.00    -0.200 F 
ATOM     96  F   UNL     1      15.466  22.589   1.213  1.00  0.00    -0.200 F 
ENDBRANCH  63  86
ENDBRANCH  37  38
ENDBRANCH  29  32
ENDBRANCH  27  28
ENDBRANCH  26  27
ENDBRANCH  25  26
ENDBRANCH   1  25
TORSDOF 15
