REMARK SMILES COc1ccc(-c2cnc(N)c(C(=O)NCCCCNC(=O)c3ccc(-c4c5nc(c(-c6c(F)c(F)c(F)c(F)c6F)c6ccc([nH]6)c(-c6c(F)c(F)c(F)c(F)c6F)c6nc(c(-c7c(F)c(F)c(F)c(F)c7F)c7ccc4[nH]7)C=C6)C=C5)cc3)c2)c(C)c1
REMARK SMILES IDX 17 1 16 2 15 3 13 4 14 5 12 7 7 8 8 9 86 10 9 11 10 12 6 13
REMARK SMILES IDX 3 14 4 15 89 16 5 17 87 18 88 19 2 20 1 21 11 22 18 25 19 26
REMARK SMILES IDX 20 27 21 28 22 30 23 31 24 32 85 33 25 34 84 35 26 36 27 37
REMARK SMILES IDX 28 38 78 39 29 40 83 41 77 42 79 43 30 44 82 45 76 46 75 47
REMARK SMILES IDX 31 49 63 50 43 51 62 52 44 53 47 54 61 55 80 56 45 57 46 58
REMARK SMILES IDX 60 60 81 61 48 62 32 63 33 64 41 65 34 66 35 67 39 68 42 69
REMARK SMILES IDX 36 70 37 71 40 72 38 73 64 74 65 75 73 76 66 77 67 78 71 79
REMARK SMILES IDX 74 80 68 81 69 82 72 83 70 84 49 85 50 86 58 87 51 88 52 89
REMARK SMILES IDX 56 90 59 91 53 92 54 93 57 94 55 95
REMARK H PARENT 15 6 11 23 11 24 20 29 79 48 47 59
REMARK Flexibility Score: inf
ROOT
ATOM      1  C   UNL     1       0.192  -5.262  11.457  1.00  0.00     0.023 C 
ENDROOT
BRANCH   1   2
ATOM      2  C   UNL     1       1.251  -5.473  10.372  1.00  0.00     0.116 C 
BRANCH   2   3
ATOM      3  N   UNL     1       0.783  -6.154   9.172  1.00  0.00    -0.352 N 
ATOM      4  C   UNL     1       1.042  -5.894   7.843  1.00  0.00     0.255 C 
ATOM      5  O   UNL     1       0.588  -6.664   6.996  1.00  0.00    -0.269 OA
ATOM      6  H   UNL     1       0.188  -6.921   9.335  1.00  0.00     0.163 HD
BRANCH   4   7
ATOM      7  C   UNL     1       1.776  -4.691   7.389  1.00  0.00     0.082 A 
ATOM      8  C   UNL     1       1.828  -2.793   5.858  1.00  0.00     0.001 A 
ATOM      9  C   UNL     1       2.969  -2.395   6.552  1.00  0.00     0.122 A 
ATOM     10  C   UNL     1       1.223  -3.969   6.314  1.00  0.00     0.028 A 
ATOM     11  N   UNL     1       3.568  -3.105   7.539  1.00  0.00    -0.238 NA
ATOM     12  C   UNL     1       3.004  -4.274   7.900  1.00  0.00     0.136 A 
BRANCH   8  13
ATOM     13  C   UNL     1       1.360  -2.038   4.680  1.00  0.00    -0.014 A 
ATOM     14  C   UNL     1       0.661  -0.577   2.343  1.00  0.00     0.119 A 
ATOM     15  C   UNL     1       1.942  -1.091   2.481  1.00  0.00     0.047 A 
ATOM     16  C   UNL     1      -0.264  -0.780   3.368  1.00  0.00     0.050 A 
ATOM     17  C   UNL     1       2.280  -1.814   3.630  1.00  0.00     0.013 A 
ATOM     18  C   UNL     1       0.063  -1.501   4.538  1.00  0.00    -0.040 A 
ATOM     19  C   UNL     1      -1.031  -1.677   5.556  1.00  0.00     0.045 C 
BRANCH  14  20
ATOM     20  O   UNL     1       0.209   0.157   1.282  1.00  0.00    -0.497 OA
ATOM     21  C   UNL     1       0.911  -0.018   0.056  1.00  0.00     0.278 C 
ENDBRANCH  14  20
ENDBRANCH   8  13
BRANCH  12  22
ATOM     22  N   UNL     1       3.762  -4.998   8.803  1.00  0.00    -0.383 N 
ATOM     23  H   UNL     1       4.622  -4.641   9.122  1.00  0.00     0.158 HD
ATOM     24  H   UNL     1       3.441  -5.871   9.126  1.00  0.00     0.158 HD
ENDBRANCH  12  22
ENDBRANCH   4   7
ENDBRANCH   2   3
ENDBRANCH   1   2
BRANCH   1  25
ATOM     25  C   UNL     1      -0.621  -6.478  11.889  1.00  0.00     0.023 C 
BRANCH  25  26
ATOM     26  C   UNL     1       0.170  -7.657  12.438  1.00  0.00     0.116 C 
BRANCH  26  27
ATOM     27  N   UNL     1       0.481  -7.596  13.858  1.00  0.00    -0.352 N 
ATOM     28  C   UNL     1       1.138  -8.518  14.664  1.00  0.00     0.251 C 
ATOM     29  H   UNL     1       0.181  -6.779  14.317  1.00  0.00     0.163 HD
ATOM     30  O   UNL     1       1.241  -8.311  15.859  1.00  0.00    -0.269 OA
BRANCH  28  31
ATOM     31  C   UNL     1       1.833  -9.688  14.056  1.00  0.00     0.039 A 
ATOM     32  C   UNL     1       3.081 -10.063  14.575  1.00  0.00     0.014 A 
ATOM     33  C   UNL     1       1.361 -10.307  12.905  1.00  0.00     0.014 A 
ATOM     34  C   UNL     1       3.941 -10.850  13.807  1.00  0.00     0.010 A 
ATOM     35  C   UNL     1       2.242 -10.986  12.092  1.00  0.00     0.010 A 
ATOM     36  C   UNL     1       3.554 -11.200  12.516  1.00  0.00    -0.014 A 
BRANCH  36  37
ATOM     37  C   UNL     1       4.464 -11.694  11.495  1.00  0.00     0.031 A 
ATOM     38  C   UNL     1       4.456 -13.110  11.093  1.00  0.00     0.074 A 
ATOM     39  C   UNL     1       5.202 -10.803  10.797  1.00  0.00     0.049 A 
ATOM     40  N   UNL     1       5.438 -13.691  10.492  1.00  0.00    -0.248 NA
ATOM     41  C   UNL     1       3.330 -13.996  11.349  1.00  0.00     0.031 C 
ATOM     42  C   UNL     1       5.933 -11.026   9.552  1.00  0.00     0.029 A 
ATOM     43  N   UNL     1       5.604  -9.523  11.210  1.00  0.00    -0.354 N 
ATOM     44  C   UNL     1       4.985 -14.902  10.027  1.00  0.00     0.074 A 
ATOM     45  C   UNL     1       3.691 -15.076  10.649  1.00  0.00     0.031 C 
ATOM     46  C   UNL     1       6.907 -10.107   9.457  1.00  0.00     0.029 A 
ATOM     47  C   UNL     1       6.919  -9.371  10.708  1.00  0.00     0.049 A 
ATOM     48  H   UNL     1       5.083  -8.872  11.734  1.00  0.00     0.167 HD
ATOM     49  C   UNL     1       5.703 -15.552   9.063  1.00  0.00     0.037 A 
ATOM     50  C   UNL     1       7.977  -9.291  11.568  1.00  0.00     0.037 A 
ATOM     51  C   UNL     1       6.929 -14.825   8.723  1.00  0.00     0.049 A 
ATOM     52  C   UNL     1       9.004 -10.398  11.419  1.00  0.00     0.074 A 
ATOM     53  C   UNL     1       7.325 -14.026   7.661  1.00  0.00     0.029 A 
ATOM     54  N   UNL     1       7.884 -14.634   9.707  1.00  0.00    -0.354 N 
ATOM     55  N   UNL     1       8.892 -11.413  10.608  1.00  0.00    -0.248 NA
ATOM     56  C   UNL     1      10.193 -10.497  12.265  1.00  0.00     0.031 C 
ATOM     57  C   UNL     1       8.553 -13.391   8.007  1.00  0.00     0.029 A 
ATOM     58  C   UNL     1       8.899 -13.801   9.280  1.00  0.00     0.049 A 
ATOM     59  H   UNL     1       7.844 -15.042  10.602  1.00  0.00     0.167 HD
ATOM     60  C   UNL     1       9.905 -12.307  10.847  1.00  0.00     0.074 A 
ATOM     61  C   UNL     1      10.690 -11.690  11.899  1.00  0.00     0.031 C 
ATOM     62  C   UNL     1       9.989 -13.507  10.195  1.00  0.00     0.037 A 
BRANCH  49  63
ATOM     63  C   UNL     1       5.172 -16.715   8.251  1.00  0.00     0.064 A 
ATOM     64  C   UNL     1       5.635 -16.958   6.939  1.00  0.00     0.173 A 
ATOM     65  C   UNL     1       4.173 -17.605   8.688  1.00  0.00     0.173 A 
ATOM     66  F   UNL     1       6.679 -16.294   6.428  1.00  0.00    -0.203 F 
ATOM     67  C   UNL     1       5.045 -17.902   6.095  1.00  0.00     0.198 A 
ATOM     68  C   UNL     1       3.541 -18.509   7.828  1.00  0.00     0.198 A 
ATOM     69  F   UNL     1       3.822 -17.678   9.978  1.00  0.00    -0.203 F 
ATOM     70  F   UNL     1       5.524 -18.075   4.855  1.00  0.00    -0.200 F 
ATOM     71  C   UNL     1       3.966 -18.645   6.524  1.00  0.00     0.200 A 
ATOM     72  F   UNL     1       2.518 -19.250   8.277  1.00  0.00    -0.200 F 
ATOM     73  F   UNL     1       3.365 -19.511   5.697  1.00  0.00    -0.200 F 
ENDBRANCH  49  63
BRANCH  50  74
ATOM     74  C   UNL     1       7.609  -8.635  12.856  1.00  0.00     0.064 A 
ATOM     75  C   UNL     1       7.108  -7.317  12.820  1.00  0.00     0.173 A 
ATOM     76  C   UNL     1       7.381  -9.380  14.018  1.00  0.00     0.173 A 
ATOM     77  F   UNL     1       7.289  -6.560  11.725  1.00  0.00    -0.203 F 
ATOM     78  C   UNL     1       6.307  -6.819  13.845  1.00  0.00     0.198 A 
ATOM     79  C   UNL     1       6.601  -8.866  15.055  1.00  0.00     0.198 A 
ATOM     80  F   UNL     1       7.807 -10.648  14.109  1.00  0.00    -0.203 F 
ATOM     81  F   UNL     1       5.737  -5.611  13.720  1.00  0.00    -0.200 F 
ATOM     82  C   UNL     1       6.034  -7.604  14.951  1.00  0.00     0.200 A 
ATOM     83  F   UNL     1       6.315  -9.636  16.114  1.00  0.00    -0.200 F 
ATOM     84  F   UNL     1       5.190  -7.165  15.895  1.00  0.00    -0.200 F 
ENDBRANCH  50  74
BRANCH  62  85
ATOM     85  C   UNL     1      11.080 -14.535  10.397  1.00  0.00     0.064 A 
ATOM     86  C   UNL     1      12.419 -14.198  10.650  1.00  0.00     0.173 A 
ATOM     87  C   UNL     1      10.826 -15.920  10.238  1.00  0.00     0.173 A 
ATOM     88  F   UNL     1      12.815 -12.918  10.686  1.00  0.00    -0.203 F 
ATOM     89  C   UNL     1      13.405 -15.173  10.836  1.00  0.00     0.198 A 
ATOM     90  C   UNL     1      11.821 -16.887  10.370  1.00  0.00     0.198 A 
ATOM     91  F   UNL     1       9.602 -16.390   9.963  1.00  0.00    -0.203 F 
ATOM     92  F   UNL     1      14.655 -14.802  11.144  1.00  0.00    -0.200 F 
ATOM     93  C   UNL     1      13.106 -16.516  10.695  1.00  0.00     0.200 A 
ATOM     94  F   UNL     1      11.517 -18.180  10.188  1.00  0.00    -0.200 F 
ATOM     95  F   UNL     1      14.055 -17.447  10.861  1.00  0.00    -0.200 F 
ENDBRANCH  62  85
ENDBRANCH  36  37
ENDBRANCH  28  31
ENDBRANCH  26  27
ENDBRANCH  25  26
ENDBRANCH   1  25
TORSDOF 14
