REMARK SMILES C[C@@H](C(=O)NCCCCNC(=O)c1ccc(-c2c3nc(c(-c4c(F)c(F)c(F)c(F)c4F)c4ccc([nH]4)c(-c4c(F)c(F)c(F)c(F)c4F)c4nc(c(-c5c(F)c(F)c(F)c(F)c5F)c5ccc2[nH]5)C=C4)C=C3)cc1)c1ccc(Cc2ccoc2)cc1F
REMARK SMILES IDX 7 1 6 2 5 3 3 4 4 5 2 7 1 8 76 9 77 10 87 11 78 12 86 13
REMARK SMILES IDX 88 14 79 15 80 16 81 17 82 18 85 19 83 20 84 21 8 22 9 23
REMARK SMILES IDX 10 24 11 25 12 27 13 28 14 29 75 30 15 31 74 32 16 33 17 34
REMARK SMILES IDX 18 35 68 36 19 37 73 38 67 39 69 40 20 41 72 42 66 43 65 44
REMARK SMILES IDX 21 46 53 47 33 48 52 49 34 50 37 51 51 52 70 53 35 54 36 55
REMARK SMILES IDX 50 57 71 58 38 59 22 60 23 61 31 62 24 63 25 64 29 65 32 66
REMARK SMILES IDX 26 67 27 68 30 69 28 70 54 71 55 72 63 73 56 74 57 75 61 76
REMARK SMILES IDX 64 77 58 78 59 79 62 80 60 81 39 82 40 83 48 84 41 85 42 86
REMARK SMILES IDX 46 87 49 88 43 89 44 90 47 91 45 92
REMARK H PARENT 5 6 10 26 69 45 37 56
REMARK Flexibility Score: inf
ROOT
ATOM      1  C   UNL     1       4.182  -1.134  -0.229  1.00  0.00     0.023 C 
ENDROOT
BRANCH   1   2
ATOM      2  C   UNL     1       3.388  -0.743  -1.476  1.00  0.00     0.116 C 
BRANCH   2   3
ATOM      3  N   UNL     1       2.376  -1.720  -1.821  1.00  0.00    -0.356 N 
ATOM      4  C   UNL     1       1.011  -1.638  -1.787  1.00  0.00     0.227 C 
ATOM      5  O   UNL     1       0.408  -2.540  -2.373  1.00  0.00    -0.274 OA
ATOM      6  H   UNL     1       2.728  -2.586  -2.131  1.00  0.00     0.163 HD
BRANCH   4   7
ATOM      7  C   UNL     1       0.317  -0.426  -1.136  1.00  0.00     0.108 C 
ATOM      8  C   UNL     1       0.670  -0.225   0.340  1.00  0.00     0.023 C 
BRANCH   7   9
ATOM      9  C   UNL     1      -1.206  -0.434  -1.234  1.00  0.00    -0.000 A 
ATOM     10  C   UNL     1      -1.880   0.738  -1.608  1.00  0.00     0.008 A 
ATOM     11  C   UNL     1      -1.976  -1.536  -0.842  1.00  0.00     0.127 A 
ATOM     12  C   UNL     1      -3.278   0.789  -1.612  1.00  0.00     0.004 A 
ATOM     13  C   UNL     1      -3.371  -1.496  -0.859  1.00  0.00     0.043 A 
ATOM     14  F   UNL     1      -1.383  -2.648  -0.387  1.00  0.00    -0.207 F 
ATOM     15  C   UNL     1      -4.042  -0.328  -1.241  1.00  0.00    -0.041 A 
BRANCH  15  16
ATOM     16  C   UNL     1      -5.550  -0.274  -1.264  1.00  0.00     0.074 C 
BRANCH  16  17
ATOM     17  C   UNL     1      -6.001   0.276   0.047  1.00  0.00    -0.005 A 
ATOM     18  C   UNL     1      -5.854   1.604   0.550  1.00  0.00     0.046 A 
ATOM     19  C   UNL     1      -6.729  -0.391   1.015  1.00  0.00     0.198 A 
ATOM     20  C   UNL     1      -6.485   1.639   1.771  1.00  0.00     0.195 A 
ATOM     21  O   UNL     1      -7.021   0.427   2.058  1.00  0.00    -0.472 OA
ENDBRANCH  16  17
ENDBRANCH  15  16
ENDBRANCH   7   9
ENDBRANCH   4   7
ENDBRANCH   2   3
ENDBRANCH   1   2
BRANCH   1  22
ATOM     22  C   UNL     1       4.963  -2.446  -0.332  1.00  0.00     0.023 C 
BRANCH  22  23
ATOM     23  C   UNL     1       5.918  -2.554  -1.515  1.00  0.00     0.116 C 
BRANCH  23  24
ATOM     24  N   UNL     1       6.921  -1.501  -1.536  1.00  0.00    -0.352 N 
ATOM     25  C   UNL     1       8.277  -1.593  -1.739  1.00  0.00     0.251 C 
ATOM     26  H   UNL     1       6.580  -0.590  -1.383  1.00  0.00     0.163 HD
ATOM     27  O   UNL     1       8.988  -0.603  -1.600  1.00  0.00    -0.269 OA
BRANCH  25  28
ATOM     28  C   UNL     1       8.887  -2.894  -2.087  1.00  0.00     0.039 A 
ATOM     29  C   UNL     1      10.038  -3.299  -1.406  1.00  0.00     0.014 A 
ATOM     30  C   UNL     1       8.323  -3.719  -3.064  1.00  0.00     0.014 A 
ATOM     31  C   UNL     1      10.579  -4.562  -1.650  1.00  0.00     0.010 A 
ATOM     32  C   UNL     1       8.822  -5.005  -3.256  1.00  0.00     0.010 A 
ATOM     33  C   UNL     1       9.950  -5.443  -2.545  1.00  0.00    -0.014 A 
BRANCH  33  34
ATOM     34  C   UNL     1      10.440  -6.834  -2.725  1.00  0.00     0.031 A 
ATOM     35  C   UNL     1      10.975  -7.287  -4.054  1.00  0.00     0.074 A 
ATOM     36  C   UNL     1      10.339  -7.708  -1.704  1.00  0.00     0.049 A 
ATOM     37  N   UNL     1      11.386  -8.476  -4.420  1.00  0.00    -0.248 NA
ATOM     38  C   UNL     1      11.037  -6.277  -5.123  1.00  0.00     0.031 C 
ATOM     39  C   UNL     1       9.791  -7.404  -0.382  1.00  0.00     0.029 A 
ATOM     40  N   UNL     1      10.680  -9.036  -1.623  1.00  0.00    -0.354 N 
ATOM     41  C   UNL     1      11.741  -8.360  -5.757  1.00  0.00     0.074 A 
ATOM     42  C   UNL     1      11.454  -6.998  -6.154  1.00  0.00     0.031 C 
ATOM     43  C   UNL     1       9.850  -8.505   0.384  1.00  0.00     0.029 A 
ATOM     44  C   UNL     1      10.401  -9.603  -0.403  1.00  0.00     0.049 A 
ATOM     45  H   UNL     1      11.087  -9.534  -2.368  1.00  0.00     0.167 HD
ATOM     46  C   UNL     1      12.277  -9.299  -6.572  1.00  0.00     0.037 A 
ATOM     47  C   UNL     1      10.561 -10.869   0.029  1.00  0.00     0.037 A 
ATOM     48  C   UNL     1      12.583 -10.646  -6.167  1.00  0.00     0.049 A 
ATOM     49  C   UNL     1      11.150 -11.893  -0.904  1.00  0.00     0.074 A 
ATOM     50  C   UNL     1      13.188 -11.651  -6.902  1.00  0.00     0.029 A 
ATOM     51  N   UNL     1      12.302 -11.179  -4.918  1.00  0.00    -0.354 N 
ATOM     52  N   UNL     1      11.555 -11.750  -2.142  1.00  0.00    -0.248 NA
ATOM     53  C   UNL     1      11.311 -13.255  -0.375  1.00  0.00     0.031 C 
ATOM     54  C   UNL     1      13.228 -12.806  -6.115  1.00  0.00     0.029 A 
ATOM     55  C   UNL     1      12.699 -12.507  -4.871  1.00  0.00     0.049 A 
ATOM     56  H   UNL     1      11.883 -10.688  -4.174  1.00  0.00     0.167 HD
ATOM     57  C   UNL     1      12.043 -12.991  -2.530  1.00  0.00     0.074 A 
ATOM     58  C   UNL     1      11.902 -13.870  -1.389  1.00  0.00     0.031 C 
ATOM     59  C   UNL     1      12.561 -13.368  -3.724  1.00  0.00     0.037 A 
BRANCH  46  60
ATOM     60  C   UNL     1      12.578  -8.906  -7.989  1.00  0.00     0.064 A 
ATOM     61  C   UNL     1      13.627  -8.028  -8.302  1.00  0.00     0.173 A 
ATOM     62  C   UNL     1      11.850  -9.463  -9.052  1.00  0.00     0.173 A 
ATOM     63  F   UNL     1      14.347  -7.460  -7.323  1.00  0.00    -0.203 F 
ATOM     64  C   UNL     1      13.922  -7.707  -9.624  1.00  0.00     0.198 A 
ATOM     65  C   UNL     1      12.168  -9.163 -10.374  1.00  0.00     0.198 A 
ATOM     66  F   UNL     1      10.841 -10.313  -8.809  1.00  0.00    -0.203 F 
ATOM     67  F   UNL     1      14.904  -6.836  -9.897  1.00  0.00    -0.200 F 
ATOM     68  C   UNL     1      13.200  -8.282 -10.659  1.00  0.00     0.200 A 
ATOM     69  F   UNL     1      11.478  -9.730 -11.373  1.00  0.00    -0.200 F 
ATOM     70  F   UNL     1      13.496  -7.983 -11.931  1.00  0.00    -0.200 F 
ENDBRANCH  46  60
BRANCH  47  71
ATOM     71  C   UNL     1      10.168 -11.242   1.413  1.00  0.00     0.064 A 
ATOM     72  C   UNL     1      11.134 -11.600   2.365  1.00  0.00     0.173 A 
ATOM     73  C   UNL     1       8.822 -11.273   1.808  1.00  0.00     0.173 A 
ATOM     74  F   UNL     1      12.432 -11.607   2.030  1.00  0.00    -0.203 F 
ATOM     75  C   UNL     1      10.767 -12.002   3.648  1.00  0.00     0.198 A 
ATOM     76  C   UNL     1       8.459 -11.644   3.101  1.00  0.00     0.198 A 
ATOM     77  F   UNL     1       7.859 -10.935   0.938  1.00  0.00    -0.203 F 
ATOM     78  F   UNL     1      11.707 -12.393   4.519  1.00  0.00    -0.200 F 
ATOM     79  C   UNL     1       9.430 -12.019   4.016  1.00  0.00     0.200 A 
ATOM     80  F   UNL     1       7.167 -11.645   3.457  1.00  0.00    -0.200 F 
ATOM     81  F   UNL     1       9.078 -12.407   5.249  1.00  0.00    -0.200 F 
ENDBRANCH  47  71
BRANCH  59  82
ATOM     82  C   UNL     1      13.047 -14.783  -3.848  1.00  0.00     0.064 A 
ATOM     83  C   UNL     1      12.159 -15.867  -3.891  1.00  0.00     0.173 A 
ATOM     84  C   UNL     1      14.420 -15.053  -3.961  1.00  0.00     0.173 A 
ATOM     85  F   UNL     1      10.838 -15.663  -3.772  1.00  0.00    -0.203 F 
ATOM     86  C   UNL     1      12.628 -17.172  -4.015  1.00  0.00     0.198 A 
ATOM     87  C   UNL     1      14.883 -16.356  -4.117  1.00  0.00     0.198 A 
ATOM     88  F   UNL     1      15.312 -14.051  -3.932  1.00  0.00    -0.203 F 
ATOM     89  F   UNL     1      11.764 -18.196  -4.002  1.00  0.00    -0.200 F 
ATOM     90  C   UNL     1      13.989 -17.415  -4.135  1.00  0.00     0.200 A 
ATOM     91  F   UNL     1      16.197 -16.587  -4.248  1.00  0.00    -0.200 F 
ATOM     92  F   UNL     1      14.438 -18.671  -4.261  1.00  0.00    -0.200 F 
ENDBRANCH  59  82
ENDBRANCH  33  34
ENDBRANCH  25  28
ENDBRANCH  23  24
ENDBRANCH  22  23
ENDBRANCH   1  22
TORSDOF 14
