REMARK SMILES C[C@@](CC(=O)N[C@@H]1CCS(=O)(=O)C1)(C(=O)NCCCCNC(=O)c1ccc(-c2c3nc(c(-c4c(F)c(F)c(F)c(F)c4F)c4ccc([nH]4)c(-c4c(F)c(F)c(F)c(F)c4F)c4nc(c(-c5c(F)c(F)c(F)c(F)c5F)c5ccc2[nH]5)C=C4)C=C3)cc1)c1ccccc1
REMARK SMILES IDX 18 1 17 2 16 3 14 4 15 5 2 7 1 8 3 9 4 10 5 11 6 12 7 14
REMARK SMILES IDX 8 15 13 16 9 17 10 18 11 19 12 20 87 21 88 22 92 23 89 24
REMARK SMILES IDX 91 25 90 26 19 27 20 28 21 29 22 30 23 32 24 33 25 34 86 35
REMARK SMILES IDX 26 36 85 37 27 38 28 39 29 40 79 41 30 42 84 43 78 44 80 45
REMARK SMILES IDX 31 46 83 47 77 48 76 49 32 51 64 52 44 53 63 54 45 55 48 56
REMARK SMILES IDX 62 57 81 58 46 59 47 60 61 62 82 63 49 64 33 65 34 66 42 67
REMARK SMILES IDX 35 68 36 69 40 70 43 71 37 72 38 73 41 74 39 75 65 76 66 77
REMARK SMILES IDX 74 78 67 79 68 80 72 81 75 82 69 83 70 84 73 85 71 86 50 87
REMARK SMILES IDX 51 88 59 89 52 90 53 91 57 92 60 93 54 94 55 95 58 96 56 97
REMARK H PARENT 16 6 6 13 21 31 80 50 48 61
REMARK Flexibility Score: inf
ROOT
ATOM      1  C   UNL     1      -1.865   0.473   2.152  1.00  0.00     0.023 C 
ENDROOT
BRANCH   1   2
ATOM      2  C   UNL     1      -1.773  -1.041   1.906  1.00  0.00     0.116 C 
BRANCH   2   3
ATOM      3  N   UNL     1      -1.700  -1.376   0.491  1.00  0.00    -0.355 N 
ATOM      4  C   UNL     1      -0.831  -1.796  -0.452  1.00  0.00     0.230 C 
ATOM      5  O   UNL     1      -1.430  -2.019  -1.523  1.00  0.00    -0.274 OA
ATOM      6  H   UNL     1      -2.588  -1.255   0.082  1.00  0.00     0.163 HD
BRANCH   4   7
ATOM      7  C   UNL     1       0.745  -1.942  -0.443  1.00  0.00     0.080 C 
ATOM      8  C   UNL     1       1.242  -0.682  -1.127  1.00  0.00     0.027 C 
BRANCH   7   9
ATOM      9  C   UNL     1       1.554  -2.031   0.877  1.00  0.00     0.121 C 
BRANCH   9  10
ATOM     10  C   UNL     1       1.352  -1.155   2.123  1.00  0.00     0.221 C 
ATOM     11  O   UNL     1       1.310  -1.739   3.221  1.00  0.00    -0.275 OA
ATOM     12  N   UNL     1       1.141   0.182   2.242  1.00  0.00    -0.352 N 
ATOM     13  H   UNL     1       0.245   0.369   2.605  1.00  0.00     0.163 HD
BRANCH  12  14
ATOM     14  C   UNL     1       1.885   1.438   1.979  1.00  0.00     0.098 C 
ATOM     15  C   UNL     1       1.092   2.688   2.480  1.00  0.00     0.042 C 
ATOM     16  C   UNL     1       2.328   1.794   0.577  1.00  0.00     0.161 C 
ATOM     17  C   UNL     1       0.398   3.424   1.329  1.00  0.00     0.139 C 
ATOM     18  S   UNL     1       0.974   2.709  -0.174  1.00  0.00     0.152 S 
ATOM     19  O   UNL     1      -0.103   1.860  -0.639  1.00  0.00    -0.229 OA
ATOM     20  O   UNL     1       1.532   3.733  -1.027  1.00  0.00    -0.229 OA
ENDBRANCH  12  14
ENDBRANCH   9  10
ENDBRANCH   7   9
BRANCH   7  21
ATOM     21  C   UNL     1       1.131  -3.129  -1.427  1.00  0.00    -0.032 A 
ATOM     22  C   UNL     1       0.588  -4.410  -1.238  1.00  0.00     0.005 A 
ATOM     23  C   UNL     1       1.888  -2.932  -2.612  1.00  0.00     0.005 A 
ATOM     24  C   UNL     1       0.740  -5.411  -2.213  1.00  0.00     0.000 A 
ATOM     25  C   UNL     1       2.037  -3.928  -3.581  1.00  0.00     0.000 A 
ATOM     26  C   UNL     1       1.450  -5.167  -3.387  1.00  0.00     0.000 A 
ENDBRANCH   7  21
ENDBRANCH   4   7
ENDBRANCH   2   3
ENDBRANCH   1   2
BRANCH   1  27
ATOM     27  C   UNL     1      -3.254   1.018   2.486  1.00  0.00     0.023 C 
BRANCH  27  28
ATOM     28  C   UNL     1      -3.755   0.671   3.885  1.00  0.00     0.116 C 
BRANCH  28  29
ATOM     29  N   UNL     1      -2.996   1.292   4.971  1.00  0.00    -0.352 N 
ATOM     30  C   UNL     1      -3.459   1.869   6.135  1.00  0.00     0.251 C 
ATOM     31  H   UNL     1      -2.018   1.298   4.854  1.00  0.00     0.163 HD
ATOM     32  O   UNL     1      -2.681   2.416   6.910  1.00  0.00    -0.269 OA
BRANCH  30  33
ATOM     33  C   UNL     1      -4.912   1.869   6.417  1.00  0.00     0.039 A 
ATOM     34  C   UNL     1      -5.535   3.053   6.822  1.00  0.00     0.014 A 
ATOM     35  C   UNL     1      -5.668   0.718   6.197  1.00  0.00     0.014 A 
ATOM     36  C   UNL     1      -6.930   3.107   6.895  1.00  0.00     0.010 A 
ATOM     37  C   UNL     1      -7.053   0.806   6.157  1.00  0.00     0.010 A 
ATOM     38  C   UNL     1      -7.702   2.001   6.505  1.00  0.00    -0.014 A 
BRANCH  38  39
ATOM     39  C   UNL     1      -9.186   2.056   6.454  1.00  0.00     0.031 A 
ATOM     40  C   UNL     1      -9.997   1.098   7.284  1.00  0.00     0.074 A 
ATOM     41  C   UNL     1      -9.800   2.896   5.596  1.00  0.00     0.049 A 
ATOM     42  N   UNL     1     -11.292   0.907   7.304  1.00  0.00    -0.248 NA
ATOM     43  C   UNL     1      -9.247   0.204   8.181  1.00  0.00     0.031 C 
ATOM     44  C   UNL     1      -9.125   3.822   4.685  1.00  0.00     0.029 A 
ATOM     45  N   UNL     1     -11.135   3.095   5.338  1.00  0.00    -0.354 N 
ATOM     46  C   UNL     1     -11.502  -0.139   8.194  1.00  0.00     0.074 A 
ATOM     47  C   UNL     1     -10.202  -0.592   8.633  1.00  0.00     0.031 C 
ATOM     48  C   UNL     1     -10.046   4.511   3.992  1.00  0.00     0.029 A 
ATOM     49  C   UNL     1     -11.376   4.048   4.377  1.00  0.00     0.049 A 
ATOM     50  H   UNL     1     -11.851   2.602   5.800  1.00  0.00     0.167 HD
ATOM     51  C   UNL     1     -12.675  -0.651   8.636  1.00  0.00     0.037 A 
ATOM     52  C   UNL     1     -12.539   4.491   3.862  1.00  0.00     0.037 A 
ATOM     53  C   UNL     1     -13.967  -0.173   8.221  1.00  0.00     0.049 A 
ATOM     54  C   UNL     1     -13.831   3.914   4.376  1.00  0.00     0.074 A 
ATOM     55  C   UNL     1     -15.217  -0.577   8.652  1.00  0.00     0.029 A 
ATOM     56  N   UNL     1     -14.170   0.821   7.274  1.00  0.00    -0.354 N 
ATOM     57  N   UNL     1     -14.020   2.979   5.276  1.00  0.00    -0.248 NA
ATOM     58  C   UNL     1     -15.072   4.460   3.809  1.00  0.00     0.031 C 
ATOM     59  C   UNL     1     -16.179   0.139   7.932  1.00  0.00     0.029 A 
ATOM     60  C   UNL     1     -15.528   1.030   7.094  1.00  0.00     0.049 A 
ATOM     61  H   UNL     1     -13.456   1.306   6.801  1.00  0.00     0.167 HD
ATOM     62  C   UNL     1     -15.396   2.845   5.405  1.00  0.00     0.074 A 
ATOM     63  C   UNL     1     -15.994   3.807   4.503  1.00  0.00     0.031 C 
ATOM     64  C   UNL     1     -16.102   2.001   6.197  1.00  0.00     0.037 A 
BRANCH  51  65
ATOM     65  C   UNL     1     -12.609  -1.776   9.630  1.00  0.00     0.064 A 
ATOM     66  C   UNL     1     -12.124  -1.579  10.933  1.00  0.00     0.173 A 
ATOM     67  C   UNL     1     -13.047  -3.063   9.284  1.00  0.00     0.173 A 
ATOM     68  F   UNL     1     -11.678  -0.372  11.313  1.00  0.00    -0.203 F 
ATOM     69  C   UNL     1     -12.043  -2.635  11.837  1.00  0.00     0.198 A 
ATOM     70  C   UNL     1     -13.000  -4.108  10.203  1.00  0.00     0.198 A 
ATOM     71  F   UNL     1     -13.525  -3.307   8.054  1.00  0.00    -0.203 F 
ATOM     72  F   UNL     1     -11.516  -2.435  13.053  1.00  0.00    -0.200 F 
ATOM     73  C   UNL     1     -12.488  -3.897  11.474  1.00  0.00     0.200 A 
ATOM     74  F   UNL     1     -13.443  -5.324   9.855  1.00  0.00    -0.200 F 
ATOM     75  F   UNL     1     -12.415  -4.911  12.346  1.00  0.00    -0.200 F 
ENDBRANCH  51  65
BRANCH  52  76
ATOM     76  C   UNL     1     -12.537   5.558   2.824  1.00  0.00     0.064 A 
ATOM     77  C   UNL     1     -13.024   6.842   3.110  1.00  0.00     0.173 A 
ATOM     78  C   UNL     1     -12.056   5.319   1.529  1.00  0.00     0.173 A 
ATOM     79  F   UNL     1     -13.513   7.116   4.329  1.00  0.00    -0.203 F 
ATOM     80  C   UNL     1     -13.051   7.837   2.135  1.00  0.00     0.198 A 
ATOM     81  C   UNL     1     -12.055   6.325   0.563  1.00  0.00     0.198 A 
ATOM     82  F   UNL     1     -11.573   4.111   1.204  1.00  0.00    -0.203 F 
ATOM     83  F   UNL     1     -13.567   9.040   2.423  1.00  0.00    -0.200 F 
ATOM     84  C   UNL     1     -12.561   7.580   0.864  1.00  0.00     0.200 A 
ATOM     85  F   UNL     1     -11.565   6.076  -0.659  1.00  0.00    -0.200 F 
ATOM     86  F   UNL     1     -12.583   8.539  -0.072  1.00  0.00    -0.200 F 
ENDBRANCH  52  76
BRANCH  64  87
ATOM     87  C   UNL     1     -17.599   2.106   6.154  1.00  0.00     0.064 A 
ATOM     88  C   UNL     1     -18.337   1.677   5.042  1.00  0.00     0.173 A 
ATOM     89  C   UNL     1     -18.306   2.598   7.263  1.00  0.00     0.173 A 
ATOM     90  F   UNL     1     -17.708   1.211   3.953  1.00  0.00    -0.203 F 
ATOM     91  C   UNL     1     -19.727   1.762   5.030  1.00  0.00     0.198 A 
ATOM     92  C   UNL     1     -19.696   2.650   7.261  1.00  0.00     0.198 A 
ATOM     93  F   UNL     1     -17.647   3.013   8.356  1.00  0.00    -0.203 F 
ATOM     94  F   UNL     1     -20.409   1.393   3.938  1.00  0.00    -0.200 F 
ATOM     95  C   UNL     1     -20.405   2.240   6.142  1.00  0.00     0.200 A 
ATOM     96  F   UNL     1     -20.350   3.096   8.342  1.00  0.00    -0.200 F 
ATOM     97  F   UNL     1     -21.743   2.311   6.133  1.00  0.00    -0.200 F 
ENDBRANCH  64  87
ENDBRANCH  38  39
ENDBRANCH  30  33
ENDBRANCH  28  29
ENDBRANCH  27  28
ENDBRANCH   1  27
TORSDOF 15
