REMARK SMILES COc1ccc(C(=O)NCCCCNC(=O)c2ccc(-c3c4nc(c(-c5c(F)c(F)c(F)c(F)c5F)c5ccc([nH]5)c(-c5c(F)c(F)c(F)c(F)c5F)c5nc(c(-c6c(F)c(F)c(F)c(F)c6F)c6ccc3[nH]6)C=C5)C=C4)cc2)cc1S(=O)(=O)N(C)Cc1cccc(F)c1
REMARK SMILES IDX 10 1 9 2 7 3 8 4 6 6 3 7 4 8 81 9 5 10 80 11 2 12 1 13 82 14
REMARK SMILES IDX 83 15 84 16 85 17 86 18 87 19 88 20 89 21 94 22 90 23 92 24
REMARK SMILES IDX 91 25 93 26 11 27 12 28 13 29 14 30 15 31 16 33 17 34 18 35
REMARK SMILES IDX 79 36 19 37 78 38 20 39 21 40 22 41 72 42 23 43 77 44 71 45
REMARK SMILES IDX 73 46 24 47 76 48 70 49 69 50 25 52 57 53 37 54 56 55 38 56
REMARK SMILES IDX 41 57 55 58 74 59 39 60 40 61 54 63 75 64 42 65 26 66 27 67
REMARK SMILES IDX 35 68 28 69 29 70 33 71 36 72 30 73 31 74 34 75 32 76 58 77
REMARK SMILES IDX 59 78 67 79 60 80 61 81 65 82 68 83 62 84 63 85 66 86 64 87
REMARK SMILES IDX 43 88 44 89 52 90 45 91 46 92 50 93 53 94 47 95 48 96 51 97
REMARK SMILES IDX 49 98
REMARK H PARENT 9 5 14 32 73 51 41 62
REMARK Flexibility Score: inf
ROOT
ATOM      1  C   UNL     1       4.136   4.868   3.541  1.00  0.00     0.116 C 
ENDROOT
BRANCH   1   2
ATOM      2  N   UNL     1       3.064   5.806   3.241  1.00  0.00    -0.352 N 
ATOM      3  C   UNL     1       1.867   5.676   2.577  1.00  0.00     0.251 C 
ATOM      4  O   UNL     1       1.126   6.659   2.540  1.00  0.00    -0.269 OA
ATOM      5  H   UNL     1       3.229   6.715   3.582  1.00  0.00     0.163 HD
BRANCH   3   6
ATOM      6  C   UNL     1       1.406   4.407   1.941  1.00  0.00     0.041 A 
ATOM      7  C   UNL     1       0.429   1.992   0.829  1.00  0.00     0.138 A 
ATOM      8  C   UNL     1      -0.450   3.024   1.175  1.00  0.00     0.049 A 
ATOM      9  C   UNL     1       1.793   2.188   0.996  1.00  0.00     0.125 A 
ATOM     10  C   UNL     1       0.033   4.210   1.751  1.00  0.00     0.018 A 
ATOM     11  C   UNL     1       2.269   3.414   1.494  1.00  0.00     0.039 A 
BRANCH   7  12
ATOM     12  O   UNL     1      -0.089   0.901   0.197  1.00  0.00    -0.495 OA
ATOM     13  C   UNL     1      -0.451  -0.124   1.119  1.00  0.00     0.278 C 
ENDBRANCH   7  12
BRANCH   9  14
ATOM     14  S   UNL     1       3.038   0.955   0.738  1.00  0.00     0.246 S 
ATOM     15  O   UNL     1       4.250   1.681   0.429  1.00  0.00    -0.207 OA
ATOM     16  O   UNL     1       2.999   0.101   1.912  1.00  0.00    -0.207 OA
BRANCH  14  17
ATOM     17  N   UNL     1       2.664   0.003  -0.598  1.00  0.00    -0.196 NA
ATOM     18  C   UNL     1       2.084   0.573  -1.820  1.00  0.00     0.125 C 
BRANCH  17  19
ATOM     19  C   UNL     1       3.591  -1.138  -0.823  1.00  0.00     0.137 C 
BRANCH  19  20
ATOM     20  C   UNL     1       4.913  -0.891  -1.536  1.00  0.00    -0.030 A 
ATOM     21  C   UNL     1       5.779  -1.983  -1.731  1.00  0.00     0.005 A 
ATOM     22  C   UNL     1       5.331   0.359  -2.015  1.00  0.00     0.044 A 
ATOM     23  C   UNL     1       7.010  -1.827  -2.381  1.00  0.00     0.003 A 
ATOM     24  C   UNL     1       6.557   0.508  -2.656  1.00  0.00     0.123 A 
ATOM     25  C   UNL     1       7.399  -0.575  -2.846  1.00  0.00     0.039 A 
ATOM     26  F   UNL     1       6.922   1.718  -3.101  1.00  0.00    -0.207 F 
ENDBRANCH  19  20
ENDBRANCH  17  19
ENDBRANCH  14  17
ENDBRANCH   9  14
ENDBRANCH   3   6
ENDBRANCH   1   2
BRANCH   1  27
ATOM     27  C   UNL     1       5.294   5.017   2.547  1.00  0.00     0.023 C 
BRANCH  27  28
ATOM     28  C   UNL     1       6.248   6.176   2.858  1.00  0.00     0.023 C 
BRANCH  28  29
ATOM     29  C   UNL     1       7.047   6.015   4.148  1.00  0.00     0.116 C 
BRANCH  29  30
ATOM     30  N   UNL     1       7.905   4.843   4.149  1.00  0.00    -0.352 N 
ATOM     31  C   UNL     1       9.066   4.623   4.848  1.00  0.00     0.251 C 
ATOM     32  H   UNL     1       7.614   4.103   3.569  1.00  0.00     0.163 HD
ATOM     33  O   UNL     1       9.721   3.605   4.645  1.00  0.00    -0.269 OA
BRANCH  31  34
ATOM     34  C   UNL     1       9.559   5.626   5.819  1.00  0.00     0.039 A 
ATOM     35  C   UNL     1      10.927   5.915   5.835  1.00  0.00     0.014 A 
ATOM     36  C   UNL     1       8.702   6.250   6.729  1.00  0.00     0.014 A 
ATOM     37  C   UNL     1      11.429   6.852   6.740  1.00  0.00     0.010 A 
ATOM     38  C   UNL     1       9.192   7.234   7.585  1.00  0.00     0.010 A 
ATOM     39  C   UNL     1      10.563   7.529   7.613  1.00  0.00    -0.014 A 
BRANCH  39  40
ATOM     40  C   UNL     1      11.089   8.515   8.586  1.00  0.00     0.031 A 
ATOM     41  C   UNL     1      11.029   8.229  10.060  1.00  0.00     0.074 A 
ATOM     42  C   UNL     1      11.579   9.689   8.147  1.00  0.00     0.049 A 
ATOM     43  N   UNL     1      11.439   8.961  11.065  1.00  0.00    -0.248 NA
ATOM     44  C   UNL     1      10.394   6.964  10.460  1.00  0.00     0.031 C 
ATOM     45  C   UNL     1      11.621  10.115   6.749  1.00  0.00     0.029 A 
ATOM     46  N   UNL     1      12.128  10.741   8.835  1.00  0.00    -0.354 N 
ATOM     47  C   UNL     1      11.096   8.255  12.210  1.00  0.00     0.074 A 
ATOM     48  C   UNL     1      10.394   7.066  11.780  1.00  0.00     0.031 C 
ATOM     49  C   UNL     1      12.183  11.333   6.679  1.00  0.00     0.029 A 
ATOM     50  C   UNL     1      12.528  11.775   8.028  1.00  0.00     0.049 A 
ATOM     51  H   UNL     1      12.225  10.753   9.815  1.00  0.00     0.167 HD
ATOM     52  C   UNL     1      11.366   8.557  13.504  1.00  0.00     0.037 A 
ATOM     53  C   UNL     1      13.119  12.943   8.340  1.00  0.00     0.037 A 
ATOM     54  C   UNL     1      12.089   9.727  13.926  1.00  0.00     0.049 A 
ATOM     55  C   UNL     1      13.472  13.228   9.774  1.00  0.00     0.074 A 
ATOM     56  C   UNL     1      12.473  10.094  15.204  1.00  0.00     0.029 A 
ATOM     57  N   UNL     1      12.540  10.723  13.072  1.00  0.00    -0.354 N 
ATOM     58  N   UNL     1      13.223  12.513  10.844  1.00  0.00    -0.248 NA
ATOM     59  C   UNL     1      14.210  14.470  10.039  1.00  0.00     0.031 C 
ATOM     60  C   UNL     1      13.128  11.329  15.126  1.00  0.00     0.029 A 
ATOM     61  C   UNL     1      13.190  11.710  13.795  1.00  0.00     0.049 A 
ATOM     62  H   UNL     1      12.417  10.728  12.095  1.00  0.00     0.167 HD
ATOM     63  C   UNL     1      13.794  13.202  11.905  1.00  0.00     0.074 A 
ATOM     64  C   UNL     1      14.414  14.387  11.346  1.00  0.00     0.031 C 
ATOM     65  C   UNL     1      13.804  12.882  13.223  1.00  0.00     0.037 A 
BRANCH  52  66
ATOM     66  C   UNL     1      10.869   7.598  14.547  1.00  0.00     0.064 A 
ATOM     67  C   UNL     1      11.414   6.311  14.682  1.00  0.00     0.173 A 
ATOM     68  C   UNL     1       9.830   7.963  15.415  1.00  0.00     0.173 A 
ATOM     69  F   UNL     1      12.402   5.907  13.868  1.00  0.00    -0.203 F 
ATOM     70  C   UNL     1      10.906   5.410  15.615  1.00  0.00     0.198 A 
ATOM     71  C   UNL     1       9.345   7.070  16.369  1.00  0.00     0.198 A 
ATOM     72  F   UNL     1       9.276   9.182  15.334  1.00  0.00    -0.203 F 
ATOM     73  F   UNL     1      11.398   4.165  15.678  1.00  0.00    -0.200 F 
ATOM     74  C   UNL     1       9.875   5.792  16.459  1.00  0.00     0.200 A 
ATOM     75  F   UNL     1       8.356   7.444  17.192  1.00  0.00    -0.200 F 
ATOM     76  F   UNL     1       9.382   4.923  17.352  1.00  0.00    -0.200 F 
ENDBRANCH  52  66
BRANCH  53  77
ATOM     77  C   UNL     1      13.467  13.896   7.257  1.00  0.00     0.064 A 
ATOM     78  C   UNL     1      14.796  14.058   6.841  1.00  0.00     0.173 A 
ATOM     79  C   UNL     1      12.477  14.631   6.590  1.00  0.00     0.173 A 
ATOM     80  F   UNL     1      15.777  13.386   7.461  1.00  0.00    -0.203 F 
ATOM     81  C   UNL     1      15.123  14.929   5.805  1.00  0.00     0.198 A 
ATOM     82  C   UNL     1      12.803  15.485   5.539  1.00  0.00     0.198 A 
ATOM     83  F   UNL     1      11.191  14.502   6.946  1.00  0.00    -0.203 F 
ATOM     84  F   UNL     1      16.404  15.087   5.445  1.00  0.00    -0.200 F 
ATOM     85  C   UNL     1      14.126  15.636   5.150  1.00  0.00     0.200 A 
ATOM     86  F   UNL     1      11.836  16.157   4.899  1.00  0.00    -0.200 F 
ATOM     87  F   UNL     1      14.440  16.465   4.145  1.00  0.00    -0.200 F 
ENDBRANCH  53  77
BRANCH  65  88
ATOM     88  C   UNL     1      14.535  13.811  14.146  1.00  0.00     0.064 A 
ATOM     89  C   UNL     1      14.024  15.075  14.476  1.00  0.00     0.173 A 
ATOM     90  C   UNL     1      15.750  13.419  14.730  1.00  0.00     0.173 A 
ATOM     91  F   UNL     1      12.874  15.500  13.932  1.00  0.00    -0.203 F 
ATOM     92  C   UNL     1      14.718  15.925  15.333  1.00  0.00     0.198 A 
ATOM     93  C   UNL     1      16.426  14.261  15.608  1.00  0.00     0.198 A 
ATOM     94  F   UNL     1      16.277  12.218  14.452  1.00  0.00    -0.203 F 
ATOM     95  F   UNL     1      14.236  17.148  15.595  1.00  0.00    -0.200 F 
ATOM     96  C   UNL     1      15.914  15.516  15.902  1.00  0.00     0.200 A 
ATOM     97  F   UNL     1      17.577  13.860  16.166  1.00  0.00    -0.200 F 
ATOM     98  F   UNL     1      16.579  16.335  16.728  1.00  0.00    -0.200 F 
ENDBRANCH  65  88
ENDBRANCH  39  40
ENDBRANCH  31  34
ENDBRANCH  29  30
ENDBRANCH  28  29
ENDBRANCH  27  28
ENDBRANCH   1  27
TORSDOF 16
