REMARK SMILES CC[NH2+][C@]1(C(=O)NCCCCNC(=O)c2ccc(-c3c4nc(c(-c5c(F)c(F)c(F)c(F)c5F)c5ccc([nH]5)c(-c5c(F)c(F)c(F)c(F)c5F)c5nc(c(-c6c(F)c(F)c(F)c(F)c6F)c6ccc3[nH]6)C=C5)C=C4)cc2)CCC[C@H]1CCSc1n[nH]c(=O)n1C
REMARK SMILES IDX 8 1 7 2 5 3 6 4 4 6 78 7 81 8 79 9 80 10 3 11 2 14 1 15
REMARK SMILES IDX 82 16 83 17 84 18 85 19 86 20 90 21 87 22 88 23 91 24 89 26
REMARK SMILES IDX 9 27 10 28 11 29 12 30 13 31 14 33 15 34 16 35 77 36 17 37
REMARK SMILES IDX 76 38 18 39 19 40 20 41 70 42 21 43 75 44 69 45 71 46 22 47
REMARK SMILES IDX 74 48 68 49 67 50 23 52 55 53 35 54 54 55 36 56 39 57 53 58
REMARK SMILES IDX 72 59 37 60 38 61 52 63 73 64 40 65 24 66 25 67 33 68 26 69
REMARK SMILES IDX 27 70 31 71 34 72 28 73 29 74 32 75 30 76 56 77 57 78 65 79
REMARK SMILES IDX 58 80 59 81 63 82 66 83 60 84 61 85 64 86 62 87 41 88 42 89
REMARK SMILES IDX 50 90 43 91 44 92 48 93 51 94 45 95 46 96 49 97 47 98
REMARK H PARENT 7 5 3 12 3 13 87 25 12 32 71 51 39 62
REMARK Flexibility Score: inf
ROOT
ATOM      1  C   UNL     1       2.161   4.441  -1.558  1.00  0.00     0.116 C 
ENDROOT
BRANCH   1   2
ATOM      2  N   UNL     1       1.655   3.189  -1.057  1.00  0.00    -0.351 N 
ATOM      3  C   UNL     1       1.116   2.796   0.117  1.00  0.00     0.281 C 
ATOM      4  O   UNL     1       1.008   1.562   0.191  1.00  0.00    -0.268 OA
ATOM      5  H   UNL     1       1.715   2.460  -1.716  1.00  0.00     0.163 HD
BRANCH   3   6
ATOM      6  C   UNL     1       0.578   3.731   1.263  1.00  0.00     0.178 C 
ATOM      7  C   UNL     1       0.870   5.242   1.170  1.00  0.00     0.079 C 
ATOM      8  C   UNL     1      -0.995   3.735   1.367  1.00  0.00     0.061 C 
ATOM      9  C   UNL     1      -0.095   5.910   2.135  1.00  0.00     0.008 C 
ATOM     10  C   UNL     1      -1.387   5.168   1.841  1.00  0.00     0.011 C 
BRANCH   6  11
ATOM     11  N   UNL     1       1.184   3.337   2.592  1.00  0.00    -0.334 N 
ATOM     12  H   UNL     1       2.133   3.709   2.624  1.00  0.00     0.347 HD
ATOM     13  H   UNL     1       0.558   3.719   3.301  1.00  0.00     0.347 HD
BRANCH  11  14
ATOM     14  C   UNL     1       1.257   1.901   2.869  1.00  0.00     0.257 C 
ATOM     15  C   UNL     1       1.492   1.645   4.352  1.00  0.00     0.071 C 
ENDBRANCH  11  14
ENDBRANCH   6  11
BRANCH   8  16
ATOM     16  C   UNL     1      -1.813   3.390   0.097  1.00  0.00     0.022 C 
BRANCH  16  17
ATOM     17  C   UNL     1      -2.050   1.903  -0.219  1.00  0.00     0.079 C 
BRANCH  17  18
ATOM     18  S   UNL     1      -3.405   1.057   0.654  1.00  0.00    -0.086 SA
BRANCH  18  19
ATOM     19  C   UNL     1      -2.866   1.057   2.288  1.00  0.00     0.191 A 
ATOM     20  N   UNL     1      -3.184   2.008   3.120  1.00  0.00    -0.146 NA
ATOM     21  N   UNL     1      -2.119   0.061   2.819  1.00  0.00    -0.273 N 
ATOM     22  N   UNL     1      -2.579   1.636   4.285  1.00  0.00    -0.226 N 
ATOM     23  C   UNL     1      -1.924   0.422   4.129  1.00  0.00     0.343 A 
ATOM     24  C   UNL     1      -1.601  -1.170   2.271  1.00  0.00     0.157 C 
ATOM     25  H   UNL     1      -2.603   2.157   5.120  1.00  0.00     0.195 HD
ATOM     26  O   UNL     1      -1.305  -0.174   4.989  1.00  0.00    -0.246 OA
ENDBRANCH  18  19
ENDBRANCH  17  18
ENDBRANCH  16  17
ENDBRANCH   8  16
ENDBRANCH   3   6
ENDBRANCH   1   2
BRANCH   1  27
ATOM     27  C   UNL     1       3.611   4.651  -1.137  1.00  0.00     0.023 C 
BRANCH  27  28
ATOM     28  C   UNL     1       4.606   3.837  -1.969  1.00  0.00     0.023 C 
BRANCH  28  29
ATOM     29  C   UNL     1       4.420   3.961  -3.477  1.00  0.00     0.116 C 
BRANCH  29  30
ATOM     30  N   UNL     1       4.256   5.339  -3.925  1.00  0.00    -0.352 N 
ATOM     31  C   UNL     1       4.623   5.896  -5.121  1.00  0.00     0.251 C 
ATOM     32  H   UNL     1       3.824   5.949  -3.283  1.00  0.00     0.163 HD
ATOM     33  O   UNL     1       4.503   7.098  -5.321  1.00  0.00    -0.269 OA
BRANCH  31  34
ATOM     34  C   UNL     1       5.207   5.019  -6.147  1.00  0.00     0.039 A 
ATOM     35  C   UNL     1       6.444   5.360  -6.691  1.00  0.00     0.014 A 
ATOM     36  C   UNL     1       4.565   3.830  -6.502  1.00  0.00     0.014 A 
ATOM     37  C   UNL     1       7.069   4.472  -7.560  1.00  0.00     0.010 A 
ATOM     38  C   UNL     1       5.230   2.908  -7.296  1.00  0.00     0.010 A 
ATOM     39  C   UNL     1       6.482   3.226  -7.842  1.00  0.00    -0.014 A 
BRANCH  39  40
ATOM     40  C   UNL     1       7.168   2.252  -8.722  1.00  0.00     0.031 A 
ATOM     41  C   UNL     1       6.544   1.853 -10.028  1.00  0.00     0.074 A 
ATOM     42  C   UNL     1       8.332   1.704  -8.322  1.00  0.00     0.049 A 
ATOM     43  N   UNL     1       6.984   1.018 -10.934  1.00  0.00    -0.248 NA
ATOM     44  C   UNL     1       5.235   2.448 -10.347  1.00  0.00     0.031 C 
ATOM     45  C   UNL     1       8.997   1.970  -7.045  1.00  0.00     0.029 A 
ATOM     46  N   UNL     1       9.162   0.812  -8.950  1.00  0.00    -0.354 N 
ATOM     47  C   UNL     1       6.007   0.984 -11.919  1.00  0.00     0.074 A 
ATOM     48  C   UNL     1       4.919   1.823 -11.470  1.00  0.00     0.031 C 
ATOM     49  C   UNL     1      10.153   1.288  -7.001  1.00  0.00     0.029 A 
ATOM     50  C   UNL     1      10.291   0.511  -8.228  1.00  0.00     0.049 A 
ATOM     51  H   UNL     1       8.967   0.425  -9.834  1.00  0.00     0.167 HD
ATOM     52  C   UNL     1       6.032   0.338 -13.108  1.00  0.00     0.037 A 
ATOM     53  C   UNL     1      11.322  -0.300  -8.530  1.00  0.00     0.037 A 
ATOM     54  C   UNL     1       7.129  -0.479 -13.554  1.00  0.00     0.049 A 
ATOM     55  C   UNL     1      11.324  -1.008  -9.858  1.00  0.00     0.074 A 
ATOM     56  C   UNL     1       7.282  -1.135 -14.762  1.00  0.00     0.029 A 
ATOM     57  N   UNL     1       8.263  -0.754 -12.802  1.00  0.00    -0.354 N 
ATOM     58  N   UNL     1      10.434  -0.969 -10.820  1.00  0.00    -0.248 NA
ATOM     59  C   UNL     1      12.482  -1.863 -10.148  1.00  0.00     0.031 C 
ATOM     60  C   UNL     1       8.482  -1.852 -14.720  1.00  0.00     0.029 A 
ATOM     61  C   UNL     1       9.109  -1.591 -13.512  1.00  0.00     0.049 A 
ATOM     62  H   UNL     1       8.440  -0.406 -11.898  1.00  0.00     0.167 HD
ATOM     63  C   UNL     1      10.936  -1.767 -11.839  1.00  0.00     0.074 A 
ATOM     64  C   UNL     1      12.220  -2.260 -11.384  1.00  0.00     0.031 C 
ATOM     65  C   UNL     1      10.386  -2.067 -13.042  1.00  0.00     0.037 A 
BRANCH  52  66
ATOM     66  C   UNL     1       4.839   0.494 -14.007  1.00  0.00     0.064 A 
ATOM     67  C   UNL     1       4.529   1.721 -14.616  1.00  0.00     0.173 A 
ATOM     68  C   UNL     1       4.008  -0.602 -14.285  1.00  0.00     0.173 A 
ATOM     69  F   UNL     1       5.281   2.805 -14.373  1.00  0.00    -0.203 F 
ATOM     70  C   UNL     1       3.415   1.852 -15.441  1.00  0.00     0.198 A 
ATOM     71  C   UNL     1       2.915  -0.475 -15.139  1.00  0.00     0.198 A 
ATOM     72  F   UNL     1       4.258  -1.798 -13.733  1.00  0.00    -0.203 F 
ATOM     73  F   UNL     1       3.107   3.047 -15.963  1.00  0.00    -0.200 F 
ATOM     74  C   UNL     1       2.614   0.753 -15.708  1.00  0.00     0.200 A 
ATOM     75  F   UNL     1       2.149  -1.542 -15.407  1.00  0.00    -0.200 F 
ATOM     76  F   UNL     1       1.546   0.878 -16.509  1.00  0.00    -0.200 F 
ENDBRANCH  52  66
BRANCH  53  77
ATOM     77  C   UNL     1      12.451  -0.458  -7.575  1.00  0.00     0.064 A 
ATOM     78  C   UNL     1      13.728   0.035  -7.880  1.00  0.00     0.173 A 
ATOM     79  C   UNL     1      12.282  -1.111  -6.346  1.00  0.00     0.173 A 
ATOM     80  F   UNL     1      13.945   0.653  -9.050  1.00  0.00    -0.203 F 
ATOM     81  C   UNL     1      14.797  -0.142  -7.004  1.00  0.00     0.198 A 
ATOM     82  C   UNL     1      13.344  -1.260  -5.457  1.00  0.00     0.198 A 
ATOM     83  F   UNL     1      11.079  -1.594  -6.002  1.00  0.00    -0.203 F 
ATOM     84  F   UNL     1      16.018   0.292  -7.345  1.00  0.00    -0.200 F 
ATOM     85  C   UNL     1      14.604  -0.785  -5.791  1.00  0.00     0.200 A 
ATOM     86  F   UNL     1      13.148  -1.866  -4.278  1.00  0.00    -0.200 F 
ATOM     87  F   UNL     1      15.631  -0.954  -4.948  1.00  0.00    -0.200 F 
ENDBRANCH  53  77
BRANCH  65  88
ATOM     88  C   UNL     1      11.190  -2.938 -13.964  1.00  0.00     0.064 A 
ATOM     89  C   UNL     1      11.409  -4.297 -13.694  1.00  0.00     0.173 A 
ATOM     90  C   UNL     1      11.726  -2.410 -15.149  1.00  0.00     0.173 A 
ATOM     91  F   UNL     1      10.929  -4.848 -12.569  1.00  0.00    -0.203 F 
ATOM     92  C   UNL     1      12.167  -5.085 -14.556  1.00  0.00     0.198 A 
ATOM     93  C   UNL     1      12.451  -3.209 -16.027  1.00  0.00     0.198 A 
ATOM     94  F   UNL     1      11.537  -1.119 -15.461  1.00  0.00    -0.203 F 
ATOM     95  F   UNL     1      12.416  -6.364 -14.246  1.00  0.00    -0.200 F 
ATOM     96  C   UNL     1      12.681  -4.542 -15.725  1.00  0.00     0.200 A 
ATOM     97  F   UNL     1      12.931  -2.688 -17.165  1.00  0.00    -0.200 F 
ATOM     98  F   UNL     1      13.406  -5.303 -16.556  1.00  0.00    -0.200 F 
ENDBRANCH  65  88
ENDBRANCH  39  40
ENDBRANCH  31  34
ENDBRANCH  29  30
ENDBRANCH  28  29
ENDBRANCH  27  28
ENDBRANCH   1  27
TORSDOF 17
