REMARK SMILES Cc1cccc(NC(=O)[C@H]2C[C@H]2C(=O)NCCCCNC(=O)c2ccc(-c3c4nc(c(-c5c(F)c(F)c(F)c(F)c5F)c5ccc([nH]5)c(-c5c(F)c(F)c(F)c(F)c5F)c5nc(c(-c6c(F)c(F)c(F)c(F)c6F)c6ccc3[nH]6)C=C5)C=C4)cc2)c1
REMARK SMILES IDX 17 1 16 2 15 3 13 4 14 5 12 7 10 8 11 9 8 10 7 11 9 13 6 14
REMARK SMILES IDX 1 15 2 16 3 17 86 18 4 19 5 20 18 21 19 22 20 23 21 24 22 26
REMARK SMILES IDX 23 27 24 28 85 29 25 30 84 31 26 32 27 33 28 34 78 35 29 36
REMARK SMILES IDX 83 37 77 38 79 39 30 40 82 41 76 42 75 43 31 45 63 46 43 47
REMARK SMILES IDX 62 48 44 49 47 50 61 51 80 52 45 53 46 54 60 56 81 57 48 58
REMARK SMILES IDX 32 59 33 60 41 61 34 62 35 63 39 64 42 65 36 66 37 67 40 68
REMARK SMILES IDX 38 69 64 70 65 71 73 72 66 73 67 74 71 75 74 76 68 77 69 78
REMARK SMILES IDX 72 79 70 80 49 81 50 82 58 83 51 84 52 85 56 86 59 87 53 88
REMARK SMILES IDX 54 89 57 90 55 91
REMARK H PARENT 15 6 7 12 20 25 79 44 47 55
REMARK Flexibility Score: inf
ROOT
ATOM      1  C   UNL     1      -7.872   2.002   0.488  1.00  0.00     0.023 C 
ENDROOT
BRANCH   1   2
ATOM      2  C   UNL     1      -7.359   0.589   0.170  1.00  0.00     0.116 C 
BRANCH   2   3
ATOM      3  N   UNL     1      -6.839   0.491  -1.179  1.00  0.00    -0.356 N 
ATOM      4  C   UNL     1      -5.597   0.344  -1.730  1.00  0.00     0.223 C 
ATOM      5  O   UNL     1      -5.535   0.424  -2.947  1.00  0.00    -0.275 OA
ATOM      6  H   UNL     1      -7.548   0.544  -1.859  1.00  0.00     0.163 HD
BRANCH   4   7
ATOM      7  C   UNL     1      -4.330   0.064  -1.011  1.00  0.00     0.091 C 
ATOM      8  C   UNL     1      -3.705   0.944   0.045  1.00  0.00     0.092 C 
ATOM      9  C   UNL     1      -4.101  -0.497   0.348  1.00  0.00     0.028 C 
BRANCH   8  10
ATOM     10  C   UNL     1      -4.367   2.043   0.783  1.00  0.00     0.228 C 
ATOM     11  N   UNL     1      -4.219   3.351   0.395  1.00  0.00    -0.326 N 
ATOM     12  H   UNL     1      -4.540   3.996   1.065  1.00  0.00     0.169 HD
ATOM     13  O   UNL     1      -4.944   1.804   1.842  1.00  0.00    -0.274 OA
BRANCH  11  14
ATOM     14  C   UNL     1      -3.703   3.959  -0.761  1.00  0.00     0.041 A 
ATOM     15  C   UNL     1      -2.658   7.508  -1.734  1.00  0.00     0.044 C 
ATOM     16  C   UNL     1      -2.945   6.038  -1.804  1.00  0.00    -0.049 A 
ATOM     17  C   UNL     1      -2.723   5.350  -2.999  1.00  0.00     0.003 A 
ATOM     18  C   UNL     1      -3.447   5.337  -0.695  1.00  0.00     0.029 A 
ATOM     19  C   UNL     1      -2.994   3.990  -3.080  1.00  0.00     0.002 A 
ATOM     20  C   UNL     1      -3.477   3.300  -1.966  1.00  0.00     0.026 A 
ENDBRANCH  11  14
ENDBRANCH   8  10
ENDBRANCH   4   7
ENDBRANCH   2   3
ENDBRANCH   1   2
BRANCH   1  21
ATOM     21  C   UNL     1      -9.049   2.484  -0.361  1.00  0.00     0.023 C 
BRANCH  21  22
ATOM     22  C   UNL     1     -10.347   1.720  -0.147  1.00  0.00     0.116 C 
BRANCH  22  23
ATOM     23  N   UNL     1     -11.217   2.241   0.904  1.00  0.00    -0.352 N 
ATOM     24  C   UNL     1     -12.468   1.794   1.309  1.00  0.00     0.251 C 
ATOM     25  H   UNL     1     -10.868   3.020   1.394  1.00  0.00     0.163 HD
ATOM     26  O   UNL     1     -13.091   2.389   2.182  1.00  0.00    -0.269 OA
BRANCH  24  27
ATOM     27  C   UNL     1     -12.969   0.489   0.805  1.00  0.00     0.039 A 
ATOM     28  C   UNL     1     -13.361  -0.452   1.763  1.00  0.00     0.014 A 
ATOM     29  C   UNL     1     -12.686   0.089  -0.494  1.00  0.00     0.014 A 
ATOM     30  C   UNL     1     -13.117  -1.798   1.522  1.00  0.00     0.010 A 
ATOM     31  C   UNL     1     -12.307  -1.218  -0.690  1.00  0.00     0.010 A 
ATOM     32  C   UNL     1     -12.448  -2.139   0.351  1.00  0.00    -0.014 A 
BRANCH  32  33
ATOM     33  C   UNL     1     -11.885  -3.451   0.102  1.00  0.00     0.031 A 
ATOM     34  C   UNL     1     -12.707  -4.407  -0.658  1.00  0.00     0.074 A 
ATOM     35  C   UNL     1     -10.626  -3.747   0.492  1.00  0.00     0.049 A 
ATOM     36  N   UNL     1     -12.603  -5.684  -0.561  1.00  0.00    -0.248 NA
ATOM     37  C   UNL     1     -13.783  -3.981  -1.545  1.00  0.00     0.031 C 
ATOM     38  C   UNL     1      -9.822  -4.894   0.084  1.00  0.00     0.029 A 
ATOM     39  N   UNL     1      -9.850  -3.117   1.480  1.00  0.00    -0.354 N 
ATOM     40  C   UNL     1     -13.387  -6.243  -1.546  1.00  0.00     0.074 A 
ATOM     41  C   UNL     1     -14.168  -5.149  -2.068  1.00  0.00     0.031 C 
ATOM     42  C   UNL     1      -8.824  -5.069   0.966  1.00  0.00     0.029 A 
ATOM     43  C   UNL     1      -9.032  -4.126   2.048  1.00  0.00     0.049 A 
ATOM     44  H   UNL     1      -9.870  -2.165   1.728  1.00  0.00     0.167 HD
ATOM     45  C   UNL     1     -13.167  -7.545  -1.887  1.00  0.00     0.037 A 
ATOM     46  C   UNL     1      -9.110  -4.456   3.373  1.00  0.00     0.037 A 
ATOM     47  C   UNL     1     -12.131  -8.118  -1.028  1.00  0.00     0.049 A 
ATOM     48  C   UNL     1      -9.581  -5.868   3.599  1.00  0.00     0.074 A 
ATOM     49  C   UNL     1     -10.760  -8.234  -1.194  1.00  0.00     0.029 A 
ATOM     50  N   UNL     1     -12.384  -8.309   0.325  1.00  0.00    -0.354 N 
ATOM     51  N   UNL     1     -10.188  -6.574   2.685  1.00  0.00    -0.248 NA
ATOM     52  C   UNL     1      -9.433  -6.587   4.859  1.00  0.00     0.031 C 
ATOM     53  C   UNL     1     -10.182  -8.438   0.083  1.00  0.00     0.029 A 
ATOM     54  C   UNL     1     -11.201  -8.483   1.020  1.00  0.00     0.049 A 
ATOM     55  H   UNL     1     -13.281  -8.319   0.732  1.00  0.00     0.167 HD
ATOM     56  C   UNL     1     -10.519  -7.797   3.198  1.00  0.00     0.074 A 
ATOM     57  C   UNL     1     -10.005  -7.765   4.556  1.00  0.00     0.031 C 
ATOM     58  C   UNL     1     -11.198  -8.722   2.457  1.00  0.00     0.037 A 
BRANCH  45  59
ATOM     59  C   UNL     1     -13.642  -8.201  -3.167  1.00  0.00     0.064 A 
ATOM     60  C   UNL     1     -12.924  -9.286  -3.718  1.00  0.00     0.173 A 
ATOM     61  C   UNL     1     -14.752  -7.791  -3.929  1.00  0.00     0.173 A 
ATOM     62  F   UNL     1     -11.901  -9.853  -3.065  1.00  0.00    -0.203 F 
ATOM     63  C   UNL     1     -13.225  -9.835  -4.967  1.00  0.00     0.198 A 
ATOM     64  C   UNL     1     -15.027  -8.309  -5.200  1.00  0.00     0.198 A 
ATOM     65  F   UNL     1     -15.649  -6.921  -3.452  1.00  0.00    -0.203 F 
ATOM     66  F   UNL     1     -12.495 -10.858  -5.437  1.00  0.00    -0.200 F 
ATOM     67  C   UNL     1     -14.257  -9.325  -5.724  1.00  0.00     0.200 A 
ATOM     68  F   UNL     1     -16.052  -7.816  -5.911  1.00  0.00    -0.200 F 
ATOM     69  F   UNL     1     -14.527  -9.828  -6.936  1.00  0.00    -0.200 F 
ENDBRANCH  45  59
BRANCH  46  70
ATOM     70  C   UNL     1      -9.447  -3.281   4.225  1.00  0.00     0.064 A 
ATOM     71  C   UNL     1      -8.537  -2.208   4.146  1.00  0.00     0.173 A 
ATOM     72  C   UNL     1     -10.786  -2.989   4.503  1.00  0.00     0.173 A 
ATOM     73  F   UNL     1      -7.230  -2.454   3.962  1.00  0.00    -0.203 F 
ATOM     74  C   UNL     1      -9.002  -0.907   4.005  1.00  0.00     0.198 A 
ATOM     75  C   UNL     1     -11.237  -1.672   4.431  1.00  0.00     0.198 A 
ATOM     76  F   UNL     1     -11.677  -3.976   4.676  1.00  0.00    -0.203 F 
ATOM     77  F   UNL     1      -8.155   0.066   3.641  1.00  0.00    -0.200 F 
ATOM     78  C   UNL     1     -10.360  -0.650   4.093  1.00  0.00     0.200 A 
ATOM     79  F   UNL     1     -12.544  -1.411   4.571  1.00  0.00    -0.200 F 
ATOM     80  F   UNL     1     -10.824   0.570   3.792  1.00  0.00    -0.200 F 
ENDBRANCH  46  70
BRANCH  58  81
ATOM     81  C   UNL     1     -11.821  -9.991   2.986  1.00  0.00     0.064 A 
ATOM     82  C   UNL     1     -12.232 -10.169   4.317  1.00  0.00     0.173 A 
ATOM     83  C   UNL     1     -12.145 -11.052   2.104  1.00  0.00     0.173 A 
ATOM     84  F   UNL     1     -12.130  -9.186   5.220  1.00  0.00    -0.203 F 
ATOM     85  C   UNL     1     -12.827 -11.355   4.754  1.00  0.00     0.198 A 
ATOM     86  C   UNL     1     -12.809 -12.200   2.528  1.00  0.00     0.198 A 
ATOM     87  F   UNL     1     -11.852 -10.998   0.797  1.00  0.00    -0.203 F 
ATOM     88  F   UNL     1     -13.136 -11.501   6.050  1.00  0.00    -0.200 F 
ATOM     89  C   UNL     1     -13.124 -12.365   3.859  1.00  0.00     0.200 A 
ATOM     90  F   UNL     1     -13.154 -13.136   1.633  1.00  0.00    -0.200 F 
ATOM     91  F   UNL     1     -13.735 -13.482   4.274  1.00  0.00    -0.200 F 
ENDBRANCH  58  81
ENDBRANCH  32  33
ENDBRANCH  24  27
ENDBRANCH  22  23
ENDBRANCH  21  22
ENDBRANCH   1  21
TORSDOF 13
