REMARK SMILES O=C(NCCCCNC(=O)c1cc(Cl)cc(S(=O)(=O)N[C@@H]2CONC2=O)c1F)c1ccc(-c2c3nc(c(-c4c(F)c(F)c(F)c(F)c4F)c4ccc([nH]4)c(-c4c(F)c(F)c(F)c(F)c4F)c4nc(c(-c5c(F)c(F)c(F)c(F)c5F)c5ccc2[nH]5)C=C4)C=C3)cc1
REMARK SMILES IDX 6 1 5 2 4 3 3 4 1 5 2 6 29 8 30 9 91 10 31 11 90 12 32 13
REMARK SMILES IDX 33 14 34 15 84 16 35 17 89 18 83 19 85 20 36 21 88 22 82 23
REMARK SMILES IDX 81 24 37 26 69 27 49 28 68 29 50 30 53 31 67 32 86 33 51 34
REMARK SMILES IDX 52 35 66 37 87 38 54 39 38 40 39 41 47 42 40 43 41 44 45 45
REMARK SMILES IDX 48 46 42 47 43 48 46 49 44 50 70 51 71 52 79 53 72 54 73 55
REMARK SMILES IDX 77 56 80 57 74 58 75 59 78 60 76 61 55 62 56 63 64 64 57 65
REMARK SMILES IDX 58 66 62 67 65 68 59 69 60 70 63 71 61 72 7 73 8 74 9 75
REMARK SMILES IDX 10 77 11 78 12 79 27 80 13 81 16 82 28 83 14 84 15 85 17 86
REMARK SMILES IDX 18 87 19 88 20 89 21 91 22 92 25 93 23 94 24 95 26 96
REMARK H PARENT 3 7 85 25 53 36 8 76 20 90 24 97
REMARK Flexibility Score: inf
ROOT
ATOM      1  C   UNL     1       4.468  -3.781   0.642  1.00  0.00     0.023 C 
ENDROOT
BRANCH   1   2
ATOM      2  C   UNL     1       4.982  -2.373   0.935  1.00  0.00     0.023 C 
BRANCH   2   3
ATOM      3  C   UNL     1       4.684  -1.337  -0.142  1.00  0.00     0.116 C 
BRANCH   3   4
ATOM      4  N   UNL     1       3.259  -1.123  -0.348  1.00  0.00    -0.352 N 
ATOM      5  O   UNL     1       1.263  -0.079  -0.184  1.00  0.00    -0.269 OA
ATOM      6  C   UNL     1       2.486  -0.014  -0.096  1.00  0.00     0.251 C 
ATOM      7  H   UNL     1       2.773  -1.892  -0.725  1.00  0.00     0.163 HD
BRANCH   6   8
ATOM      8  C   UNL     1       3.125   1.254   0.314  1.00  0.00     0.039 A 
ATOM      9  C   UNL     1       4.259   1.726  -0.347  1.00  0.00     0.014 A 
ATOM     10  C   UNL     1       2.584   1.976   1.382  1.00  0.00     0.014 A 
ATOM     11  C   UNL     1       4.957   2.811   0.171  1.00  0.00     0.010 A 
ATOM     12  C   UNL     1       3.234   3.125   1.842  1.00  0.00     0.010 A 
ATOM     13  C   UNL     1       4.453   3.523   1.272  1.00  0.00    -0.014 A 
BRANCH  13  14
ATOM     14  C   UNL     1       5.212   4.689   1.791  1.00  0.00     0.031 A 
ATOM     15  C   UNL     1       5.806   4.675   3.172  1.00  0.00     0.074 A 
ATOM     16  C   UNL     1       5.400   5.752   0.986  1.00  0.00     0.049 A 
ATOM     17  N   UNL     1       6.526   5.592   3.771  1.00  0.00    -0.248 NA
ATOM     18  C   UNL     1       5.553   3.483   3.995  1.00  0.00     0.031 C 
ATOM     19  C   UNL     1       4.868   5.883  -0.371  1.00  0.00     0.029 A 
ATOM     20  N   UNL     1       6.109   6.910   1.179  1.00  0.00    -0.354 N 
ATOM     21  C   UNL     1       6.787   5.102   5.044  1.00  0.00     0.074 A 
ATOM     22  C   UNL     1       6.131   3.815   5.141  1.00  0.00     0.031 C 
ATOM     23  C   UNL     1       5.315   7.026  -0.910  1.00  0.00     0.029 A 
ATOM     24  C   UNL     1       6.114   7.736   0.083  1.00  0.00     0.049 A 
ATOM     25  H   UNL     1       6.569   7.128   2.022  1.00  0.00     0.167 HD
ATOM     26  C   UNL     1       7.513   5.672   6.037  1.00  0.00     0.037 A 
ATOM     27  C   UNL     1       6.693   8.936  -0.103  1.00  0.00     0.037 A 
ATOM     28  C   UNL     1       8.188   6.939   5.925  1.00  0.00     0.049 A 
ATOM     29  C   UNL     1       7.486   9.546   1.016  1.00  0.00     0.074 A 
ATOM     30  C   UNL     1       8.985   7.579   6.858  1.00  0.00     0.029 A 
ATOM     31  N   UNL     1       8.143   7.763   4.809  1.00  0.00    -0.354 N 
ATOM     32  N   UNL     1       7.749   9.059   2.204  1.00  0.00    -0.248 NA
ATOM     33  C   UNL     1       8.056  10.877   0.769  1.00  0.00     0.031 C 
ATOM     34  C   UNL     1       9.388   8.809   6.323  1.00  0.00     0.029 A 
ATOM     35  C   UNL     1       8.880   8.914   5.038  1.00  0.00     0.049 A 
ATOM     36  H   UNL     1       7.659   7.559   3.976  1.00  0.00     0.167 HD
ATOM     37  C   UNL     1       8.532  10.011   2.840  1.00  0.00     0.074 A 
ATOM     38  C   UNL     1       8.713  11.099   1.899  1.00  0.00     0.031 C 
ATOM     39  C   UNL     1       9.053   9.986   4.091  1.00  0.00     0.037 A 
BRANCH  26  40
ATOM     40  C   UNL     1       7.595   4.938   7.345  1.00  0.00     0.064 A 
ATOM     41  C   UNL     1       8.347   3.763   7.490  1.00  0.00     0.173 A 
ATOM     42  C   UNL     1       6.935   5.438   8.479  1.00  0.00     0.173 A 
ATOM     43  F   UNL     1       8.988   3.237   6.435  1.00  0.00    -0.203 F 
ATOM     44  C   UNL     1       8.411   3.099   8.713  1.00  0.00     0.198 A 
ATOM     45  C   UNL     1       7.023   4.786   9.706  1.00  0.00     0.198 A 
ATOM     46  F   UNL     1       6.207   6.562   8.397  1.00  0.00    -0.203 F 
ATOM     47  F   UNL     1       9.096   1.952   8.816  1.00  0.00    -0.200 F 
ATOM     48  C   UNL     1       7.753   3.614   9.821  1.00  0.00     0.200 A 
ATOM     49  F   UNL     1       6.396   5.292  10.778  1.00  0.00    -0.200 F 
ATOM     50  F   UNL     1       7.818   2.975  10.997  1.00  0.00    -0.200 F 
ENDBRANCH  26  40
BRANCH  27  51
ATOM     51  C   UNL     1       6.554   9.620  -1.412  1.00  0.00     0.064 A 
ATOM     52  C   UNL     1       7.648   9.736  -2.280  1.00  0.00     0.173 A 
ATOM     53  C   UNL     1       5.322  10.137  -1.837  1.00  0.00     0.173 A 
ATOM     54  F   UNL     1       8.850   9.271  -1.909  1.00  0.00    -0.203 F 
ATOM     55  C   UNL     1       7.516  10.350  -3.523  1.00  0.00     0.198 A 
ATOM     56  C   UNL     1       5.185  10.727  -3.091  1.00  0.00     0.198 A 
ATOM     57  F   UNL     1       4.245  10.044  -1.044  1.00  0.00    -0.203 F 
ATOM     58  F   UNL     1       8.583  10.473  -4.324  1.00  0.00    -0.200 F 
ATOM     59  C   UNL     1       6.282  10.837  -3.932  1.00  0.00     0.200 A 
ATOM     60  F   UNL     1       3.988  11.180  -3.488  1.00  0.00    -0.200 F 
ATOM     61  F   UNL     1       6.153  11.414  -5.134  1.00  0.00    -0.200 F 
ENDBRANCH  27  51
BRANCH  39  62
ATOM     62  C   UNL     1       9.896  11.156   4.500  1.00  0.00     0.064 A 
ATOM     63  C   UNL     1       9.329  12.406   4.790  1.00  0.00     0.173 A 
ATOM     64  C   UNL     1      11.287  11.020   4.623  1.00  0.00     0.173 A 
ATOM     65  F   UNL     1       8.006  12.591   4.669  1.00  0.00    -0.203 F 
ATOM     66  C   UNL     1      10.128  13.484   5.162  1.00  0.00     0.198 A 
ATOM     67  C   UNL     1      12.079  12.092   5.021  1.00  0.00     0.198 A 
ATOM     68  F   UNL     1      11.877   9.843   4.360  1.00  0.00    -0.203 F 
ATOM     69  F   UNL     1       9.571  14.682   5.387  1.00  0.00    -0.200 F 
ATOM     70  C   UNL     1      11.501  13.325   5.283  1.00  0.00     0.200 A 
ATOM     71  F   UNL     1      13.404  11.934   5.147  1.00  0.00    -0.200 F 
ATOM     72  F   UNL     1      12.267  14.363   5.643  1.00  0.00    -0.200 F 
ENDBRANCH  39  62
ENDBRANCH  13  14
ENDBRANCH   6   8
ENDBRANCH   3   4
ENDBRANCH   2   3
ENDBRANCH   1   2
BRANCH   1  73
ATOM     73  C   UNL     1       4.884  -4.354  -0.708  1.00  0.00     0.116 C 
BRANCH  73  74
ATOM     74  N   UNL     1       6.327  -4.467  -0.851  1.00  0.00    -0.352 N 
ATOM     75  C   UNL     1       7.072  -5.503  -1.351  1.00  0.00     0.254 C 
ATOM     76  H   UNL     1       6.843  -3.686  -0.544  1.00  0.00     0.163 HD
ATOM     77  O   UNL     1       8.298  -5.453  -1.325  1.00  0.00    -0.269 OA
BRANCH  75  78
ATOM     78  C   UNL     1       6.422  -6.701  -1.910  1.00  0.00     0.078 A 
ATOM     79  C   UNL     1       6.876  -7.963  -1.517  1.00  0.00     0.037 A 
ATOM     80  C   UNL     1       5.424  -6.583  -2.875  1.00  0.00     0.156 A 
ATOM     81  C   UNL     1       6.284  -9.100  -2.063  1.00  0.00     0.043 A 
ATOM     82  C   UNL     1       4.843  -7.717  -3.421  1.00  0.00     0.120 A 
ATOM     83  F   UNL     1       5.061  -5.361  -3.275  1.00  0.00    -0.205 F 
ATOM     84  Cl  UNL     1       6.817 -10.657  -1.566  1.00  0.00    -0.084 Cl
ATOM     85  C   UNL     1       5.265  -8.988  -3.010  1.00  0.00     0.045 A 
BRANCH  82  86
ATOM     86  S   UNL     1       3.565  -7.624  -4.632  1.00  0.00     0.244 S 
ATOM     87  O   UNL     1       4.039  -8.327  -5.805  1.00  0.00    -0.207 OA
ATOM     88  O   UNL     1       2.352  -7.999  -3.949  1.00  0.00    -0.207 OA
BRANCH  86  89
ATOM     89  N   UNL     1       3.381  -6.037  -5.048  1.00  0.00    -0.196 NA
ATOM     90  H   UNL     1       3.511  -5.514  -4.182  1.00  0.00     0.142 HD
BRANCH  89  91
ATOM     91  C   UNL     1       4.175  -5.318  -6.059  1.00  0.00     0.189 C 
ATOM     92  C   UNL     1       5.588  -5.808  -6.345  1.00  0.00     0.224 C 
ATOM     93  C   UNL     1       4.451  -3.926  -5.549  1.00  0.00     0.264 C 
ATOM     94  O   UNL     1       6.425  -4.651  -6.502  1.00  0.00    -0.271 OA
ATOM     95  N   UNL     1       5.742  -3.601  -5.856  1.00  0.00    -0.233 N 
ATOM     96  O   UNL     1       3.660  -3.207  -4.954  1.00  0.00    -0.271 OA
ATOM     97  H   UNL     1       6.150  -2.730  -5.648  1.00  0.00     0.199 HD
ENDBRANCH  89  91
ENDBRANCH  86  89
ENDBRANCH  82  86
ENDBRANCH  75  78
ENDBRANCH  73  74
ENDBRANCH   1  73
TORSDOF 14
