REMARK SMILES CC[C@H]1CC[C@](NC(=O)C[NH2+]CC(F)(F)F)(C(=O)NCCCCNC(=O)c2ccc(-c3c4nc(c(-c5c(F)c(F)c(F)c(F)c5F)c5ccc([nH]5)c(-c5c(F)c(F)c(F)c(F)c5F)c5nc(c(-c6c(F)c(F)c(F)c(F)c6F)c6ccc3[nH]6)C=C5)C=C4)cc2)CC1
REMARK SMILES IDX 20 1 19 2 17 3 18 4 6 6 3 7 91 8 4 9 90 10 5 11 2 12 1 13
REMARK SMILES IDX 7 14 8 15 9 17 10 18 11 19 12 22 13 23 14 24 15 25 16 26
REMARK SMILES IDX 21 27 22 28 23 29 24 30 25 31 26 33 27 34 28 35 89 36 29 37
REMARK SMILES IDX 88 38 30 39 31 40 32 41 82 42 33 43 87 44 81 45 83 46 34 47
REMARK SMILES IDX 86 48 80 49 79 50 35 52 67 53 47 54 66 55 48 56 51 57 65 58
REMARK SMILES IDX 84 59 49 60 50 61 64 63 85 64 52 65 36 66 37 67 45 68 38 69
REMARK SMILES IDX 39 70 43 71 46 72 40 73 41 74 44 75 42 76 68 77 69 78 77 79
REMARK SMILES IDX 70 80 71 81 75 82 78 83 72 84 73 85 76 86 74 87 53 88 54 89
REMARK SMILES IDX 62 90 55 91 56 92 60 93 63 94 57 95 58 96 61 97 59 98
REMARK H PARENT 19 5 7 16 11 20 11 21 24 32 83 51 51 62
REMARK Flexibility Score: inf
ROOT
ATOM      1  C   UNL     1       5.426   5.421  -0.992  1.00  0.00     0.116 C 
ENDROOT
BRANCH   1   2
ATOM      2  N   UNL     1       4.349   5.875  -1.863  1.00  0.00    -0.354 N 
ATOM      3  C   UNL     1       2.992   5.812  -1.684  1.00  0.00     0.245 C 
ATOM      4  O   UNL     1       2.279   6.378  -2.516  1.00  0.00    -0.272 OA
ATOM      5  H   UNL     1       4.641   6.289  -2.708  1.00  0.00     0.163 HD
BRANCH   3   6
ATOM      6  C   UNL     1       2.397   4.953  -0.531  1.00  0.00     0.119 C 
ATOM      7  C   UNL     1       0.689   2.488  -0.044  1.00  0.00    -0.011 C 
ATOM      8  C   UNL     1       0.234   3.889   0.407  1.00  0.00     0.006 C 
ATOM      9  C   UNL     1       2.213   2.426  -0.040  1.00  0.00     0.006 C 
ATOM     10  C   UNL     1       0.851   5.021  -0.445  1.00  0.00     0.039 C 
ATOM     11  C   UNL     1       2.779   3.502  -0.941  1.00  0.00     0.039 C 
BRANCH   7  12
ATOM     12  C   UNL     1       0.088   1.367   0.822  1.00  0.00    -0.000 C 
ATOM     13  C   UNL     1       0.490  -0.030   0.352  1.00  0.00     0.004 C 
ENDBRANCH   7  12
BRANCH   6  14
ATOM     14  N   UNL     1       2.983   5.345   0.773  1.00  0.00    -0.337 N 
ATOM     15  C   UNL     1       3.054   6.575   1.377  1.00  0.00     0.275 C 
ATOM     16  H   UNL     1       3.385   4.607   1.286  1.00  0.00     0.164 HD
ATOM     17  O   UNL     1       3.336   6.607   2.579  1.00  0.00    -0.268 OA
BRANCH  15  18
ATOM     18  C   UNL     1       2.922   7.882   0.572  1.00  0.00     0.362 C 
BRANCH  18  19
ATOM     19  N   UNL     1       4.271   8.322   0.176  1.00  0.00    -0.331 N 
ATOM     20  H   UNL     1       4.801   7.505  -0.128  1.00  0.00     0.346 HD
ATOM     21  H   UNL     1       4.687   8.775   0.990  1.00  0.00     0.346 HD
BRANCH  19  22
ATOM     22  C   UNL     1       4.277   9.315  -0.921  1.00  0.00     0.378 C 
BRANCH  22  23
ATOM     23  C   UNL     1       5.202  10.535  -0.741  1.00  0.00     0.438 C 
ATOM     24  F   UNL     1       6.438  10.160  -0.337  1.00  0.00    -0.165 F 
ATOM     25  F   UNL     1       5.344  11.213  -1.900  1.00  0.00    -0.165 F 
ATOM     26  F   UNL     1       4.707  11.387   0.183  1.00  0.00    -0.165 F 
ENDBRANCH  22  23
ENDBRANCH  19  22
ENDBRANCH  18  19
ENDBRANCH  15  18
ENDBRANCH   6  14
ENDBRANCH   3   6
ENDBRANCH   1   2
BRANCH   1  27
ATOM     27  C   UNL     1       6.603   4.883  -1.792  1.00  0.00     0.023 C 
BRANCH  27  28
ATOM     28  C   UNL     1       7.356   5.961  -2.568  1.00  0.00     0.023 C 
BRANCH  28  29
ATOM     29  C   UNL     1       7.902   7.094  -1.706  1.00  0.00     0.116 C 
BRANCH  29  30
ATOM     30  N   UNL     1       8.914   6.643  -0.763  1.00  0.00    -0.352 N 
ATOM     31  C   UNL     1      10.166   7.169  -0.553  1.00  0.00     0.251 C 
ATOM     32  H   UNL     1       8.672   5.867  -0.207  1.00  0.00     0.163 HD
ATOM     33  O   UNL     1      10.980   6.607   0.172  1.00  0.00    -0.269 OA
BRANCH  31  34
ATOM     34  C   UNL     1      10.527   8.414  -1.255  1.00  0.00     0.039 A 
ATOM     35  C   UNL     1      11.651   8.427  -2.082  1.00  0.00     0.014 A 
ATOM     36  C   UNL     1       9.694   9.532  -1.159  1.00  0.00     0.014 A 
ATOM     37  C   UNL     1      11.903   9.547  -2.875  1.00  0.00     0.010 A 
ATOM     38  C   UNL     1       9.907  10.616  -2.000  1.00  0.00     0.010 A 
ATOM     39  C   UNL     1      11.011  10.632  -2.869  1.00  0.00    -0.014 A 
BRANCH  39  40
ATOM     40  C   UNL     1      11.206  11.801  -3.760  1.00  0.00     0.031 A 
ATOM     41  C   UNL     1      11.474  13.153  -3.166  1.00  0.00     0.074 A 
ATOM     42  C   UNL     1      11.047  11.666  -5.090  1.00  0.00     0.049 A 
ATOM     43  N   UNL     1      11.545  14.319  -3.755  1.00  0.00    -0.248 NA
ATOM     44  C   UNL     1      11.656  13.201  -1.708  1.00  0.00     0.031 C 
ATOM     45  C   UNL     1      10.743  10.414  -5.783  1.00  0.00     0.029 A 
ATOM     46  N   UNL     1      11.094  12.601  -6.095  1.00  0.00    -0.354 N 
ATOM     47  C   UNL     1      11.757  15.240  -2.739  1.00  0.00     0.074 A 
ATOM     48  C   UNL     1      11.755  14.504  -1.493  1.00  0.00     0.031 C 
ATOM     49  C   UNL     1      10.631  10.657  -7.098  1.00  0.00     0.029 A 
ATOM     50  C   UNL     1      10.816  12.086  -7.337  1.00  0.00     0.049 A 
ATOM     51  H   UNL     1      11.306  13.549  -5.939  1.00  0.00     0.167 HD
ATOM     52  C   UNL     1      11.954  16.576  -2.838  1.00  0.00     0.037 A 
ATOM     53  C   UNL     1      10.702  12.700  -8.530  1.00  0.00     0.037 A 
ATOM     54  C   UNL     1      11.971  17.301  -4.080  1.00  0.00     0.049 A 
ATOM     55  C   UNL     1      10.921  14.185  -8.618  1.00  0.00     0.074 A 
ATOM     56  C   UNL     1      12.220  18.645  -4.293  1.00  0.00     0.029 A 
ATOM     57  N   UNL     1      11.722  16.738  -5.325  1.00  0.00    -0.354 N 
ATOM     58  N   UNL     1      11.184  15.040  -7.660  1.00  0.00    -0.248 NA
ATOM     59  C   UNL     1      10.835  14.790  -9.955  1.00  0.00     0.031 C 
ATOM     60  C   UNL     1      12.077  18.905  -5.661  1.00  0.00     0.029 A 
ATOM     61  C   UNL     1      11.790  17.713  -6.307  1.00  0.00     0.049 A 
ATOM     62  H   UNL     1      11.525  15.787  -5.485  1.00  0.00     0.167 HD
ATOM     63  C   UNL     1      11.320  16.276  -8.276  1.00  0.00     0.074 A 
ATOM     64  C   UNL     1      11.119  16.059  -9.694  1.00  0.00     0.031 C 
ATOM     65  C   UNL     1      11.593  17.480  -7.716  1.00  0.00     0.037 A 
BRANCH  52  66
ATOM     66  C   UNL     1      12.155  17.335  -1.558  1.00  0.00     0.064 A 
ATOM     67  C   UNL     1      13.312  17.172  -0.779  1.00  0.00     0.173 A 
ATOM     68  C   UNL     1      11.180  18.234  -1.103  1.00  0.00     0.173 A 
ATOM     69  F   UNL     1      14.270  16.315  -1.163  1.00  0.00    -0.203 F 
ATOM     70  C   UNL     1      13.463  17.849   0.428  1.00  0.00     0.198 A 
ATOM     71  C   UNL     1      11.350  18.934   0.088  1.00  0.00     0.198 A 
ATOM     72  F   UNL     1      10.058  18.433  -1.812  1.00  0.00    -0.203 F 
ATOM     73  F   UNL     1      14.546  17.628   1.187  1.00  0.00    -0.200 F 
ATOM     74  C   UNL     1      12.485  18.732   0.859  1.00  0.00     0.200 A 
ATOM     75  F   UNL     1      10.410  19.798   0.496  1.00  0.00    -0.200 F 
ATOM     76  F   UNL     1      12.631  19.381   2.022  1.00  0.00    -0.200 F 
ENDBRANCH  52  66
BRANCH  53  77
ATOM     77  C   UNL     1      10.379  11.897  -9.736  1.00  0.00     0.064 A 
ATOM     78  C   UNL     1      11.350  11.644 -10.714  1.00  0.00     0.173 A 
ATOM     79  C   UNL     1       9.105  11.340  -9.920  1.00  0.00     0.173 A 
ATOM     80  F   UNL     1      12.576  12.172 -10.591  1.00  0.00    -0.203 F 
ATOM     81  C   UNL     1      11.057  10.869 -11.835  1.00  0.00     0.198 A 
ATOM     82  C   UNL     1       8.820  10.545 -11.028  1.00  0.00     0.198 A 
ATOM     83  F   UNL     1       8.143  11.548  -9.008  1.00  0.00    -0.203 F 
ATOM     84  F   UNL     1      11.995  10.666 -12.770  1.00  0.00    -0.200 F 
ATOM     85  C   UNL     1       9.795  10.313 -11.986  1.00  0.00     0.200 A 
ATOM     86  F   UNL     1       7.605   9.997 -11.163  1.00  0.00    -0.200 F 
ATOM     87  F   UNL     1       9.518   9.557 -13.057  1.00  0.00    -0.200 F 
ENDBRANCH  53  77
BRANCH  65  88
ATOM     88  C   UNL     1      11.728  18.657  -8.639  1.00  0.00     0.064 A 
ATOM     89  C   UNL     1      10.613  19.242  -9.256  1.00  0.00     0.173 A 
ATOM     90  C   UNL     1      12.985  19.240  -8.861  1.00  0.00     0.173 A 
ATOM     91  F   UNL     1       9.392  18.712  -9.087  1.00  0.00    -0.203 F 
ATOM     92  C   UNL     1      10.754  20.358 -10.076  1.00  0.00     0.198 A 
ATOM     93  C   UNL     1      13.119  20.372  -9.659  1.00  0.00     0.198 A 
ATOM     94  F   UNL     1      14.082  18.721  -8.289  1.00  0.00    -0.203 F 
ATOM     95  F   UNL     1       9.681  20.879 -10.686  1.00  0.00    -0.200 F 
ATOM     96  C   UNL     1      12.005  20.928 -10.269  1.00  0.00     0.200 A 
ATOM     97  F   UNL     1      14.325  20.928  -9.834  1.00  0.00    -0.200 F 
ATOM     98  F   UNL     1      12.136  22.010 -11.049  1.00  0.00    -0.200 F 
ENDBRANCH  65  88
ENDBRANCH  39  40
ENDBRANCH  31  34
ENDBRANCH  29  30
ENDBRANCH  28  29
ENDBRANCH  27  28
ENDBRANCH   1  27
TORSDOF 17
