REMARK SMILES CCCCCCCCNC(=O)Oc1cccc(-c2ccc([C@@H](C)C(=O)NCCCCNC(=O)c3ccc(-c4c5nc(c(-c6c(F)c(F)c(F)c(F)c6F)c6ccc([nH]6)c(-c6c(F)c(F)c(F)c(F)c6F)c6nc(c(-c7c(F)c(F)c(F)c(F)c7F)c7ccc4[nH]7)C=C6)C=C5)cc3)cc2F)c1
REMARK SMILES IDX 18 1 19 2 20 3 21 4 97 5 98 6 99 7 17 8 13 9 14 10 100 11
REMARK SMILES IDX 15 12 16 13 12 14 10 15 9 16 11 18 8 19 7 20 6 21 5 22 4 23
REMARK SMILES IDX 3 24 2 25 1 26 22 27 23 28 24 29 25 30 26 31 27 33 28 34
REMARK SMILES IDX 29 35 30 36 31 37 32 38 33 40 34 41 35 42 96 43 36 44 95 45
REMARK SMILES IDX 37 46 38 47 39 48 89 49 40 50 94 51 88 52 90 53 41 54 93 55
REMARK SMILES IDX 87 56 86 57 42 59 74 60 54 61 73 62 55 63 58 64 72 65 91 66
REMARK SMILES IDX 56 67 57 68 71 70 92 71 59 72 43 73 44 74 52 75 45 76 46 77
REMARK SMILES IDX 50 78 53 79 47 80 48 81 51 82 49 83 75 84 76 85 84 86 77 87
REMARK SMILES IDX 78 88 82 89 85 90 79 91 80 92 83 93 81 94 60 95 61 96 69 97
REMARK SMILES IDX 62 98 63 99 67 100 70 101 64 102 65 103 68 104 66 105
REMARK H PARENT 9 17 26 32 31 39 90 58 58 69
REMARK Flexibility Score: inf
ROOT
ATOM      1  C   UNL     1      -6.188   9.352  -7.100  1.00  0.00     0.018 A 
ATOM      2  C   UNL     1      -7.176   9.726  -8.026  1.00  0.00     0.012 A 
ATOM      3  C   UNL     1      -8.200  10.621  -7.697  1.00  0.00     0.005 A 
ATOM      4  C   UNL     1      -8.335  11.118  -6.399  1.00  0.00    -0.033 A 
ATOM      5  C   UNL     1      -7.342  10.775  -5.471  1.00  0.00     0.044 A 
ATOM      6  C   UNL     1      -6.283   9.932  -5.826  1.00  0.00     0.131 A 
ATOM      7  F   UNL     1      -5.348   9.692  -4.893  1.00  0.00    -0.206 F 
ENDROOT
BRANCH   1   8
ATOM      8  C   UNL     1      -5.130   8.384  -7.478  1.00  0.00    -0.012 A 
ATOM      9  C   UNL     1      -3.623   6.550  -6.949  1.00  0.00     0.133 A 
ATOM     10  C   UNL     1      -3.155   6.501  -8.257  1.00  0.00     0.047 A 
ATOM     11  C   UNL     1      -4.592   7.474  -6.552  1.00  0.00     0.056 A 
ATOM     12  C   UNL     1      -3.672   7.389  -9.190  1.00  0.00     0.004 A 
ATOM     13  C   UNL     1      -4.637   8.323  -8.800  1.00  0.00     0.009 A 
BRANCH   9  14
ATOM     14  O   UNL     1      -2.979   5.726  -6.019  1.00  0.00    -0.410 OA
BRANCH  14  15
ATOM     15  C   UNL     1      -3.750   4.820  -5.310  1.00  0.00     0.412 C 
ATOM     16  N   UNL     1      -3.008   4.077  -4.434  1.00  0.00    -0.321 N 
ATOM     17  H   UNL     1      -3.492   3.409  -3.896  1.00  0.00     0.167 HD
ATOM     18  O   UNL     1      -4.956   4.648  -5.426  1.00  0.00    -0.224 OA
BRANCH  16  19
ATOM     19  C   UNL     1      -1.577   4.177  -4.220  1.00  0.00     0.119 C 
BRANCH  19  20
ATOM     20  C   UNL     1      -1.238   4.489  -2.764  1.00  0.00     0.021 C 
BRANCH  20  21
ATOM     21  C   UNL     1      -1.643   3.397  -1.766  1.00  0.00     0.002 C 
BRANCH  21  22
ATOM     22  C   UNL     1      -1.059   2.008  -2.047  1.00  0.00     0.000 C 
BRANCH  22  23
ATOM     23  C   UNL     1       0.472   1.939  -2.049  1.00  0.00    -0.000 C 
BRANCH  23  24
ATOM     24  C   UNL     1       1.136   2.274  -0.709  1.00  0.00    -0.000 C 
BRANCH  24  25
ATOM     25  C   UNL     1       0.716   1.388   0.467  1.00  0.00    -0.003 C 
ATOM     26  C   UNL     1       1.032  -0.085   0.256  1.00  0.00     0.004 C 
ENDBRANCH  24  25
ENDBRANCH  23  24
ENDBRANCH  22  23
ENDBRANCH  21  22
ENDBRANCH  20  21
ENDBRANCH  19  20
ENDBRANCH  16  19
ENDBRANCH  14  15
ENDBRANCH   9  14
ENDBRANCH   1   8
BRANCH   4  27
ATOM     27  C   UNL     1      -9.518  11.963  -5.955  1.00  0.00     0.105 C 
ATOM     28  C   UNL     1      -9.983  13.032  -6.945  1.00  0.00     0.023 C 
BRANCH  27  29
ATOM     29  C   UNL     1     -10.667  11.142  -5.346  1.00  0.00     0.227 C 
ATOM     30  O   UNL     1     -10.883  11.194  -4.129  1.00  0.00    -0.274 OA
ATOM     31  N   UNL     1     -11.502  10.348  -6.072  1.00  0.00    -0.356 N 
ATOM     32  H   UNL     1     -12.231   9.943  -5.548  1.00  0.00     0.163 HD
BRANCH  31  33
ATOM     33  C   UNL     1     -11.511   9.993  -7.475  1.00  0.00     0.116 C 
BRANCH  33  34
ATOM     34  C   UNL     1     -10.800   8.664  -7.737  1.00  0.00     0.023 C 
BRANCH  34  35
ATOM     35  C   UNL     1     -11.679   7.423  -7.593  1.00  0.00     0.023 C 
BRANCH  35  36
ATOM     36  C   UNL     1     -12.858   7.351  -8.554  1.00  0.00     0.116 C 
BRANCH  36  37
ATOM     37  N   UNL     1     -12.487   7.404  -9.961  1.00  0.00    -0.352 N 
ATOM     38  C   UNL     1     -13.127   6.813 -11.027  1.00  0.00     0.251 C 
ATOM     39  H   UNL     1     -11.680   7.925 -10.177  1.00  0.00     0.163 HD
ATOM     40  O   UNL     1     -12.661   6.880 -12.159  1.00  0.00    -0.269 OA
BRANCH  38  41
ATOM     41  C   UNL     1     -14.366   6.049 -10.776  1.00  0.00     0.039 A 
ATOM     42  C   UNL     1     -14.461   4.738 -11.249  1.00  0.00     0.014 A 
ATOM     43  C   UNL     1     -15.394   6.603 -10.010  1.00  0.00     0.014 A 
ATOM     44  C   UNL     1     -15.559   3.955 -10.886  1.00  0.00     0.010 A 
ATOM     45  C   UNL     1     -16.441   5.797  -9.581  1.00  0.00     0.010 A 
ATOM     46  C   UNL     1     -16.535   4.466 -10.016  1.00  0.00    -0.014 A 
BRANCH  46  47
ATOM     47  C   UNL     1     -17.678   3.635  -9.560  1.00  0.00     0.031 A 
ATOM     48  C   UNL     1     -19.081   4.035  -9.926  1.00  0.00     0.074 A 
ATOM     49  C   UNL     1     -17.461   2.569  -8.766  1.00  0.00     0.049 A 
ATOM     50  N   UNL     1     -20.218   3.504  -9.555  1.00  0.00    -0.248 NA
ATOM     51  C   UNL     1     -19.224   5.209 -10.802  1.00  0.00     0.031 C 
ATOM     52  C   UNL     1     -16.151   2.107  -8.304  1.00  0.00     0.029 A 
ATOM     53  N   UNL     1     -18.343   1.682  -8.199  1.00  0.00    -0.354 N 
ATOM     54  C   UNL     1     -21.206   4.286 -10.139  1.00  0.00     0.074 A 
ATOM     55  C   UNL     1     -20.539   5.365 -10.834  1.00  0.00     0.031 C 
ATOM     56  C   UNL     1     -16.312   1.008  -7.549  1.00  0.00     0.029 A 
ATOM     57  C   UNL     1     -17.737   0.709  -7.442  1.00  0.00     0.049 A 
ATOM     58  H   UNL     1     -19.317   1.739  -8.323  1.00  0.00     0.167 HD
ATOM     59  C   UNL     1     -22.547   4.102 -10.127  1.00  0.00     0.037 A 
ATOM     60  C   UNL     1     -18.275  -0.307  -6.740  1.00  0.00     0.037 A 
ATOM     61  C   UNL     1     -23.206   3.012  -9.460  1.00  0.00     0.049 A 
ATOM     62  C   UNL     1     -19.771  -0.481  -6.735  1.00  0.00     0.074 A 
ATOM     63  C   UNL     1     -24.557   2.716  -9.414  1.00  0.00     0.029 A 
ATOM     64  N   UNL     1     -22.555   2.031  -8.726  1.00  0.00    -0.354 N 
ATOM     65  N   UNL     1     -20.691   0.233  -7.337  1.00  0.00    -0.248 NA
ATOM     66  C   UNL     1     -20.302  -1.611  -5.958  1.00  0.00     0.031 C 
ATOM     67  C   UNL     1     -24.727   1.574  -8.625  1.00  0.00     0.029 A 
ATOM     68  C   UNL     1     -23.479   1.132  -8.217  1.00  0.00     0.049 A 
ATOM     69  H   UNL     1     -21.582   1.981  -8.586  1.00  0.00     0.167 HD
ATOM     70  C   UNL     1     -21.902  -0.381  -7.045  1.00  0.00     0.074 A 
ATOM     71  C   UNL     1     -21.598  -1.532  -6.221  1.00  0.00     0.031 C 
ATOM     72  C   UNL     1     -23.153  -0.023  -7.423  1.00  0.00     0.037 A 
BRANCH  59  73
ATOM     73  C   UNL     1     -23.387   5.095 -10.876  1.00  0.00     0.064 A 
ATOM     74  C   UNL     1     -23.376   5.151 -12.278  1.00  0.00     0.173 A 
ATOM     75  C   UNL     1     -24.235   5.977 -10.191  1.00  0.00     0.173 A 
ATOM     76  F   UNL     1     -22.571   4.338 -12.980  1.00  0.00    -0.203 F 
ATOM     77  C   UNL     1     -24.160   6.073 -12.966  1.00  0.00     0.198 A 
ATOM     78  C   UNL     1     -25.042   6.877 -10.883  1.00  0.00     0.198 A 
ATOM     79  F   UNL     1     -24.288   5.963  -8.851  1.00  0.00    -0.203 F 
ATOM     80  F   UNL     1     -24.093   6.142 -14.302  1.00  0.00    -0.200 F 
ATOM     81  C   UNL     1     -24.998   6.929 -12.268  1.00  0.00     0.200 A 
ATOM     82  F   UNL     1     -25.861   7.697 -10.209  1.00  0.00    -0.200 F 
ATOM     83  F   UNL     1     -25.759   7.811 -12.932  1.00  0.00    -0.200 F 
ENDBRANCH  59  73
BRANCH  60  84
ATOM     84  C   UNL     1     -17.401  -1.262  -6.008  1.00  0.00     0.064 A 
ATOM     85  C   UNL     1     -17.288  -2.595  -6.429  1.00  0.00     0.173 A 
ATOM     86  C   UNL     1     -16.689  -0.877  -4.863  1.00  0.00     0.173 A 
ATOM     87  F   UNL     1     -17.966  -3.016  -7.506  1.00  0.00    -0.203 F 
ATOM     88  C   UNL     1     -16.522  -3.514  -5.715  1.00  0.00     0.198 A 
ATOM     89  C   UNL     1     -15.899  -1.791  -4.167  1.00  0.00     0.198 A 
ATOM     90  F   UNL     1     -16.759   0.387  -4.421  1.00  0.00    -0.203 F 
ATOM     91  F   UNL     1     -16.479  -4.795  -6.106  1.00  0.00    -0.200 F 
ATOM     92  C   UNL     1     -15.825  -3.111  -4.586  1.00  0.00     0.200 A 
ATOM     93  F   UNL     1     -15.219  -1.394  -3.083  1.00  0.00    -0.200 F 
ATOM     94  F   UNL     1     -15.094  -3.996  -3.896  1.00  0.00    -0.200 F 
ENDBRANCH  60  84
BRANCH  72  95
ATOM     95  C   UNL     1     -24.282  -0.916  -7.000  1.00  0.00     0.064 A 
ATOM     96  C   UNL     1     -24.723  -0.970  -5.670  1.00  0.00     0.173 A 
ATOM     97  C   UNL     1     -24.957  -1.698  -7.950  1.00  0.00     0.173 A 
ATOM     98  F   UNL     1     -24.100  -0.253  -4.723  1.00  0.00    -0.203 F 
ATOM     99  C   UNL     1     -25.783  -1.793  -5.302  1.00  0.00     0.198 A 
ATOM    100  C   UNL     1     -26.036  -2.496  -7.584  1.00  0.00     0.198 A 
ATOM    101  F   UNL     1     -24.579  -1.676  -9.237  1.00  0.00    -0.203 F 
ATOM    102  F   UNL     1     -26.158  -1.865  -4.017  1.00  0.00    -0.200 F 
ATOM    103  C   UNL     1     -26.444  -2.549  -6.259  1.00  0.00     0.200 A 
ATOM    104  F   UNL     1     -26.682  -3.215  -8.512  1.00  0.00    -0.200 F 
ATOM    105  F   UNL     1     -27.469  -3.335  -5.904  1.00  0.00    -0.200 F 
ENDBRANCH  72  95
ENDBRANCH  46  47
ENDBRANCH  38  41
ENDBRANCH  36  37
ENDBRANCH  35  36
ENDBRANCH  34  35
ENDBRANCH  33  34
ENDBRANCH  31  33
ENDBRANCH  27  29
ENDBRANCH   4  27
TORSDOF 22
