REMARK SMILES C#CCC1(C(=O)NCCCCNC(=O)c2ccc(-c3c4nc(c(-c5c(F)c(F)c(F)c(F)c5F)c5ccc([nH]5)c(-c5c(F)c(F)c(F)c(F)c5F)c5nc(c(-c6c(F)c(F)c(F)c(F)c6F)c6ccc3[nH]6)C=C5)C=C4)cc2)CC[NH2+]CC1
REMARK SMILES IDX 9 1 8 2 7 3 5 4 6 5 4 7 78 8 82 9 79 10 81 11 80 12 3 15
REMARK SMILES IDX 2 16 1 17 10 18 11 19 12 20 13 21 14 23 15 24 16 25 77 26
REMARK SMILES IDX 17 27 76 28 18 29 19 30 20 31 70 32 21 33 75 34 69 35 71 36
REMARK SMILES IDX 22 37 74 38 68 39 67 40 23 42 55 43 35 44 54 45 36 46 39 47
REMARK SMILES IDX 53 48 72 49 37 50 38 51 52 53 73 54 40 55 24 56 25 57 33 58
REMARK SMILES IDX 26 59 27 60 31 61 34 62 28 63 29 64 32 65 30 66 56 67 57 68
REMARK SMILES IDX 65 69 58 70 59 71 63 72 66 73 60 74 61 75 64 76 62 77 41 78
REMARK SMILES IDX 42 79 50 80 43 81 44 82 48 83 51 84 45 85 46 86 49 87 47 88
REMARK H PARENT 7 6 80 13 80 14 12 22 71 41 39 52
REMARK Flexibility Score: inf
ROOT
ATOM      1  C   UNL     1      -3.967  -0.956  -4.985  1.00  0.00     0.023 C 
ENDROOT
BRANCH   1   2
ATOM      2  C   UNL     1      -3.909   0.265  -4.067  1.00  0.00     0.116 C 
BRANCH   2   3
ATOM      3  N   UNL     1      -4.418  -0.015  -2.732  1.00  0.00    -0.356 N 
ATOM      4  C   UNL     1      -3.777  -0.053  -1.523  1.00  0.00     0.227 C 
ATOM      5  O   UNL     1      -4.472  -0.292  -0.532  1.00  0.00    -0.274 OA
ATOM      6  H   UNL     1      -5.383  -0.208  -2.691  1.00  0.00     0.163 HD
BRANCH   4   7
ATOM      7  C   UNL     1      -2.265   0.216  -1.408  1.00  0.00     0.071 C 
ATOM      8  C   UNL     1      -1.500  -0.819  -2.304  1.00  0.00     0.079 C 
ATOM      9  C   UNL     1      -2.013   1.705  -1.794  1.00  0.00     0.079 C 
ATOM     10  C   UNL     1      -0.264  -0.304  -3.048  1.00  0.00     0.261 C 
ATOM     11  C   UNL     1      -0.660   1.986  -2.437  1.00  0.00     0.261 C 
ATOM     12  N   UNL     1      -0.395   1.065  -3.536  1.00  0.00    -0.346 N 
ATOM     13  H   UNL     1      -1.165   1.109  -4.203  1.00  0.00     0.346 HD
ATOM     14  H   UNL     1       0.480   1.336  -3.984  1.00  0.00     0.346 HD
BRANCH   7  15
ATOM     15  C   UNL     1      -1.841   0.007   0.098  1.00  0.00     0.106 C 
BRANCH  15  16
ATOM     16  C   UNL     1      -0.322   0.007   0.098  1.00  0.00    -0.106 C 
ATOM     17  C   UNL     1       0.982   0.007   0.098  1.00  0.00     0.004 C 
ENDBRANCH  15  16
ENDBRANCH   7  15
ENDBRANCH   4   7
ENDBRANCH   2   3
ENDBRANCH   1   2
BRANCH   1  18
ATOM     18  C   UNL     1      -5.376  -1.379  -5.380  1.00  0.00     0.023 C 
BRANCH  18  19
ATOM     19  C   UNL     1      -6.216  -0.271  -5.994  1.00  0.00     0.116 C 
BRANCH  19  20
ATOM     20  N   UNL     1      -5.585   0.353  -7.149  1.00  0.00    -0.352 N 
ATOM     21  C   UNL     1      -6.147   0.681  -8.357  1.00  0.00     0.251 C 
ATOM     22  H   UNL     1      -4.629   0.568  -7.049  1.00  0.00     0.163 HD
ATOM     23  O   UNL     1      -5.455   1.092  -9.283  1.00  0.00    -0.269 OA
BRANCH  21  24
ATOM     24  C   UNL     1      -7.598   0.494  -8.540  1.00  0.00     0.039 A 
ATOM     25  C   UNL     1      -8.053  -0.208  -9.657  1.00  0.00     0.014 A 
ATOM     26  C   UNL     1      -8.495   0.954  -7.573  1.00  0.00     0.014 A 
ATOM     27  C   UNL     1      -9.409  -0.513  -9.768  1.00  0.00     0.010 A 
ATOM     28  C   UNL     1      -9.830   0.576  -7.641  1.00  0.00     0.010 A 
ATOM     29  C   UNL     1     -10.300  -0.158  -8.741  1.00  0.00    -0.014 A 
BRANCH  29  30
ATOM     30  C   UNL     1     -11.730  -0.543  -8.796  1.00  0.00     0.031 A 
ATOM     31  C   UNL     1     -12.789   0.520  -8.858  1.00  0.00     0.074 A 
ATOM     32  C   UNL     1     -12.075  -1.843  -8.716  1.00  0.00     0.049 A 
ATOM     33  N   UNL     1     -14.092   0.394  -8.836  1.00  0.00    -0.248 NA
ATOM     34  C   UNL     1     -12.323   1.914  -8.920  1.00  0.00     0.031 C 
ATOM     35  C   UNL     1     -11.138  -2.961  -8.593  1.00  0.00     0.029 A 
ATOM     36  N   UNL     1     -13.309  -2.442  -8.711  1.00  0.00    -0.354 N 
ATOM     37  C   UNL     1     -14.595   1.687  -8.862  1.00  0.00     0.074 A 
ATOM     38  C   UNL     1     -13.462   2.585  -8.845  1.00  0.00     0.031 C 
ATOM     39  C   UNL     1     -11.829  -4.111  -8.548  1.00  0.00     0.029 A 
ATOM     40  C   UNL     1     -13.257  -3.810  -8.601  1.00  0.00     0.049 A 
ATOM     41  H   UNL     1     -14.152  -1.939  -8.781  1.00  0.00     0.167 HD
ATOM     42  C   UNL     1     -15.887   2.087  -8.921  1.00  0.00     0.037 A 
ATOM     43  C   UNL     1     -14.250  -4.717  -8.544  1.00  0.00     0.037 A 
ATOM     44  C   UNL     1     -17.009   1.188  -8.971  1.00  0.00     0.049 A 
ATOM     45  C   UNL     1     -15.677  -4.246  -8.622  1.00  0.00     0.074 A 
ATOM     46  C   UNL     1     -18.352   1.491  -9.104  1.00  0.00     0.029 A 
ATOM     47  N   UNL     1     -16.916  -0.194  -8.887  1.00  0.00    -0.354 N 
ATOM     48  N   UNL     1     -16.140  -3.024  -8.725  1.00  0.00    -0.248 NA
ATOM     49  C   UNL     1     -16.719  -5.281  -8.585  1.00  0.00     0.031 C 
ATOM     50  C   UNL     1     -19.076   0.296  -9.055  1.00  0.00     0.029 A 
ATOM     51  C   UNL     1     -18.181  -0.756  -8.943  1.00  0.00     0.049 A 
ATOM     52  H   UNL     1     -16.076  -0.700  -8.800  1.00  0.00     0.167 HD
ATOM     53  C   UNL     1     -17.522  -3.143  -8.791  1.00  0.00     0.074 A 
ATOM     54  C   UNL     1     -17.821  -4.559  -8.733  1.00  0.00     0.031 C 
ATOM     55  C   UNL     1     -18.459  -2.169  -8.891  1.00  0.00     0.037 A 
BRANCH  42  56
ATOM     56  C   UNL     1     -16.155   3.564  -8.941  1.00  0.00     0.064 A 
ATOM     57  C   UNL     1     -15.828   4.357 -10.051  1.00  0.00     0.173 A 
ATOM     58  C   UNL     1     -16.777   4.189  -7.849  1.00  0.00     0.173 A 
ATOM     59  F   UNL     1     -15.219   3.812 -11.115  1.00  0.00    -0.203 F 
ATOM     60  C   UNL     1     -16.087   5.725 -10.056  1.00  0.00     0.198 A 
ATOM     61  C   UNL     1     -17.063   5.551  -7.871  1.00  0.00     0.198 A 
ATOM     62  F   UNL     1     -17.114   3.476  -6.764  1.00  0.00    -0.203 F 
ATOM     63  F   UNL     1     -15.719   6.471 -11.107  1.00  0.00    -0.200 F 
ATOM     64  C   UNL     1     -16.711   6.319  -8.970  1.00  0.00     0.200 A 
ATOM     65  F   UNL     1     -17.678   6.122  -6.825  1.00  0.00    -0.200 F 
ATOM     66  F   UNL     1     -16.967   7.635  -8.980  1.00  0.00    -0.200 F 
ENDBRANCH  42  56
BRANCH  43  67
ATOM     67  C   UNL     1     -13.929  -6.163  -8.432  1.00  0.00     0.064 A 
ATOM     68  C   UNL     1     -14.162  -7.037  -9.503  1.00  0.00     0.173 A 
ATOM     69  C   UNL     1     -13.384  -6.702  -7.257  1.00  0.00     0.173 A 
ATOM     70  F   UNL     1     -14.700  -6.572 -10.640  1.00  0.00    -0.203 F 
ATOM     71  C   UNL     1     -13.882  -8.398  -9.397  1.00  0.00     0.198 A 
ATOM     72  C   UNL     1     -13.078  -8.058  -7.162  1.00  0.00     0.198 A 
ATOM     73  F   UNL     1     -13.136  -5.908  -6.206  1.00  0.00    -0.203 F 
ATOM     74  F   UNL     1     -14.157  -9.218 -10.420  1.00  0.00    -0.200 F 
ATOM     75  C   UNL     1     -13.335  -8.906  -8.229  1.00  0.00     0.200 A 
ATOM     76  F   UNL     1     -12.535  -8.543  -6.037  1.00  0.00    -0.200 F 
ATOM     77  F   UNL     1     -13.061 -10.214  -8.128  1.00  0.00    -0.200 F 
ENDBRANCH  43  67
BRANCH  55  78
ATOM     78  C   UNL     1     -19.893  -2.600  -8.977  1.00  0.00     0.064 A 
ATOM     79  C   UNL     1     -20.574  -3.121  -7.867  1.00  0.00     0.173 A 
ATOM     80  C   UNL     1     -20.608  -2.447 -10.175  1.00  0.00     0.173 A 
ATOM     81  F   UNL     1     -19.930  -3.300  -6.704  1.00  0.00    -0.203 F 
ATOM     82  C   UNL     1     -21.911  -3.497  -7.961  1.00  0.00     0.198 A 
ATOM     83  C   UNL     1     -21.953  -2.795 -10.256  1.00  0.00     0.198 A 
ATOM     84  F   UNL     1     -20.005  -1.946 -11.264  1.00  0.00    -0.203 F 
ATOM     85  F   UNL     1     -22.529  -4.036  -6.901  1.00  0.00    -0.200 F 
ATOM     86  C   UNL     1     -22.601  -3.326  -9.152  1.00  0.00     0.200 A 
ATOM     87  F   UNL     1     -22.622  -2.615 -11.404  1.00  0.00    -0.200 F 
ATOM     88  F   UNL     1     -23.891  -3.680  -9.237  1.00  0.00    -0.200 F 
ENDBRANCH  55  78
ENDBRANCH  29  30
ENDBRANCH  21  24
ENDBRANCH  19  20
ENDBRANCH  18  19
ENDBRANCH   1  18
TORSDOF 13
