REMARK SMILES Cc1cc(-c2ccc(/C=C/C(=O)NCCCCNC(=O)c3ccc(-c4c5nc(c(-c6c(F)c(F)c(F)c(F)c6F)c6ccc([nH]6)c(-c6c(F)c(F)c(F)c(F)c6F)c6nc(c(-c7c(F)c(F)c(F)c(F)c7F)c7ccc4[nH]7)C=C6)C=C5)cc3)o2)c(C)cc1Br
REMARK SMILES IDX 15 1 14 2 13 3 11 4 12 5 10 7 9 8 8 9 5 10 6 11 84 12 7 13
REMARK SMILES IDX 4 14 1 15 2 16 3 17 88 18 87 19 89 20 85 21 86 22 16 23
REMARK SMILES IDX 17 24 18 25 19 26 20 28 21 29 22 30 83 31 23 32 82 33 24 34
REMARK SMILES IDX 25 35 26 36 76 37 27 38 81 39 75 40 77 41 28 42 80 43 74 44
REMARK SMILES IDX 73 45 29 47 61 48 41 49 60 50 42 51 45 52 59 53 78 54 43 55
REMARK SMILES IDX 44 56 58 58 79 59 46 60 30 61 31 62 39 63 32 64 33 65 37 66
REMARK SMILES IDX 40 67 34 68 35 69 38 70 36 71 62 72 63 73 71 74 64 75 65 76
REMARK SMILES IDX 69 77 72 78 66 79 67 80 70 81 68 82 47 83 48 84 56 85 49 86
REMARK SMILES IDX 50 87 54 88 57 89 51 90 52 91 55 92 53 93
REMARK H PARENT 13 6 18 27 77 46 45 57
REMARK Flexibility Score: inf
ROOT
ATOM      1  C   UNL     1       1.540 -11.365   0.553  1.00  0.00     0.023 C 
ENDROOT
BRANCH   1   2
ATOM      2  C   UNL     1       0.877 -10.703  -0.658  1.00  0.00     0.116 C 
BRANCH   2   3
ATOM      3  N   UNL     1      -0.552 -10.536  -0.463  1.00  0.00    -0.353 N 
ATOM      4  C   UNL     1      -1.276  -9.424  -0.156  1.00  0.00     0.244 C 
ATOM      5  O   UNL     1      -2.504  -9.479  -0.175  1.00  0.00    -0.270 OA
ATOM      6  H   UNL     1      -1.082 -11.358  -0.569  1.00  0.00     0.163 HD
BRANCH   4   7
ATOM      7  C   UNL     1      -0.611  -8.132   0.120  1.00  0.00     0.075 C 
ATOM      8  C   UNL     1       0.450  -8.002   0.926  1.00  0.00     0.053 C 
BRANCH   8   9
ATOM      9  C   UNL     1       1.055  -6.741   1.149  1.00  0.00     0.127 A 
ATOM     10  C   UNL     1       1.240  -4.562   1.506  1.00  0.00     0.135 A 
ATOM     11  C   UNL     1       2.521  -5.061   1.547  1.00  0.00     0.051 A 
ATOM     12  O   UNL     1       0.360  -5.560   1.227  1.00  0.00    -0.457 OA
ATOM     13  C   UNL     1       2.400  -6.456   1.348  1.00  0.00     0.051 A 
BRANCH  10  14
ATOM     14  C   UNL     1       0.664  -3.241   1.685  1.00  0.00     0.020 A 
ATOM     15  C   UNL     1       1.109   0.160   0.036  1.00  0.00     0.045 C 
ATOM     16  C   UNL     1       0.604  -0.888   0.987  1.00  0.00    -0.036 A 
ATOM     17  C   UNL     1       1.117  -2.191   0.870  1.00  0.00     0.016 A 
ATOM     18  C   UNL     1      -0.403  -0.656   1.933  1.00  0.00     0.021 A 
ATOM     19  C   UNL     1      -0.853  -1.691   2.762  1.00  0.00     0.020 A 
ATOM     20  Br  UNL     1      -1.223   1.043   2.150  1.00  0.00    -0.051 Br
ATOM     21  C   UNL     1      -0.321  -2.986   2.657  1.00  0.00    -0.039 A 
ATOM     22  C   UNL     1      -0.840  -4.065   3.571  1.00  0.00     0.045 C 
ENDBRANCH  10  14
ENDBRANCH   8   9
ENDBRANCH   4   7
ENDBRANCH   2   3
ENDBRANCH   1   2
BRANCH   1  23
ATOM     23  C   UNL     1       1.310 -12.871   0.668  1.00  0.00     0.023 C 
BRANCH  23  24
ATOM     24  C   UNL     1       1.908 -13.700  -0.461  1.00  0.00     0.116 C 
BRANCH  24  25
ATOM     25  N   UNL     1       3.348 -13.565  -0.590  1.00  0.00    -0.352 N 
ATOM     26  C   UNL     1       4.247 -14.487  -1.099  1.00  0.00     0.251 C 
ATOM     27  H   UNL     1       3.732 -12.715  -0.277  1.00  0.00     0.163 HD
ATOM     28  O   UNL     1       5.444 -14.277  -1.076  1.00  0.00    -0.269 OA
BRANCH  26  29
ATOM     29  C   UNL     1       3.713 -15.767  -1.613  1.00  0.00     0.039 A 
ATOM     30  C   UNL     1       2.670 -15.774  -2.539  1.00  0.00     0.014 A 
ATOM     31  C   UNL     1       4.201 -16.961  -1.078  1.00  0.00     0.014 A 
ATOM     32  C   UNL     1       1.994 -16.961  -2.795  1.00  0.00     0.010 A 
ATOM     33  C   UNL     1       3.564 -18.164  -1.391  1.00  0.00     0.010 A 
ATOM     34  C   UNL     1       2.418 -18.162  -2.201  1.00  0.00    -0.014 A 
BRANCH  34  35
ATOM     35  C   UNL     1       1.609 -19.390  -2.397  1.00  0.00     0.031 A 
ATOM     36  C   UNL     1       0.840 -19.985  -1.249  1.00  0.00     0.074 A 
ATOM     37  C   UNL     1       1.498 -19.918  -3.630  1.00  0.00     0.049 A 
ATOM     38  N   UNL     1       0.052 -21.032  -1.237  1.00  0.00    -0.248 NA
ATOM     39  C   UNL     1       0.968 -19.320   0.058  1.00  0.00     0.031 C 
ATOM     40  C   UNL     1       2.174 -19.410  -4.824  1.00  0.00     0.029 A 
ATOM     41  N   UNL     1       0.752 -20.972  -4.088  1.00  0.00    -0.354 N 
ATOM     42  C   UNL     1      -0.388 -21.162   0.073  1.00  0.00     0.074 A 
ATOM     43  C   UNL     1       0.230 -20.099   0.836  1.00  0.00     0.031 C 
ATOM     44  C   UNL     1       1.766 -20.116  -5.890  1.00  0.00     0.029 A 
ATOM     45  C   UNL     1       0.841 -21.155  -5.445  1.00  0.00     0.049 A 
ATOM     46  H   UNL     1       0.205 -21.543  -3.501  1.00  0.00     0.167 HD
ATOM     47  C   UNL     1      -1.241 -22.078   0.590  1.00  0.00     0.037 A 
ATOM     48  C   UNL     1       0.246 -22.061  -6.242  1.00  0.00     0.037 A 
ATOM     49  C   UNL     1      -1.884 -23.114  -0.174  1.00  0.00     0.049 A 
ATOM     50  C   UNL     1      -0.673 -23.083  -5.638  1.00  0.00     0.074 A 
ATOM     51  C   UNL     1      -2.774 -24.081   0.261  1.00  0.00     0.029 A 
ATOM     52  N   UNL     1      -1.711 -23.311  -1.535  1.00  0.00    -0.354 N 
ATOM     53  N   UNL     1      -1.060 -23.210  -4.393  1.00  0.00    -0.248 NA
ATOM     54  C   UNL     1      -1.221 -24.099  -6.547  1.00  0.00     0.031 C 
ATOM     55  C   UNL     1      -3.121 -24.880  -0.834  1.00  0.00     0.029 A 
ATOM     56  C   UNL     1      -2.469 -24.392  -1.955  1.00  0.00     0.049 A 
ATOM     57  H   UNL     1      -1.136 -22.764  -2.117  1.00  0.00     0.167 HD
ATOM     58  C   UNL     1      -1.895 -24.317  -4.366  1.00  0.00     0.074 A 
ATOM     59  C   UNL     1      -1.977 -24.814  -5.725  1.00  0.00     0.031 C 
ATOM     60  C   UNL     1      -2.527 -24.878  -3.308  1.00  0.00     0.037 A 
BRANCH  47  61
ATOM     61  C   UNL     1      -1.529 -22.011   2.059  1.00  0.00     0.064 A 
ATOM     62  C   UNL     1      -2.395 -21.047   2.593  1.00  0.00     0.173 A 
ATOM     63  C   UNL     1      -0.981 -22.962   2.934  1.00  0.00     0.173 A 
ATOM     64  F   UNL     1      -2.931 -20.108   1.798  1.00  0.00    -0.203 F 
ATOM     65  C   UNL     1      -2.696 -21.030   3.952  1.00  0.00     0.198 A 
ATOM     66  C   UNL     1      -1.299 -22.954   4.289  1.00  0.00     0.198 A 
ATOM     67  F   UNL     1      -0.149 -23.906   2.470  1.00  0.00    -0.203 F 
ATOM     68  F   UNL     1      -3.506 -20.084   4.446  1.00  0.00    -0.200 F 
ATOM     69  C   UNL     1      -2.154 -21.988   4.798  1.00  0.00     0.200 A 
ATOM     70  F   UNL     1      -0.780 -23.884   5.103  1.00  0.00    -0.200 F 
ATOM     71  F   UNL     1      -2.452 -21.976   6.104  1.00  0.00    -0.200 F 
ENDBRANCH  47  61
BRANCH  48  72
ATOM     72  C   UNL     1       0.501 -22.027  -7.702  1.00  0.00     0.064 A 
ATOM     73  C   UNL     1      -0.485 -21.579  -8.591  1.00  0.00     0.173 A 
ATOM     74  C   UNL     1       1.743 -22.403  -8.233  1.00  0.00     0.173 A 
ATOM     75  F   UNL     1      -1.694 -21.228  -8.128  1.00  0.00    -0.203 F 
ATOM     76  C   UNL     1      -0.238 -21.508  -9.960  1.00  0.00     0.198 A 
ATOM     77  C   UNL     1       1.996 -22.311  -9.599  1.00  0.00     0.198 A 
ATOM     78  F   UNL     1       2.717 -22.835  -7.420  1.00  0.00    -0.203 F 
ATOM     79  F   UNL     1      -1.203 -21.096 -10.792  1.00  0.00    -0.200 F 
ATOM     80  C   UNL     1       1.005 -21.866 -10.462  1.00  0.00     0.200 A 
ATOM     81  F   UNL     1       3.202 -22.646 -10.079  1.00  0.00    -0.200 F 
ATOM     82  F   UNL     1       1.247 -21.784 -11.777  1.00  0.00    -0.200 F 
ENDBRANCH  48  72
BRANCH  60  83
ATOM     83  C   UNL     1      -3.355 -26.097  -3.573  1.00  0.00     0.064 A 
ATOM     84  C   UNL     1      -2.757 -27.351  -3.760  1.00  0.00     0.173 A 
ATOM     85  C   UNL     1      -4.755 -26.022  -3.586  1.00  0.00     0.173 A 
ATOM     86  F   UNL     1      -1.420 -27.465  -3.769  1.00  0.00    -0.203 F 
ATOM     87  C   UNL     1      -3.533 -28.488  -3.963  1.00  0.00     0.198 A 
ATOM     88  C   UNL     1      -5.528 -27.165  -3.770  1.00  0.00     0.198 A 
ATOM     89  F   UNL     1      -5.371 -24.844  -3.407  1.00  0.00    -0.203 F 
ATOM     90  F   UNL     1      -2.941 -29.673  -4.167  1.00  0.00    -0.200 F 
ATOM     91  C   UNL     1      -4.917 -28.395  -3.961  1.00  0.00     0.200 A 
ATOM     92  F   UNL     1      -6.865 -27.076  -3.761  1.00  0.00    -0.200 F 
ATOM     93  F   UNL     1      -5.663 -29.492  -4.149  1.00  0.00    -0.200 F 
ENDBRANCH  60  83
ENDBRANCH  34  35
ENDBRANCH  26  29
ENDBRANCH  24  25
ENDBRANCH  23  24
ENDBRANCH   1  23
TORSDOF 13
