REMARK SMILES CC(C)C[C@H](NC(=O)[C@H]1CCCCC[C@H]1[NH3+])C(=O)NCCCCNC(=O)c1ccc(-c2c3nc(c(-c4c(F)c(F)c(F)c(F)c4F)c4ccc([nH]4)c(-c4c(F)c(F)c(F)c(F)c4F)c4nc(c(-c5c(F)c(F)c(F)c(F)c5F)c5ccc2[nH]5)C=C4)C=C3)cc1
REMARK SMILES IDX 20 1 19 2 17 3 18 4 5 6 4 7 2 8 1 9 3 10 6 11 7 12 8 14 9 15
REMARK SMILES IDX 10 16 11 17 12 18 15 20 14 21 13 22 16 24 21 28 22 29 23 30
REMARK SMILES IDX 24 31 25 32 26 34 27 35 28 36 89 37 29 38 88 39 30 40 31 41
REMARK SMILES IDX 32 42 82 43 33 44 87 45 81 46 83 47 34 48 86 49 80 50 79 51
REMARK SMILES IDX 35 53 67 54 47 55 66 56 48 57 51 58 65 59 84 60 49 61 50 62
REMARK SMILES IDX 64 64 85 65 52 66 36 67 37 68 45 69 38 70 39 71 43 72 46 73
REMARK SMILES IDX 40 74 41 75 44 76 42 77 68 78 69 79 77 80 70 81 71 82 75 83
REMARK SMILES IDX 78 84 72 85 73 86 76 87 74 88 53 89 54 90 62 91 55 92 56 93
REMARK SMILES IDX 60 94 63 95 57 96 58 97 61 98 59 99
REMARK H PARENT 19 5 6 13 16 25 16 26 16 27 24 33 83 52 51 63
REMARK Flexibility Score: 90.00
ROOT
ATOM      1  C   UNL     1      -5.798   3.989  -1.395  1.00  0.00     0.116 C 
ENDROOT
BRANCH   1   2
ATOM      2  N   UNL     1      -4.415   3.981  -1.837  1.00  0.00    -0.354 N 
ATOM      3  C   UNL     1      -3.274   4.399  -1.220  1.00  0.00     0.242 C 
ATOM      4  O   UNL     1      -2.208   4.277  -1.833  1.00  0.00    -0.273 OA
ATOM      5  H   UNL     1      -4.277   3.609  -2.739  1.00  0.00     0.163 HD
BRANCH   3   6
ATOM      6  C   UNL     1      -3.280   4.958   0.215  1.00  0.00     0.171 C 
BRANCH   6   7
ATOM      7  C   UNL     1      -3.663   3.776   1.144  1.00  0.00     0.038 C 
BRANCH   7   8
ATOM      8  C   UNL     1      -3.191   3.781   2.607  1.00  0.00    -0.015 C 
ATOM      9  C   UNL     1      -3.753   4.948   3.413  1.00  0.00     0.007 C 
ATOM     10  C   UNL     1      -3.646   2.459   3.251  1.00  0.00     0.007 C 
ENDBRANCH   7   8
ENDBRANCH   6   7
BRANCH   6  11
ATOM     11  N   UNL     1      -4.123   6.153   0.385  1.00  0.00    -0.344 N 
ATOM     12  C   UNL     1      -4.035   7.386  -0.223  1.00  0.00     0.229 C 
ATOM     13  H   UNL     1      -4.860   6.056   1.030  1.00  0.00     0.164 HD
ATOM     14  O   UNL     1      -4.361   8.355   0.465  1.00  0.00    -0.275 OA
BRANCH  12  15
ATOM     15  C   UNL     1      -3.705   7.526  -1.724  1.00  0.00     0.136 C 
BRANCH  15  16
ATOM     16  C   UNL     1      -4.797   8.376  -2.435  1.00  0.00     0.020 C 
BRANCH  16  17
ATOM     17  C   UNL     1      -4.786   9.886  -2.214  1.00  0.00     0.001 C 
BRANCH  17  18
ATOM     18  C   UNL     1      -3.895  10.656  -3.176  1.00  0.00     0.000 CG0
ATOM     19  G   UNL     1      -2.531  10.036  -3.437  1.00  0.00     0.000 G0
ENDBRANCH  17  18
ENDBRANCH  16  17
ENDBRANCH  15  16
BRANCH  15  20
ATOM     20  C   UNL     1      -2.250   7.880  -2.107  1.00  0.00     0.193 C 
BRANCH  20  21
ATOM     21  C   UNL     1      -1.895   9.371  -2.214  1.00  0.00     0.066 C 
BRANCH  21  22
ATOM     22  C   UNL     1      -2.531  10.036  -3.437  1.00  0.00     0.006 CG0
ATOM     23  G   UNL     1      -3.895  10.656  -3.176  1.00  0.00     0.000 G0
ENDBRANCH  21  22
ENDBRANCH  20  21
BRANCH  20  24
ATOM     24  N   UNL     1      -1.232   7.227  -1.281  1.00  0.00    -0.354 N 
ATOM     25  H   UNL     1      -1.261   7.613  -0.338  1.00  0.00     0.344 HD
ATOM     26  H   UNL     1      -0.310   7.389  -1.687  1.00  0.00     0.344 HD
ATOM     27  H   UNL     1      -1.415   6.224  -1.244  1.00  0.00     0.344 HD
ENDBRANCH  20  24
ENDBRANCH  15  20
ENDBRANCH  12  15
ENDBRANCH   6  11
ENDBRANCH   3   6
ENDBRANCH   1   2
BRANCH   1  28
ATOM     28  C   UNL     1      -6.573   5.231  -1.814  1.00  0.00     0.023 C 
BRANCH  28  29
ATOM     29  C   UNL     1      -6.508   5.540  -3.306  1.00  0.00     0.023 C 
BRANCH  29  30
ATOM     30  C   UNL     1      -6.981   4.401  -4.187  1.00  0.00     0.116 C 
BRANCH  30  31
ATOM     31  N   UNL     1      -8.356   4.029  -3.897  1.00  0.00    -0.352 N 
ATOM     32  C   UNL     1      -9.412   3.925  -4.759  1.00  0.00     0.251 C 
ATOM     33  H   UNL     1      -8.553   3.824  -2.955  1.00  0.00     0.163 HD
ATOM     34  O   UNL     1     -10.560   3.817  -4.325  1.00  0.00    -0.269 OA
BRANCH  32  35
ATOM     35  C   UNL     1      -9.167   3.954  -6.212  1.00  0.00     0.039 A 
ATOM     36  C   UNL     1     -10.028   4.682  -7.034  1.00  0.00     0.014 A 
ATOM     37  C   UNL     1      -8.080   3.263  -6.758  1.00  0.00     0.014 A 
ATOM     38  C   UNL     1      -9.777   4.745  -8.403  1.00  0.00     0.010 A 
ATOM     39  C   UNL     1      -7.772   3.414  -8.101  1.00  0.00     0.010 A 
ATOM     40  C   UNL     1      -8.636   4.129  -8.941  1.00  0.00    -0.014 A 
BRANCH  40  41
ATOM     41  C   UNL     1      -8.351   4.165 -10.394  1.00  0.00     0.031 A 
ATOM     42  C   UNL     1      -8.317   2.878 -11.172  1.00  0.00     0.074 A 
ATOM     43  C   UNL     1      -8.060   5.337 -10.989  1.00  0.00     0.049 A 
ATOM     44  N   UNL     1      -8.002   2.675 -12.425  1.00  0.00    -0.248 NA
ATOM     45  C   UNL     1      -8.643   1.648 -10.430  1.00  0.00     0.031 C 
ATOM     46  C   UNL     1      -8.008   6.637 -10.319  1.00  0.00     0.029 A 
ATOM     47  N   UNL     1      -7.744   5.621 -12.293  1.00  0.00    -0.354 N 
ATOM     48  C   UNL     1      -8.069   1.300 -12.610  1.00  0.00     0.074 A 
ATOM     49  C   UNL     1      -8.387   0.711 -11.329  1.00  0.00     0.031 C 
ATOM     50  C   UNL     1      -7.706   7.584 -11.222  1.00  0.00     0.029 A 
ATOM     51  C   UNL     1      -7.508   6.953 -12.523  1.00  0.00     0.049 A 
ATOM     52  H   UNL     1      -7.692   4.934 -12.997  1.00  0.00     0.167 HD
ATOM     53  C   UNL     1      -7.911   0.595 -13.754  1.00  0.00     0.037 A 
ATOM     54  C   UNL     1      -7.165   7.588 -13.659  1.00  0.00     0.037 A 
ATOM     55  C   UNL     1      -7.636   1.196 -15.031  1.00  0.00     0.049 A 
ATOM     56  C   UNL     1      -7.015   6.785 -14.922  1.00  0.00     0.074 A 
ATOM     57  C   UNL     1      -7.521   0.586 -16.267  1.00  0.00     0.029 A 
ATOM     58  N   UNL     1      -7.438   2.555 -15.233  1.00  0.00    -0.354 N 
ATOM     59  N   UNL     1      -7.147   5.492 -15.101  1.00  0.00    -0.248 NA
ATOM     60  C   UNL     1      -6.677   7.529 -16.142  1.00  0.00     0.031 C 
ATOM     61  C   UNL     1      -7.212   1.571 -17.211  1.00  0.00     0.029 A 
ATOM     62  C   UNL     1      -7.185   2.801 -16.572  1.00  0.00     0.049 A 
ATOM     63  H   UNL     1      -7.473   3.242 -14.529  1.00  0.00     0.167 HD
ATOM     64  C   UNL     1      -6.936   5.271 -16.455  1.00  0.00     0.074 A 
ATOM     65  C   UNL     1      -6.684   6.566 -17.053  1.00  0.00     0.031 C 
ATOM     66  C   UNL     1      -6.947   4.102 -17.143  1.00  0.00     0.037 A 
BRANCH  53  67
ATOM     67  C   UNL     1      -8.043  -0.899 -13.674  1.00  0.00     0.064 A 
ATOM     68  C   UNL     1      -9.275  -1.517 -13.408  1.00  0.00     0.173 A 
ATOM     69  C   UNL     1      -6.930  -1.726 -13.887  1.00  0.00     0.173 A 
ATOM     70  F   UNL     1     -10.368  -0.773 -13.181  1.00  0.00    -0.203 F 
ATOM     71  C   UNL     1      -9.380  -2.903 -13.323  1.00  0.00     0.198 A 
ATOM     72  C   UNL     1      -7.045  -3.113 -13.835  1.00  0.00     0.198 A 
ATOM     73  F   UNL     1      -5.728  -1.189 -14.148  1.00  0.00    -0.203 F 
ATOM     74  F   UNL     1     -10.555  -3.466 -13.009  1.00  0.00    -0.200 F 
ATOM     75  C   UNL     1      -8.267  -3.700 -13.544  1.00  0.00     0.200 A 
ATOM     76  F   UNL     1      -5.971  -3.882 -14.061  1.00  0.00    -0.200 F 
ATOM     77  F   UNL     1      -8.371  -5.034 -13.468  1.00  0.00    -0.200 F 
ENDBRANCH  53  67
BRANCH  54  78
ATOM     78  C   UNL     1      -6.977   9.062 -13.658  1.00  0.00     0.064 A 
ATOM     79  C   UNL     1      -7.888   9.904 -14.312  1.00  0.00     0.173 A 
ATOM     80  C   UNL     1      -5.892   9.661 -13.001  1.00  0.00     0.173 A 
ATOM     81  F   UNL     1      -8.933   9.377 -14.967  1.00  0.00    -0.203 F 
ATOM     82  C   UNL     1      -7.709  11.285 -14.329  1.00  0.00     0.198 A 
ATOM     83  C   UNL     1      -5.730  11.045 -12.994  1.00  0.00     0.198 A 
ATOM     84  F   UNL     1      -4.997   8.902 -12.353  1.00  0.00    -0.203 F 
ATOM     85  F   UNL     1      -8.570  12.062 -15.000  1.00  0.00    -0.200 F 
ATOM     86  C   UNL     1      -6.633  11.855 -13.665  1.00  0.00     0.200 A 
ATOM     87  F   UNL     1      -4.698  11.593 -12.338  1.00  0.00    -0.200 F 
ATOM     88  F   UNL     1      -6.464  13.185 -13.677  1.00  0.00    -0.200 F 
ENDBRANCH  54  78
BRANCH  66  89
ATOM     89  C   UNL     1      -6.714   4.176 -18.623  1.00  0.00     0.064 A 
ATOM     90  C   UNL     1      -5.449   4.463 -19.154  1.00  0.00     0.173 A 
ATOM     91  C   UNL     1      -7.762   3.913 -19.518  1.00  0.00     0.173 A 
ATOM     92  F   UNL     1      -4.419   4.735 -18.338  1.00  0.00    -0.203 F 
ATOM     93  C   UNL     1      -5.247   4.508 -20.531  1.00  0.00     0.198 A 
ATOM     94  C   UNL     1      -7.549   3.929 -20.893  1.00  0.00     0.198 A 
ATOM     95  F   UNL     1      -8.989   3.626 -19.058  1.00  0.00    -0.203 F 
ATOM     96  F   UNL     1      -4.041   4.831 -21.018  1.00  0.00    -0.200 F 
ATOM     97  C   UNL     1      -6.294   4.234 -21.398  1.00  0.00     0.200 A 
ATOM     98  F   UNL     1      -8.558   3.648 -21.729  1.00  0.00    -0.200 F 
ATOM     99  F   UNL     1      -6.095   4.269 -22.723  1.00  0.00    -0.200 F 
ENDBRANCH  66  89
ENDBRANCH  40  41
ENDBRANCH  32  35
ENDBRANCH  30  31
ENDBRANCH  29  30
ENDBRANCH  28  29
ENDBRANCH   1  28
TORSDOF 16
