REMARK SMILES O=C(NCCCCNC(=O)[C@H]1CC(=O)N(c2cccc(OC(F)(F)F)c2)C1)c1ccc(-c2c3nc(c(-c4c(F)c(F)c(F)c(F)c4F)c4ccc([nH]4)c(-c4c(F)c(F)c(F)c(F)c4F)c4nc(c(-c5c(F)c(F)c(F)c(F)c5F)c5ccc2[nH]5)C=C4)C=C3)cc1
REMARK SMILES IDX 6 1 5 2 4 3 3 4 1 5 2 6 28 8 29 9 90 10 30 11 89 12 31 13
REMARK SMILES IDX 32 14 33 15 83 16 34 17 88 18 82 19 84 20 35 21 87 22 81 23
REMARK SMILES IDX 80 24 36 26 68 27 48 28 67 29 49 30 52 31 66 32 85 33 50 34
REMARK SMILES IDX 51 35 65 37 86 38 53 39 37 40 38 41 46 42 39 43 40 44 44 45
REMARK SMILES IDX 47 46 41 47 42 48 45 49 43 50 69 51 70 52 78 53 71 54 72 55
REMARK SMILES IDX 76 56 79 57 73 58 74 59 77 60 75 61 54 62 55 63 63 64 56 65
REMARK SMILES IDX 57 66 61 67 64 68 58 69 59 70 62 71 60 72 7 73 8 74 9 75
REMARK SMILES IDX 10 77 11 78 12 79 27 80 13 81 15 82 14 83 16 84 17 85 26 86
REMARK SMILES IDX 18 87 20 88 19 89 21 90 22 91 23 92 24 93 25 94
REMARK H PARENT 3 7 84 25 52 36 8 76
REMARK Flexibility Score: inf
ROOT
ATOM      1  C   UNL     1      10.261  -3.229   6.367  1.00  0.00     0.023 C 
ENDROOT
BRANCH   1   2
ATOM      2  C   UNL     1      10.576  -2.718   7.769  1.00  0.00     0.023 C 
BRANCH   2   3
ATOM      3  C   UNL     1      10.889  -3.806   8.789  1.00  0.00     0.116 C 
BRANCH   3   4
ATOM      4  N   UNL     1      12.043  -4.610   8.415  1.00  0.00    -0.352 N 
ATOM      5  O   UNL     1      14.183  -5.318   8.473  1.00  0.00    -0.269 OA
ATOM      6  C   UNL     1      13.265  -4.724   9.029  1.00  0.00     0.251 C 
ATOM      7  H   UNL     1      11.930  -5.152   7.601  1.00  0.00     0.163 HD
BRANCH   6   8
ATOM      8  C   UNL     1      13.481  -4.106  10.352  1.00  0.00     0.039 A 
ATOM      9  C   UNL     1      12.540  -4.256  11.374  1.00  0.00     0.014 A 
ATOM     10  C   UNL     1      14.646  -3.368  10.570  1.00  0.00     0.014 A 
ATOM     11  C   UNL     1      12.691  -3.552  12.563  1.00  0.00     0.010 A 
ATOM     12  C   UNL     1      14.840  -2.733  11.796  1.00  0.00     0.010 A 
ATOM     13  C   UNL     1      13.850  -2.796  12.791  1.00  0.00    -0.014 A 
BRANCH  13  14
ATOM     14  C   UNL     1      14.053  -2.114  14.092  1.00  0.00     0.031 A 
ATOM     15  C   UNL     1      14.156  -0.620  14.166  1.00  0.00     0.074 A 
ATOM     16  C   UNL     1      14.191  -2.860  15.203  1.00  0.00     0.049 A 
ATOM     17  N   UNL     1      14.447   0.141  15.191  1.00  0.00    -0.248 NA
ATOM     18  C   UNL     1      13.911   0.119  12.919  1.00  0.00     0.031 C 
ATOM     19  C   UNL     1      14.108  -4.320  15.251  1.00  0.00     0.029 A 
ATOM     20  N   UNL     1      14.452  -2.496  16.500  1.00  0.00    -0.354 N 
ATOM     21  C   UNL     1      14.447   1.443  14.710  1.00  0.00     0.074 A 
ATOM     22  C   UNL     1      14.153   1.367  13.294  1.00  0.00     0.031 C 
ATOM     23  C   UNL     1      14.314  -4.730  16.510  1.00  0.00     0.029 A 
ATOM     24  C   UNL     1      14.612  -3.568  17.341  1.00  0.00     0.049 A 
ATOM     25  H   UNL     1      14.517  -1.560  16.797  1.00  0.00     0.167 HD
ATOM     26  C   UNL     1      14.673   2.592  15.392  1.00  0.00     0.037 A 
ATOM     27  C   UNL     1      15.002  -3.619  18.628  1.00  0.00     0.037 A 
ATOM     28  C   UNL     1      14.967   2.648  16.801  1.00  0.00     0.049 A 
ATOM     29  C   UNL     1      15.299  -2.338  19.354  1.00  0.00     0.074 A 
ATOM     30  C   UNL     1      15.169   3.762  17.597  1.00  0.00     0.029 A 
ATOM     31  N   UNL     1      15.122   1.538  17.622  1.00  0.00    -0.354 N 
ATOM     32  N   UNL     1      15.259  -1.108  18.903  1.00  0.00    -0.248 NA
ATOM     33  C   UNL     1      15.692  -2.450  20.764  1.00  0.00     0.031 C 
ATOM     34  C   UNL     1      15.515   3.325  18.880  1.00  0.00     0.029 A 
ATOM     35  C   UNL     1      15.452   1.941  18.907  1.00  0.00     0.049 A 
ATOM     36  H   UNL     1      15.013   0.603  17.334  1.00  0.00     0.167 HD
ATOM     37  C   UNL     1      15.591  -0.296  19.977  1.00  0.00     0.074 A 
ATOM     38  C   UNL     1      15.831  -1.175  21.104  1.00  0.00     0.031 C 
ATOM     39  C   UNL     1      15.678   1.056  20.024  1.00  0.00     0.037 A 
BRANCH  26  40
ATOM     40  C   UNL     1      14.658   3.877  14.610  1.00  0.00     0.064 A 
ATOM     41  C   UNL     1      13.485   4.383  14.030  1.00  0.00     0.173 A 
ATOM     42  C   UNL     1      15.839   4.618  14.444  1.00  0.00     0.173 A 
ATOM     43  F   UNL     1      12.328   3.715  14.151  1.00  0.00    -0.203 F 
ATOM     44  C   UNL     1      13.505   5.553  13.272  1.00  0.00     0.198 A 
ATOM     45  C   UNL     1      15.848   5.806  13.718  1.00  0.00     0.198 A 
ATOM     46  F   UNL     1      16.989   4.190  14.987  1.00  0.00    -0.203 F 
ATOM     47  F   UNL     1      12.386   5.976  12.667  1.00  0.00    -0.200 F 
ATOM     48  C   UNL     1      14.684   6.265  13.120  1.00  0.00     0.200 A 
ATOM     49  F   UNL     1      16.986   6.502  13.588  1.00  0.00    -0.200 F 
ATOM     50  F   UNL     1      14.703   7.386  12.387  1.00  0.00    -0.200 F 
ENDBRANCH  26  40
BRANCH  27  51
ATOM     51  C   UNL     1      15.144  -4.942  19.286  1.00  0.00     0.064 A 
ATOM     52  C   UNL     1      14.235  -5.364  20.264  1.00  0.00     0.173 A 
ATOM     53  C   UNL     1      16.153  -5.838  18.899  1.00  0.00     0.173 A 
ATOM     54  F   UNL     1      13.262  -4.538  20.674  1.00  0.00    -0.203 F 
ATOM     55  C   UNL     1      14.332  -6.632  20.833  1.00  0.00     0.198 A 
ATOM     56  C   UNL     1      16.231  -7.115  19.447  1.00  0.00     0.198 A 
ATOM     57  F   UNL     1      17.040  -5.484  17.957  1.00  0.00    -0.203 F 
ATOM     58  F   UNL     1      13.465  -7.004  21.785  1.00  0.00    -0.200 F 
ATOM     59  C   UNL     1      15.322  -7.510  20.417  1.00  0.00     0.200 A 
ATOM     60  F   UNL     1      17.174  -7.968  19.024  1.00  0.00    -0.200 F 
ATOM     61  F   UNL     1      15.400  -8.737  20.949  1.00  0.00    -0.200 F 
ENDBRANCH  27  51
BRANCH  39  62
ATOM     62  C   UNL     1      15.996   1.688  21.348  1.00  0.00     0.064 A 
ATOM     63  C   UNL     1      17.279   1.632  21.910  1.00  0.00     0.173 A 
ATOM     64  C   UNL     1      15.015   2.435  22.021  1.00  0.00     0.173 A 
ATOM     65  F   UNL     1      18.246   0.917  21.315  1.00  0.00    -0.203 F 
ATOM     66  C   UNL     1      17.567   2.296  23.100  1.00  0.00     0.198 A 
ATOM     67  C   UNL     1      15.316   3.123  23.193  1.00  0.00     0.198 A 
ATOM     68  F   UNL     1      13.773   2.522  21.523  1.00  0.00    -0.203 F 
ATOM     69  F   UNL     1      18.793   2.206  23.635  1.00  0.00    -0.200 F 
ATOM     70  C   UNL     1      16.590   3.051  23.732  1.00  0.00     0.200 A 
ATOM     71  F   UNL     1      14.374   3.864  23.793  1.00  0.00    -0.200 F 
ATOM     72  F   UNL     1      16.877   3.709  24.864  1.00  0.00    -0.200 F 
ENDBRANCH  39  62
ENDBRANCH  13  14
ENDBRANCH   6   8
ENDBRANCH   3   4
ENDBRANCH   2   3
ENDBRANCH   1   2
BRANCH   1  73
ATOM     73  C   UNL     1       9.169  -4.287   6.306  1.00  0.00     0.116 C 
BRANCH  73  74
ATOM     74  N   UNL     1       7.872  -3.779   6.719  1.00  0.00    -0.356 N 
ATOM     75  C   UNL     1       6.665  -3.950   6.097  1.00  0.00     0.225 C 
ATOM     76  H   UNL     1       7.859  -3.248   7.548  1.00  0.00     0.163 HD
ATOM     77  O   UNL     1       5.660  -3.439   6.583  1.00  0.00    -0.275 OA
BRANCH  75  78
ATOM     78  C   UNL     1       6.645  -4.776   4.833  1.00  0.00     0.107 C 
ATOM     79  C   UNL     1       6.924  -6.242   5.153  1.00  0.00     0.116 C 
ATOM     80  C   UNL     1       5.291  -4.814   4.146  1.00  0.00     0.139 C 
ATOM     81  C   UNL     1       6.207  -6.977   4.067  1.00  0.00     0.227 C 
ATOM     82  N   UNL     1       5.285  -6.102   3.495  1.00  0.00    -0.311 N 
ATOM     83  O   UNL     1       6.441  -8.142   3.778  1.00  0.00    -0.274 OA
BRANCH  82  84
ATOM     84  C   UNL     1       4.312  -6.486   2.554  1.00  0.00     0.047 A 
ATOM     85  C   UNL     1       3.901  -5.623   1.538  1.00  0.00     0.026 A 
ATOM     86  C   UNL     1       3.748  -7.766   2.640  1.00  0.00     0.073 A 
ATOM     87  C   UNL     1       2.974  -6.060   0.590  1.00  0.00     0.006 A 
ATOM     88  C   UNL     1       2.773  -8.186   1.739  1.00  0.00     0.131 A 
ATOM     89  C   UNL     1       2.413  -7.335   0.693  1.00  0.00     0.047 A 
BRANCH  88  90
ATOM     90  O   UNL     1       2.118  -9.384   1.778  1.00  0.00    -0.406 OA
BRANCH  90  91
ATOM     91  C   UNL     1       2.272 -10.167   2.955  1.00  0.00     0.573 C 
ATOM     92  F   UNL     1       3.530 -10.642   3.065  1.00  0.00    -0.132 F 
ATOM     93  F   UNL     1       1.955  -9.461   4.064  1.00  0.00    -0.132 F 
ATOM     94  F   UNL     1       1.432 -11.224   2.885  1.00  0.00    -0.132 F 
ENDBRANCH  90  91
ENDBRANCH  88  90
ENDBRANCH  82  84
ENDBRANCH  75  78
ENDBRANCH  73  74
ENDBRANCH   1  73
TORSDOF 14
