REMARK SMILES Cc1c(Cc2ccccc2)c(=O)oc2cc(OCC(=O)N[C@H](C)C(=O)NCCCCNC(=O)c3ccc(-c4c5nc(c(-c6c(F)c(F)c(F)c(F)c6F)c6ccc([nH]6)c(-c6c(F)c(F)c(F)c(F)c6F)c6nc(c(-c7c(F)c(F)c(F)c(F)c7F)c7ccc4[nH]7)C=C6)C=C5)cc3)ccc12
REMARK SMILES IDX 24 1 25 2 26 3 22 5 23 6 21 7 19 8 20 9 18 11 17 12 16 13
REMARK SMILES IDX 1 14 2 15 3 16 99 17 11 18 14 19 98 20 12 21 13 22 15 23
REMARK SMILES IDX 97 24 4 25 5 26 6 27 10 28 7 29 9 30 8 31 27 32 28 33 29 34
REMARK SMILES IDX 30 35 31 36 32 37 33 39 34 40 35 41 96 42 36 43 95 44 37 45
REMARK SMILES IDX 38 46 39 47 89 48 40 49 94 50 88 51 90 52 41 53 93 54 87 55
REMARK SMILES IDX 86 56 42 58 74 59 54 60 73 61 55 62 58 63 72 64 91 65 56 66
REMARK SMILES IDX 57 67 71 69 92 70 59 71 43 72 44 73 52 74 45 75 46 76 50 77
REMARK SMILES IDX 53 78 47 79 48 80 51 81 49 82 75 83 76 84 84 85 77 86 78 87
REMARK SMILES IDX 82 88 85 89 79 90 80 91 83 92 81 93 60 94 61 95 69 96 62 97
REMARK SMILES IDX 63 98 67 99 70 100 64 101 65 102 68 103 66 104
REMARK H PARENT 26 4 21 10 31 38 90 57 58 68
REMARK Flexibility Score: inf
ROOT
ATOM      1  C   UNL     1       5.698   4.021  -3.400  1.00  0.00     0.242 C 
ATOM      2  O   UNL     1       6.686   4.308  -2.719  1.00  0.00    -0.273 OA
ATOM      3  N   UNL     1       5.545   4.676  -4.589  1.00  0.00    -0.354 N 
ATOM      4  H   UNL     1       6.188   5.399  -4.772  1.00  0.00     0.163 HD
ENDROOT
BRANCH   1   5
ATOM      5  C   UNL     1       4.635   3.018  -2.868  1.00  0.00     0.168 C 
ATOM      6  C   UNL     1       3.393   3.751  -2.396  1.00  0.00     0.041 C 
BRANCH   5   7
ATOM      7  N   UNL     1       4.467   1.791  -3.672  1.00  0.00    -0.342 N 
ATOM      8  C   UNL     1       3.567   1.246  -4.530  1.00  0.00     0.258 C 
ATOM      9  O   UNL     1       3.919   0.198  -5.088  1.00  0.00    -0.271 OA
ATOM     10  H   UNL     1       5.236   1.189  -3.549  1.00  0.00     0.164 HD
BRANCH   8  11
ATOM     11  C   UNL     1       2.200   1.853  -4.890  1.00  0.00     0.329 C 
BRANCH  11  12
ATOM     12  O   UNL     1       1.373   2.284  -3.836  1.00  0.00    -0.484 OA
BRANCH  12  13
ATOM     13  C   UNL     1       0.676   1.327  -3.163  1.00  0.00     0.123 A 
ATOM     14  C   UNL     1      -2.757  -0.838   0.049  1.00  0.00     0.046 C 
ATOM     15  C   UNL     1      -1.722  -1.405  -0.887  1.00  0.00    -0.029 A 
ATOM     16  C   UNL     1      -1.488  -2.725  -1.071  1.00  0.00     0.046 A 
ATOM     17  C   UNL     1      -0.906  -0.432  -1.629  1.00  0.00     0.021 A 
ATOM     18  C   UNL     1      -0.527  -3.212  -2.103  1.00  0.00     0.340 A 
ATOM     19  C   UNL     1      -0.061  -0.894  -2.631  1.00  0.00     0.142 A 
ATOM     20  C   UNL     1      -0.916   0.946  -1.377  1.00  0.00     0.016 A 
ATOM     21  O   UNL     1      -0.313  -4.405  -2.288  1.00  0.00    -0.246 OA
ATOM     22  O   UNL     1       0.075  -2.260  -2.904  1.00  0.00    -0.422 OA
ATOM     23  C   UNL     1       0.719  -0.040  -3.406  1.00  0.00     0.094 A 
ATOM     24  C   UNL     1      -0.131   1.815  -2.137  1.00  0.00     0.047 A 
BRANCH  16  25
ATOM     25  C   UNL     1      -2.167  -3.844  -0.313  1.00  0.00     0.079 C 
BRANCH  25  26
ATOM     26  C   UNL     1      -1.405  -4.256   0.930  1.00  0.00    -0.043 A 
ATOM     27  C   UNL     1      -0.684  -5.457   0.956  1.00  0.00     0.004 A 
ATOM     28  C   UNL     1      -1.393  -3.440   2.072  1.00  0.00     0.004 A 
ATOM     29  C   UNL     1       0.015  -5.840   2.103  1.00  0.00     0.000 A 
ATOM     30  C   UNL     1      -0.683  -3.817   3.212  1.00  0.00     0.000 A 
ATOM     31  C   UNL     1       0.015  -5.020   3.230  1.00  0.00     0.000 A 
ENDBRANCH  25  26
ENDBRANCH  16  25
ENDBRANCH  12  13
ENDBRANCH  11  12
ENDBRANCH   8  11
ENDBRANCH   5   7
ENDBRANCH   1   5
BRANCH   3  32
ATOM     32  C   UNL     1       4.559   4.434  -5.604  1.00  0.00     0.116 C 
BRANCH  32  33
ATOM     33  C   UNL     1       3.558   5.569  -5.786  1.00  0.00     0.023 C 
BRANCH  33  34
ATOM     34  C   UNL     1       3.941   6.565  -6.874  1.00  0.00     0.023 C 
BRANCH  34  35
ATOM     35  C   UNL     1       4.183   5.960  -8.252  1.00  0.00     0.116 C 
BRANCH  35  36
ATOM     36  N   UNL     1       3.053   5.227  -8.805  1.00  0.00    -0.352 N 
ATOM     37  C   UNL     1       2.713   5.104 -10.139  1.00  0.00     0.251 C 
ATOM     38  H   UNL     1       2.467   4.769  -8.159  1.00  0.00     0.163 HD
ATOM     39  O   UNL     1       1.713   4.506 -10.493  1.00  0.00    -0.269 OA
BRANCH  37  40
ATOM     40  C   UNL     1       3.581   5.780 -11.126  1.00  0.00     0.039 A 
ATOM     41  C   UNL     1       3.039   6.796 -11.915  1.00  0.00     0.014 A 
ATOM     42  C   UNL     1       4.953   5.517 -11.134  1.00  0.00     0.014 A 
ATOM     43  C   UNL     1       3.895   7.622 -12.645  1.00  0.00     0.010 A 
ATOM     44  C   UNL     1       5.806   6.389 -11.798  1.00  0.00     0.010 A 
ATOM     45  C   UNL     1       5.287   7.460 -12.546  1.00  0.00    -0.014 A 
BRANCH  45  46
ATOM     46  C   UNL     1       6.234   8.390 -13.211  1.00  0.00     0.031 A 
ATOM     47  C   UNL     1       7.173   7.860 -14.257  1.00  0.00     0.074 A 
ATOM     48  C   UNL     1       6.319   9.675 -12.812  1.00  0.00     0.049 A 
ATOM     49  N   UNL     1       8.191   8.446 -14.832  1.00  0.00    -0.248 NA
ATOM     50  C   UNL     1       6.956   6.469 -14.687  1.00  0.00     0.031 C 
ATOM     51  C   UNL     1       5.490  10.303 -11.781  1.00  0.00     0.029 A 
ATOM     52  N   UNL     1       7.161  10.681 -13.216  1.00  0.00    -0.354 N 
ATOM     53  C   UNL     1       8.748   7.490 -15.670  1.00  0.00     0.074 A 
ATOM     54  C   UNL     1       7.989   6.272 -15.492  1.00  0.00     0.031 C 
ATOM     55  C   UNL     1       5.853  11.589 -11.646  1.00  0.00     0.029 A 
ATOM     56  C   UNL     1       6.967  11.867 -12.547  1.00  0.00     0.049 A 
ATOM     57  H   UNL     1       7.840  10.565 -13.919  1.00  0.00     0.167 HD
ATOM     58  C   UNL     1       9.784   7.623 -16.531  1.00  0.00     0.037 A 
ATOM     59  C   UNL     1       7.625  13.038 -12.644  1.00  0.00     0.037 A 
ATOM     60  C   UNL     1      10.515   8.844 -16.735  1.00  0.00     0.049 A 
ATOM     61  C   UNL     1       8.769  13.160 -13.616  1.00  0.00     0.074 A 
ATOM     62  C   UNL     1      11.571   9.086 -17.595  1.00  0.00     0.029 A 
ATOM     63  N   UNL     1      10.249  10.037 -16.079  1.00  0.00    -0.354 N 
ATOM     64  N   UNL     1       9.272  12.255 -14.421  1.00  0.00    -0.248 NA
ATOM     65  C   UNL     1       9.437  14.468 -13.696  1.00  0.00     0.031 C 
ATOM     66  C   UNL     1      11.956  10.422 -17.449  1.00  0.00     0.029 A 
ATOM     67  C   UNL     1      11.117  11.020 -16.523  1.00  0.00     0.049 A 
ATOM     68  H   UNL     1       9.548  10.165 -15.400  1.00  0.00     0.167 HD
ATOM     69  C   UNL     1      10.283  12.892 -15.127  1.00  0.00     0.074 A 
ATOM     70  C   UNL     1      10.322  14.262 -14.661  1.00  0.00     0.031 C 
ATOM     71  C   UNL     1      11.109  12.387 -16.074  1.00  0.00     0.037 A 
BRANCH  58  72
ATOM     72  C   UNL     1      10.171   6.419 -17.335  1.00  0.00     0.064 A 
ATOM     73  C   UNL     1       9.359   5.950 -18.379  1.00  0.00     0.173 A 
ATOM     74  C   UNL     1      11.375   5.746 -17.083  1.00  0.00     0.173 A 
ATOM     75  F   UNL     1       8.189   6.551 -18.645  1.00  0.00    -0.203 F 
ATOM     76  C   UNL     1       9.728   4.836 -19.127  1.00  0.00     0.198 A 
ATOM     77  C   UNL     1      11.754   4.649 -17.852  1.00  0.00     0.198 A 
ATOM     78  F   UNL     1      12.187   6.156 -16.098  1.00  0.00    -0.203 F 
ATOM     79  F   UNL     1       8.915   4.379 -20.089  1.00  0.00    -0.200 F 
ATOM     80  C   UNL     1      10.928   4.191 -18.868  1.00  0.00     0.200 A 
ATOM     81  F   UNL     1      12.918   4.032 -17.608  1.00  0.00    -0.200 F 
ATOM     82  F   UNL     1      11.285   3.123 -19.595  1.00  0.00    -0.200 F 
ENDBRANCH  58  72
BRANCH  59  83
ATOM     83  C   UNL     1       7.216  14.204 -11.817  1.00  0.00     0.064 A 
ATOM     84  C   UNL     1       6.620  15.327 -12.409  1.00  0.00     0.173 A 
ATOM     85  C   UNL     1       7.444  14.239 -10.435  1.00  0.00     0.173 A 
ATOM     86  F   UNL     1       6.402  15.350 -13.732  1.00  0.00    -0.203 F 
ATOM     87  C   UNL     1       6.298  16.453 -11.655  1.00  0.00     0.198 A 
ATOM     88  C   UNL     1       7.096  15.355  -9.677  1.00  0.00     0.198 A 
ATOM     89  F   UNL     1       8.007  13.188  -9.819  1.00  0.00    -0.203 F 
ATOM     90  F   UNL     1       5.782  17.534 -12.256  1.00  0.00    -0.200 F 
ATOM     91  C   UNL     1       6.533  16.466 -10.289  1.00  0.00     0.200 A 
ATOM     92  F   UNL     1       7.315  15.360  -8.355  1.00  0.00    -0.200 F 
ATOM     93  F   UNL     1       6.230  17.551  -9.564  1.00  0.00    -0.200 F 
ENDBRANCH  59  83
BRANCH  71  94
ATOM     94  C   UNL     1      12.076  13.331 -16.721  1.00  0.00     0.064 A 
ATOM     95  C   UNL     1      13.228  13.774 -16.058  1.00  0.00     0.173 A 
ATOM     96  C   UNL     1      11.873  13.750 -18.045  1.00  0.00     0.173 A 
ATOM     97  F   UNL     1      13.456  13.411 -14.786  1.00  0.00    -0.203 F 
ATOM     98  C   UNL     1      14.136  14.617 -16.692  1.00  0.00     0.198 A 
ATOM     99  C   UNL     1      12.795  14.573 -18.683  1.00  0.00     0.198 A 
ATOM    100  F   UNL     1      10.787  13.347 -18.722  1.00  0.00    -0.203 F 
ATOM    101  F   UNL     1      15.214  15.057 -16.029  1.00  0.00    -0.200 F 
ATOM    102  C   UNL     1      13.923  15.009 -18.006  1.00  0.00     0.200 A 
ATOM    103  F   UNL     1      12.593  14.943 -19.956  1.00  0.00    -0.200 F 
ATOM    104  F   UNL     1      14.804  15.813 -18.617  1.00  0.00    -0.200 F 
ENDBRANCH  71  94
ENDBRANCH  45  46
ENDBRANCH  37  40
ENDBRANCH  35  36
ENDBRANCH  34  35
ENDBRANCH  33  34
ENDBRANCH  32  33
ENDBRANCH   3  32
TORSDOF 17
