REMARK SMILES C[NH+]1CCC([NH+]2CCC(Oc3ccc4ccccc4c3)(C(=O)NCCCCNC(=O)c3ccc(-c4c5nc(c(-c6c(F)c(F)c(F)c(F)c6F)c6ccc([nH]6)c(-c6c(F)c(F)c(F)c(F)c6F)c6nc(c(-c7c(F)c(F)c(F)c(F)c7F)c7ccc4[nH]7)C=C6)C=C5)cc3)CC2)CC1
REMARK SMILES IDX 25 1 24 2 23 3 21 4 22 5 9 7 6 8 7 9 95 10 8 12 94 13 5 14
REMARK SMILES IDX 1 15 2 16 3 17 97 18 4 20 96 21 10 22 11 23 12 24 20 25
REMARK SMILES IDX 13 26 19 27 14 28 18 29 15 30 17 31 16 32 26 33 27 34 28 35
REMARK SMILES IDX 29 36 30 38 31 39 32 40 93 41 33 42 92 43 34 44 35 45 36 46
REMARK SMILES IDX 86 47 37 48 91 49 85 50 87 51 38 52 90 53 84 54 83 55 39 57
REMARK SMILES IDX 71 58 51 59 70 60 52 61 55 62 69 63 88 64 53 65 54 66 68 68
REMARK SMILES IDX 89 69 56 70 40 71 41 72 49 73 42 74 43 75 47 76 50 77 44 78
REMARK SMILES IDX 45 79 48 80 46 81 72 82 73 83 81 84 74 85 75 86 79 87 82 88
REMARK SMILES IDX 76 89 77 90 80 91 78 92 57 93 58 94 66 95 59 96 60 97 64 98
REMARK SMILES IDX 67 99 61 100 62 101 65 102 63 103
REMARK H PARENT 23 6 6 11 2 19 28 37 87 56 55 67
REMARK Flexibility Score: inf
ROOT
ATOM      1  C   UNL     1       4.490  -1.001   5.408  1.00  0.00     0.023 C 
ENDROOT
BRANCH   1   2
ATOM      2  C   UNL     1       5.681  -1.517   4.601  1.00  0.00     0.116 C 
BRANCH   2   3
ATOM      3  N   UNL     1       5.259  -2.448   3.574  1.00  0.00    -0.353 N 
ATOM      4  C   UNL     1       5.211  -2.301   2.215  1.00  0.00     0.264 C 
ATOM      5  O   UNL     1       4.862  -3.301   1.579  1.00  0.00    -0.270 OA
ATOM      6  H   UNL     1       4.959  -3.325   3.907  1.00  0.00     0.163 HD
BRANCH   4   7
ATOM      7  C   UNL     1       5.577  -0.951   1.527  1.00  0.00     0.197 C 
ATOM      8  N   UNL     1       3.095  -0.113   0.182  1.00  0.00    -0.332 N 
ATOM      9  C   UNL     1       3.214  -0.099   1.642  1.00  0.00     0.267 C 
ATOM     10  C   UNL     1       3.920  -1.180  -0.414  1.00  0.00     0.267 C 
ATOM     11  H   UNL     1       3.469   0.777  -0.146  1.00  0.00     0.348 HD
ATOM     12  C   UNL     1       4.661   0.180   2.004  1.00  0.00     0.120 C 
ATOM     13  C   UNL     1       5.402  -1.086  -0.001  1.00  0.00     0.120 C 
BRANCH   8  14
ATOM     14  C   UNL     1       1.691  -0.131  -0.299  1.00  0.00     0.195 C 
ATOM     15  C   UNL     1      -2.618   0.069  -0.216  1.00  0.00     0.332 C 
ATOM     16  N   UNL     1      -1.200   0.018   0.136  1.00  0.00    -0.337 N 
ATOM     17  C   UNL     1      -0.487   1.178  -0.414  1.00  0.00     0.268 C 
ATOM     18  C   UNL     1      -0.591  -1.232  -0.330  1.00  0.00     0.268 C 
ATOM     19  H   UNL     1      -1.126   0.049   1.152  1.00  0.00     0.347 HD
ATOM     20  C   UNL     1       0.965   1.183   0.061  1.00  0.00     0.126 C 
ATOM     21  C   UNL     1       0.855  -1.340   0.158  1.00  0.00     0.126 C 
ENDBRANCH   8  14
BRANCH   7  22
ATOM     22  O   UNL     1       6.971  -0.828   1.912  1.00  0.00    -0.477 OA
BRANCH  22  23
ATOM     23  C   UNL     1       7.687   0.254   1.501  1.00  0.00     0.121 A 
ATOM     24  C   UNL     1       7.448   1.538   1.977  1.00  0.00     0.047 A 
ATOM     25  C   UNL     1       8.801   0.011   0.698  1.00  0.00     0.055 A 
ATOM     26  C   UNL     1       8.237   2.605   1.548  1.00  0.00     0.012 A 
ATOM     27  C   UNL     1       9.635   1.065   0.293  1.00  0.00    -0.015 A 
ATOM     28  C   UNL     1       9.329   2.385   0.700  1.00  0.00    -0.018 A 
ATOM     29  C   UNL     1      10.771   0.842  -0.500  1.00  0.00     0.009 A 
ATOM     30  C   UNL     1      10.137   3.447   0.270  1.00  0.00     0.009 A 
ATOM     31  C   UNL     1      11.578   1.907  -0.903  1.00  0.00     0.001 A 
ATOM     32  C   UNL     1      11.255   3.208  -0.528  1.00  0.00     0.001 A 
ENDBRANCH  22  23
ENDBRANCH   7  22
ENDBRANCH   4   7
ENDBRANCH   2   3
ENDBRANCH   1   2
BRANCH   1  33
ATOM     33  C   UNL     1       3.811  -2.054   6.283  1.00  0.00     0.023 C 
BRANCH  33  34
ATOM     34  C   UNL     1       4.737  -2.766   7.258  1.00  0.00     0.116 C 
BRANCH  34  35
ATOM     35  N   UNL     1       5.431  -1.852   8.151  1.00  0.00    -0.352 N 
ATOM     36  C   UNL     1       5.683  -1.986   9.492  1.00  0.00     0.251 C 
ATOM     37  H   UNL     1       5.766  -1.024   7.736  1.00  0.00     0.163 HD
ATOM     38  O   UNL     1       6.162  -1.050  10.127  1.00  0.00    -0.269 OA
BRANCH  36  39
ATOM     39  C   UNL     1       5.351  -3.251  10.177  1.00  0.00     0.039 A 
ATOM     40  C   UNL     1       4.734  -3.197  11.428  1.00  0.00     0.014 A 
ATOM     41  C   UNL     1       5.647  -4.485   9.592  1.00  0.00     0.014 A 
ATOM     42  C   UNL     1       4.380  -4.382  12.075  1.00  0.00     0.010 A 
ATOM     43  C   UNL     1       5.212  -5.660  10.194  1.00  0.00     0.010 A 
ATOM     44  C   UNL     1       4.597  -5.623  11.453  1.00  0.00    -0.014 A 
BRANCH  44  45
ATOM     45  C   UNL     1       4.233  -6.891  12.132  1.00  0.00     0.031 A 
ATOM     46  C   UNL     1       5.306  -7.880  12.501  1.00  0.00     0.074 A 
ATOM     47  C   UNL     1       2.940  -7.171  12.382  1.00  0.00     0.049 A 
ATOM     48  N   UNL     1       5.193  -9.052  13.074  1.00  0.00    -0.248 NA
ATOM     49  C   UNL     1       6.689  -7.517  12.151  1.00  0.00     0.031 C 
ATOM     50  C   UNL     1       1.805  -6.319  12.024  1.00  0.00     0.029 A 
ATOM     51  N   UNL     1       2.362  -8.253  12.996  1.00  0.00    -0.354 N 
ATOM     52  C   UNL     1       6.482  -9.565  13.140  1.00  0.00     0.074 A 
ATOM     53  C   UNL     1       7.352  -8.612  12.487  1.00  0.00     0.031 C 
ATOM     54  C   UNL     1       0.670  -6.895  12.453  1.00  0.00     0.029 A 
ATOM     55  C   UNL     1       0.994  -8.171  13.084  1.00  0.00     0.049 A 
ATOM     56  H   UNL     1       2.880  -9.017  13.340  1.00  0.00     0.167 HD
ATOM     57  C   UNL     1       6.909 -10.711  13.722  1.00  0.00     0.037 A 
ATOM     58  C   UNL     1       0.104  -9.030  13.617  1.00  0.00     0.037 A 
ATOM     59  C   UNL     1       6.043 -11.645  14.392  1.00  0.00     0.049 A 
ATOM     60  C   UNL     1       0.605 -10.296  14.259  1.00  0.00     0.074 A 
ATOM     61  C   UNL     1       6.379 -12.810  15.059  1.00  0.00     0.029 A 
ATOM     62  N   UNL     1       4.663 -11.520  14.478  1.00  0.00    -0.354 N 
ATOM     63  N   UNL     1       1.834 -10.737  14.382  1.00  0.00    -0.248 NA
ATOM     64  C   UNL     1      -0.409 -11.178  14.853  1.00  0.00     0.031 C 
ATOM     65  C   UNL     1       5.199 -13.416  15.503  1.00  0.00     0.029 A 
ATOM     66  C   UNL     1       4.132 -12.597  15.169  1.00  0.00     0.049 A 
ATOM     67  H   UNL     1       4.140 -10.775  14.103  1.00  0.00     0.167 HD
ATOM     68  C   UNL     1       1.745 -11.926  15.093  1.00  0.00     0.074 A 
ATOM     69  C   UNL     1       0.342 -12.125  15.393  1.00  0.00     0.031 C 
ATOM     70  C   UNL     1       2.733 -12.778  15.464  1.00  0.00     0.037 A 
BRANCH  57  71
ATOM     71  C   UNL     1       8.379 -11.015  13.659  1.00  0.00     0.064 A 
ATOM     72  C   UNL     1       9.323 -10.242  14.355  1.00  0.00     0.173 A 
ATOM     73  C   UNL     1       8.851 -12.105  12.912  1.00  0.00     0.173 A 
ATOM     74  F   UNL     1       8.929  -9.180  15.074  1.00  0.00    -0.203 F 
ATOM     75  C   UNL     1      10.684 -10.527  14.276  1.00  0.00     0.198 A 
ATOM     76  C   UNL     1      10.210 -12.409  12.865  1.00  0.00     0.198 A 
ATOM     77  F   UNL     1       7.995 -12.880  12.230  1.00  0.00    -0.203 F 
ATOM     78  F   UNL     1      11.569  -9.738  14.901  1.00  0.00    -0.200 F 
ATOM     79  C   UNL     1      11.125 -11.614  13.538  1.00  0.00     0.200 A 
ATOM     80  F   UNL     1      10.633 -13.469  12.163  1.00  0.00    -0.200 F 
ATOM     81  F   UNL     1      12.434 -11.892  13.469  1.00  0.00    -0.200 F 
ENDBRANCH  57  71
BRANCH  58  82
ATOM     82  C   UNL     1      -1.347  -8.708  13.598  1.00  0.00     0.064 A 
ATOM     83  C   UNL     1      -2.039  -8.428  14.785  1.00  0.00     0.173 A 
ATOM     84  C   UNL     1      -2.076  -8.691  12.400  1.00  0.00     0.173 A 
ATOM     85  F   UNL     1      -1.391  -8.451  15.959  1.00  0.00    -0.203 F 
ATOM     86  C   UNL     1      -3.409  -8.175  14.778  1.00  0.00     0.198 A 
ATOM     87  C   UNL     1      -3.440  -8.405  12.390  1.00  0.00     0.198 A 
ATOM     88  F   UNL     1      -1.461  -8.944  11.235  1.00  0.00    -0.203 F 
ATOM     89  F   UNL     1      -4.056  -7.968  15.933  1.00  0.00    -0.200 F 
ATOM     90  C   UNL     1      -4.108  -8.158  13.580  1.00  0.00     0.200 A 
ATOM     91  F   UNL     1      -4.107  -8.374  11.229  1.00  0.00    -0.200 F 
ATOM     92  F   UNL     1      -5.425  -7.914  13.573  1.00  0.00    -0.200 F 
ENDBRANCH  58  82
BRANCH  70  93
ATOM     93  C   UNL     1       2.333 -13.978  16.276  1.00  0.00     0.064 A 
ATOM     94  C   UNL     1       1.577 -15.026  15.728  1.00  0.00     0.173 A 
ATOM     95  C   UNL     1       2.723 -14.085  17.620  1.00  0.00     0.173 A 
ATOM     96  F   UNL     1       1.169 -14.968  14.451  1.00  0.00    -0.203 F 
ATOM     97  C   UNL     1       1.187 -16.111  16.508  1.00  0.00     0.198 A 
ATOM     98  C   UNL     1       2.363 -15.190  18.386  1.00  0.00     0.198 A 
ATOM     99  F   UNL     1       3.456 -13.118  18.192  1.00  0.00    -0.203 F 
ATOM    100  F   UNL     1       0.405 -17.064  15.983  1.00  0.00    -0.200 F 
ATOM    101  C   UNL     1       1.584 -16.195  17.834  1.00  0.00     0.200 A 
ATOM    102  F   UNL     1       2.764 -15.278  19.662  1.00  0.00    -0.200 F 
ATOM    103  F   UNL     1       1.207 -17.240  18.583  1.00  0.00    -0.200 F 
ENDBRANCH  70  93
ENDBRANCH  44  45
ENDBRANCH  36  39
ENDBRANCH  34  35
ENDBRANCH  33  34
ENDBRANCH   1  33
TORSDOF 14
