REMARK SMILES Cn1ccc(Nc2nccc(C(=O)NCCCCNC(=O)c3ccc(-c4c5nc(c(-c6c(F)c(F)c(F)c(F)c6F)c6ccc([nH]6)c(-c6c(F)c(F)c(F)c(F)c6F)c6nc(c(-c7c(F)c(F)c(F)c(F)c7F)c7ccc4[nH]7)C=C6)C=C5)cc3)c2N)n1
REMARK SMILES IDX 16 1 15 2 14 3 12 4 13 5 11 7 7 8 8 9 85 10 9 11 10 12 6 13
REMARK SMILES IDX 5 15 1 16 2 17 3 18 87 19 4 20 86 21 17 24 18 25 19 26 20 27
REMARK SMILES IDX 21 29 22 30 23 31 84 32 24 33 83 34 25 35 26 36 27 37 77 38
REMARK SMILES IDX 28 39 82 40 76 41 78 42 29 43 81 44 75 45 74 46 30 48 62 49
REMARK SMILES IDX 42 50 61 51 43 52 46 53 60 54 79 55 44 56 45 57 59 59 80 60
REMARK SMILES IDX 47 61 31 62 32 63 40 64 33 65 34 66 38 67 41 68 35 69 36 70
REMARK SMILES IDX 39 71 37 72 63 73 64 74 72 75 65 76 66 77 70 78 73 79 67 80
REMARK SMILES IDX 68 81 71 82 69 83 48 84 49 85 57 86 50 87 51 88 55 89 58 90
REMARK SMILES IDX 52 91 53 92 56 93 54 94
REMARK H PARENT 14 6 6 14 86 22 86 23 19 28 78 47 46 58
REMARK Flexibility Score: inf
ROOT
ATOM      1  C   UNL     1       0.791   3.276   4.406  1.00  0.00     0.023 C 
ENDROOT
BRANCH   1   2
ATOM      2  C   UNL     1      -0.111   3.874   3.320  1.00  0.00     0.116 C 
BRANCH   2   3
ATOM      3  N   UNL     1       0.317   5.225   3.012  1.00  0.00    -0.352 N 
ATOM      4  C   UNL     1       1.152   5.720   2.041  1.00  0.00     0.253 C 
ATOM      5  O   UNL     1       1.405   6.927   2.098  1.00  0.00    -0.269 OA
ATOM      6  H   UNL     1      -0.059   5.912   3.609  1.00  0.00     0.163 HD
BRANCH   4   7
ATOM      7  C   UNL     1       1.681   4.939   0.881  1.00  0.00     0.068 A 
ATOM      8  C   UNL     1       2.366   3.017  -0.406  1.00  0.00     0.155 A 
ATOM      9  N   UNL     1       2.611   3.753  -1.510  1.00  0.00    -0.237 NA
ATOM     10  C   UNL     1       2.002   3.577   0.847  1.00  0.00     0.088 A 
ATOM     11  C   UNL     1       2.363   5.072  -1.423  1.00  0.00     0.114 A 
ATOM     12  C   UNL     1       1.871   5.691  -0.288  1.00  0.00     0.036 A 
BRANCH   8  13
ATOM     13  N   UNL     1       2.451   1.614  -0.555  1.00  0.00    -0.322 N 
ATOM     14  H   UNL     1       3.304   1.238  -0.871  1.00  0.00     0.170 HD
BRANCH  13  15
ATOM     15  C   UNL     1       1.438   0.749  -0.292  1.00  0.00     0.153 A 
ATOM     16  C   UNL     1      -1.925  -0.087   0.074  1.00  0.00     0.173 C 
ATOM     17  N   UNL     1      -0.484  -0.091   0.008  1.00  0.00    -0.274 N 
ATOM     18  C   UNL     1       0.336  -1.171  -0.118  1.00  0.00     0.110 A 
ATOM     19  N   UNL     1       0.176   1.076   0.002  1.00  0.00    -0.155 NA
ATOM     20  C   UNL     1       1.593  -0.656  -0.341  1.00  0.00     0.068 A 
ENDBRANCH  13  15
ENDBRANCH   8  13
BRANCH  10  21
ATOM     21  N   UNL     1       2.286   2.825   2.009  1.00  0.00    -0.395 N 
ATOM     22  H   UNL     1       2.506   1.869   1.934  1.00  0.00     0.156 HD
ATOM     23  H   UNL     1       2.263   3.258   2.893  1.00  0.00     0.156 HD
ENDBRANCH  10  21
ENDBRANCH   4   7
ENDBRANCH   2   3
ENDBRANCH   1   2
BRANCH   1  24
ATOM     24  C   UNL     1       0.362   3.578   5.838  1.00  0.00     0.023 C 
BRANCH  24  25
ATOM     25  C   UNL     1      -0.940   2.914   6.257  1.00  0.00     0.116 C 
BRANCH  25  26
ATOM     26  N   UNL     1      -0.921   1.464   6.138  1.00  0.00    -0.352 N 
ATOM     27  C   UNL     1      -1.544   0.526   6.928  1.00  0.00     0.251 C 
ATOM     28  H   UNL     1      -0.391   1.105   5.391  1.00  0.00     0.163 HD
ATOM     29  O   UNL     1      -1.360  -0.667   6.742  1.00  0.00    -0.269 OA
BRANCH  27  30
ATOM     30  C   UNL     1      -2.408   0.981   8.039  1.00  0.00     0.039 A 
ATOM     31  C   UNL     1      -2.249   0.391   9.294  1.00  0.00     0.014 A 
ATOM     32  C   UNL     1      -3.337   2.007   7.853  1.00  0.00     0.014 A 
ATOM     33  C   UNL     1      -2.978   0.879  10.379  1.00  0.00     0.010 A 
ATOM     34  C   UNL     1      -3.995   2.550   8.949  1.00  0.00     0.010 A 
ATOM     35  C   UNL     1      -3.828   1.986  10.222  1.00  0.00    -0.014 A 
BRANCH  35  36
ATOM     36  C   UNL     1      -4.553   2.559  11.381  1.00  0.00     0.031 A 
ATOM     37  C   UNL     1      -6.055   2.530  11.422  1.00  0.00     0.074 A 
ATOM     38  C   UNL     1      -3.858   3.150  12.371  1.00  0.00     0.049 A 
ATOM     39  N   UNL     1      -6.867   2.986  12.341  1.00  0.00    -0.248 NA
ATOM     40  C   UNL     1      -6.739   1.936  10.261  1.00  0.00     0.031 C 
ATOM     41  C   UNL     1      -2.402   3.306  12.407  1.00  0.00     0.029 A 
ATOM     42  N   UNL     1      -4.282   3.734  13.538  1.00  0.00    -0.354 N 
ATOM     43  C   UNL     1      -8.149   2.746  11.866  1.00  0.00     0.074 A 
ATOM     44  C   UNL     1      -8.011   2.162  10.550  1.00  0.00     0.031 C 
ATOM     45  C   UNL     1      -2.052   3.910  13.553  1.00  0.00     0.029 A 
ATOM     46  C   UNL     1      -3.258   4.211  14.319  1.00  0.00     0.049 A 
ATOM     47  H   UNL     1      -5.231   3.803  13.792  1.00  0.00     0.167 HD
ATOM     48  C   UNL     1      -9.334   2.964  12.484  1.00  0.00     0.037 A 
ATOM     49  C   UNL     1      -3.291   4.816  15.521  1.00  0.00     0.037 A 
ATOM     50  C   UNL     1      -9.463   3.518  13.806  1.00  0.00     0.049 A 
ATOM     51  C   UNL     1      -4.619   5.022  16.198  1.00  0.00     0.074 A 
ATOM     52  C   UNL     1     -10.611   3.717  14.551  1.00  0.00     0.029 A 
ATOM     53  N   UNL     1      -8.401   3.963  14.580  1.00  0.00    -0.354 N 
ATOM     54  N   UNL     1      -5.820   4.710  15.777  1.00  0.00    -0.248 NA
ATOM     55  C   UNL     1      -4.593   5.652  17.525  1.00  0.00     0.031 C 
ATOM     56  C   UNL     1     -10.249   4.322  15.759  1.00  0.00     0.029 A 
ATOM     57  C   UNL     1      -8.870   4.454  15.788  1.00  0.00     0.049 A 
ATOM     58  H   UNL     1      -7.454   3.934  14.312  1.00  0.00     0.167 HD
ATOM     59  C   UNL     1      -6.689   5.080  16.794  1.00  0.00     0.074 A 
ATOM     60  C   UNL     1      -5.874   5.622  17.861  1.00  0.00     0.031 C 
ATOM     61  C   UNL     1      -8.041   4.985  16.840  1.00  0.00     0.037 A 
BRANCH  48  62
ATOM     62  C   UNL     1     -10.583   2.590  11.741  1.00  0.00     0.064 A 
ATOM     63  C   UNL     1     -10.919   1.249  11.496  1.00  0.00     0.173 A 
ATOM     64  C   UNL     1     -11.471   3.580  11.295  1.00  0.00     0.173 A 
ATOM     65  F   UNL     1     -10.098   0.264  11.889  1.00  0.00    -0.203 F 
ATOM     66  C   UNL     1     -12.083   0.915  10.807  1.00  0.00     0.198 A 
ATOM     67  C   UNL     1     -12.649   3.241  10.634  1.00  0.00     0.198 A 
ATOM     68  F   UNL     1     -11.200   4.877  11.505  1.00  0.00    -0.203 F 
ATOM     69  F   UNL     1     -12.356  -0.369  10.541  1.00  0.00    -0.200 F 
ATOM     70  C   UNL     1     -12.950   1.911  10.384  1.00  0.00     0.200 A 
ATOM     71  F   UNL     1     -13.493   4.203  10.235  1.00  0.00    -0.200 F 
ATOM     72  F   UNL     1     -14.073   1.587   9.728  1.00  0.00    -0.200 F 
ENDBRANCH  48  62
BRANCH  49  73
ATOM     73  C   UNL     1      -2.025   5.230  16.180  1.00  0.00     0.064 A 
ATOM     74  C   UNL     1      -1.562   4.571  17.328  1.00  0.00     0.173 A 
ATOM     75  C   UNL     1      -1.256   6.293  15.684  1.00  0.00     0.173 A 
ATOM     76  F   UNL     1      -2.272   3.560  17.851  1.00  0.00    -0.203 F 
ATOM     77  C   UNL     1      -0.392   4.973  17.968  1.00  0.00     0.198 A 
ATOM     78  C   UNL     1      -0.071   6.676  16.308  1.00  0.00     0.198 A 
ATOM     79  F   UNL     1      -1.651   6.952  14.585  1.00  0.00    -0.203 F 
ATOM     80  F   UNL     1       0.001   4.356  19.090  1.00  0.00    -0.200 F 
ATOM     81  C   UNL     1       0.355   6.022  17.455  1.00  0.00     0.200 A 
ATOM     82  F   UNL     1       0.656   7.681  15.801  1.00  0.00    -0.200 F 
ATOM     83  F   UNL     1       1.482   6.408  18.069  1.00  0.00    -0.200 F 
ENDBRANCH  49  73
BRANCH  61  84
ATOM     84  C   UNL     1      -8.717   5.450  18.096  1.00  0.00     0.064 A 
ATOM     85  C   UNL     1      -8.795   6.811  18.430  1.00  0.00     0.173 A 
ATOM     86  C   UNL     1      -9.314   4.524  18.965  1.00  0.00     0.173 A 
ATOM     87  F   UNL     1      -8.226   7.733  17.639  1.00  0.00    -0.203 F 
ATOM     88  C   UNL     1      -9.418   7.224  19.604  1.00  0.00     0.198 A 
ATOM     89  C   UNL     1      -9.964   4.944  20.122  1.00  0.00     0.198 A 
ATOM     90  F   UNL     1      -9.274   3.213  18.688  1.00  0.00    -0.203 F 
ATOM     91  F   UNL     1      -9.432   8.524  19.930  1.00  0.00    -0.200 F 
ATOM     92  C   UNL     1     -10.007   6.292  20.445  1.00  0.00     0.200 A 
ATOM     93  F   UNL     1     -10.545   4.044  20.927  1.00  0.00    -0.200 F 
ATOM     94  F   UNL     1     -10.609   6.693  21.573  1.00  0.00    -0.200 F 
ENDBRANCH  61  84
ENDBRANCH  35  36
ENDBRANCH  27  30
ENDBRANCH  25  26
ENDBRANCH  24  25
ENDBRANCH   1  24
TORSDOF 14
