REMARK SMILES O=C(NCCCCNC(=O)c1ccccc1Nc1cccc(C(F)(F)F)c1)c1ccc(-c2c3nc(c(-c4c(F)c(F)c(F)c(F)c4F)c4ccc([nH]4)c(-c4c(F)c(F)c(F)c(F)c4F)c4nc(c(-c5c(F)c(F)c(F)c(F)c5F)c5ccc2[nH]5)C=C4)C=C3)cc1
REMARK SMILES IDX 6 1 5 2 4 3 3 4 1 5 2 6 28 8 29 9 90 10 30 11 89 12 31 13
REMARK SMILES IDX 32 14 33 15 83 16 34 17 88 18 82 19 84 20 35 21 87 22 81 23
REMARK SMILES IDX 80 24 36 26 68 27 48 28 67 29 49 30 52 31 66 32 85 33 50 34
REMARK SMILES IDX 51 35 65 37 86 38 53 39 37 40 38 41 46 42 39 43 40 44 44 45
REMARK SMILES IDX 47 46 41 47 42 48 45 49 43 50 69 51 70 52 78 53 71 54 72 55
REMARK SMILES IDX 76 56 79 57 73 58 74 59 77 60 75 61 54 62 55 63 63 64 56 65
REMARK SMILES IDX 57 66 61 67 64 68 58 69 59 70 62 71 60 72 7 73 8 74 9 75
REMARK SMILES IDX 10 77 11 78 12 79 16 80 13 81 15 82 14 83 17 84 18 86 19 87
REMARK SMILES IDX 27 88 20 89 22 90 21 91 23 92 24 93 25 94 26 95
REMARK H PARENT 3 7 84 25 52 36 8 76 17 85
REMARK Flexibility Score: inf
ROOT
ATOM      1  C   UNL     1       4.534  -0.521   3.812  1.00  0.00     0.023 C 
ENDROOT
BRANCH   1   2
ATOM      2  C   UNL     1       5.001   0.161   2.526  1.00  0.00     0.023 C 
BRANCH   2   3
ATOM      3  C   UNL     1       4.646  -0.567   1.235  1.00  0.00     0.116 C 
BRANCH   3   4
ATOM      4  N   UNL     1       3.211  -0.680   1.028  1.00  0.00    -0.352 N 
ATOM      5  O   UNL     1       1.195  -0.194   0.138  1.00  0.00    -0.269 OA
ATOM      6  C   UNL     1       2.419  -0.122   0.056  1.00  0.00     0.251 C 
ATOM      7  H   UNL     1       2.736  -1.240   1.684  1.00  0.00     0.163 HD
BRANCH   6   8
ATOM      8  C   UNL     1       3.034   0.588  -1.085  1.00  0.00     0.039 A 
ATOM      9  C   UNL     1       4.111   0.032  -1.780  1.00  0.00     0.014 A 
ATOM     10  C   UNL     1       2.508   1.822  -1.476  1.00  0.00     0.014 A 
ATOM     11  C   UNL     1       4.750   0.768  -2.773  1.00  0.00     0.010 A 
ATOM     12  C   UNL     1       3.099   2.523  -2.529  1.00  0.00     0.010 A 
ATOM     13  C   UNL     1       4.242   2.014  -3.167  1.00  0.00    -0.014 A 
BRANCH  13  14
ATOM     14  C   UNL     1       4.871   2.757  -4.288  1.00  0.00     0.031 A 
ATOM     15  C   UNL     1       5.506   4.098  -4.063  1.00  0.00     0.074 A 
ATOM     16  C   UNL     1       4.830   2.227  -5.524  1.00  0.00     0.049 A 
ATOM     17  N   UNL     1       6.017   4.929  -4.936  1.00  0.00    -0.248 NA
ATOM     18  C   UNL     1       5.564   4.574  -2.674  1.00  0.00     0.031 C 
ATOM     19  C   UNL     1       4.235   0.934  -5.864  1.00  0.00     0.029 A 
ATOM     20  N   UNL     1       5.279   2.715  -6.725  1.00  0.00    -0.354 N 
ATOM     21  C   UNL     1       6.434   6.035  -4.208  1.00  0.00     0.074 A 
ATOM     22  C   UNL     1       6.092   5.780  -2.825  1.00  0.00     0.031 C 
ATOM     23  C   UNL     1       4.355   0.729  -7.183  1.00  0.00     0.029 A 
ATOM     24  C   UNL     1       4.973   1.904  -7.789  1.00  0.00     0.049 A 
ATOM     25  H   UNL     1       5.771   3.563  -6.815  1.00  0.00     0.167 HD
ATOM     26  C   UNL     1       7.048   7.157  -4.659  1.00  0.00     0.037 A 
ATOM     27  C   UNL     1       5.130   2.099  -9.112  1.00  0.00     0.037 A 
ATOM     28  C   UNL     1       7.381   7.396  -6.040  1.00  0.00     0.049 A 
ATOM     29  C   UNL     1       5.769   3.368  -9.595  1.00  0.00     0.074 A 
ATOM     30  C   UNL     1       8.048   8.475  -6.593  1.00  0.00     0.029 A 
ATOM     31  N   UNL     1       7.055   6.549  -7.091  1.00  0.00    -0.354 N 
ATOM     32  N   UNL     1       6.204   4.388  -8.896  1.00  0.00    -0.248 NA
ATOM     33  C   UNL     1       5.942   3.515 -11.046  1.00  0.00     0.031 C 
ATOM     34  C   UNL     1       8.062   8.316  -7.982  1.00  0.00     0.029 A 
ATOM     35  C   UNL     1       7.472   7.101  -8.293  1.00  0.00     0.049 A 
ATOM     36  H   UNL     1       6.594   5.683  -6.997  1.00  0.00     0.167 HD
ATOM     37  C   UNL     1       6.726   5.287  -9.816  1.00  0.00     0.074 A 
ATOM     38  C   UNL     1       6.555   4.689 -11.125  1.00  0.00     0.031 C 
ATOM     39  C   UNL     1       7.301   6.493  -9.591  1.00  0.00     0.037 A 
BRANCH  26  40
ATOM     40  C   UNL     1       7.357   8.231  -3.652  1.00  0.00     0.064 A 
ATOM     41  C   UNL     1       8.311   8.051  -2.639  1.00  0.00     0.173 A 
ATOM     42  C   UNL     1       6.693   9.467  -3.710  1.00  0.00     0.173 A 
ATOM     43  F   UNL     1       8.974   6.889  -2.533  1.00  0.00    -0.203 F 
ATOM     44  C   UNL     1       8.552   9.047  -1.694  1.00  0.00     0.198 A 
ATOM     45  C   UNL     1       6.963  10.474  -2.786  1.00  0.00     0.198 A 
ATOM     46  F   UNL     1       5.779   9.701  -4.664  1.00  0.00    -0.203 F 
ATOM     47  F   UNL     1       9.418   8.825  -0.696  1.00  0.00    -0.200 F 
ATOM     48  C   UNL     1       7.881  10.258  -1.771  1.00  0.00     0.200 A 
ATOM     49  F   UNL     1       6.326  11.650  -2.874  1.00  0.00    -0.200 F 
ATOM     50  F   UNL     1       8.112  11.213  -0.860  1.00  0.00    -0.200 F 
ENDBRANCH  26  40
BRANCH  27  51
ATOM     51  C   UNL     1       4.644   1.059 -10.055  1.00  0.00     0.064 A 
ATOM     52  C   UNL     1       5.539   0.256 -10.771  1.00  0.00     0.173 A 
ATOM     53  C   UNL     1       3.271   0.807 -10.206  1.00  0.00     0.173 A 
ATOM     54  F   UNL     1       6.859   0.469 -10.669  1.00  0.00    -0.203 F 
ATOM     55  C   UNL     1       5.080  -0.761 -11.606  1.00  0.00     0.198 A 
ATOM     56  C   UNL     1       2.815  -0.229 -11.017  1.00  0.00     0.198 A 
ATOM     57  F   UNL     1       2.375   1.542  -9.532  1.00  0.00    -0.203 F 
ATOM     58  F   UNL     1       5.956  -1.501 -12.300  1.00  0.00    -0.200 F 
ATOM     59  C   UNL     1       3.720  -1.009 -11.720  1.00  0.00     0.200 A 
ATOM     60  F   UNL     1       1.502  -0.480 -11.105  1.00  0.00    -0.200 F 
ATOM     61  F   UNL     1       3.281  -2.002 -12.505  1.00  0.00    -0.200 F 
ENDBRANCH  27  51
BRANCH  39  62
ATOM     62  C   UNL     1       7.834   7.243 -10.777  1.00  0.00     0.064 A 
ATOM     63  C   UNL     1       6.985   7.867 -11.702  1.00  0.00     0.173 A 
ATOM     64  C   UNL     1       9.219   7.404 -10.943  1.00  0.00     0.173 A 
ATOM     65  F   UNL     1       5.655   7.728 -11.599  1.00  0.00    -0.203 F 
ATOM     66  C   UNL     1       7.504   8.621 -12.752  1.00  0.00     0.198 A 
ATOM     67  C   UNL     1       9.732   8.184 -11.975  1.00  0.00     0.198 A 
ATOM     68  F   UNL     1      10.073   6.829 -10.083  1.00  0.00    -0.203 F 
ATOM     69  F   UNL     1       6.676   9.185 -13.643  1.00  0.00    -0.200 F 
ATOM     70  C   UNL     1       8.875   8.790 -12.880  1.00  0.00     0.200 A 
ATOM     71  F   UNL     1      11.056   8.357 -12.086  1.00  0.00    -0.200 F 
ATOM     72  F   UNL     1       9.370   9.535 -13.877  1.00  0.00    -0.200 F 
ENDBRANCH  39  62
ENDBRANCH  13  14
ENDBRANCH   6   8
ENDBRANCH   3   4
ENDBRANCH   2   3
ENDBRANCH   1   2
BRANCH   1  73
ATOM     73  C   UNL     1       4.923  -1.990   3.950  1.00  0.00     0.116 C 
BRANCH  73  74
ATOM     74  N   UNL     1       6.360  -2.201   3.904  1.00  0.00    -0.352 N 
ATOM     75  C   UNL     1       7.133  -3.025   4.684  1.00  0.00     0.253 C 
ATOM     76  H   UNL     1       6.845  -1.684   3.220  1.00  0.00     0.163 HD
ATOM     77  O   UNL     1       8.353  -3.026   4.542  1.00  0.00    -0.269 OA
BRANCH  75  78
ATOM     78  C   UNL     1       6.516  -3.886   5.716  1.00  0.00     0.063 A 
ATOM     79  C   UNL     1       6.982  -3.707   7.028  1.00  0.00     0.016 A 
ATOM     80  C   UNL     1       5.540  -4.859   5.419  1.00  0.00     0.051 A 
ATOM     81  C   UNL     1       6.443  -4.455   8.071  1.00  0.00     0.001 A 
ATOM     82  C   UNL     1       4.999  -5.583   6.494  1.00  0.00     0.027 A 
ATOM     83  C   UNL     1       5.444  -5.385   7.805  1.00  0.00     0.002 A 
BRANCH  80  84
ATOM     84  N   UNL     1       5.094  -5.088   4.100  1.00  0.00    -0.355 N 
ATOM     85  H   UNL     1       5.769  -4.916   3.405  1.00  0.00     0.167 HD
BRANCH  84  86
ATOM     86  C   UNL     1       3.850  -5.519   3.609  1.00  0.00     0.039 A 
ATOM     87  C   UNL     1       3.805  -6.271   2.429  1.00  0.00     0.026 A 
ATOM     88  C   UNL     1       2.649  -5.276   4.289  1.00  0.00     0.039 A 
ATOM     89  C   UNL     1       2.596  -6.775   1.945  1.00  0.00     0.003 A 
ATOM     90  C   UNL     1       1.423  -5.766   3.811  1.00  0.00     0.058 A 
ATOM     91  C   UNL     1       1.411  -6.527   2.634  1.00  0.00     0.013 A 
BRANCH  90  92
ATOM     92  C   UNL     1       0.139  -5.507   4.558  1.00  0.00     0.416 C 
ATOM     93  F   UNL     1      -0.847  -5.020   3.754  1.00  0.00    -0.166 F 
ATOM     94  F   UNL     1      -0.366  -6.636   5.128  1.00  0.00    -0.166 F 
ATOM     95  F   UNL     1       0.271  -4.605   5.571  1.00  0.00    -0.166 F 
ENDBRANCH  90  92
ENDBRANCH  84  86
ENDBRANCH  80  84
ENDBRANCH  75  78
ENDBRANCH  73  74
ENDBRANCH   1  73
TORSDOF 14
