REMARK SMILES CC[C@H](C(=O)NCc1ccc(C(=O)NCCCCNC(=O)c2ccc(-c3c4nc(c(-c5c(F)c(F)c(F)c(F)c5F)c5ccc([nH]5)c(-c5c(F)c(F)c(F)c(F)c5F)c5nc(c(-c6c(F)c(F)c(F)c(F)c6F)c6ccc3[nH]6)C=C5)C=C4)cc2)o1)c1ccccc1
REMARK SMILES IDX 15 1 14 2 12 3 13 4 11 6 8 7 9 8 85 9 10 10 7 11 6 12 4 13
REMARK SMILES IDX 5 14 3 16 2 17 1 18 86 19 87 20 91 21 88 22 90 23 89 24
REMARK SMILES IDX 16 25 17 26 18 27 19 28 20 29 21 31 22 32 23 33 84 34 24 35
REMARK SMILES IDX 83 36 25 37 26 38 27 39 77 40 28 41 82 42 76 43 78 44 29 45
REMARK SMILES IDX 81 46 75 47 74 48 30 50 62 51 42 52 61 53 43 54 46 55 60 56
REMARK SMILES IDX 79 57 44 58 45 59 59 61 80 62 47 63 31 64 32 65 40 66 33 67
REMARK SMILES IDX 34 68 38 69 41 70 35 71 36 72 39 73 37 74 63 75 64 76 72 77
REMARK SMILES IDX 65 78 66 79 70 80 73 81 67 82 68 83 71 84 69 85 48 86 49 87
REMARK SMILES IDX 57 88 50 89 51 90 55 91 58 92 52 93 53 94 56 95 54 96
REMARK H PARENT 14 5 6 15 19 30 78 49 46 60
REMARK Flexibility Score: inf
ROOT
ATOM      1  C   UNL     1       5.171  -0.647   5.298  1.00  0.00     0.116 C 
ENDROOT
BRANCH   1   2
ATOM      2  N   UNL     1       5.249  -1.794   4.432  1.00  0.00    -0.349 N 
ATOM      3  C   UNL     1       4.386  -2.171   3.435  1.00  0.00     0.286 C 
ATOM      4  O   UNL     1       4.664  -3.208   2.833  1.00  0.00    -0.266 OA
ATOM      5  H   UNL     1       6.023  -2.386   4.574  1.00  0.00     0.163 HD
BRANCH   3   6
ATOM      6  C   UNL     1       3.238  -1.346   3.114  1.00  0.00     0.191 A 
ATOM      7  C   UNL     1       1.671  -0.700   1.709  1.00  0.00     0.124 A 
ATOM      8  C   UNL     1       1.440   0.006   2.865  1.00  0.00     0.048 A 
ATOM      9  O   UNL     1       2.772  -1.476   1.841  1.00  0.00    -0.454 OA
ATOM     10  C   UNL     1       2.421  -0.450   3.785  1.00  0.00     0.056 A 
BRANCH   7  11
ATOM     11  C   UNL     1       0.884  -1.010   0.514  1.00  0.00     0.191 C 
BRANCH  11  12
ATOM     12  N   UNL     1       0.512   0.097  -0.309  1.00  0.00    -0.348 N 
ATOM     13  C   UNL     1      -0.057  -0.065  -1.553  1.00  0.00     0.227 C 
ATOM     14  O   UNL     1      -0.875   0.792  -1.892  1.00  0.00    -0.274 OA
ATOM     15  H   UNL     1       0.667   1.010   0.026  1.00  0.00     0.163 HD
BRANCH  13  16
ATOM     16  C   UNL     1       0.398  -1.253  -2.462  1.00  0.00     0.108 C 
BRANCH  16  17
ATOM     17  C   UNL     1      -0.288  -2.629  -2.166  1.00  0.00     0.015 C 
ATOM     18  C   UNL     1      -0.912  -2.990  -0.834  1.00  0.00     0.005 C 
ENDBRANCH  16  17
BRANCH  16  19
ATOM     19  C   UNL     1       0.266  -0.964  -3.989  1.00  0.00    -0.036 A 
ATOM     20  C   UNL     1       0.218   0.336  -4.514  1.00  0.00     0.004 A 
ATOM     21  C   UNL     1       0.139  -2.025  -4.913  1.00  0.00     0.004 A 
ATOM     22  C   UNL     1      -0.134   0.562  -5.851  1.00  0.00     0.000 A 
ATOM     23  C   UNL     1      -0.230  -1.804  -6.241  1.00  0.00     0.000 A 
ATOM     24  C   UNL     1      -0.399  -0.507  -6.702  1.00  0.00     0.000 A 
ENDBRANCH  16  19
ENDBRANCH  13  16
ENDBRANCH  11  12
ENDBRANCH   7  11
ENDBRANCH   3   6
ENDBRANCH   1   2
BRANCH   1  25
ATOM     25  C   UNL     1       4.481  -1.035   6.604  1.00  0.00     0.023 C 
BRANCH  25  26
ATOM     26  C   UNL     1       5.429  -1.689   7.610  1.00  0.00     0.023 C 
BRANCH  26  27
ATOM     27  C   UNL     1       6.644  -0.838   7.960  1.00  0.00     0.116 C 
BRANCH  27  28
ATOM     28  N   UNL     1       6.291   0.516   8.360  1.00  0.00    -0.352 N 
ATOM     29  C   UNL     1       6.964   1.354   9.209  1.00  0.00     0.251 C 
ATOM     30  H   UNL     1       5.462   0.876   7.969  1.00  0.00     0.163 HD
ATOM     31  O   UNL     1       6.467   2.418   9.560  1.00  0.00    -0.269 OA
BRANCH  29  32
ATOM     32  C   UNL     1       8.276   0.932   9.727  1.00  0.00     0.039 A 
ATOM     33  C   UNL     1       8.504   1.005  11.100  1.00  0.00     0.014 A 
ATOM     34  C   UNL     1       9.250   0.419   8.865  1.00  0.00     0.014 A 
ATOM     35  C   UNL     1       9.699   0.512  11.616  1.00  0.00     0.010 A 
ATOM     36  C   UNL     1      10.400  -0.154   9.392  1.00  0.00     0.010 A 
ATOM     37  C   UNL     1      10.640  -0.105  10.772  1.00  0.00    -0.014 A 
BRANCH  37  38
ATOM     38  C   UNL     1      11.867  -0.708  11.341  1.00  0.00     0.031 A 
ATOM     39  C   UNL     1      13.222  -0.167  10.985  1.00  0.00     0.074 A 
ATOM     40  C   UNL     1      11.751  -1.761  12.173  1.00  0.00     0.049 A 
ATOM     41  N   UNL     1      14.398  -0.523  11.438  1.00  0.00    -0.248 NA
ATOM     42  C   UNL     1      13.270   0.894   9.967  1.00  0.00     0.031 C 
ATOM     43  C   UNL     1      10.492  -2.420  12.530  1.00  0.00     0.029 A 
ATOM     44  N   UNL     1      12.700  -2.453  12.880  1.00  0.00    -0.354 N 
ATOM     45  C   UNL     1      15.318   0.269  10.765  1.00  0.00     0.074 A 
ATOM     46  C   UNL     1      14.574   1.072   9.820  1.00  0.00     0.031 C 
ATOM     47  C   UNL     1      10.741  -3.384  13.429  1.00  0.00     0.029 A 
ATOM     48  C   UNL     1      12.176  -3.435  13.685  1.00  0.00     0.049 A 
ATOM     49  H   UNL     1      13.664  -2.264  12.818  1.00  0.00     0.167 HD
ATOM     50  C   UNL     1      16.658   0.342  10.943  1.00  0.00     0.037 A 
ATOM     51  C   UNL     1      12.787  -4.273  14.543  1.00  0.00     0.037 A 
ATOM     52  C   UNL     1      17.389  -0.458  11.892  1.00  0.00     0.049 A 
ATOM     53  C   UNL     1      14.275  -4.163  14.727  1.00  0.00     0.074 A 
ATOM     54  C   UNL     1      18.740  -0.427  12.188  1.00  0.00     0.029 A 
ATOM     55  N   UNL     1      16.827  -1.442  12.694  1.00  0.00    -0.354 N 
ATOM     56  N   UNL     1      15.126  -3.347  14.153  1.00  0.00    -0.248 NA
ATOM     57  C   UNL     1      14.886  -5.082  15.696  1.00  0.00     0.031 C 
ATOM     58  C   UNL     1      19.005  -1.431  13.126  1.00  0.00     0.029 A 
ATOM     59  C   UNL     1      17.809  -2.042  13.466  1.00  0.00     0.049 A 
ATOM     60  H   UNL     1      15.872  -1.678  12.711  1.00  0.00     0.167 HD
ATOM     61  C   UNL     1      16.365  -3.634  14.708  1.00  0.00     0.074 A 
ATOM     62  C   UNL     1      16.147  -4.679  15.688  1.00  0.00     0.031 C 
ATOM     63  C   UNL     1      17.576  -3.088  14.431  1.00  0.00     0.037 A 
BRANCH  50  64
ATOM     64  C   UNL     1      17.419   1.321  10.094  1.00  0.00     0.064 A 
ATOM     65  C   UNL     1      17.263   2.709  10.247  1.00  0.00     0.173 A 
ATOM     66  C   UNL     1      18.340   0.871   9.136  1.00  0.00     0.173 A 
ATOM     67  F   UNL     1      16.386   3.195  11.138  1.00  0.00    -0.203 F 
ATOM     68  C   UNL     1      17.976   3.604   9.454  1.00  0.00     0.198 A 
ATOM     69  C   UNL     1      19.078   1.770   8.370  1.00  0.00     0.198 A 
ATOM     70  F   UNL     1      18.532  -0.443   8.947  1.00  0.00    -0.203 F 
ATOM     71  F   UNL     1      17.768   4.922   9.582  1.00  0.00    -0.200 F 
ATOM     72  C   UNL     1      18.889   3.135   8.523  1.00  0.00     0.200 A 
ATOM     73  F   UNL     1      19.970   1.314   7.480  1.00  0.00    -0.200 F 
ATOM     74  F   UNL     1      19.582   3.998   7.767  1.00  0.00    -0.200 F 
ENDBRANCH  50  64
BRANCH  51  75
ATOM     75  C   UNL     1      11.988  -5.258  15.318  1.00  0.00     0.064 A 
ATOM     76  C   UNL     1      11.856  -5.147  16.710  1.00  0.00     0.173 A 
ATOM     77  C   UNL     1      11.348  -6.335  14.688  1.00  0.00     0.173 A 
ATOM     78  F   UNL     1      12.461  -4.144  17.363  1.00  0.00    -0.203 F 
ATOM     79  C   UNL     1      11.141  -6.092  17.444  1.00  0.00     0.198 A 
ATOM     80  C   UNL     1      10.605  -7.260  15.418  1.00  0.00     0.198 A 
ATOM     81  F   UNL     1      11.434  -6.482  13.357  1.00  0.00    -0.203 F 
ATOM     82  F   UNL     1      11.079  -5.993  18.779  1.00  0.00    -0.200 F 
ATOM     83  C   UNL     1      10.512  -7.144  16.797  1.00  0.00     0.200 A 
ATOM     84  F   UNL     1       9.982  -8.264  14.786  1.00  0.00    -0.200 F 
ATOM     85  F   UNL     1       9.822  -8.051  17.502  1.00  0.00    -0.200 F 
ENDBRANCH  51  75
BRANCH  63  86
ATOM     86  C   UNL     1      18.747  -3.594  15.226  1.00  0.00     0.064 A 
ATOM     87  C   UNL     1      19.227  -4.906  15.085  1.00  0.00     0.173 A 
ATOM     88  C   UNL     1      19.391  -2.759  16.152  1.00  0.00     0.173 A 
ATOM     89  F   UNL     1      18.641  -5.750  14.222  1.00  0.00    -0.203 F 
ATOM     90  C   UNL     1      20.268  -5.378  15.880  1.00  0.00     0.198 A 
ATOM     91  C   UNL     1      20.459  -3.221  16.915  1.00  0.00     0.198 A 
ATOM     92  F   UNL     1      18.983  -1.492  16.320  1.00  0.00    -0.203 F 
ATOM     93  F   UNL     1      20.653  -6.658  15.785  1.00  0.00    -0.200 F 
ATOM     94  C   UNL     1      20.886  -4.534  16.791  1.00  0.00     0.200 A 
ATOM     95  F   UNL     1      21.067  -2.399  17.782  1.00  0.00    -0.200 F 
ATOM     96  F   UNL     1      21.883  -4.992  17.560  1.00  0.00    -0.200 F 
ENDBRANCH  63  86
ENDBRANCH  37  38
ENDBRANCH  29  32
ENDBRANCH  27  28
ENDBRANCH  26  27
ENDBRANCH  25  26
ENDBRANCH   1  25
TORSDOF 16
