REMARK SMILES CC(C)[NH2+][C@]1(C(=O)NCCCCNC(=O)c2ccc(-c3c4nc(c(-c5c(F)c(F)c(F)c(F)c5F)c5ccc([nH]5)c(-c5c(F)c(F)c(F)c(F)c5F)c5nc(c(-c6c(F)c(F)c(F)c(F)c6F)c6ccc3[nH]6)C=C5)C=C4)cc2)CCC[C@H]([N@H+](C)C2CCCCC2)C1
REMARK SMILES IDX 10 1 9 2 8 3 6 4 7 5 5 7 79 8 91 9 80 10 82 11 81 12 4 13
REMARK SMILES IDX 2 16 1 17 3 18 83 19 84 20 85 22 86 23 90 24 87 25 89 26
REMARK SMILES IDX 88 27 11 28 12 29 13 30 14 31 15 33 16 34 17 35 78 36 18 37
REMARK SMILES IDX 77 38 19 39 20 40 21 41 71 42 22 43 76 44 70 45 72 46 23 47
REMARK SMILES IDX 75 48 69 49 68 50 24 52 56 53 36 54 55 55 37 56 40 57 54 58
REMARK SMILES IDX 73 59 38 60 39 61 53 63 74 64 41 65 25 66 26 67 34 68 27 69
REMARK SMILES IDX 28 70 32 71 35 72 29 73 30 74 33 75 31 76 57 77 58 78 66 79
REMARK SMILES IDX 59 80 60 81 64 82 67 83 61 84 62 85 65 86 63 87 42 88 43 89
REMARK SMILES IDX 51 90 44 91 45 92 49 93 52 94 46 95 47 96 50 97 48 98
REMARK H PARENT 8 6 4 14 4 15 83 21 13 32 72 51 40 62
REMARK Flexibility Score: inf
ROOT
ATOM      1  C   UNL     1       2.807  -0.106   1.970  1.00  0.00     0.023 C 
ENDROOT
BRANCH   1   2
ATOM      2  C   UNL     1       1.746   0.892   2.427  1.00  0.00     0.116 C 
BRANCH   2   3
ATOM      3  N   UNL     1       0.589   0.872   1.582  1.00  0.00    -0.351 N 
ATOM      4  C   UNL     1      -0.672   0.424   1.757  1.00  0.00     0.281 C 
ATOM      5  O   UNL     1      -1.348   0.491   0.716  1.00  0.00    -0.268 OA
ATOM      6  H   UNL     1       0.745   1.265   0.693  1.00  0.00     0.163 HD
BRANCH   4   7
ATOM      7  C   UNL     1      -1.232  -0.279   3.062  1.00  0.00     0.181 C 
ATOM      8  C   UNL     1      -0.796  -1.777   2.810  1.00  0.00     0.079 C 
ATOM      9  C   UNL     1      -0.785   0.048   4.497  1.00  0.00     0.144 C 
ATOM     10  C   UNL     1      -0.639  -2.791   3.966  1.00  0.00     0.013 C 
ATOM     11  C   UNL     1      -1.387  -0.928   5.574  1.00  0.00     0.190 C 
ATOM     12  C   UNL     1      -0.685  -2.271   5.391  1.00  0.00     0.065 C 
BRANCH   7  13
ATOM     13  N   UNL     1      -2.709  -0.043   3.045  1.00  0.00    -0.331 N 
ATOM     14  H   UNL     1      -3.088  -0.600   2.278  1.00  0.00     0.347 HD
ATOM     15  H   UNL     1      -3.000  -0.294   3.990  1.00  0.00     0.347 HD
BRANCH  13  16
ATOM     16  C   UNL     1      -3.232   1.330   2.876  1.00  0.00     0.176 C 
ATOM     17  C   UNL     1      -4.654   1.171   2.322  1.00  0.00     0.075 C 
ATOM     18  C   UNL     1      -3.339   2.167   4.159  1.00  0.00     0.075 C 
ENDBRANCH  13  16
ENDBRANCH   7  13
BRANCH  11  19
ATOM     19  N   UNL     1      -2.886  -0.874   5.714  1.00  0.00    -0.332 N 
ATOM     20  C   UNL     1      -3.182  -0.178   6.984  1.00  0.00     0.333 C 
ATOM     21  H   UNL     1      -3.195  -0.377   4.878  1.00  0.00     0.348 HD
BRANCH  19  22
ATOM     22  C   UNL     1      -3.720  -2.125   5.552  1.00  0.00     0.184 C 
ATOM     23  C   UNL     1      -5.178  -1.971   6.098  1.00  0.00     0.065 C 
ATOM     24  C   UNL     1      -3.926  -2.546   4.074  1.00  0.00     0.065 C 
ATOM     25  C   UNL     1      -6.079  -3.193   5.859  1.00  0.00     0.006 C 
ATOM     26  C   UNL     1      -4.666  -3.864   3.918  1.00  0.00     0.006 C 
ATOM     27  C   UNL     1      -6.085  -3.684   4.418  1.00  0.00     0.000 C 
ENDBRANCH  19  22
ENDBRANCH  11  19
ENDBRANCH   4   7
ENDBRANCH   2   3
ENDBRANCH   1   2
BRANCH   1  28
ATOM     28  C   UNL     1       3.498   0.252   0.654  1.00  0.00     0.023 C 
BRANCH  28  29
ATOM     29  C   UNL     1       3.924   1.708   0.527  1.00  0.00     0.116 C 
BRANCH  29  30
ATOM     30  N   UNL     1       4.636   2.209   1.696  1.00  0.00    -0.352 N 
ATOM     31  C   UNL     1       5.635   3.151   1.752  1.00  0.00     0.251 C 
ATOM     32  H   UNL     1       4.365   1.821   2.559  1.00  0.00     0.163 HD
ATOM     33  O   UNL     1       6.165   3.448   2.807  1.00  0.00    -0.269 OA
BRANCH  31  34
ATOM     34  C   UNL     1       6.088   3.747   0.484  1.00  0.00     0.039 A 
ATOM     35  C   UNL     1       7.433   3.620   0.138  1.00  0.00     0.014 A 
ATOM     36  C   UNL     1       5.163   4.314  -0.396  1.00  0.00     0.014 A 
ATOM     37  C   UNL     1       7.843   4.000  -1.137  1.00  0.00     0.010 A 
ATOM     38  C   UNL     1       5.559   4.614  -1.691  1.00  0.00     0.010 A 
ATOM     39  C   UNL     1       6.901   4.458  -2.072  1.00  0.00    -0.014 A 
BRANCH  39  40
ATOM     40  C   UNL     1       7.301   4.787  -3.459  1.00  0.00     0.031 A 
ATOM     41  C   UNL     1       7.168   6.197  -3.955  1.00  0.00     0.074 A 
ATOM     42  C   UNL     1       7.716   3.806  -4.284  1.00  0.00     0.049 A 
ATOM     43  N   UNL     1       7.393   6.678  -5.151  1.00  0.00    -0.248 NA
ATOM     44  C   UNL     1       6.684   7.194  -2.987  1.00  0.00     0.031 C 
ATOM     45  C   UNL     1       7.829   2.390  -3.928  1.00  0.00     0.029 A 
ATOM     46  N   UNL     1       8.111   3.850  -5.597  1.00  0.00    -0.354 N 
ATOM     47  C   UNL     1       7.062   8.024  -5.080  1.00  0.00     0.074 A 
ATOM     48  C   UNL     1       6.563   8.272  -3.746  1.00  0.00     0.031 C 
ATOM     49  C   UNL     1       8.288   1.706  -4.988  1.00  0.00     0.029 A 
ATOM     50  C   UNL     1       8.469   2.626  -6.106  1.00  0.00     0.049 A 
ATOM     51  H   UNL     1       8.135   4.681  -6.124  1.00  0.00     0.167 HD
ATOM     52  C   UNL     1       7.193   8.975  -6.034  1.00  0.00     0.037 A 
ATOM     53  C   UNL     1       8.892   2.289  -7.338  1.00  0.00     0.037 A 
ATOM     54  C   UNL     1       7.719   8.726  -7.349  1.00  0.00     0.049 A 
ATOM     55  C   UNL     1       9.037   3.366  -8.379  1.00  0.00     0.074 A 
ATOM     56  C   UNL     1       7.950   9.628  -8.372  1.00  0.00     0.029 A 
ATOM     57  N   UNL     1       8.100   7.478  -7.821  1.00  0.00    -0.354 N 
ATOM     58  N   UNL     1       8.790   4.650  -8.281  1.00  0.00    -0.248 NA
ATOM     59  C   UNL     1       9.528   2.949  -9.699  1.00  0.00     0.031 C 
ATOM     60  C   UNL     1       8.432   8.920  -9.477  1.00  0.00     0.029 A 
ATOM     61  C   UNL     1       8.549   7.584  -9.127  1.00  0.00     0.049 A 
ATOM     62  H   UNL     1       8.057   6.641  -7.304  1.00  0.00     0.167 HD
ATOM     63  C   UNL     1       9.119   5.198  -9.513  1.00  0.00     0.074 A 
ATOM     64  C   UNL     1       9.600   4.108 -10.338  1.00  0.00     0.031 C 
ATOM     65  C   UNL     1       9.032   6.486  -9.925  1.00  0.00     0.037 A 
BRANCH  52  66
ATOM     66  C   UNL     1       6.768  10.370  -5.682  1.00  0.00     0.064 A 
ATOM     67  C   UNL     1       7.486  11.144  -4.757  1.00  0.00     0.173 A 
ATOM     68  C   UNL     1       5.642  10.947  -6.287  1.00  0.00     0.173 A 
ATOM     69  F   UNL     1       8.560  10.632  -4.138  1.00  0.00    -0.203 F 
ATOM     70  C   UNL     1       7.075  12.433  -4.429  1.00  0.00     0.198 A 
ATOM     71  C   UNL     1       5.253  12.248  -5.980  1.00  0.00     0.198 A 
ATOM     72  F   UNL     1       4.922  10.251  -7.179  1.00  0.00    -0.203 F 
ATOM     73  F   UNL     1       7.745  13.132  -3.503  1.00  0.00    -0.200 F 
ATOM     74  C   UNL     1       5.963  12.986  -5.046  1.00  0.00     0.200 A 
ATOM     75  F   UNL     1       4.184  12.786  -6.585  1.00  0.00    -0.200 F 
ATOM     76  F   UNL     1       5.572  14.229  -4.733  1.00  0.00    -0.200 F 
ENDBRANCH  52  66
BRANCH  53  77
ATOM     77  C   UNL     1       9.241   0.878  -7.645  1.00  0.00     0.064 A 
ATOM     78  C   UNL     1      10.573   0.499  -7.862  1.00  0.00     0.173 A 
ATOM     79  C   UNL     1       8.257  -0.118  -7.731  1.00  0.00     0.173 A 
ATOM     80  F   UNL     1      11.547   1.419  -7.809  1.00  0.00    -0.203 F 
ATOM     81  C   UNL     1      10.906  -0.818  -8.173  1.00  0.00     0.198 A 
ATOM     82  C   UNL     1       8.594  -1.440  -8.015  1.00  0.00     0.198 A 
ATOM     83  F   UNL     1       6.968   0.192  -7.526  1.00  0.00    -0.203 F 
ATOM     84  F   UNL     1      12.182  -1.144  -8.418  1.00  0.00    -0.200 F 
ATOM     85  C   UNL     1       9.917  -1.787  -8.244  1.00  0.00     0.200 A 
ATOM     86  F   UNL     1       7.637  -2.376  -8.069  1.00  0.00    -0.200 F 
ATOM     87  F   UNL     1      10.238  -3.054  -8.540  1.00  0.00    -0.200 F 
ENDBRANCH  53  77
BRANCH  65  88
ATOM     88  C   UNL     1       9.498   6.794 -11.318  1.00  0.00     0.064 A 
ATOM     89  C   UNL     1       8.759   6.405 -12.444  1.00  0.00     0.173 A 
ATOM     90  C   UNL     1      10.676   7.528 -11.524  1.00  0.00     0.173 A 
ATOM     91  F   UNL     1       7.634   5.689 -12.299  1.00  0.00    -0.203 F 
ATOM     92  C   UNL     1       9.195   6.720 -13.728  1.00  0.00     0.198 A 
ATOM     93  C   UNL     1      11.094   7.866 -12.807  1.00  0.00     0.198 A 
ATOM     94  F   UNL     1      11.415   7.930 -10.478  1.00  0.00    -0.203 F 
ATOM     95  F   UNL     1       8.498   6.299 -14.792  1.00  0.00    -0.200 F 
ATOM     96  C   UNL     1      10.357   7.456 -13.908  1.00  0.00     0.200 A 
ATOM     97  F   UNL     1      12.208   8.590 -12.979  1.00  0.00    -0.200 F 
ATOM     98  F   UNL     1      10.770   7.765 -15.145  1.00  0.00    -0.200 F 
ENDBRANCH  65  88
ENDBRANCH  39  40
ENDBRANCH  31  34
ENDBRANCH  29  30
ENDBRANCH  28  29
ENDBRANCH   1  28
TORSDOF 15
