REMARK SMILES COC(=O)c1ccc(Cl)c(-c2ccc(C(=O)NCCCCNC(=O)c3ccc(-c4c5nc(c(-c6c(F)c(F)c(F)c(F)c6F)c6ccc([nH]6)c(-c6c(F)c(F)c(F)c(F)c6F)c6nc(c(-c7c(F)c(F)c(F)c(F)c7F)c7ccc4[nH]7)C=C6)C=C5)cc3)nc2)c1
REMARK SMILES IDX 19 1 18 2 17 3 15 4 16 5 14 7 11 8 12 9 89 10 13 11 88 12
REMARK SMILES IDX 10 13 5 14 6 15 90 16 7 17 8 18 9 19 3 20 4 21 2 22 1 23
REMARK SMILES IDX 20 24 21 25 22 26 23 27 24 29 25 30 26 31 87 32 27 33 86 34
REMARK SMILES IDX 28 35 29 36 30 37 80 38 31 39 85 40 79 41 81 42 32 43 84 44
REMARK SMILES IDX 78 45 77 46 33 48 65 49 45 50 64 51 46 52 49 53 63 54 82 55
REMARK SMILES IDX 47 56 48 57 62 59 83 60 50 61 34 62 35 63 43 64 36 65 37 66
REMARK SMILES IDX 41 67 44 68 38 69 39 70 42 71 40 72 66 73 67 74 75 75 68 76
REMARK SMILES IDX 69 77 73 78 76 79 70 80 71 81 74 82 72 83 51 84 52 85 60 86
REMARK SMILES IDX 53 87 54 88 58 89 61 90 55 91 56 92 59 93 57 94
REMARK H PARENT 17 6 22 28 81 47 49 58
REMARK Flexibility Score: inf
ROOT
ATOM      1  C   UNL     1       3.604  -9.716  -7.570  1.00  0.00     0.023 C 
ENDROOT
BRANCH   1   2
ATOM      2  C   UNL     1       3.242 -10.473  -6.290  1.00  0.00     0.116 C 
BRANCH   2   3
ATOM      3  N   UNL     1       4.288 -10.322  -5.303  1.00  0.00    -0.351 N 
ATOM      4  C   UNL     1       4.453  -9.478  -4.228  1.00  0.00     0.269 C 
ATOM      5  O   UNL     1       5.498  -9.628  -3.590  1.00  0.00    -0.268 OA
ATOM      6  H   UNL     1       5.035 -10.952  -5.425  1.00  0.00     0.163 HD
BRANCH   4   7
ATOM      7  C   UNL     1       3.446  -8.442  -3.793  1.00  0.00     0.128 A 
ATOM      8  C   UNL     1       1.658  -6.592  -2.740  1.00  0.00     0.002 A 
ATOM      9  C   UNL     1       1.530  -7.020  -4.061  1.00  0.00     0.013 A 
ATOM     10  C   UNL     1       2.730  -7.108  -2.022  1.00  0.00     0.120 A 
ATOM     11  C   UNL     1       2.446  -7.922  -4.602  1.00  0.00     0.035 A 
ATOM     12  N   UNL     1       3.603  -8.021  -2.508  1.00  0.00    -0.250 NA
BRANCH   8  13
ATOM     13  C   UNL     1       0.735  -5.601  -2.182  1.00  0.00     0.003 A 
ATOM     14  C   UNL     1       0.320  -3.275  -1.566  1.00  0.00     0.060 A 
ATOM     15  C   UNL     1      -1.006  -3.582  -1.247  1.00  0.00     0.017 A 
ATOM     16  C   UNL     1       1.179  -4.276  -2.035  1.00  0.00     0.026 A 
ATOM     17  C   UNL     1      -1.462  -4.895  -1.383  1.00  0.00     0.022 A 
ATOM     18  C   UNL     1      -0.599  -5.898  -1.840  1.00  0.00     0.048 A 
ATOM     19  Cl  UNL     1      -1.238  -7.501  -1.970  1.00  0.00    -0.084 Cl
BRANCH  14  20
ATOM     20  C   UNL     1       0.861  -1.902  -1.450  1.00  0.00     0.337 C 
ATOM     21  O   UNL     1       1.744  -1.467  -2.165  1.00  0.00    -0.246 OA
BRANCH  20  22
ATOM     22  O   UNL     1       0.287  -1.277  -0.393  1.00  0.00    -0.465 OA
ATOM     23  C   UNL     1       0.863  -0.002  -0.105  1.00  0.00     0.282 C 
ENDBRANCH  20  22
ENDBRANCH  14  20
ENDBRANCH   8  13
ENDBRANCH   4   7
ENDBRANCH   2   3
ENDBRANCH   1   2
BRANCH   1  24
ATOM     24  C   UNL     1       4.555 -10.486  -8.492  1.00  0.00     0.023 C 
BRANCH  24  25
ATOM     25  C   UNL     1       4.029 -11.835  -8.970  1.00  0.00     0.116 C 
BRANCH  25  26
ATOM     26  N   UNL     1       2.728 -11.750  -9.618  1.00  0.00    -0.352 N 
ATOM     27  C   UNL     1       2.255 -12.485 -10.678  1.00  0.00     0.251 C 
ATOM     28  H   UNL     1       2.108 -11.081  -9.249  1.00  0.00     0.163 HD
ATOM     29  O   UNL     1       1.176 -12.221 -11.194  1.00  0.00    -0.269 OA
BRANCH  27  30
ATOM     30  C   UNL     1       3.094 -13.572 -11.214  1.00  0.00     0.039 A 
ATOM     31  C   UNL     1       3.382 -13.589 -12.579  1.00  0.00     0.014 A 
ATOM     32  C   UNL     1       3.655 -14.520 -10.353  1.00  0.00     0.014 A 
ATOM     33  C   UNL     1       4.302 -14.515 -13.071  1.00  0.00     0.010 A 
ATOM     34  C   UNL     1       4.630 -15.386 -10.831  1.00  0.00     0.010 A 
ATOM     35  C   UNL     1       4.969 -15.386 -12.193  1.00  0.00    -0.014 A 
BRANCH  35  36
ATOM     36  C   UNL     1       6.047 -16.282 -12.679  1.00  0.00     0.031 A 
ATOM     37  C   UNL     1       5.894 -17.773 -12.583  1.00  0.00     0.074 A 
ATOM     38  C   UNL     1       7.193 -15.746 -13.144  1.00  0.00     0.049 A 
ATOM     39  N   UNL     1       6.745 -18.714 -12.907  1.00  0.00    -0.248 NA
ATOM     40  C   UNL     1       4.630 -18.274 -12.021  1.00  0.00     0.031 C 
ATOM     41  C   UNL     1       7.481 -14.313 -13.229  1.00  0.00     0.029 A 
ATOM     42  N   UNL     1       8.333 -16.343 -13.622  1.00  0.00    -0.354 N 
ATOM     43  C   UNL     1       6.124 -19.912 -12.580  1.00  0.00     0.074 A 
ATOM     44  C   UNL     1       4.852 -19.579 -11.977  1.00  0.00     0.031 C 
ATOM     45  C   UNL     1       8.706 -14.141 -13.752  1.00  0.00     0.029 A 
ATOM     46  C   UNL     1       9.306 -15.448 -13.996  1.00  0.00     0.049 A 
ATOM     47  H   UNL     1       8.443 -17.319 -13.690  1.00  0.00     0.167 HD
ATOM     48  C   UNL     1       6.566 -21.175 -12.787  1.00  0.00     0.037 A 
ATOM     49  C   UNL     1      10.549 -15.659 -14.471  1.00  0.00     0.037 A 
ATOM     50  C   UNL     1       7.829 -21.497 -13.400  1.00  0.00     0.049 A 
ATOM     51  C   UNL     1      11.022 -17.073 -14.677  1.00  0.00     0.074 A 
ATOM     52  C   UNL     1       8.338 -22.743 -13.719  1.00  0.00     0.029 A 
ATOM     53  N   UNL     1       8.786 -20.565 -13.775  1.00  0.00    -0.354 N 
ATOM     54  N   UNL     1      10.390 -18.199 -14.449  1.00  0.00    -0.248 NA
ATOM     55  C   UNL     1      12.380 -17.245 -15.212  1.00  0.00     0.031 C 
ATOM     56  C   UNL     1       9.630 -22.570 -14.225  1.00  0.00     0.029 A 
ATOM     57  C   UNL     1       9.900 -21.212 -14.287  1.00  0.00     0.049 A 
ATOM     58  H   UNL     1       8.689 -19.589 -13.691  1.00  0.00     0.167 HD
ATOM     59  C   UNL     1      11.261 -19.210 -14.832  1.00  0.00     0.074 A 
ATOM     60  C   UNL     1      12.457 -18.563 -15.329  1.00  0.00     0.031 C 
ATOM     61  C   UNL     1      11.086 -20.554 -14.776  1.00  0.00     0.037 A 
BRANCH  48  62
ATOM     62  C   UNL     1       5.683 -22.304 -12.339  1.00  0.00     0.064 A 
ATOM     63  C   UNL     1       4.456 -22.577 -12.965  1.00  0.00     0.173 A 
ATOM     64  C   UNL     1       6.084 -23.148 -11.292  1.00  0.00     0.173 A 
ATOM     65  F   UNL     1       4.019 -21.796 -13.964  1.00  0.00    -0.203 F 
ATOM     66  C   UNL     1       3.651 -23.631 -12.538  1.00  0.00     0.198 A 
ATOM     67  C   UNL     1       5.293 -24.222 -10.892  1.00  0.00     0.198 A 
ATOM     68  F   UNL     1       7.250 -22.938 -10.662  1.00  0.00    -0.203 F 
ATOM     69  F   UNL     1       2.459 -23.837 -13.115  1.00  0.00    -0.200 F 
ATOM     70  C   UNL     1       4.074 -24.457 -11.509  1.00  0.00     0.200 A 
ATOM     71  F   UNL     1       5.711 -25.029  -9.907  1.00  0.00    -0.200 F 
ATOM     72  F   UNL     1       3.303 -25.476 -11.105  1.00  0.00    -0.200 F 
ENDBRANCH  48  62
BRANCH  49  73
ATOM     73  C   UNL     1      11.427 -14.503 -14.792  1.00  0.00     0.064 A 
ATOM     74  C   UNL     1      11.789 -14.214 -16.116  1.00  0.00     0.173 A 
ATOM     75  C   UNL     1      11.926 -13.664 -13.784  1.00  0.00     0.173 A 
ATOM     76  F   UNL     1      11.355 -14.998 -17.114  1.00  0.00    -0.203 F 
ATOM     77  C   UNL     1      12.632 -13.146 -16.416  1.00  0.00     0.198 A 
ATOM     78  C   UNL     1      12.742 -12.577 -14.088  1.00  0.00     0.198 A 
ATOM     79  F   UNL     1      11.605 -13.892 -12.502  1.00  0.00    -0.203 F 
ATOM     80  F   UNL     1      13.002 -12.924 -17.684  1.00  0.00    -0.200 F 
ATOM     81  C   UNL     1      13.102 -12.324 -15.403  1.00  0.00     0.200 A 
ATOM     82  F   UNL     1      13.178 -11.775 -13.108  1.00  0.00    -0.200 F 
ATOM     83  F   UNL     1      13.908 -11.294 -15.693  1.00  0.00    -0.200 F 
ENDBRANCH  49  73
BRANCH  61  84
ATOM     84  C   UNL     1      12.206 -21.416 -15.286  1.00  0.00     0.064 A 
ATOM     85  C   UNL     1      13.426 -21.524 -14.602  1.00  0.00     0.173 A 
ATOM     86  C   UNL     1      12.040 -22.176 -16.455  1.00  0.00     0.173 A 
ATOM     87  F   UNL     1      13.641 -20.808 -13.488  1.00  0.00    -0.203 F 
ATOM     88  C   UNL     1      14.448 -22.337 -15.085  1.00  0.00     0.198 A 
ATOM     89  C   UNL     1      13.051 -23.016 -16.915  1.00  0.00     0.198 A 
ATOM     90  F   UNL     1      10.891 -22.117 -17.144  1.00  0.00    -0.203 F 
ATOM     91  F   UNL     1      15.624 -22.382 -14.444  1.00  0.00    -0.200 F 
ATOM     92  C   UNL     1      14.257 -23.088 -16.235  1.00  0.00     0.200 A 
ATOM     93  F   UNL     1      12.857 -23.754 -18.016  1.00  0.00    -0.200 F 
ATOM     94  F   UNL     1      15.239 -23.878 -16.692  1.00  0.00    -0.200 F 
ENDBRANCH  61  84
ENDBRANCH  35  36
ENDBRANCH  27  30
ENDBRANCH  25  26
ENDBRANCH  24  25
ENDBRANCH   1  24
TORSDOF 14
