REMARK SMILES C[C@@H](Sc1nc2ccccc2c(=O)n1N)C(=O)NCCCCNC(=O)c1ccc(-c2c3nc(c(-c4c(F)c(F)c(F)c(F)c4F)c4ccc([nH]4)c(-c4c(F)c(F)c(F)c(F)c4F)c4nc(c(-c5c(F)c(F)c(F)c(F)c5F)c5ccc2[nH]5)C=C4)C=C3)cc1
REMARK SMILES IDX 20 1 19 2 18 3 16 4 17 5 2 7 1 8 3 9 4 10 5 11 14 12 6 13
REMARK SMILES IDX 12 14 7 15 11 16 13 17 8 18 10 19 9 20 15 21 21 24 22 25
REMARK SMILES IDX 23 26 24 27 25 29 26 30 27 31 88 32 28 33 87 34 29 35 30 36
REMARK SMILES IDX 31 37 81 38 32 39 86 40 80 41 82 42 33 43 85 44 79 45 78 46
REMARK SMILES IDX 34 48 66 49 46 50 65 51 47 52 50 53 64 54 83 55 48 56 49 57
REMARK SMILES IDX 63 59 84 60 51 61 35 62 36 63 44 64 37 65 38 66 42 67 45 68
REMARK SMILES IDX 39 69 40 70 43 71 41 72 67 73 68 74 76 75 69 76 70 77 74 78
REMARK SMILES IDX 77 79 71 80 72 81 75 82 73 83 52 84 53 85 61 86 54 87 55 88
REMARK SMILES IDX 59 89 62 90 56 91 57 92 60 93 58 94
REMARK H PARENT 18 6 15 22 15 23 23 28 82 47 50 58
REMARK Flexibility Score: inf
ROOT
ATOM      1  C   UNL     1      -1.344  -1.495   2.098  1.00  0.00     0.023 C 
ENDROOT
BRANCH   1   2
ATOM      2  C   UNL     1      -1.039  -2.070   0.719  1.00  0.00     0.116 C 
BRANCH   2   3
ATOM      3  N   UNL     1      -1.571  -1.224  -0.334  1.00  0.00    -0.355 N 
ATOM      4  C   UNL     1      -0.932  -0.522  -1.314  1.00  0.00     0.233 C 
ATOM      5  O   UNL     1      -1.640   0.117  -2.099  1.00  0.00    -0.274 OA
ATOM      6  H   UNL     1      -2.552  -1.144  -0.342  1.00  0.00     0.163 HD
BRANCH   4   7
ATOM      7  C   UNL     1       0.594  -0.513  -1.451  1.00  0.00     0.141 C 
ATOM      8  C   UNL     1       1.281   0.120  -0.246  1.00  0.00     0.030 C 
BRANCH   7   9
ATOM      9  S   UNL     1       1.135  -2.197  -1.920  1.00  0.00    -0.073 SA
BRANCH   9  10
ATOM     10  C   UNL     1       2.869  -2.072  -1.775  1.00  0.00     0.191 A 
ATOM     11  N   UNL     1       3.426  -2.733  -0.812  1.00  0.00    -0.222 NA
ATOM     12  N   UNL     1       3.572  -1.347  -2.730  1.00  0.00    -0.202 N 
ATOM     13  C   UNL     1       4.827  -2.743  -0.743  1.00  0.00     0.079 A 
ATOM     14  C   UNL     1       4.966  -1.312  -2.738  1.00  0.00     0.280 A 
ATOM     15  C   UNL     1       5.443  -3.489   0.264  1.00  0.00     0.029 A 
ATOM     16  C   UNL     1       5.632  -2.073  -1.666  1.00  0.00     0.068 A 
ATOM     17  O   UNL     1       5.625  -0.714  -3.589  1.00  0.00    -0.267 OA
ATOM     18  C   UNL     1       6.837  -3.567   0.342  1.00  0.00     0.002 A 
ATOM     19  C   UNL     1       7.028  -2.141  -1.595  1.00  0.00     0.016 A 
ATOM     20  C   UNL     1       7.629  -2.894  -0.588  1.00  0.00     0.001 A 
BRANCH  12  21
ATOM     21  N   UNL     1       2.904  -0.611  -3.764  1.00  0.00    -0.334 N 
ATOM     22  H   UNL     1       1.920  -0.603  -3.804  1.00  0.00     0.178 HD
ATOM     23  H   UNL     1       3.429  -0.115  -4.433  1.00  0.00     0.178 HD
ENDBRANCH  12  21
ENDBRANCH   9  10
ENDBRANCH   7   9
ENDBRANCH   4   7
ENDBRANCH   2   3
ENDBRANCH   1   2
BRANCH   1  24
ATOM     24  C   UNL     1      -2.825  -1.522   2.479  1.00  0.00     0.023 C 
BRANCH  24  25
ATOM     25  C   UNL     1      -3.482  -2.898   2.426  1.00  0.00     0.116 C 
BRANCH  25  26
ATOM     26  N   UNL     1      -2.824  -3.878   3.277  1.00  0.00    -0.352 N 
ATOM     27  C   UNL     1      -3.386  -4.799   4.126  1.00  0.00     0.251 C 
ATOM     28  H   UNL     1      -1.840  -3.881   3.239  1.00  0.00     0.163 HD
ATOM     29  O   UNL     1      -2.679  -5.470   4.872  1.00  0.00    -0.269 OA
BRANCH  27  30
ATOM     30  C   UNL     1      -4.854  -4.953   4.164  1.00  0.00     0.039 A 
ATOM     31  C   UNL     1      -5.500  -4.963   5.403  1.00  0.00     0.014 A 
ATOM     32  C   UNL     1      -5.592  -5.060   2.982  1.00  0.00     0.014 A 
ATOM     33  C   UNL     1      -6.894  -5.008   5.454  1.00  0.00     0.010 A 
ATOM     34  C   UNL     1      -6.982  -5.030   3.032  1.00  0.00     0.010 A 
ATOM     35  C   UNL     1      -7.646  -5.002   4.268  1.00  0.00    -0.014 A 
BRANCH  35  36
ATOM     36  C   UNL     1      -9.130  -4.959   4.299  1.00  0.00     0.031 A 
ATOM     37  C   UNL     1      -9.930  -6.107   3.753  1.00  0.00     0.074 A 
ATOM     38  C   UNL     1      -9.754  -3.855   4.753  1.00  0.00     0.049 A 
ATOM     39  N   UNL     1     -11.227  -6.227   3.625  1.00  0.00    -0.248 NA
ATOM     40  C   UNL     1      -9.169  -7.266   3.259  1.00  0.00     0.031 C 
ATOM     41  C   UNL     1      -9.088  -2.655   5.263  1.00  0.00     0.029 A 
ATOM     42  N   UNL     1     -11.091  -3.558   4.850  1.00  0.00    -0.354 N 
ATOM     43  C   UNL     1     -11.435  -7.460   3.021  1.00  0.00     0.074 A 
ATOM     44  C   UNL     1     -10.131  -8.030   2.762  1.00  0.00     0.031 C 
ATOM     45  C   UNL     1     -10.018  -1.762   5.639  1.00  0.00     0.029 A 
ATOM     46  C   UNL     1     -11.343  -2.309   5.363  1.00  0.00     0.049 A 
ATOM     47  H   UNL     1     -11.803  -4.181   4.576  1.00  0.00     0.167 HD
ATOM     48  C   UNL     1     -12.608  -8.071   2.731  1.00  0.00     0.037 A 
ATOM     49  C   UNL     1     -12.511  -1.675   5.580  1.00  0.00     0.037 A 
ATOM     50  C   UNL     1     -13.904  -7.513   3.019  1.00  0.00     0.049 A 
ATOM     51  C   UNL     1     -13.800  -2.377   5.246  1.00  0.00     0.074 A 
ATOM     52  C   UNL     1     -15.150  -8.084   2.828  1.00  0.00     0.029 A 
ATOM     53  N   UNL     1     -14.119  -6.253   3.556  1.00  0.00    -0.354 N 
ATOM     54  N   UNL     1     -13.985  -3.574   4.746  1.00  0.00    -0.248 NA
ATOM     55  C   UNL     1     -15.042  -1.639   5.512  1.00  0.00     0.031 C 
ATOM     56  C   UNL     1     -16.120  -7.150   3.206  1.00  0.00     0.029 A 
ATOM     57  C   UNL     1     -15.479  -6.018   3.682  1.00  0.00     0.049 A 
ATOM     58  H   UNL     1     -13.410  -5.619   3.811  1.00  0.00     0.167 HD
ATOM     59  C   UNL     1     -15.361  -3.745   4.667  1.00  0.00     0.074 A 
ATOM     60  C   UNL     1     -15.963  -2.534   5.183  1.00  0.00     0.031 C 
ATOM     61  C   UNL     1     -16.062  -4.811   4.208  1.00  0.00     0.037 A 
BRANCH  48  62
ATOM     62  C   UNL     1     -12.546  -9.417   2.070  1.00  0.00     0.064 A 
ATOM     63  C   UNL     1     -12.098 -10.555   2.757  1.00  0.00     0.173 A 
ATOM     64  C   UNL     1     -12.976  -9.579   0.744  1.00  0.00     0.173 A 
ATOM     65  F   UNL     1     -11.665 -10.453   4.023  1.00  0.00    -0.203 F 
ATOM     66  C   UNL     1     -12.056 -11.799   2.133  1.00  0.00     0.198 A 
ATOM     67  C   UNL     1     -12.961 -10.830   0.133  1.00  0.00     0.198 A 
ATOM     68  F   UNL     1     -13.419  -8.524   0.043  1.00  0.00    -0.203 F 
ATOM     69  F   UNL     1     -11.578 -12.863   2.794  1.00  0.00    -0.200 F 
ATOM     70  C   UNL     1     -12.494 -11.937   0.825  1.00  0.00     0.200 A 
ATOM     71  F   UNL     1     -13.399 -10.964  -1.127  1.00  0.00    -0.200 F 
ATOM     72  F   UNL     1     -12.461 -13.137   0.228  1.00  0.00    -0.200 F 
ENDBRANCH  48  62
BRANCH  49  73
ATOM     73  C   UNL     1     -12.519  -0.310   6.169  1.00  0.00     0.064 A 
ATOM     74  C   UNL     1     -12.996  -0.093   7.470  1.00  0.00     0.173 A 
ATOM     75  C   UNL     1     -12.064   0.802   5.447  1.00  0.00     0.173 A 
ATOM     76  F   UNL     1     -13.461  -1.123   8.192  1.00  0.00    -0.203 F 
ATOM     77  C   UNL     1     -13.038   1.187   8.017  1.00  0.00     0.198 A 
ATOM     78  C   UNL     1     -12.080   2.078   6.006  1.00  0.00     0.198 A 
ATOM     79  F   UNL     1     -11.594   0.648   4.200  1.00  0.00    -0.203 F 
ATOM     80  F   UNL     1     -13.543   1.372   9.244  1.00  0.00    -0.200 F 
ATOM     81  C   UNL     1     -12.575   2.271   7.287  1.00  0.00     0.200 A 
ATOM     82  F   UNL     1     -11.620   3.122   5.303  1.00  0.00    -0.200 F 
ATOM     83  F   UNL     1     -12.614   3.502   7.814  1.00  0.00    -0.200 F 
ENDBRANCH  49  73
BRANCH  61  84
ATOM     84  C   UNL     1     -17.559  -4.732   4.280  1.00  0.00     0.064 A 
ATOM     85  C   UNL     1     -18.295  -3.897   3.427  1.00  0.00     0.173 A 
ATOM     86  C   UNL     1     -18.268  -5.535   5.187  1.00  0.00     0.173 A 
ATOM     87  F   UNL     1     -17.664  -3.099   2.553  1.00  0.00    -0.203 F 
ATOM     88  C   UNL     1     -19.685  -3.850   3.498  1.00  0.00     0.198 A 
ATOM     89  C   UNL     1     -19.658  -5.508   5.234  1.00  0.00     0.198 A 
ATOM     90  F   UNL     1     -17.611  -6.356   6.020  1.00  0.00    -0.203 F 
ATOM     91  F   UNL     1     -20.366  -3.009   2.707  1.00  0.00    -0.200 F 
ATOM     92  C   UNL     1     -20.365  -4.660   4.395  1.00  0.00     0.200 A 
ATOM     93  F   UNL     1     -20.314  -6.302   6.091  1.00  0.00    -0.200 F 
ATOM     94  F   UNL     1     -21.703  -4.619   4.455  1.00  0.00    -0.200 F 
ENDBRANCH  61  84
ENDBRANCH  35  36
ENDBRANCH  27  30
ENDBRANCH  25  26
ENDBRANCH  24  25
ENDBRANCH   1  24
TORSDOF 14
