REMARK SMILES C[N@H+]1[C@H]2CC[C@@H]1CN(c1nc3c(cc1C(=O)NCCCCNC(=O)c1ccc(-c4c5nc(c(-c6c(F)c(F)c(F)c(F)c6F)c6ccc([nH]6)c(-c6c(F)c(F)c(F)c(F)c6F)c6nc(c(-c7c(F)c(F)c(F)c(F)c7F)c7ccc4[nH]7)C=C6)C=C5)cc1)CCC3)CC2
REMARK SMILES IDX 19 1 18 2 17 3 15 4 16 5 14 7 9 8 10 9 11 10 13 11 12 12
REMARK SMILES IDX 90 13 88 14 89 15 8 16 7 17 6 18 1 19 2 20 3 21 4 23 5 25
REMARK SMILES IDX 91 26 92 27 20 29 21 30 22 31 23 32 24 34 25 35 26 36 87 37
REMARK SMILES IDX 27 38 86 39 28 40 29 41 30 42 80 43 31 44 85 45 79 46 81 47
REMARK SMILES IDX 32 48 84 49 78 50 77 51 33 53 65 54 45 55 64 56 46 57 49 58
REMARK SMILES IDX 63 59 82 60 47 61 48 62 62 64 83 65 50 66 34 67 35 68 43 69
REMARK SMILES IDX 36 70 37 71 41 72 44 73 38 74 39 75 42 76 40 77 66 78 67 79
REMARK SMILES IDX 75 80 68 81 69 82 73 83 76 84 70 85 71 86 74 87 72 88 51 89
REMARK SMILES IDX 52 90 60 91 53 92 54 93 58 94 61 95 55 96 56 97 59 98 57 99
REMARK H PARENT 17 6 2 22 22 33 81 52 49 63
REMARK Flexibility Score: 90.00
ROOT
ATOM      1  C   UNL     1       0.678   0.389   1.365  1.00  0.00     0.023 C 
ENDROOT
BRANCH   1   2
ATOM      2  C   UNL     1      -0.859   1.799   2.018  1.00  0.00     0.116 C 
BRANCH   2   3
ATOM      3  N   UNL     1      -2.467   1.652   2.071  1.00  0.00    -0.352 N 
ATOM      4  C   UNL     1      -3.387   2.618   2.353  1.00  0.00     0.255 C 
ATOM      5  O   UNL     1      -4.582   2.348   2.259  1.00  0.00    -0.269 OA
ATOM      6  H   UNL     1      -2.827   0.757   1.876  1.00  0.00     0.163 HD
BRANCH   4   7
ATOM      7  C   UNL     1      -2.946   3.915   2.866  1.00  0.00     0.082 A 
ATOM      8  C   UNL     1      -1.880   4.710   2.377  1.00  0.00     0.141 A 
ATOM      9  N   UNL     1      -1.524   5.839   3.048  1.00  0.00    -0.235 NA
ATOM     10  C   UNL     1      -2.204   6.140   4.170  1.00  0.00     0.046 A 
ATOM     11  C   UNL     1      -3.613   4.251   4.055  1.00  0.00     0.023 A 
ATOM     12  C   UNL     1      -3.211   5.374   4.720  1.00  0.00    -0.025 A 
ATOM     13  C   UNL     1      -2.033   7.410   4.947  1.00  0.00     0.057 C 
ATOM     14  C   UNL     1      -3.749   5.952   5.979  1.00  0.00     0.038 C 
ATOM     15  C   UNL     1      -2.712   7.045   6.277  1.00  0.00     0.011 C 
BRANCH   8  16
ATOM     16  N   UNL     1      -1.039   4.378   1.315  1.00  0.00    -0.350 N 
BRANCH  16  17
ATOM     17  C   UNL     1       0.439   4.147   1.757  1.00  0.00     0.183 C 
BRANCH  17  18
ATOM     18  C   UNL     1       1.044   2.541   1.910  1.00  0.00     0.203 C 
ATOM     19  C   UNL     1       2.001   1.794  -0.370  1.00  0.00     0.333 C 
ATOM     20  N   UNL     1       0.604   2.068   0.189  1.00  0.00    -0.331 N 
ATOM     21  C   UNL     1      -0.912   0.928   0.325  1.00  0.00     0.186 CG0
ATOM     22  H   UNL     1       0.201   2.659  -0.538  1.00  0.00     0.348 HD
ATOM     23  C   UNL     1      -0.940  -0.026   2.198  1.00  0.00     0.071 C 
ATOM     24  G   UNL     1      -1.898   2.244  -0.314  1.00  0.00     0.000 G0
ATOM     25  C   UNL     1       0.476   1.099   3.214  1.00  0.00     0.073 C 
ENDBRANCH  17  18
ENDBRANCH  16  17
BRANCH  16  26
ATOM     26  C   UNL     1      -1.569   3.853  -0.032  1.00  0.00     0.124 C 
BRANCH  26  27
ATOM     27  C   UNL     1      -1.898   2.244  -0.314  1.00  0.00     0.086 CG0
ATOM     28  G   UNL     1      -0.912   0.928   0.325  1.00  0.00     0.000 G0
ENDBRANCH  26  27
ENDBRANCH  16  26
ENDBRANCH   8  16
ENDBRANCH   4   7
ENDBRANCH   2   3
ENDBRANCH   1   2
BRANCH   1  29
ATOM     29  C   UNL     1       0.669  -0.831   0.040  1.00  0.00     0.023 C 
BRANCH  29  30
ATOM     30  C   UNL     1       0.370  -0.716  -1.518  1.00  0.00     0.116 C 
BRANCH  30  31
ATOM     31  N   UNL     1       0.575   0.552  -2.236  1.00  0.00    -0.352 N 
ATOM     32  C   UNL     1       1.370   0.745  -3.348  1.00  0.00     0.251 C 
ATOM     33  H   UNL     1       0.098   1.340  -1.889  1.00  0.00     0.163 HD
ATOM     34  O   UNL     1       1.881   1.807  -3.662  1.00  0.00    -0.269 OA
BRANCH  32  35
ATOM     35  C   UNL     1       1.548  -0.459  -4.149  1.00  0.00     0.039 A 
ATOM     36  C   UNL     1       2.784  -1.108  -4.179  1.00  0.00     0.014 A 
ATOM     37  C   UNL     1       0.349  -1.076  -4.511  1.00  0.00     0.014 A 
ATOM     38  C   UNL     1       2.803  -2.448  -4.540  1.00  0.00     0.010 A 
ATOM     39  C   UNL     1       0.360  -2.428  -4.738  1.00  0.00     0.010 A 
ATOM     40  C   UNL     1       1.588  -3.106  -4.789  1.00  0.00    -0.014 A 
BRANCH  40  41
ATOM     41  C   UNL     1       1.542  -4.494  -5.260  1.00  0.00     0.031 A 
ATOM     42  C   UNL     1       1.074  -4.719  -6.662  1.00  0.00     0.074 A 
ATOM     43  C   UNL     1       1.811  -5.505  -4.421  1.00  0.00     0.049 A 
ATOM     44  N   UNL     1       0.822  -5.839  -7.278  1.00  0.00    -0.248 NA
ATOM     45  C   UNL     1       0.804  -3.511  -7.466  1.00  0.00     0.031 C 
ATOM     46  C   UNL     1       2.235  -5.366  -3.029  1.00  0.00     0.029 A 
ATOM     47  N   UNL     1       1.750  -6.856  -4.625  1.00  0.00    -0.354 N 
ATOM     48  C   UNL     1       0.360  -5.466  -8.530  1.00  0.00     0.074 A 
ATOM     49  C   UNL     1       0.268  -4.027  -8.556  1.00  0.00     0.031 C 
ATOM     50  C   UNL     1       2.424  -6.590  -2.509  1.00  0.00     0.029 A 
ATOM     51  C   UNL     1       2.092  -7.591  -3.521  1.00  0.00     0.049 A 
ATOM     52  H   UNL     1       1.486  -7.261  -5.483  1.00  0.00     0.167 HD
ATOM     53  C   UNL     1       0.080  -6.264  -9.582  1.00  0.00     0.037 A 
ATOM     54  C   UNL     1       2.126  -8.926  -3.359  1.00  0.00     0.037 A 
ATOM     55  C   UNL     1       0.190  -7.693  -9.530  1.00  0.00     0.049 A 
ATOM     56  C   UNL     1       1.770  -9.800  -4.531  1.00  0.00     0.074 A 
ATOM     57  C   UNL     1      -0.028  -8.609 -10.540  1.00  0.00     0.029 A 
ATOM     58  N   UNL     1       0.540  -8.414  -8.395  1.00  0.00    -0.354 N 
ATOM     59  N   UNL     1       1.403  -9.452  -5.742  1.00  0.00    -0.248 NA
ATOM     60  C   UNL     1       1.842 -11.250  -4.319  1.00  0.00     0.031 C 
ATOM     61  C   UNL     1       0.115  -9.888  -9.997  1.00  0.00     0.029 A 
ATOM     62  C   UNL     1       0.504  -9.770  -8.670  1.00  0.00     0.049 A 
ATOM     63  H   UNL     1       0.778  -8.019  -7.526  1.00  0.00     0.167 HD
ATOM     64  C   UNL     1       1.220 -10.635  -6.445  1.00  0.00     0.074 A 
ATOM     65  C   UNL     1       1.542 -11.710  -5.526  1.00  0.00     0.031 C 
ATOM     66  C   UNL     1       0.820 -10.819  -7.729  1.00  0.00     0.037 A 
BRANCH  53  67
ATOM     67  C   UNL     1      -0.370  -5.599 -10.849  1.00  0.00     0.064 A 
ATOM     68  C   UNL     1       0.476  -4.751 -11.583  1.00  0.00     0.173 A 
ATOM     69  C   UNL     1      -1.667  -5.812 -11.337  1.00  0.00     0.173 A 
ATOM     70  F   UNL     1       1.718  -4.491 -11.147  1.00  0.00    -0.203 F 
ATOM     71  C   UNL     1       0.029  -4.118 -12.739  1.00  0.00     0.198 A 
ATOM     72  C   UNL     1      -2.095  -5.213 -12.517  1.00  0.00     0.198 A 
ATOM     73  F   UNL     1      -2.520  -6.603 -10.669  1.00  0.00    -0.203 F 
ATOM     74  F   UNL     1       0.832  -3.261 -13.384  1.00  0.00    -0.200 F 
ATOM     75  C   UNL     1      -1.251  -4.359 -13.211  1.00  0.00     0.200 A 
ATOM     76  F   UNL     1      -3.329  -5.457 -12.979  1.00  0.00    -0.200 F 
ATOM     77  F   UNL     1      -1.676  -3.761 -14.332  1.00  0.00    -0.200 F 
ENDBRANCH  53  67
BRANCH  54  78
ATOM     78  C   UNL     1       2.569  -9.488  -2.059  1.00  0.00     0.064 A 
ATOM     79  C   UNL     1       3.810 -10.127  -1.941  1.00  0.00     0.173 A 
ATOM     80  C   UNL     1       1.802  -9.331  -0.894  1.00  0.00     0.173 A 
ATOM     81  F   UNL     1       4.573 -10.313  -3.029  1.00  0.00    -0.203 F 
ATOM     82  C   UNL     1       4.271 -10.583  -0.708  1.00  0.00     0.198 A 
ATOM     83  C   UNL     1       2.277  -9.762   0.343  1.00  0.00     0.198 A 
ATOM     84  F   UNL     1       0.611  -8.718  -0.952  1.00  0.00    -0.203 F 
ATOM     85  F   UNL     1       5.455 -11.205  -0.626  1.00  0.00    -0.200 F 
ATOM     86  C   UNL     1       3.510 -10.388   0.435  1.00  0.00     0.200 A 
ATOM     87  F   UNL     1       1.548  -9.550   1.448  1.00  0.00    -0.200 F 
ATOM     88  F   UNL     1       3.968 -10.798   1.625  1.00  0.00    -0.200 F 
ENDBRANCH  54  78
BRANCH  66  89
ATOM     89  C   UNL     1       0.713 -12.234  -8.223  1.00  0.00     0.064 A 
ATOM     90  C   UNL     1      -0.271 -13.109  -7.740  1.00  0.00     0.173 A 
ATOM     91  C   UNL     1       1.561 -12.698  -9.242  1.00  0.00     0.173 A 
ATOM     92  F   UNL     1      -1.104 -12.717  -6.764  1.00  0.00    -0.203 F 
ATOM     93  C   UNL     1      -0.380 -14.406  -8.234  1.00  0.00     0.198 A 
ATOM     94  C   UNL     1       1.419 -13.979  -9.765  1.00  0.00     0.198 A 
ATOM     95  F   UNL     1       2.509 -11.897  -9.752  1.00  0.00    -0.203 F 
ATOM     96  F   UNL     1      -1.290 -15.242  -7.716  1.00  0.00    -0.200 F 
ATOM     97  C   UNL     1       0.457 -14.836  -9.253  1.00  0.00     0.200 A 
ATOM     98  F   UNL     1       2.210 -14.383 -10.768  1.00  0.00    -0.200 F 
ATOM     99  F   UNL     1       0.339 -16.079  -9.739  1.00  0.00    -0.200 F 
ENDBRANCH  66  89
ENDBRANCH  40  41
ENDBRANCH  32  35
ENDBRANCH  30  31
ENDBRANCH  29  30
ENDBRANCH   1  29
TORSDOF 12
