REMARK SMILES CC1(C)OC(=O)C(=CNc2ccccc2C(=O)NCCCCNC(=O)c2ccc(-c3c4nc(c(-c5c(F)c(F)c(F)c(F)c5F)c5ccc([nH]5)c(-c5c(F)c(F)c(F)c(F)c5F)c5nc(c(-c6c(F)c(F)c(F)c(F)c6F)c6ccc3[nH]6)C=C5)C=C4)cc2)C(=O)O1
REMARK SMILES IDX 20 1 19 2 18 3 16 4 17 5 15 7 10 8 11 9 12 10 14 11 13 12
REMARK SMILES IDX 9 13 8 15 1 16 2 17 3 18 4 19 91 20 5 21 89 22 6 23 7 24
REMARK SMILES IDX 90 25 21 26 22 27 23 28 24 29 25 31 26 32 27 33 88 34 28 35
REMARK SMILES IDX 87 36 29 37 30 38 31 39 81 40 32 41 86 42 80 43 82 44 33 45
REMARK SMILES IDX 85 46 79 47 78 48 34 50 66 51 46 52 65 53 47 54 50 55 64 56
REMARK SMILES IDX 83 57 48 58 49 59 63 61 84 62 51 63 35 64 36 65 44 66 37 67
REMARK SMILES IDX 38 68 42 69 45 70 39 71 40 72 43 73 41 74 67 75 68 76 76 77
REMARK SMILES IDX 69 78 70 79 74 80 77 81 71 82 72 83 75 84 73 85 52 86 53 87
REMARK SMILES IDX 61 88 54 89 55 90 59 91 62 92 56 93 57 94 60 95 58 96
REMARK H PARENT 18 6 9 14 23 30 82 49 50 60
REMARK Flexibility Score: inf
ROOT
ATOM      1  C   UNL     1      -1.226  -2.475  -3.134  1.00  0.00     0.023 C 
ENDROOT
BRANCH   1   2
ATOM      2  C   UNL     1      -2.624  -1.906  -2.912  1.00  0.00     0.116 C 
BRANCH   2   3
ATOM      3  N   UNL     1      -2.790  -0.511  -3.247  1.00  0.00    -0.352 N 
ATOM      4  C   UNL     1      -3.755   0.347  -2.760  1.00  0.00     0.253 C 
ATOM      5  O   UNL     1      -3.814   1.502  -3.171  1.00  0.00    -0.269 OA
ATOM      6  H   UNL     1      -2.148  -0.132  -3.890  1.00  0.00     0.163 HD
BRANCH   4   7
ATOM      7  C   UNL     1      -4.789  -0.160  -1.830  1.00  0.00     0.063 A 
ATOM      8  C   UNL     1      -4.539  -0.571  -0.504  1.00  0.00     0.051 A 
ATOM      9  C   UNL     1      -5.596  -1.177   0.197  1.00  0.00     0.027 A 
ATOM     10  C   UNL     1      -6.857  -1.349  -0.385  1.00  0.00     0.002 A 
ATOM     11  C   UNL     1      -6.064  -0.309  -2.403  1.00  0.00     0.016 A 
ATOM     12  C   UNL     1      -7.094  -0.907  -1.681  1.00  0.00     0.001 A 
BRANCH   8  13
ATOM     13  N   UNL     1      -3.302  -0.460   0.171  1.00  0.00    -0.360 N 
ATOM     14  H   UNL     1      -3.142  -1.092   0.909  1.00  0.00     0.166 HD
BRANCH  13  15
ATOM     15  C   UNL     1      -2.302   0.441  -0.100  1.00  0.00     0.106 C 
ATOM     16  C   UNL     1       2.917  -0.845  -2.984  1.00  0.00     0.106 C 
ATOM     17  C   UNL     1       2.372  -0.649  -1.541  1.00  0.00     0.252 C 
ATOM     18  C   UNL     1       3.603  -0.908  -0.636  1.00  0.00     0.106 C 
ATOM     19  O   UNL     1       1.748   1.079  -1.425  1.00  0.00    -0.419 OA
ATOM     20  O   UNL     1       1.128  -1.920  -1.016  1.00  0.00    -0.419 OA
ATOM     21  C   UNL     1       0.155   1.531  -0.902  1.00  0.00     0.350 C 
ATOM     22  C   UNL     1      -0.463  -1.608  -0.395  1.00  0.00     0.350 C 
ATOM     23  O   UNL     1      -0.229   2.682  -1.082  1.00  0.00    -0.246 OA
ATOM     24  C   UNL     1      -1.003   0.173  -0.282  1.00  0.00     0.161 C 
ATOM     25  O   UNL     1      -1.156  -2.553  -0.031  1.00  0.00    -0.246 OA
ENDBRANCH  13  15
ENDBRANCH   8  13
ENDBRANCH   4   7
ENDBRANCH   2   3
ENDBRANCH   1   2
BRANCH   1  26
ATOM     26  C   UNL     1       0.032  -1.591  -3.083  1.00  0.00     0.023 C 
BRANCH  26  27
ATOM     27  C   UNL     1       0.272  -0.298  -2.064  1.00  0.00     0.116 C 
BRANCH  27  28
ATOM     28  N   UNL     1       0.987  -0.200  -0.154  1.00  0.00    -0.352 N 
ATOM     29  C   UNL     1       1.481   0.480   1.038  1.00  0.00     0.251 C 
ATOM     30  H   UNL     1       1.014  -1.147   0.114  1.00  0.00     0.163 HD
ATOM     31  O   UNL     1       1.323  -0.156   2.086  1.00  0.00    -0.269 OA
BRANCH  29  32
ATOM     32  C   UNL     1       2.456   1.627   1.110  1.00  0.00     0.039 A 
ATOM     33  C   UNL     1       3.735   1.319   1.610  1.00  0.00     0.014 A 
ATOM     34  C   UNL     1       2.221   2.937   0.706  1.00  0.00     0.014 A 
ATOM     35  C   UNL     1       4.806   2.204   1.452  1.00  0.00     0.010 A 
ATOM     36  C   UNL     1       3.292   3.815   0.504  1.00  0.00     0.010 A 
ATOM     37  C   UNL     1       4.602   3.427   0.809  1.00  0.00    -0.014 A 
BRANCH  37  38
ATOM     38  C   UNL     1       5.736   4.284   0.387  1.00  0.00     0.031 A 
ATOM     39  C   UNL     1       5.984   5.599   1.056  1.00  0.00     0.074 A 
ATOM     40  C   UNL     1       6.485   3.921  -0.673  1.00  0.00     0.049 A 
ATOM     41  N   UNL     1       6.786   6.569   0.698  1.00  0.00    -0.248 NA
ATOM     42  C   UNL     1       5.217   5.864   2.281  1.00  0.00     0.031 C 
ATOM     43  C   UNL     1       6.341   2.674  -1.427  1.00  0.00     0.029 A 
ATOM     44  N   UNL     1       7.503   4.580  -1.317  1.00  0.00    -0.354 N 
ATOM     45  C   UNL     1       6.583   7.582   1.621  1.00  0.00     0.074 A 
ATOM     46  C   UNL     1       5.603   7.099   2.574  1.00  0.00     0.031 C 
ATOM     47  C   UNL     1       7.239   2.656  -2.426  1.00  0.00     0.029 A 
ATOM     48  C   UNL     1       7.992   3.906  -2.409  1.00  0.00     0.049 A 
ATOM     49  H   UNL     1       7.849   5.454  -1.023  1.00  0.00     0.167 HD
ATOM     50  C   UNL     1       7.151   8.810   1.661  1.00  0.00     0.037 A 
ATOM     51  C   UNL     1       8.922   4.268  -3.312  1.00  0.00     0.037 A 
ATOM     52  C   UNL     1       8.151   9.286   0.745  1.00  0.00     0.049 A 
ATOM     53  C   UNL     1       9.570   5.618  -3.216  1.00  0.00     0.074 A 
ATOM     54  C   UNL     1       8.798  10.509   0.729  1.00  0.00     0.029 A 
ATOM     55  N   UNL     1       8.657   8.551  -0.314  1.00  0.00    -0.354 N 
ATOM     56  N   UNL     1       9.356   6.575  -2.349  1.00  0.00    -0.248 NA
ATOM     57  C   UNL     1      10.576   5.944  -4.239  1.00  0.00     0.031 C 
ATOM     58  C   UNL     1       9.698  10.515  -0.345  1.00  0.00     0.029 A 
ATOM     59  C   UNL     1       9.613   9.292  -0.989  1.00  0.00     0.049 A 
ATOM     60  H   UNL     1       8.379   7.637  -0.552  1.00  0.00     0.167 HD
ATOM     61  C   UNL     1      10.200   7.613  -2.714  1.00  0.00     0.074 A 
ATOM     62  C   UNL     1      10.937   7.169  -3.879  1.00  0.00     0.031 C 
ATOM     63  C   UNL     1      10.345   8.828  -2.136  1.00  0.00     0.037 A 
BRANCH  50  64
ATOM     64  C   UNL     1       6.669   9.736   2.728  1.00  0.00     0.064 A 
ATOM     65  C   UNL     1       7.195   9.691   4.025  1.00  0.00     0.173 A 
ATOM     66  C   UNL     1       5.670  10.678   2.447  1.00  0.00     0.173 A 
ATOM     67  F   UNL     1       8.140   8.792   4.339  1.00  0.00    -0.203 F 
ATOM     68  C   UNL     1       6.726  10.553   5.012  1.00  0.00     0.198 A 
ATOM     69  C   UNL     1       5.209  11.544   3.433  1.00  0.00     0.198 A 
ATOM     70  F   UNL     1       5.135  10.749   1.219  1.00  0.00    -0.203 F 
ATOM     71  F   UNL     1       7.222  10.479   6.255  1.00  0.00    -0.200 F 
ATOM     72  C   UNL     1       5.736  11.479   4.715  1.00  0.00     0.200 A 
ATOM     73  F   UNL     1       4.249  12.435   3.148  1.00  0.00    -0.200 F 
ATOM     74  F   UNL     1       5.280  12.303   5.669  1.00  0.00    -0.200 F 
ENDBRANCH  50  64
BRANCH  51  75
ATOM     75  C   UNL     1       9.293   3.337  -4.403  1.00  0.00     0.064 A 
ATOM     76  C   UNL     1      10.460   2.567  -4.316  1.00  0.00     0.173 A 
ATOM     77  C   UNL     1       8.502   3.211  -5.552  1.00  0.00     0.173 A 
ATOM     78  F   UNL     1      11.255   2.676  -3.242  1.00  0.00    -0.203 F 
ATOM     79  C   UNL     1      10.827   1.706  -5.347  1.00  0.00     0.198 A 
ATOM     80  C   UNL     1       8.865   2.341  -6.577  1.00  0.00     0.198 A 
ATOM     81  F   UNL     1       7.379   3.933  -5.676  1.00  0.00    -0.203 F 
ATOM     82  F   UNL     1      11.960   0.996  -5.253  1.00  0.00    -0.200 F 
ATOM     83  C   UNL     1      10.029   1.593  -6.476  1.00  0.00     0.200 A 
ATOM     84  F   UNL     1       8.092   2.231  -7.666  1.00  0.00    -0.200 F 
ATOM     85  F   UNL     1      10.384   0.766  -7.469  1.00  0.00    -0.200 F 
ENDBRANCH  51  75
BRANCH  63  86
ATOM     86  C   UNL     1      11.355   9.749  -2.741  1.00  0.00     0.064 A 
ATOM     87  C   UNL     1      11.024  10.574  -3.824  1.00  0.00     0.173 A 
ATOM     88  C   UNL     1      12.653   9.825  -2.217  1.00  0.00     0.173 A 
ATOM     89  F   UNL     1       9.799  10.518  -4.365  1.00  0.00    -0.203 F 
ATOM     90  C   UNL     1      11.964  11.445  -4.367  1.00  0.00     0.198 A 
ATOM     91  C   UNL     1      13.588  10.701  -2.759  1.00  0.00     0.198 A 
ATOM     92  F   UNL     1      13.012   9.044  -1.188  1.00  0.00    -0.203 F 
ATOM     93  F   UNL     1      11.637  12.215  -5.413  1.00  0.00    -0.200 F 
ATOM     94  C   UNL     1      13.243  11.510  -3.832  1.00  0.00     0.200 A 
ATOM     95  F   UNL     1      14.825  10.759  -2.247  1.00  0.00    -0.200 F 
ATOM     96  F   UNL     1      14.148  12.347  -4.359  1.00  0.00    -0.200 F 
ENDBRANCH  63  86
ENDBRANCH  37  38
ENDBRANCH  29  32
ENDBRANCH  27  28
ENDBRANCH  26  27
ENDBRANCH   1  26
TORSDOF 13
