REMARK SMILES Cc1cc2c(c(C)c1Cl)C=C(C(=O)NCCCCNC(=O)c1ccc(-c3c4nc(c(-c5c(F)c(F)c(F)c(F)c5F)c5ccc([nH]5)c(-c5c(F)c(F)c(F)c(F)c5F)c5nc(c(-c6c(F)c(F)c(F)c(F)c6F)c6ccc3[nH]6)C=C5)C=C4)cc1)[C@@H](C(F)(F)F)O2
REMARK SMILES IDX 17 1 16 2 15 3 14 4 12 5 13 6 11 8 1 9 2 10 3 11 8 12 4 13
REMARK SMILES IDX 6 14 9 15 5 16 90 17 7 18 10 19 85 20 86 21 87 22 88 23
REMARK SMILES IDX 89 24 18 25 19 26 20 27 21 29 22 30 23 31 84 32 24 33 83 34
REMARK SMILES IDX 25 35 26 36 27 37 77 38 28 39 82 40 76 41 78 42 29 43 81 44
REMARK SMILES IDX 75 45 74 46 30 48 62 49 42 50 61 51 43 52 46 53 60 54 79 55
REMARK SMILES IDX 44 56 45 57 59 59 80 60 47 61 31 62 32 63 40 64 33 65 34 66
REMARK SMILES IDX 38 67 41 68 35 69 36 70 39 71 37 72 63 73 64 74 72 75 65 76
REMARK SMILES IDX 66 77 70 78 73 79 67 80 68 81 71 82 69 83 48 84 49 85 57 86
REMARK SMILES IDX 50 87 51 88 55 89 58 90 52 91 53 92 56 93 54 94
REMARK H PARENT 14 7 19 28 78 47 46 58
REMARK Flexibility Score: inf
ROOT
ATOM      1  C   UNL     1      -0.964  -3.999  10.003  1.00  0.00     0.023 C 
ENDROOT
BRANCH   1   2
ATOM      2  C   UNL     1      -0.754  -3.753   8.507  1.00  0.00     0.023 C 
BRANCH   2   3
ATOM      3  C   UNL     1      -1.921  -3.048   7.822  1.00  0.00     0.116 C 
BRANCH   3   4
ATOM      4  N   UNL     1      -1.846  -1.607   7.974  1.00  0.00    -0.352 N 
ATOM      5  C   UNL     1      -1.523  -0.546   7.197  1.00  0.00     0.251 C 
ATOM      6  O   UNL     1      -1.592   0.551   7.759  1.00  0.00    -0.270 OA
ATOM      7  H   UNL     1      -2.097  -1.325   8.883  1.00  0.00     0.163 HD
BRANCH   5   8
ATOM      8  C   UNL     1      -1.107  -0.618   5.764  1.00  0.00     0.067 C 
ATOM      9  C   UNL     1       1.104   0.358  -0.287  1.00  0.00     0.046 C 
ATOM     10  C   UNL     1       0.605   0.477   1.127  1.00  0.00    -0.028 A 
ATOM     11  C   UNL     1       0.322  -0.696   1.833  1.00  0.00     0.052 A 
ATOM     12  C   UNL     1       0.457   1.717   1.783  1.00  0.00     0.047 A 
ATOM     13  C   UNL     1      -0.119  -0.639   3.151  1.00  0.00     0.128 A 
ATOM     14  C   UNL     1       0.002   1.788   3.123  1.00  0.00    -0.021 A 
ATOM     15  Cl  UNL     1       0.875   3.164   0.913  1.00  0.00    -0.084 Cl
ATOM     16  C   UNL     1      -0.275   0.582   3.812  1.00  0.00     0.022 A 
ATOM     17  O   UNL     1      -0.330  -1.849   3.747  1.00  0.00    -0.475 OA
ATOM     18  C   UNL     1      -0.174   3.110   3.834  1.00  0.00     0.047 C 
ATOM     19  C   UNL     1      -0.676   0.537   5.223  1.00  0.00     0.026 C 
ATOM     20  C   UNL     1      -1.181  -1.855   4.921  1.00  0.00     0.314 C 
BRANCH  20  21
ATOM     21  C   UNL     1      -2.621  -2.211   4.507  1.00  0.00     0.429 C 
ATOM     22  F   UNL     1      -2.678  -3.483   4.039  1.00  0.00    -0.167 F 
ATOM     23  F   UNL     1      -3.489  -2.148   5.545  1.00  0.00    -0.167 F 
ATOM     24  F   UNL     1      -3.102  -1.399   3.540  1.00  0.00    -0.167 F 
ENDBRANCH  20  21
ENDBRANCH   5   8
ENDBRANCH   3   4
ENDBRANCH   2   3
ENDBRANCH   1   2
BRANCH   1  25
ATOM     25  C   UNL     1      -2.238  -4.756  10.369  1.00  0.00     0.116 C 
BRANCH  25  26
ATOM     26  N   UNL     1      -2.422  -5.995   9.626  1.00  0.00    -0.352 N 
ATOM     27  C   UNL     1      -3.014  -7.159  10.054  1.00  0.00     0.251 C 
ATOM     28  H   UNL     1      -2.080  -6.000   8.703  1.00  0.00     0.163 HD
ATOM     29  O   UNL     1      -3.038  -8.156   9.341  1.00  0.00    -0.269 OA
BRANCH  27  30
ATOM     30  C   UNL     1      -3.579  -7.201  11.414  1.00  0.00     0.039 A 
ATOM     31  C   UNL     1      -3.113  -8.170  12.304  1.00  0.00     0.014 A 
ATOM     32  C   UNL     1      -4.501  -6.233  11.822  1.00  0.00     0.014 A 
ATOM     33  C   UNL     1      -3.517  -8.122  13.637  1.00  0.00     0.010 A 
ATOM     34  C   UNL     1      -4.854  -6.151  13.164  1.00  0.00     0.010 A 
ATOM     35  C   UNL     1      -4.359  -7.089  14.082  1.00  0.00    -0.014 A 
BRANCH  35  36
ATOM     36  C   UNL     1      -4.731  -6.973  15.511  1.00  0.00     0.031 A 
ATOM     37  C   UNL     1      -6.152  -7.197  15.933  1.00  0.00     0.074 A 
ATOM     38  C   UNL     1      -3.799  -6.614  16.415  1.00  0.00     0.049 A 
ATOM     39  N   UNL     1      -6.688  -7.089  17.121  1.00  0.00    -0.248 NA
ATOM     40  C   UNL     1      -7.104  -7.569  14.874  1.00  0.00     0.031 C 
ATOM     41  C   UNL     1      -2.394  -6.331  16.114  1.00  0.00     0.029 A 
ATOM     42  N   UNL     1      -3.893  -6.425  17.770  1.00  0.00    -0.354 N 
ATOM     43  C   UNL     1      -8.036  -7.372  16.951  1.00  0.00     0.074 A 
ATOM     44  C   UNL     1      -8.249  -7.603  15.539  1.00  0.00     0.031 C 
ATOM     45  C   UNL     1      -1.752  -6.036  17.256  1.00  0.00     0.029 A 
ATOM     46  C   UNL     1      -2.704  -6.079  18.362  1.00  0.00     0.049 A 
ATOM     47  H   UNL     1      -4.735  -6.527  18.271  1.00  0.00     0.167 HD
ATOM     48  C   UNL     1      -9.002  -7.459  17.894  1.00  0.00     0.037 A 
ATOM     49  C   UNL     1      -2.416  -5.831  19.654  1.00  0.00     0.037 A 
ATOM     50  C   UNL     1      -8.781  -7.255  19.300  1.00  0.00     0.049 A 
ATOM     51  C   UNL     1      -3.510  -5.926  20.680  1.00  0.00     0.074 A 
ATOM     52  C   UNL     1      -9.686  -7.364  20.340  1.00  0.00     0.029 A 
ATOM     53  N   UNL     1      -7.562  -6.906  19.862  1.00  0.00    -0.354 N 
ATOM     54  N   UNL     1      -4.772  -6.238  20.515  1.00  0.00    -0.248 NA
ATOM     55  C   UNL     1      -3.141  -5.634  22.073  1.00  0.00     0.031 C 
ATOM     56  C   UNL     1      -9.022  -7.053  21.530  1.00  0.00     0.029 A 
ATOM     57  C   UNL     1      -7.695  -6.783  21.235  1.00  0.00     0.049 A 
ATOM     58  H   UNL     1      -6.727  -6.766  19.360  1.00  0.00     0.167 HD
ATOM     59  C   UNL     1      -5.344  -6.200  21.779  1.00  0.00     0.074 A 
ATOM     60  C   UNL     1      -4.288  -5.846  22.705  1.00  0.00     0.031 C 
ATOM     61  C   UNL     1      -6.629  -6.435  22.139  1.00  0.00     0.037 A 
BRANCH  48  62
ATOM     62  C   UNL     1     -10.385  -7.809  17.434  1.00  0.00     0.064 A 
ATOM     63  C   UNL     1     -10.701  -9.106  17.003  1.00  0.00     0.173 A 
ATOM     64  C   UNL     1     -11.411  -6.854  17.457  1.00  0.00     0.173 A 
ATOM     65  F   UNL     1      -9.749 -10.050  16.949  1.00  0.00    -0.203 F 
ATOM     66  C   UNL     1     -11.991  -9.428  16.591  1.00  0.00     0.198 A 
ATOM     67  C   UNL     1     -12.705  -7.186  17.068  1.00  0.00     0.198 A 
ATOM     68  F   UNL     1     -11.159  -5.600  17.862  1.00  0.00    -0.203 F 
ATOM     69  F   UNL     1     -12.261 -10.663  16.144  1.00  0.00    -0.200 F 
ATOM     70  C   UNL     1     -12.993  -8.471  16.630  1.00  0.00     0.200 A 
ATOM     71  F   UNL     1     -13.675  -6.263  17.114  1.00  0.00    -0.200 F 
ATOM     72  F   UNL     1     -14.236  -8.784  16.240  1.00  0.00    -0.200 F 
ENDBRANCH  48  62
BRANCH  49  73
ATOM     73  C   UNL     1      -1.021  -5.515  20.051  1.00  0.00     0.064 A 
ATOM     74  C   UNL     1      -0.248  -6.457  20.744  1.00  0.00     0.173 A 
ATOM     75  C   UNL     1      -0.427  -4.286  19.734  1.00  0.00     0.173 A 
ATOM     76  F   UNL     1      -0.780  -7.639  21.085  1.00  0.00    -0.203 F 
ATOM     77  C   UNL     1       1.066  -6.177  21.113  1.00  0.00     0.198 A 
ATOM     78  C   UNL     1       0.894  -4.015  20.085  1.00  0.00     0.198 A 
ATOM     79  F   UNL     1      -1.126  -3.355  19.068  1.00  0.00    -0.203 F 
ATOM     80  F   UNL     1       1.774  -7.083  21.800  1.00  0.00    -0.200 F 
ATOM     81  C   UNL     1       1.638  -4.958  20.778  1.00  0.00     0.200 A 
ATOM     82  F   UNL     1       1.447  -2.841  19.750  1.00  0.00    -0.200 F 
ATOM     83  F   UNL     1       2.904  -4.692  21.126  1.00  0.00    -0.200 F 
ENDBRANCH  49  73
BRANCH  61  84
ATOM     84  C   UNL     1      -6.968  -6.334  23.595  1.00  0.00     0.064 A 
ATOM     85  C   UNL     1      -7.101  -5.090  24.226  1.00  0.00     0.173 A 
ATOM     86  C   UNL     1      -7.238  -7.489  24.343  1.00  0.00     0.173 A 
ATOM     87  F   UNL     1      -6.839  -3.959  23.553  1.00  0.00    -0.203 F 
ATOM     88  C   UNL     1      -7.485  -5.006  25.561  1.00  0.00     0.198 A 
ATOM     89  C   UNL     1      -7.644  -7.400  25.671  1.00  0.00     0.198 A 
ATOM     90  F   UNL     1      -7.130  -8.701  23.779  1.00  0.00    -0.203 F 
ATOM     91  F   UNL     1      -7.582  -3.808  26.154  1.00  0.00    -0.200 F 
ATOM     92  C   UNL     1      -7.765  -6.159  26.279  1.00  0.00     0.200 A 
ATOM     93  F   UNL     1      -7.926  -8.514  26.361  1.00  0.00    -0.200 F 
ATOM     94  F   UNL     1      -8.151  -6.075  27.560  1.00  0.00    -0.200 F 
ENDBRANCH  61  84
ENDBRANCH  35  36
ENDBRANCH  27  30
ENDBRANCH  25  26
ENDBRANCH   1  25
TORSDOF 12
