REMARK SMILES CC(=O)OCC1=C(C(=O)NCCCCNC(=O)c2ccc(-c3c4nc(c(-c5c(F)c(F)c(F)c(F)c5F)c5ccc([nH]5)c(-c5c(F)c(F)c(F)c(F)c5F)c5nc(c(-c6c(F)c(F)c(F)c(F)c6F)c6ccc3[nH]6)C=C5)C=C4)cc2)N2C(=O)[C@H](NC(=O)c3c(C)nn(C(F)F)c3C)[C@@H]2SC1
REMARK SMILES IDX 12 1 11 2 10 3 8 4 9 5 7 7 6 8 100 9 81 10 99 11 82 12 98 13
REMARK SMILES IDX 83 14 84 15 5 16 4 17 2 18 1 19 3 20 85 21 86 22 87 24 88 25
REMARK SMILES IDX 89 26 96 27 90 28 91 29 92 30 97 31 93 32 94 33 95 34 13 35
REMARK SMILES IDX 14 36 15 37 16 38 17 40 18 41 19 42 80 43 20 44 79 45 21 46
REMARK SMILES IDX 22 47 23 48 73 49 24 50 78 51 72 52 74 53 25 54 77 55 71 56
REMARK SMILES IDX 70 57 26 59 58 60 38 61 57 62 39 63 42 64 56 65 75 66 40 67
REMARK SMILES IDX 41 68 55 70 76 71 43 72 27 73 28 74 36 75 29 76 30 77 34 78
REMARK SMILES IDX 37 79 31 80 32 81 35 82 33 83 59 84 60 85 68 86 61 87 62 88
REMARK SMILES IDX 66 89 69 90 63 91 64 92 67 93 65 94 44 95 45 96 53 97 46 98
REMARK SMILES IDX 47 99 51 100 54 101 48 102 49 103 52 104 50 105
REMARK H PARENT 10 6 85 23 15 39 74 58 42 69
REMARK Flexibility Score: inf
ROOT
ATOM      1  C   UNL     1       0.261  -1.683  -2.444  1.00  0.00     0.023 C 
ENDROOT
BRANCH   1   2
ATOM      2  C   UNL     1       1.595  -2.338  -2.049  1.00  0.00     0.116 C 
BRANCH   2   3
ATOM      3  N   UNL     1       2.156  -1.897  -0.777  1.00  0.00    -0.351 N 
ATOM      4  C   UNL     1       2.295  -2.492   0.451  1.00  0.00     0.268 C 
ATOM      5  O   UNL     1       2.884  -1.849   1.320  1.00  0.00    -0.268 OA
ATOM      6  H   UNL     1       2.509  -0.979  -0.806  1.00  0.00     0.163 HD
BRANCH   4   7
ATOM      7  C   UNL     1       1.754  -3.873   0.753  1.00  0.00     0.114 C 
ATOM      8  C   UNL     1       0.540  -4.332   0.355  1.00  0.00     0.007 C 
ATOM      9  C   UNL     1       0.187  -5.815   0.279  1.00  0.00     0.108 C 
ATOM     10  N   UNL     1       2.382  -4.620   1.717  1.00  0.00    -0.290 N 
ATOM     11  S   UNL     1       1.331  -6.921   1.152  1.00  0.00    -0.129 SA
ATOM     12  C   UNL     1       3.461  -4.601   2.527  1.00  0.00     0.253 C 
ATOM     13  C   UNL     1       1.667  -5.671   2.418  1.00  0.00     0.181 C 
ATOM     14  O   UNL     1       4.459  -3.921   2.589  1.00  0.00    -0.272 OA
ATOM     15  C   UNL     1       2.892  -5.821   3.344  1.00  0.00     0.206 C 
BRANCH   8  16
ATOM     16  C   UNL     1      -0.681  -3.463   0.158  1.00  0.00     0.267 C 
BRANCH  16  17
ATOM     17  O   UNL     1      -0.406  -2.073   0.359  1.00  0.00    -0.461 OA
BRANCH  17  18
ATOM     18  C   UNL     1      -0.595  -1.507   1.574  1.00  0.00     0.302 C 
ATOM     19  C   UNL     1      -0.040  -0.108   1.550  1.00  0.00     0.139 C 
ATOM     20  O   UNL     1      -1.091  -2.066   2.538  1.00  0.00    -0.253 OA
ENDBRANCH  17  18
ENDBRANCH  16  17
ENDBRANCH   8  16
BRANCH  15  21
ATOM     21  N   UNL     1       3.661  -7.082   3.270  1.00  0.00    -0.337 N 
ATOM     22  C   UNL     1       3.816  -8.058   4.227  1.00  0.00     0.255 C 
ATOM     23  H   UNL     1       4.126  -7.246   2.418  1.00  0.00     0.164 HD
ATOM     24  O   UNL     1       4.633  -8.954   4.027  1.00  0.00    -0.269 OA
BRANCH  22  25
ATOM     25  C   UNL     1       3.049  -7.981   5.461  1.00  0.00     0.083 A 
ATOM     26  C   UNL     1       3.561  -8.080   6.785  1.00  0.00     0.073 A 
ATOM     27  C   UNL     1       1.668  -7.939   5.633  1.00  0.00     0.054 A 
ATOM     28  C   UNL     1       4.964  -8.277   7.232  1.00  0.00     0.069 C 
ATOM     29  N   UNL     1       2.598  -7.969   7.705  1.00  0.00    -0.172 NA
ATOM     30  N   UNL     1       1.454  -7.860   6.996  1.00  0.00    -0.208 N 
ATOM     31  C   UNL     1       0.555  -8.034   4.656  1.00  0.00     0.067 C 
BRANCH  30  32
ATOM     32  C   UNL     1       0.176  -7.693   7.695  1.00  0.00     0.465 C 
ATOM     33  F   UNL     1      -0.157  -8.791   8.424  1.00  0.00    -0.184 F 
ATOM     34  F   UNL     1       0.195  -6.632   8.547  1.00  0.00    -0.184 F 
ENDBRANCH  30  32
ENDBRANCH  22  25
ENDBRANCH  15  21
ENDBRANCH   4   7
ENDBRANCH   2   3
ENDBRANCH   1   2
BRANCH   1  35
ATOM     35  C   UNL     1       0.250  -0.164  -2.553  1.00  0.00     0.023 C 
BRANCH  35  36
ATOM     36  C   UNL     1       0.901   0.333  -3.823  1.00  0.00     0.116 C 
BRANCH  36  37
ATOM     37  N   UNL     1       0.274  -0.227  -5.019  1.00  0.00    -0.352 N 
ATOM     38  C   UNL     1      -0.129   0.411  -6.162  1.00  0.00     0.251 C 
ATOM     39  H   UNL     1       0.118  -1.199  -4.999  1.00  0.00     0.163 HD
ATOM     40  O   UNL     1      -0.813  -0.167  -6.998  1.00  0.00    -0.269 OA
BRANCH  38  41
ATOM     41  C   UNL     1       0.268   1.813  -6.348  1.00  0.00     0.039 A 
ATOM     42  C   UNL     1      -0.676   2.741  -6.786  1.00  0.00     0.014 A 
ATOM     43  C   UNL     1       1.564   2.207  -6.010  1.00  0.00     0.014 A 
ATOM     44  C   UNL     1      -0.323   4.087  -6.832  1.00  0.00     0.010 A 
ATOM     45  C   UNL     1       1.864   3.551  -5.923  1.00  0.00     0.010 A 
ATOM     46  C   UNL     1       0.937   4.501  -6.369  1.00  0.00    -0.014 A 
BRANCH  46  47
ATOM     47  C   UNL     1       1.342   5.922  -6.402  1.00  0.00     0.031 A 
ATOM     48  C   UNL     1       2.532   6.325  -7.228  1.00  0.00     0.074 A 
ATOM     49  C   UNL     1       0.679   6.823  -5.654  1.00  0.00     0.049 A 
ATOM     50  N   UNL     1       3.095   7.498  -7.350  1.00  0.00    -0.248 NA
ATOM     51  C   UNL     1       3.208   5.258  -7.988  1.00  0.00     0.031 C 
ATOM     52  C   UNL     1      -0.453   6.526  -4.772  1.00  0.00     0.029 A 
ATOM     53  N   UNL     1       0.863   8.173  -5.515  1.00  0.00    -0.354 N 
ATOM     54  C   UNL     1       4.189   7.303  -8.183  1.00  0.00     0.074 A 
ATOM     55  C   UNL     1       4.266   5.890  -8.468  1.00  0.00     0.031 C 
ATOM     56  C   UNL     1      -0.888   7.668  -4.217  1.00  0.00     0.029 A 
ATOM     57  C   UNL     1      -0.039   8.766  -4.666  1.00  0.00     0.049 A 
ATOM     58  H   UNL     1       1.573   8.671  -5.980  1.00  0.00     0.167 HD
ATOM     59  C   UNL     1       5.030   8.228  -8.698  1.00  0.00     0.037 A 
ATOM     60  C   UNL     1      -0.157  10.054  -4.294  1.00  0.00     0.037 A 
ATOM     61  C   UNL     1       4.922   9.635  -8.431  1.00  0.00     0.049 A 
ATOM     62  C   UNL     1       0.803  11.061  -4.871  1.00  0.00     0.074 A 
ATOM     63  C   UNL     1       5.683  10.670  -8.940  1.00  0.00     0.029 A 
ATOM     64  N   UNL     1       3.989  10.203  -7.574  1.00  0.00    -0.354 N 
ATOM     65  N   UNL     1       1.786  10.879  -5.720  1.00  0.00    -0.248 NA
ATOM     66  C   UNL     1       0.631  12.456  -4.443  1.00  0.00     0.031 C 
ATOM     67  C   UNL     1       5.251  11.858  -8.345  1.00  0.00     0.029 A 
ATOM     68  C   UNL     1       4.174  11.573  -7.519  1.00  0.00     0.049 A 
ATOM     69  H   UNL     1       3.299   9.705  -7.079  1.00  0.00     0.167 HD
ATOM     70  C   UNL     1       2.328  12.136  -5.953  1.00  0.00     0.074 A 
ATOM     71  C   UNL     1       1.550  13.074  -5.170  1.00  0.00     0.031 C 
ATOM     72  C   UNL     1       3.376  12.486  -6.739  1.00  0.00     0.037 A 
BRANCH  59  73
ATOM     73  C   UNL     1       6.126   7.745  -9.603  1.00  0.00     0.064 A 
ATOM     74  C   UNL     1       5.853   7.194 -10.866  1.00  0.00     0.173 A 
ATOM     75  C   UNL     1       7.469   7.856  -9.215  1.00  0.00     0.173 A 
ATOM     76  F   UNL     1       4.585   7.047 -11.280  1.00  0.00    -0.203 F 
ATOM     77  C   UNL     1       6.881   6.746 -11.692  1.00  0.00     0.198 A 
ATOM     78  C   UNL     1       8.496   7.441 -10.059  1.00  0.00     0.198 A 
ATOM     79  F   UNL     1       7.788   8.372  -8.019  1.00  0.00    -0.203 F 
ATOM     80  F   UNL     1       6.591   6.171 -12.867  1.00  0.00    -0.200 F 
ATOM     81  C   UNL     1       8.202   6.879 -11.292  1.00  0.00     0.200 A 
ATOM     82  F   UNL     1       9.773   7.582  -9.677  1.00  0.00    -0.200 F 
ATOM     83  F   UNL     1       9.191   6.458 -12.092  1.00  0.00    -0.200 F 
ENDBRANCH  59  73
BRANCH  60  84
ATOM     84  C   UNL     1      -1.231  10.468  -3.352  1.00  0.00     0.064 A 
ATOM     85  C   UNL     1      -2.275  11.306  -3.771  1.00  0.00     0.173 A 
ATOM     86  C   UNL     1      -1.229  10.052  -2.013  1.00  0.00     0.173 A 
ATOM     87  F   UNL     1      -2.316  11.743  -5.038  1.00  0.00    -0.203 F 
ATOM     88  C   UNL     1      -3.254  11.739  -2.879  1.00  0.00     0.198 A 
ATOM     89  C   UNL     1      -2.228  10.458  -1.130  1.00  0.00     0.198 A 
ATOM     90  F   UNL     1      -0.261   9.241  -1.562  1.00  0.00    -0.203 F 
ATOM     91  F   UNL     1      -4.205  12.588  -3.292  1.00  0.00    -0.200 F 
ATOM     92  C   UNL     1      -3.232  11.311  -1.560  1.00  0.00     0.200 A 
ATOM     93  F   UNL     1      -2.214  10.025   0.138  1.00  0.00    -0.200 F 
ATOM     94  F   UNL     1      -4.173  11.728  -0.703  1.00  0.00    -0.200 F 
ENDBRANCH  60  84
BRANCH  72  95
ATOM     95  C   UNL     1       3.713  13.946  -6.827  1.00  0.00     0.064 A 
ATOM     96  C   UNL     1       4.265  14.644  -5.743  1.00  0.00     0.173 A 
ATOM     97  C   UNL     1       3.520  14.644  -8.030  1.00  0.00     0.173 A 
ATOM     98  F   UNL     1       4.457  14.025  -4.568  1.00  0.00    -0.203 F 
ATOM     99  C   UNL     1       4.581  15.995  -5.850  1.00  0.00     0.198 A 
ATOM    100  C   UNL     1       3.874  15.985  -8.144  1.00  0.00     0.198 A 
ATOM    101  F   UNL     1       3.005  14.020  -9.100  1.00  0.00    -0.203 F 
ATOM    102  F   UNL     1       5.053  16.657  -4.784  1.00  0.00    -0.200 F 
ATOM    103  C   UNL     1       4.394  16.662  -7.052  1.00  0.00     0.200 A 
ATOM    104  F   UNL     1       3.712  16.620  -9.313  1.00  0.00    -0.200 F 
ATOM    105  F   UNL     1       4.709  17.960  -7.156  1.00  0.00    -0.200 F 
ENDBRANCH  72  95
ENDBRANCH  46  47
ENDBRANCH  38  41
ENDBRANCH  36  37
ENDBRANCH  35  36
ENDBRANCH   1  35
TORSDOF 17
