REMARK SMILES O=C(Cc1csc(NC(=O)[C@H]2CC(=O)N(C3CC3)C2)n1)NCCCCNC(=O)c1ccc(-c2c3nc(c(-c4c(F)c(F)c(F)c(F)c4F)c4ccc([nH]4)c(-c4c(F)c(F)c(F)c(F)c4F)c4nc(c(-c5c(F)c(F)c(F)c(F)c5F)c5ccc2[nH]5)C=C4)C=C3)cc1
REMARK SMILES IDX 22 1 21 2 1 3 2 4 3 6 4 7 5 8 20 9 6 10 7 11 8 12 9 13 10 15
REMARK SMILES IDX 11 16 12 17 19 18 13 19 15 20 14 21 16 22 17 23 18 24 23 25
REMARK SMILES IDX 24 26 25 27 26 28 27 29 28 31 29 32 30 33 91 34 31 35 90 36
REMARK SMILES IDX 32 37 33 38 34 39 84 40 35 41 89 42 83 43 85 44 36 45 88 46
REMARK SMILES IDX 82 47 81 48 37 50 69 51 49 52 68 53 50 54 53 55 67 56 86 57
REMARK SMILES IDX 51 58 52 59 66 61 87 62 54 63 38 64 39 65 47 66 40 67 41 68
REMARK SMILES IDX 45 69 48 70 42 71 43 72 46 73 44 74 70 75 71 76 79 77 72 78
REMARK SMILES IDX 73 79 77 80 80 81 74 82 75 83 78 84 76 85 55 86 56 87 64 88
REMARK SMILES IDX 57 89 58 90 62 91 65 92 59 93 60 94 63 95 61 96
REMARK H PARENT 21 5 8 14 26 30 85 49 53 60
REMARK Flexibility Score: inf
ROOT
ATOM      1  C   UNL     1       2.534  -3.886  -0.122  1.00  0.00     0.116 C 
ENDROOT
BRANCH   1   2
ATOM      2  N   UNL     1       2.150  -3.521   1.229  1.00  0.00    -0.356 N 
ATOM      3  O   UNL     1       3.302  -5.230   2.232  1.00  0.00    -0.275 OA
ATOM      4  C   UNL     1       2.626  -4.210   2.331  1.00  0.00     0.226 C 
ATOM      5  H   UNL     1       1.535  -2.764   1.365  1.00  0.00     0.163 HD
BRANCH   4   6
ATOM      6  C   UNL     1       2.218  -3.631   3.676  1.00  0.00     0.157 C 
BRANCH   6   7
ATOM      7  C   UNL     1       2.924  -2.356   4.032  1.00  0.00     0.063 A 
ATOM      8  C   UNL     1       3.073  -1.224   3.247  1.00  0.00     0.093 A 
ATOM      9  N   UNL     1       3.465  -2.215   5.311  1.00  0.00    -0.224 NA
ATOM     10  S   UNL     1       3.546   0.091   4.248  1.00  0.00    -0.105 S 
ATOM     11  C   UNL     1       4.053  -1.046   5.411  1.00  0.00     0.189 A 
BRANCH  11  12
ATOM     12  N   UNL     1       4.883  -0.699   6.436  1.00  0.00    -0.302 N 
ATOM     13  C   UNL     1       6.026   0.041   6.462  1.00  0.00     0.231 C 
ATOM     14  H   UNL     1       4.605  -1.044   7.315  1.00  0.00     0.172 HD
ATOM     15  O   UNL     1       6.501   0.261   7.585  1.00  0.00    -0.274 OA
BRANCH  13  16
ATOM     16  C   UNL     1       6.763   0.603   5.240  1.00  0.00     0.107 C 
ATOM     17  C   UNL     1       8.293   0.547   5.442  1.00  0.00     0.115 C 
ATOM     18  C   UNL     1       6.600  -0.135   3.934  1.00  0.00     0.133 C 
ATOM     19  C   UNL     1       8.872   0.351   4.052  1.00  0.00     0.223 C 
ATOM     20  N   UNL     1       7.829  -0.030   3.221  1.00  0.00    -0.339 N 
ATOM     21  O   UNL     1      10.046   0.478   3.766  1.00  0.00    -0.275 OA
BRANCH  20  22
ATOM     22  C   UNL     1       7.830  -0.367   1.834  1.00  0.00     0.085 C 
ATOM     23  C   UNL     1       9.002  -0.388   0.909  1.00  0.00     0.027 C 
ATOM     24  C   UNL     1       8.411  -1.682   1.392  1.00  0.00     0.027 C 
ENDBRANCH  20  22
ENDBRANCH  13  16
ENDBRANCH  11  12
ENDBRANCH   6   7
ENDBRANCH   4   6
ENDBRANCH   1   2
BRANCH   1  25
ATOM     25  C   UNL     1       1.507  -3.449  -1.166  1.00  0.00     0.023 C 
BRANCH  25  26
ATOM     26  C   UNL     1       1.325  -1.935  -1.316  1.00  0.00     0.023 C 
BRANCH  26  27
ATOM     27  C   UNL     1       2.559  -1.164  -1.778  1.00  0.00     0.116 C 
BRANCH  27  28
ATOM     28  N   UNL     1       2.967  -1.505  -3.131  1.00  0.00    -0.352 N 
ATOM     29  C   UNL     1       3.142  -0.702  -4.234  1.00  0.00     0.251 C 
ATOM     30  H   UNL     1       3.147  -2.461  -3.282  1.00  0.00     0.163 HD
ATOM     31  O   UNL     1       3.344  -1.213  -5.332  1.00  0.00    -0.269 OA
BRANCH  29  32
ATOM     32  C   UNL     1       3.059   0.773  -4.121  1.00  0.00     0.039 A 
ATOM     33  C   UNL     1       2.374   1.485  -5.111  1.00  0.00     0.014 A 
ATOM     34  C   UNL     1       3.664   1.460  -3.066  1.00  0.00     0.014 A 
ATOM     35  C   UNL     1       2.231   2.872  -5.001  1.00  0.00     0.010 A 
ATOM     36  C   UNL     1       3.454   2.831  -2.917  1.00  0.00     0.010 A 
ATOM     37  C   UNL     1       2.732   3.553  -3.880  1.00  0.00    -0.014 A 
BRANCH  37  38
ATOM     38  C   UNL     1       2.496   5.010  -3.693  1.00  0.00     0.031 A 
ATOM     39  C   UNL     1       3.652   5.972  -3.647  1.00  0.00     0.074 A 
ATOM     40  C   UNL     1       1.241   5.463  -3.499  1.00  0.00     0.049 A 
ATOM     41  N   UNL     1       3.647   7.264  -3.426  1.00  0.00    -0.248 NA
ATOM     42  C   UNL     1       4.993   5.405  -3.850  1.00  0.00     0.031 C 
ATOM     43  C   UNL     1       0.037   4.631  -3.482  1.00  0.00     0.029 A 
ATOM     44  N   UNL     1       0.769   6.732  -3.271  1.00  0.00    -0.354 N 
ATOM     45  C   UNL     1       4.979   7.658  -3.450  1.00  0.00     0.074 A 
ATOM     46  C   UNL     1       5.768   6.462  -3.653  1.00  0.00     0.031 C 
ATOM     47  C   UNL     1      -1.036   5.413  -3.283  1.00  0.00     0.029 A 
ATOM     48  C   UNL     1      -0.595   6.794  -3.111  1.00  0.00     0.049 A 
ATOM     49  H   UNL     1       1.353   7.524  -3.226  1.00  0.00     0.167 HD
ATOM     50  C   UNL     1       5.495   8.906  -3.336  1.00  0.00     0.037 A 
ATOM     51  C   UNL     1      -1.399   7.842  -2.847  1.00  0.00     0.037 A 
ATOM     52  C   UNL     1       4.707  10.097  -3.155  1.00  0.00     0.049 A 
ATOM     53  C   UNL     1      -0.795   9.213  -2.697  1.00  0.00     0.074 A 
ATOM     54  C   UNL     1       5.134  11.412  -3.091  1.00  0.00     0.029 A 
ATOM     55  N   UNL     1       3.328  10.118  -2.998  1.00  0.00    -0.354 N 
ATOM     56  N   UNL     1       0.458   9.583  -2.795  1.00  0.00    -0.248 NA
ATOM     57  C   UNL     1      -1.723  10.316  -2.404  1.00  0.00     0.031 C 
ATOM     58  C   UNL     1       4.024  12.222  -2.831  1.00  0.00     0.029 A 
ATOM     59  C   UNL     1       2.894  11.421  -2.803  1.00  0.00     0.049 A 
ATOM     60  H   UNL     1       2.745   9.326  -3.021  1.00  0.00     0.167 HD
ATOM     61  C   UNL     1       0.467  10.960  -2.611  1.00  0.00     0.074 A 
ATOM     62  C   UNL     1      -0.909  11.362  -2.410  1.00  0.00     0.031 C 
ATOM     63  C   UNL     1       1.520  11.813  -2.611  1.00  0.00     0.037 A 
BRANCH  50  64
ATOM     64  C   UNL     1       6.991   9.050  -3.396  1.00  0.00     0.064 A 
ATOM     65  C   UNL     1       7.711   8.814  -4.578  1.00  0.00     0.173 A 
ATOM     66  C   UNL     1       7.710   9.473  -2.267  1.00  0.00     0.173 A 
ATOM     67  F   UNL     1       7.075   8.401  -5.685  1.00  0.00    -0.203 F 
ATOM     68  C   UNL     1       9.095   8.962  -4.617  1.00  0.00     0.198 A 
ATOM     69  C   UNL     1       9.089   9.655  -2.320  1.00  0.00     0.198 A 
ATOM     70  F   UNL     1       7.072   9.721  -1.113  1.00  0.00    -0.203 F 
ATOM     71  F   UNL     1       9.765   8.678  -5.742  1.00  0.00    -0.200 F 
ATOM     72  C   UNL     1       9.782   9.390  -3.492  1.00  0.00     0.200 A 
ATOM     73  F   UNL     1       9.749  10.086  -1.236  1.00  0.00    -0.200 F 
ATOM     74  F   UNL     1      11.113   9.542  -3.534  1.00  0.00    -0.200 F 
ENDBRANCH  50  64
BRANCH  51  75
ATOM     75  C   UNL     1      -2.868   7.643  -2.723  1.00  0.00     0.064 A 
ATOM     76  C   UNL     1      -3.750   8.182  -3.671  1.00  0.00     0.173 A 
ATOM     77  C   UNL     1      -3.422   6.925  -1.653  1.00  0.00     0.173 A 
ATOM     78  F   UNL     1      -3.271   8.894  -4.701  1.00  0.00    -0.203 F 
ATOM     79  C   UNL     1      -5.129   8.033  -3.539  1.00  0.00     0.198 A 
ATOM     80  C   UNL     1      -4.800   6.749  -1.540  1.00  0.00     0.198 A 
ATOM     81  F   UNL     1      -2.623   6.384  -0.721  1.00  0.00    -0.203 F 
ATOM     82  F   UNL     1      -5.950   8.605  -4.430  1.00  0.00    -0.200 F 
ATOM     83  C   UNL     1      -5.653   7.311  -2.477  1.00  0.00     0.200 A 
ATOM     84  F   UNL     1      -5.300   6.036  -0.521  1.00  0.00    -0.200 F 
ATOM     85  F   UNL     1      -6.979   7.165  -2.352  1.00  0.00    -0.200 F 
ENDBRANCH  51  75
BRANCH  63  86
ATOM     86  C   UNL     1       1.227  13.276  -2.431  1.00  0.00     0.064 A 
ATOM     87  C   UNL     1       0.781  13.798  -1.208  1.00  0.00     0.173 A 
ATOM     88  C   UNL     1       1.431  14.175  -3.490  1.00  0.00     0.173 A 
ATOM     89  F   UNL     1       0.555  12.982  -0.167  1.00  0.00    -0.203 F 
ATOM     90  C   UNL     1       0.522  15.159  -1.061  1.00  0.00     0.198 A 
ATOM     91  C   UNL     1       1.206  15.539  -3.329  1.00  0.00     0.198 A 
ATOM     92  F   UNL     1       1.863  13.731  -4.680  1.00  0.00    -0.203 F 
ATOM     93  F   UNL     1       0.044  15.626   0.101  1.00  0.00    -0.200 F 
ATOM     94  C   UNL     1       0.744  16.029  -2.118  1.00  0.00     0.200 A 
ATOM     95  F   UNL     1       1.437  16.379  -4.347  1.00  0.00    -0.200 F 
ATOM     96  F   UNL     1       0.503  17.339  -1.972  1.00  0.00    -0.200 F 
ENDBRANCH  63  86
ENDBRANCH  37  38
ENDBRANCH  29  32
ENDBRANCH  27  28
ENDBRANCH  26  27
ENDBRANCH  25  26
ENDBRANCH   1  25
TORSDOF 15
