REMARK SMILES CN1CC[N@H+](CC(=O)NCCCCNC(=O)c2ccc(-c3c4nc(c(-c5c(F)c(F)c(F)c(F)c5F)c5ccc([nH]5)c(-c5c(F)c(F)c(F)c(F)c5F)c5nc(c(-c6c(F)c(F)c(F)c(F)c6F)c6ccc3[nH]6)C=C5)C=C4)cc2)C(C)(C)C1=O
REMARK SMILES IDX 12 1 11 2 10 3 9 4 7 5 8 6 6 8 5 9 1 10 2 11 3 12 83 13 4 14
REMARK SMILES IDX 80 15 84 16 81 17 82 18 13 20 14 21 15 22 16 24 17 25 18 26
REMARK SMILES IDX 79 27 19 28 78 29 20 30 21 31 22 32 72 33 23 34 77 35 71 36
REMARK SMILES IDX 73 37 24 38 76 39 70 40 69 41 25 43 57 44 37 45 56 46 38 47
REMARK SMILES IDX 41 48 55 49 74 50 39 51 40 52 54 54 75 55 42 56 26 57 27 58
REMARK SMILES IDX 35 59 28 60 29 61 33 62 36 63 30 64 31 65 34 66 32 67 58 68
REMARK SMILES IDX 59 69 67 70 60 71 61 72 65 73 68 74 62 75 63 76 66 77 64 78
REMARK SMILES IDX 43 79 44 80 52 81 45 82 46 83 50 84 53 85 47 86 48 87 51 88
REMARK SMILES IDX 49 89
REMARK H PARENT 9 7 5 19 14 23 73 42 41 53
REMARK Flexibility Score: inf
ROOT
ATOM      1  C   UNL     1       2.807  -2.998   1.452  1.00  0.00     0.023 C 
ENDROOT
BRANCH   1   2
ATOM      2  C   UNL     1       1.803  -3.422   2.515  1.00  0.00     0.023 C 
BRANCH   2   3
ATOM      3  C   UNL     1       1.912  -2.724   3.870  1.00  0.00     0.116 C 
BRANCH   3   4
ATOM      4  N   UNL     1       1.856  -1.271   3.805  1.00  0.00    -0.351 N 
ATOM      5  C   UNL     1       0.897  -0.343   4.076  1.00  0.00     0.275 C 
ATOM      6  O   UNL     1       1.270   0.837   4.069  1.00  0.00    -0.269 OA
ATOM      7  H   UNL     1       2.700  -0.869   3.495  1.00  0.00     0.163 HD
BRANCH   5   8
ATOM      8  C   UNL     1      -0.556  -0.691   4.429  1.00  0.00     0.364 C 
BRANCH   8   9
ATOM      9  N   UNL     1      -1.584  -0.565   3.351  1.00  0.00    -0.314 N 
ATOM     10  C   UNL     1       0.395   1.037  -0.149  1.00  0.00     0.147 C 
ATOM     11  N   UNL     1      -0.361   0.486   0.960  1.00  0.00    -0.335 N 
ATOM     12  C   UNL     1      -0.901   1.428   1.936  1.00  0.00     0.180 C 
ATOM     13  C   UNL     1      -0.311  -0.890   1.210  1.00  0.00     0.283 C 
ATOM     14  C   UNL     1      -1.872   0.817   2.953  1.00  0.00     0.285 C 
ATOM     15  C   UNL     1      -1.424  -1.448   2.167  1.00  0.00     0.172 C 
ATOM     16  O   UNL     1       0.426  -1.620   0.551  1.00  0.00    -0.268 OA
ATOM     17  C   UNL     1      -2.636  -1.490   1.193  1.00  0.00     0.090 C 
ATOM     18  C   UNL     1      -1.382  -2.907   2.666  1.00  0.00     0.090 C 
ATOM     19  H   UNL     1      -2.409  -0.928   3.829  1.00  0.00     0.349 HD
ENDBRANCH   8   9
ENDBRANCH   5   8
ENDBRANCH   3   4
ENDBRANCH   2   3
ENDBRANCH   1   2
BRANCH   1  20
ATOM     20  C   UNL     1       4.026  -3.877   1.452  1.00  0.00     0.116 C 
BRANCH  20  21
ATOM     21  N   UNL     1       3.705  -5.248   1.057  1.00  0.00    -0.352 N 
ATOM     22  C   UNL     1       4.425  -6.086   0.247  1.00  0.00     0.251 C 
ATOM     23  H   UNL     1       2.865  -5.615   1.418  1.00  0.00     0.163 HD
ATOM     24  O   UNL     1       3.960  -7.151  -0.147  1.00  0.00    -0.269 OA
BRANCH  22  25
ATOM     25  C   UNL     1       5.766  -5.650  -0.169  1.00  0.00     0.039 A 
ATOM     26  C   UNL     1       6.144  -5.770  -1.505  1.00  0.00     0.014 A 
ATOM     27  C   UNL     1       6.597  -5.025   0.763  1.00  0.00     0.014 A 
ATOM     28  C   UNL     1       7.356  -5.220  -1.912  1.00  0.00     0.010 A 
ATOM     29  C   UNL     1       7.711  -4.341   0.326  1.00  0.00     0.010 A 
ATOM     30  C   UNL     1       8.130  -4.481  -1.002  1.00  0.00    -0.014 A 
BRANCH  30  31
ATOM     31  C   UNL     1       9.440  -3.916  -1.378  1.00  0.00     0.031 A 
ATOM     32  C   UNL     1      10.668  -4.388  -0.651  1.00  0.00     0.074 A 
ATOM     33  C   UNL     1       9.506  -2.950  -2.310  1.00  0.00     0.049 A 
ATOM     34  N   UNL     1      11.907  -3.989  -0.769  1.00  0.00    -0.248 NA
ATOM     35  C   UNL     1      10.468  -5.414   0.388  1.00  0.00     0.031 C 
ATOM     36  C   UNL     1       8.363  -2.384  -3.028  1.00  0.00     0.029 A 
ATOM     37  N   UNL     1      10.586  -2.279  -2.816  1.00  0.00    -0.354 N 
ATOM     38  C   UNL     1      12.617  -4.698   0.190  1.00  0.00     0.074 A 
ATOM     39  C   UNL     1      11.663  -5.471   0.949  1.00  0.00     0.031 C 
ATOM     40  C   UNL     1       8.809  -1.490  -3.924  1.00  0.00     0.029 A 
ATOM     41  C   UNL     1      10.261  -1.391  -3.809  1.00  0.00     0.049 A 
ATOM     42  H   UNL     1      11.507  -2.419  -2.497  1.00  0.00     0.167 HD
ATOM     43  C   UNL     1      13.954  -4.737   0.390  1.00  0.00     0.037 A 
ATOM     44  C   UNL     1      11.058  -0.598  -4.547  1.00  0.00     0.037 A 
ATOM     45  C   UNL     1      14.888  -3.980  -0.397  1.00  0.00     0.049 A 
ATOM     46  C   UNL     1      12.541  -0.641  -4.299  1.00  0.00     0.074 A 
ATOM     47  C   UNL     1      16.268  -3.972  -0.332  1.00  0.00     0.029 A 
ATOM     48  N   UNL     1      14.524  -3.088  -1.397  1.00  0.00    -0.354 N 
ATOM     49  N   UNL     1      13.218  -1.370  -3.443  1.00  0.00    -0.248 NA
ATOM     50  C   UNL     1      13.370   0.244  -5.124  1.00  0.00     0.031 C 
ATOM     51  C   UNL     1      16.737  -3.030  -1.254  1.00  0.00     0.029 A 
ATOM     52  C   UNL     1      15.654  -2.499  -1.939  1.00  0.00     0.049 A 
ATOM     53  H   UNL     1      13.600  -2.901  -1.680  1.00  0.00     0.167 HD
ATOM     54  C   UNL     1      14.554  -1.056  -3.646  1.00  0.00     0.074 A 
ATOM     55  C   UNL     1      14.590  -0.078  -4.717  1.00  0.00     0.031 C 
ATOM     56  C   UNL     1      15.654  -1.531  -3.009  1.00  0.00     0.037 A 
BRANCH  43  57
ATOM     57  C   UNL     1      14.457  -5.620   1.498  1.00  0.00     0.064 A 
ATOM     58  C   UNL     1      14.306  -7.017   1.460  1.00  0.00     0.173 A 
ATOM     59  C   UNL     1      15.064  -5.062   2.632  1.00  0.00     0.173 A 
ATOM     60  F   UNL     1      13.716  -7.605   0.407  1.00  0.00    -0.203 F 
ATOM     61  C   UNL     1      14.688  -7.812   2.537  1.00  0.00     0.198 A 
ATOM     62  C   UNL     1      15.485  -5.865   3.690  1.00  0.00     0.198 A 
ATOM     63  F   UNL     1      15.238  -3.735   2.724  1.00  0.00    -0.203 F 
ATOM     64  F   UNL     1      14.450  -9.131   2.513  1.00  0.00    -0.200 F 
ATOM     65  C   UNL     1      15.281  -7.236   3.649  1.00  0.00     0.200 A 
ATOM     66  F   UNL     1      16.070  -5.308   4.759  1.00  0.00    -0.200 F 
ATOM     67  F   UNL     1      15.642  -8.001   4.689  1.00  0.00    -0.200 F 
ENDBRANCH  43  57
BRANCH  44  68
ATOM     68  C   UNL     1      10.471   0.242  -5.622  1.00  0.00     0.064 A 
ATOM     69  C   UNL     1      10.702  -0.064  -6.971  1.00  0.00     0.173 A 
ATOM     70  C   UNL     1       9.646   1.337  -5.334  1.00  0.00     0.173 A 
ATOM     71  F   UNL     1      11.495  -1.095  -7.297  1.00  0.00    -0.203 F 
ATOM     72  C   UNL     1      10.140   0.702  -7.990  1.00  0.00     0.198 A 
ATOM     73  C   UNL     1       9.062   2.087  -6.354  1.00  0.00     0.198 A 
ATOM     74  F   UNL     1       9.385   1.665  -4.060  1.00  0.00    -0.203 F 
ATOM     75  F   UNL     1      10.405   0.408  -9.270  1.00  0.00    -0.200 F 
ATOM     76  C   UNL     1       9.315   1.772  -7.681  1.00  0.00     0.200 A 
ATOM     77  F   UNL     1       8.251   3.109  -6.051  1.00  0.00    -0.200 F 
ATOM     78  F   UNL     1       8.766   2.503  -8.661  1.00  0.00    -0.200 F 
ENDBRANCH  44  68
BRANCH  56  79
ATOM     79  C   UNL     1      16.987  -1.028  -3.480  1.00  0.00     0.064 A 
ATOM     80  C   UNL     1      17.406   0.288  -3.240  1.00  0.00     0.173 A 
ATOM     81  C   UNL     1      17.875  -1.893  -4.137  1.00  0.00     0.173 A 
ATOM     82  F   UNL     1      16.588   1.157  -2.627  1.00  0.00    -0.203 F 
ATOM     83  C   UNL     1      18.655   0.729  -3.669  1.00  0.00     0.198 A 
ATOM     84  C   UNL     1      19.137  -1.460  -4.531  1.00  0.00     0.198 A 
ATOM     85  F   UNL     1      17.526  -3.165  -4.381  1.00  0.00    -0.203 F 
ATOM     86  F   UNL     1      19.014   2.006  -3.478  1.00  0.00    -0.200 F 
ATOM     87  C   UNL     1      19.522  -0.147  -4.305  1.00  0.00     0.200 A 
ATOM     88  F   UNL     1      19.980  -2.313  -5.128  1.00  0.00    -0.200 F 
ATOM     89  F   UNL     1      20.728   0.276  -4.707  1.00  0.00    -0.200 F 
ENDBRANCH  56  79
ENDBRANCH  30  31
ENDBRANCH  22  25
ENDBRANCH  20  21
ENDBRANCH   1  20
TORSDOF 12
