REMARK SMILES O=C(CC1(C[S@](=O)C[C@H]2Cc3ccccc3S2)CC1)NCCCCNC(=O)c1ccc(-c2c3nc(c(-c4c(F)c(F)c(F)c(F)c4F)c4ccc([nH]4)c(-c4c(F)c(F)c(F)c(F)c4F)c4nc(c(-c5c(F)c(F)c(F)c(F)c5F)c5ccc2[nH]5)C=C4)C=C3)cc1
REMARK SMILES IDX 21 1 20 2 1 3 2 4 3 6 4 7 18 8 19 9 5 10 6 11 7 12 8 13 9 14
REMARK SMILES IDX 10 15 17 16 11 17 16 18 12 19 15 20 13 21 14 22 22 23 23 24
REMARK SMILES IDX 24 25 25 26 26 27 27 29 28 30 29 31 90 32 30 33 89 34 31 35
REMARK SMILES IDX 32 36 33 37 83 38 34 39 88 40 82 41 84 42 35 43 87 44 81 45
REMARK SMILES IDX 80 46 36 48 68 49 48 50 67 51 49 52 52 53 66 54 85 55 50 56
REMARK SMILES IDX 51 57 65 59 86 60 53 61 37 62 38 63 46 64 39 65 40 66 44 67
REMARK SMILES IDX 47 68 41 69 42 70 45 71 43 72 69 73 70 74 78 75 71 76 72 77
REMARK SMILES IDX 76 78 79 79 73 80 74 81 77 82 75 83 54 84 55 85 63 86 56 87
REMARK SMILES IDX 57 88 61 89 64 90 58 91 59 92 62 93 60 94
REMARK H PARENT 20 5 25 28 84 47 52 58
REMARK Flexibility Score: inf
ROOT
ATOM      1  C   UNL     1       4.506  -2.891  -0.970  1.00  0.00     0.116 C 
ENDROOT
BRANCH   1   2
ATOM      2  N   UNL     1       4.808  -1.903   0.042  1.00  0.00    -0.356 N 
ATOM      3  O   UNL     1       6.888  -2.688   0.602  1.00  0.00    -0.275 OA
ATOM      4  C   UNL     1       5.992  -1.858   0.738  1.00  0.00     0.220 C 
ATOM      5  H   UNL     1       4.126  -1.222   0.243  1.00  0.00     0.163 HD
BRANCH   4   6
ATOM      6  C   UNL     1       6.084  -0.709   1.742  1.00  0.00     0.108 C 
BRANCH   6   7
ATOM      7  C   UNL     1       6.971   0.469   1.333  1.00  0.00    -0.009 C 
ATOM      8  C   UNL     1       8.151   0.705   2.288  1.00  0.00     0.009 C 
ATOM      9  C   UNL     1       8.409   0.204   0.915  1.00  0.00     0.009 C 
BRANCH   7  10
ATOM     10  C   UNL     1       6.300   1.758   0.877  1.00  0.00     0.112 C 
BRANCH  10  11
ATOM     11  S   UNL     1       4.777   1.836  -0.043  1.00  0.00     0.023 S 
ATOM     12  O   UNL     1       4.013   0.556  -0.070  1.00  0.00    -0.260 OA
BRANCH  11  13
ATOM     13  C   UNL     1       5.177   2.387  -1.705  1.00  0.00     0.120 C 
BRANCH  13  14
ATOM     14  C   UNL     1       6.240   1.734  -2.585  1.00  0.00     0.068 C 
ATOM     15  C   UNL     1       7.662   2.308  -2.426  1.00  0.00     0.052 C 
ATOM     16  S   UNL     1       6.333  -0.074  -2.582  1.00  0.00    -0.121 SA
ATOM     17  C   UNL     1       8.643   1.176  -2.398  1.00  0.00    -0.033 A 
ATOM     18  C   UNL     1       8.086  -0.100  -2.455  1.00  0.00     0.011 A 
ATOM     19  C   UNL     1      10.017   1.331  -2.236  1.00  0.00     0.005 A 
ATOM     20  C   UNL     1       8.874  -1.236  -2.338  1.00  0.00     0.015 A 
ATOM     21  C   UNL     1      10.818   0.194  -2.103  1.00  0.00     0.000 A 
ATOM     22  C   UNL     1      10.249  -1.084  -2.152  1.00  0.00     0.001 A 
ENDBRANCH  13  14
ENDBRANCH  11  13
ENDBRANCH  10  11
ENDBRANCH   7  10
ENDBRANCH   6   7
ENDBRANCH   4   6
ENDBRANCH   1   2
BRANCH   1  23
ATOM     23  C   UNL     1       3.003  -3.086  -1.187  1.00  0.00     0.023 C 
BRANCH  23  24
ATOM     24  C   UNL     1       2.190  -1.841  -1.568  1.00  0.00     0.023 C 
BRANCH  24  25
ATOM     25  C   UNL     1       2.600  -1.133  -2.856  1.00  0.00     0.116 C 
BRANCH  25  26
ATOM     26  N   UNL     1       2.190  -1.844  -4.058  1.00  0.00    -0.352 N 
ATOM     27  C   UNL     1       1.500  -1.393  -5.159  1.00  0.00     0.251 C 
ATOM     28  H   UNL     1       2.445  -2.795  -4.087  1.00  0.00     0.163 HD
ATOM     29  O   UNL     1       1.161  -2.182  -6.038  1.00  0.00    -0.269 OA
BRANCH  27  30
ATOM     30  C   UNL     1       1.116   0.034  -5.283  1.00  0.00     0.039 A 
ATOM     31  C   UNL     1       2.024   1.065  -5.030  1.00  0.00     0.014 A 
ATOM     32  C   UNL     1      -0.191   0.344  -5.676  1.00  0.00     0.014 A 
ATOM     33  C   UNL     1       1.585   2.391  -5.019  1.00  0.00     0.010 A 
ATOM     34  C   UNL     1      -0.614   1.677  -5.723  1.00  0.00     0.010 A 
ATOM     35  C   UNL     1       0.255   2.711  -5.341  1.00  0.00    -0.014 A 
BRANCH  35  36
ATOM     36  C   UNL     1      -0.228   4.116  -5.231  1.00  0.00     0.031 A 
ATOM     37  C   UNL     1      -1.254   4.490  -4.190  1.00  0.00     0.074 A 
ATOM     38  C   UNL     1       0.275   5.072  -6.037  1.00  0.00     0.049 A 
ATOM     39  N   UNL     1      -1.795   5.658  -3.942  1.00  0.00    -0.248 NA
ATOM     40  C   UNL     1      -1.736   3.412  -3.311  1.00  0.00     0.031 C 
ATOM     41  C   UNL     1       1.274   4.852  -7.082  1.00  0.00     0.029 A 
ATOM     42  N   UNL     1       0.022   6.421  -6.096  1.00  0.00    -0.354 N 
ATOM     43  C   UNL     1      -2.684   5.452  -2.895  1.00  0.00     0.074 A 
ATOM     44  C   UNL     1      -2.637   4.043  -2.571  1.00  0.00     0.031 C 
ATOM     45  C   UNL     1       1.573   6.028  -7.657  1.00  0.00     0.029 A 
ATOM     46  C   UNL     1       0.754   7.078  -7.055  1.00  0.00     0.049 A 
ATOM     47  H   UNL     1      -0.623   6.875  -5.507  1.00  0.00     0.167 HD
ATOM     48  C   UNL     1      -3.456   6.358  -2.247  1.00  0.00     0.037 A 
ATOM     49  C   UNL     1       0.759   8.375  -7.420  1.00  0.00     0.037 A 
ATOM     50  C   UNL     1      -3.491   7.766  -2.544  1.00  0.00     0.049 A 
ATOM     51  C   UNL     1      -0.145   9.350  -6.715  1.00  0.00     0.074 A 
ATOM     52  C   UNL     1      -4.221   8.761  -1.914  1.00  0.00     0.029 A 
ATOM     53  N   UNL     1      -2.765   8.382  -3.551  1.00  0.00    -0.354 N 
ATOM     54  N   UNL     1      -0.959   9.145  -5.709  1.00  0.00    -0.248 NA
ATOM     55  C   UNL     1      -0.133  10.739  -7.200  1.00  0.00     0.031 C 
ATOM     56  C   UNL     1      -3.968   9.971  -2.566  1.00  0.00     0.029 A 
ATOM     57  C   UNL     1      -3.045   9.739  -3.572  1.00  0.00     0.049 A 
ATOM     58  H   UNL     1      -2.143   7.923  -4.161  1.00  0.00     0.167 HD
ATOM     59  C   UNL     1      -1.541  10.375  -5.431  1.00  0.00     0.074 A 
ATOM     60  C   UNL     1      -0.972  11.328  -6.360  1.00  0.00     0.031 C 
ATOM     61  C   UNL     1      -2.468  10.683  -4.493  1.00  0.00     0.037 A 
BRANCH  48  62
ATOM     62  C   UNL     1      -4.333   5.869  -1.132  1.00  0.00     0.064 A 
ATOM     63  C   UNL     1      -3.798   5.523   0.117  1.00  0.00     0.173 A 
ATOM     64  C   UNL     1      -5.728   5.847  -1.279  1.00  0.00     0.173 A 
ATOM     65  F   UNL     1      -2.470   5.523   0.306  1.00  0.00    -0.203 F 
ATOM     66  C   UNL     1      -4.628   5.167   1.177  1.00  0.00     0.198 A 
ATOM     67  C   UNL     1      -6.556   5.515  -0.210  1.00  0.00     0.198 A 
ATOM     68  F   UNL     1      -6.290   6.181  -2.451  1.00  0.00    -0.203 F 
ATOM     69  F   UNL     1      -4.094   4.823   2.358  1.00  0.00    -0.200 F 
ATOM     70  C   UNL     1      -6.006   5.174   1.016  1.00  0.00     0.200 A 
ATOM     71  F   UNL     1      -7.888   5.539  -0.362  1.00  0.00    -0.200 F 
ATOM     72  F   UNL     1      -6.804   4.856   2.045  1.00  0.00    -0.200 F 
ENDBRANCH  48  62
BRANCH  49  73
ATOM     73  C   UNL     1       1.659   8.833  -8.510  1.00  0.00     0.064 A 
ATOM     74  C   UNL     1       2.751   9.669  -8.238  1.00  0.00     0.173 A 
ATOM     75  C   UNL     1       1.445   8.450  -9.842  1.00  0.00     0.173 A 
ATOM     76  F   UNL     1       2.981  10.081  -6.982  1.00  0.00    -0.203 F 
ATOM     77  C   UNL     1       3.588  10.113  -9.258  1.00  0.00     0.198 A 
ATOM     78  C   UNL     1       2.300   8.872 -10.858  1.00  0.00     0.198 A 
ATOM     79  F   UNL     1       0.413   7.654 -10.154  1.00  0.00    -0.203 F 
ATOM     80  F   UNL     1       4.602  10.943  -8.976  1.00  0.00    -0.200 F 
ATOM     81  C   UNL     1       3.367   9.709 -10.566  1.00  0.00     0.200 A 
ATOM     82  F   UNL     1       2.090   8.468 -12.118  1.00  0.00    -0.200 F 
ATOM     83  F   UNL     1       4.178  10.130 -11.546  1.00  0.00    -0.200 F 
ENDBRANCH  49  73
BRANCH  61  84
ATOM     84  C   UNL     1      -2.921  12.110  -4.400  1.00  0.00     0.064 A 
ATOM     85  C   UNL     1      -3.772  12.672  -5.362  1.00  0.00     0.173 A 
ATOM     86  C   UNL     1      -2.558  12.902  -3.299  1.00  0.00     0.173 A 
ATOM     87  F   UNL     1      -4.136  11.960  -6.439  1.00  0.00    -0.203 F 
ATOM     88  C   UNL     1      -4.233  13.980  -5.233  1.00  0.00     0.198 A 
ATOM     89  C   UNL     1      -3.043  14.200  -3.160  1.00  0.00     0.198 A 
ATOM     90  F   UNL     1      -1.752  12.409  -2.348  1.00  0.00    -0.203 F 
ATOM     91  F   UNL     1      -5.020  14.507  -6.181  1.00  0.00    -0.200 F 
ATOM     92  C   UNL     1      -3.877  14.738  -4.128  1.00  0.00     0.200 A 
ATOM     93  F   UNL     1      -2.708  14.926  -2.084  1.00  0.00    -0.200 F 
ATOM     94  F   UNL     1      -4.334  15.991  -3.998  1.00  0.00    -0.200 F 
ENDBRANCH  61  84
ENDBRANCH  35  36
ENDBRANCH  27  30
ENDBRANCH  25  26
ENDBRANCH  24  25
ENDBRANCH  23  24
ENDBRANCH   1  23
TORSDOF 16
