REMARK SMILES CC[C@@H]1C=CC[C@@H]2C(=O)N(CCCC(=O)NCCCCNC(=O)c3ccc(-c4c5nc(c(-c6c(F)c(F)c(F)c(F)c6F)c6ccc([nH]6)c(-c6c(F)c(F)c(F)c(F)c6F)c6nc(c(-c7c(F)c(F)c(F)c(F)c7F)c7ccc4[nH]7)C=C6)C=C5)cc3)C(=O)[C@@H]21
REMARK SMILES IDX 17 1 16 2 14 3 15 4 13 6 12 7 11 8 10 9 3 10 4 11 89 12 5 13
REMARK SMILES IDX 7 14 87 15 6 16 8 17 88 18 9 19 2 20 1 21 18 22 19 23 20 24
REMARK SMILES IDX 21 25 22 26 23 28 24 29 25 30 86 31 26 32 85 33 27 34 28 35
REMARK SMILES IDX 29 36 79 37 30 38 84 39 78 40 80 41 31 42 83 43 77 44 76 45
REMARK SMILES IDX 32 47 64 48 44 49 63 50 45 51 48 52 62 53 81 54 46 55 47 56
REMARK SMILES IDX 61 58 82 59 49 60 33 61 34 62 42 63 35 64 36 65 40 66 43 67
REMARK SMILES IDX 37 68 38 69 41 70 39 71 65 72 66 73 74 74 67 75 68 76 72 77
REMARK SMILES IDX 75 78 69 79 70 80 73 81 71 82 50 83 51 84 59 85 52 86 53 87
REMARK SMILES IDX 57 88 60 89 54 90 55 91 58 92 56 93
REMARK H PARENT 16 5 21 27 80 46 48 57
REMARK Flexibility Score: inf
ROOT
ATOM      1  C   UNL     1      -0.757   1.314   7.512  1.00  0.00     0.116 C 
ENDROOT
BRANCH   1   2
ATOM      2  N   UNL     1       0.221   2.084   8.237  1.00  0.00    -0.356 N 
ATOM      3  C   UNL     1       1.479   2.468   7.901  1.00  0.00     0.220 C 
ATOM      4  O   UNL     1       2.041   3.245   8.679  1.00  0.00    -0.275 OA
ATOM      5  H   UNL     1      -0.073   2.383   9.128  1.00  0.00     0.163 HD
BRANCH   3   6
ATOM      6  C   UNL     1       2.181   2.051   6.616  1.00  0.00     0.102 C 
BRANCH   6   7
ATOM      7  C   UNL     1       2.557   0.590   6.392  1.00  0.00     0.032 C 
BRANCH   7   8
ATOM      8  C   UNL     1       1.527  -0.453   5.956  1.00  0.00     0.129 C 
BRANCH   8   9
ATOM      9  N   UNL     1       0.824  -0.312   4.681  1.00  0.00    -0.282 N 
ATOM     10  C   UNL     1       1.264  -1.240   1.671  1.00  0.00     0.024 C 
ATOM     11  C   UNL     1       2.136  -0.001   1.630  1.00  0.00    -0.027 C 
ATOM     12  C   UNL     1       0.043  -1.068   2.615  1.00  0.00     0.099 C 
ATOM     13  C   UNL     1       1.577   1.218   1.601  1.00  0.00    -0.030 C 
ATOM     14  C   UNL     1      -0.414   0.380   2.797  1.00  0.00     0.096 C 
ATOM     15  C   UNL     1       0.404  -1.437   4.029  1.00  0.00     0.233 C 
ATOM     16  C   UNL     1       0.090   1.363   1.743  1.00  0.00     0.041 C 
ATOM     17  C   UNL     1       0.202   0.765   4.122  1.00  0.00     0.233 C 
ATOM     18  O   UNL     1       0.320  -2.560   4.497  1.00  0.00    -0.274 OA
ATOM     19  O   UNL     1       0.040   1.889   4.582  1.00  0.00    -0.274 OA
BRANCH  10  20
ATOM     20  C   UNL     1       2.049  -2.535   1.966  1.00  0.00     0.005 C 
ATOM     21  C   UNL     1       3.113  -2.858   0.929  1.00  0.00     0.004 C 
ENDBRANCH  10  20
ENDBRANCH   8   9
ENDBRANCH   7   8
ENDBRANCH   6   7
ENDBRANCH   3   6
ENDBRANCH   1   2
BRANCH   1  22
ATOM     22  C   UNL     1      -1.096  -0.006   8.202  1.00  0.00     0.023 C 
BRANCH  22  23
ATOM     23  C   UNL     1      -2.333   0.056   9.078  1.00  0.00     0.023 C 
BRANCH  23  24
ATOM     24  C   UNL     1      -3.616   0.356   8.316  1.00  0.00     0.116 C 
BRANCH  24  25
ATOM     25  N   UNL     1      -3.987  -0.660   7.338  1.00  0.00    -0.352 N 
ATOM     26  C   UNL     1      -5.244  -1.159   7.077  1.00  0.00     0.251 C 
ATOM     27  H   UNL     1      -3.251  -1.034   6.801  1.00  0.00     0.163 HD
ATOM     28  O   UNL     1      -5.414  -2.061   6.266  1.00  0.00    -0.269 OA
BRANCH  26  29
ATOM     29  C   UNL     1      -6.384  -0.617   7.843  1.00  0.00     0.039 A 
ATOM     30  C   UNL     1      -7.197  -1.498   8.555  1.00  0.00     0.014 A 
ATOM     31  C   UNL     1      -6.557   0.764   7.958  1.00  0.00     0.014 A 
ATOM     32  C   UNL     1      -8.133  -0.986   9.454  1.00  0.00     0.010 A 
ATOM     33  C   UNL     1      -7.410   1.266   8.932  1.00  0.00     0.010 A 
ATOM     34  C   UNL     1      -8.210   0.398   9.689  1.00  0.00    -0.014 A 
BRANCH  34  35
ATOM     35  C   UNL     1      -9.129   0.949  10.718  1.00  0.00     0.031 A 
ATOM     36  C   UNL     1     -10.225   1.897  10.314  1.00  0.00     0.074 A 
ATOM     37  C   UNL     1      -8.955   0.627  12.016  1.00  0.00     0.049 A 
ATOM     38  N   UNL     1     -11.117   2.499  11.061  1.00  0.00    -0.248 NA
ATOM     39  C   UNL     1     -10.317   2.239   8.885  1.00  0.00     0.031 C 
ATOM     40  C   UNL     1      -7.891  -0.232  12.543  1.00  0.00     0.029 A 
ATOM     41  N   UNL     1      -9.672   0.982  13.132  1.00  0.00    -0.354 N 
ATOM     42  C   UNL     1     -11.868   3.281  10.195  1.00  0.00     0.074 A 
ATOM     43  C   UNL     1     -11.283   3.145   8.881  1.00  0.00     0.031 C 
ATOM     44  C   UNL     1      -8.052  -0.372  13.869  1.00  0.00     0.029 A 
ATOM     45  C   UNL     1      -9.203   0.417  14.294  1.00  0.00     0.049 A 
ATOM     46  H   UNL     1     -10.450   1.585  13.103  1.00  0.00     0.167 HD
ATOM     47  C   UNL     1     -12.975   4.014  10.461  1.00  0.00     0.037 A 
ATOM     48  C   UNL     1      -9.653   0.526  15.559  1.00  0.00     0.037 A 
ATOM     49  C   UNL     1     -13.569   4.133  11.765  1.00  0.00     0.049 A 
ATOM     50  C   UNL     1     -10.873   1.371  15.827  1.00  0.00     0.074 A 
ATOM     51  C   UNL     1     -14.708   4.826  12.134  1.00  0.00     0.029 A 
ATOM     52  N   UNL     1     -13.069   3.541  12.915  1.00  0.00    -0.354 N 
ATOM     53  N   UNL     1     -11.619   2.043  14.985  1.00  0.00    -0.248 NA
ATOM     54  C   UNL     1     -11.320   1.461  17.224  1.00  0.00     0.031 C 
ATOM     55  C   UNL     1     -14.873   4.690  13.515  1.00  0.00     0.029 A 
ATOM     56  C   UNL     1     -13.870   3.866  13.998  1.00  0.00     0.049 A 
ATOM     57  H   UNL     1     -12.265   2.974  12.956  1.00  0.00     0.167 HD
ATOM     58  C   UNL     1     -12.640   2.603  15.742  1.00  0.00     0.074 A 
ATOM     59  C   UNL     1     -12.431   2.171  17.107  1.00  0.00     0.031 C 
ATOM     60  C   UNL     1     -13.657   3.408  15.346  1.00  0.00     0.037 A 
BRANCH  47  61
ATOM     61  C   UNL     1     -13.632   4.723   9.312  1.00  0.00     0.064 A 
ATOM     62  C   UNL     1     -14.300   4.013   8.302  1.00  0.00     0.173 A 
ATOM     63  C   UNL     1     -13.643   6.124   9.245  1.00  0.00     0.173 A 
ATOM     64  F   UNL     1     -14.306   2.671   8.310  1.00  0.00    -0.203 F 
ATOM     65  C   UNL     1     -14.937   4.678   7.258  1.00  0.00     0.198 A 
ATOM     66  C   UNL     1     -14.309   6.787   8.217  1.00  0.00     0.198 A 
ATOM     67  F   UNL     1     -13.021   6.851  10.186  1.00  0.00    -0.203 F 
ATOM     68  F   UNL     1     -15.530   3.978   6.282  1.00  0.00    -0.200 F 
ATOM     69  C   UNL     1     -14.950   6.064   7.223  1.00  0.00     0.200 A 
ATOM     70  F   UNL     1     -14.332   8.127   8.191  1.00  0.00    -0.200 F 
ATOM     71  F   UNL     1     -15.577   6.704   6.226  1.00  0.00    -0.200 F 
ENDBRANCH  47  61
BRANCH  48  72
ATOM     72  C   UNL     1      -8.975  -0.192  16.674  1.00  0.00     0.064 A 
ATOM     73  C   UNL     1      -9.632  -1.208  17.384  1.00  0.00     0.173 A 
ATOM     74  C   UNL     1      -7.682   0.159  17.090  1.00  0.00     0.173 A 
ATOM     75  F   UNL     1     -10.877  -1.568  17.039  1.00  0.00    -0.203 F 
ATOM     76  C   UNL     1      -9.042  -1.813  18.492  1.00  0.00     0.198 A 
ATOM     77  C   UNL     1      -7.079  -0.473  18.177  1.00  0.00     0.198 A 
ATOM     78  F   UNL     1      -7.005   1.119  16.444  1.00  0.00    -0.203 F 
ATOM     79  F   UNL     1      -9.724  -2.726  19.196  1.00  0.00    -0.200 F 
ATOM     80  C   UNL     1      -7.765  -1.446  18.887  1.00  0.00     0.200 A 
ATOM     81  F   UNL     1      -5.838  -0.126  18.544  1.00  0.00    -0.200 F 
ATOM     82  F   UNL     1      -7.201  -2.019  19.959  1.00  0.00    -0.200 F 
ENDBRANCH  48  72
BRANCH  60  83
ATOM     83  C   UNL     1     -14.648   3.828  16.394  1.00  0.00     0.064 A 
ATOM     84  C   UNL     1     -14.305   4.719  17.422  1.00  0.00     0.173 A 
ATOM     85  C   UNL     1     -15.967   3.350  16.352  1.00  0.00     0.173 A 
ATOM     86  F   UNL     1     -13.054   5.195  17.513  1.00  0.00    -0.203 F 
ATOM     87  C   UNL     1     -15.234   5.083  18.392  1.00  0.00     0.198 A 
ATOM     88  C   UNL     1     -16.904   3.746  17.302  1.00  0.00     0.198 A 
ATOM     89  F   UNL     1     -16.351   2.505  15.384  1.00  0.00    -0.203 F 
ATOM     90  F   UNL     1     -14.866   5.884  19.402  1.00  0.00    -0.200 F 
ATOM     91  C   UNL     1     -16.534   4.603  18.328  1.00  0.00     0.200 A 
ATOM     92  F   UNL     1     -18.163   3.295  17.228  1.00  0.00    -0.200 F 
ATOM     93  F   UNL     1     -17.427   4.958  19.261  1.00  0.00    -0.200 F 
ENDBRANCH  60  83
ENDBRANCH  34  35
ENDBRANCH  26  29
ENDBRANCH  24  25
ENDBRANCH  23  24
ENDBRANCH  22  23
ENDBRANCH   1  22
TORSDOF 15
