REMARK SMILES O=C(NCCCCNC(=O)[C@]12C[NH2+]C[C@H]1CN(C(=O)c1ccccc1-n1cncn1)C2)c1ccc(-c2c3nc(c(-c4c(F)c(F)c(F)c(F)c4F)c4ccc([nH]4)c(-c4c(F)c(F)c(F)c(F)c4F)c4nc(c(-c5c(F)c(F)c(F)c(F)c5F)c5ccc2[nH]5)C=C4)C=C3)cc1
REMARK SMILES IDX 6 1 5 2 4 3 3 4 1 5 2 6 32 8 33 9 94 10 34 11 93 12 35 13
REMARK SMILES IDX 36 14 37 15 87 16 38 17 92 18 86 19 88 20 39 21 91 22 85 23
REMARK SMILES IDX 84 24 40 26 72 27 52 28 71 29 53 30 56 31 70 32 89 33 54 34
REMARK SMILES IDX 55 35 69 37 90 38 57 39 41 40 42 41 50 42 43 43 44 44 48 45
REMARK SMILES IDX 51 46 45 47 46 48 49 49 47 50 73 51 74 52 82 53 75 54 76 55
REMARK SMILES IDX 80 56 83 57 77 58 78 59 81 60 79 61 58 62 59 63 67 64 60 65
REMARK SMILES IDX 61 66 65 67 68 68 62 69 63 70 66 71 64 72 7 73 8 74 9 75
REMARK SMILES IDX 10 77 11 78 12 79 15 80 31 81 13 82 14 83 16 84 17 85 18 88
REMARK SMILES IDX 19 89 20 90 21 91 25 92 22 93 24 94 23 95 26 96 27 97 30 98
REMARK SMILES IDX 28 99 29 100
REMARK H PARENT 3 7 88 25 56 36 8 76 13 86 13 87
REMARK Flexibility Score: inf
ROOT
ATOM      1  C   UNL     1       4.148   0.008  -3.337  1.00  0.00     0.023 C 
ENDROOT
BRANCH   1   2
ATOM      2  C   UNL     1       4.691  -0.466  -1.982  1.00  0.00     0.023 C 
BRANCH   2   3
ATOM      3  C   UNL     1       4.648   0.610  -0.895  1.00  0.00     0.116 C 
BRANCH   3   4
ATOM      4  N   UNL     1       3.314   1.105  -0.625  1.00  0.00    -0.352 N 
ATOM      5  O   UNL     1       1.227   1.290   0.103  1.00  0.00    -0.269 OA
ATOM      6  C   UNL     1       2.240   0.592   0.046  1.00  0.00     0.251 C 
ATOM      7  H   UNL     1       3.146   1.998  -1.004  1.00  0.00     0.163 HD
BRANCH   6   8
ATOM      8  C   UNL     1       2.210  -0.772   0.627  1.00  0.00     0.039 A 
ATOM      9  C   UNL     1       3.337  -1.549   0.906  1.00  0.00     0.014 A 
ATOM     10  C   UNL     1       0.937  -1.305   0.884  1.00  0.00     0.014 A 
ATOM     11  C   UNL     1       3.209  -2.875   1.278  1.00  0.00     0.010 A 
ATOM     12  C   UNL     1       0.801  -2.612   1.321  1.00  0.00     0.010 A 
ATOM     13  C   UNL     1       1.939  -3.408   1.458  1.00  0.00    -0.014 A 
BRANCH  13  14
ATOM     14  C   UNL     1       1.847  -4.785   1.920  1.00  0.00     0.031 A 
ATOM     15  C   UNL     1       2.397  -5.040   3.292  1.00  0.00     0.074 A 
ATOM     16  C   UNL     1       1.145  -5.686   1.206  1.00  0.00     0.049 A 
ATOM     17  N   UNL     1       3.136  -6.018   3.716  1.00  0.00    -0.248 NA
ATOM     18  C   UNL     1       2.135  -4.012   4.320  1.00  0.00     0.031 C 
ATOM     19  C   UNL     1       0.353  -5.448  -0.007  1.00  0.00     0.029 A 
ATOM     20  N   UNL     1       0.869  -6.983   1.498  1.00  0.00    -0.354 N 
ATOM     21  C   UNL     1       3.299  -5.812   5.089  1.00  0.00     0.074 A 
ATOM     22  C   UNL     1       2.759  -4.513   5.383  1.00  0.00     0.031 C 
ATOM     23  C   UNL     1      -0.508  -6.474  -0.180  1.00  0.00     0.029 A 
ATOM     24  C   UNL     1      -0.241  -7.479   0.832  1.00  0.00     0.049 A 
ATOM     25  H   UNL     1       1.406  -7.520   2.123  1.00  0.00     0.167 HD
ATOM     26  C   UNL     1       3.687  -6.803   5.937  1.00  0.00     0.037 A 
ATOM     27  C   UNL     1      -0.959  -8.573   1.181  1.00  0.00     0.037 A 
ATOM     28  C   UNL     1       4.421  -7.831   5.259  1.00  0.00     0.049 A 
ATOM     29  C   UNL     1      -0.125  -9.382   2.107  1.00  0.00     0.074 A 
ATOM     30  C   UNL     1       5.623  -7.873   4.579  1.00  0.00     0.029 A 
ATOM     31  N   UNL     1       3.785  -9.004   4.942  1.00  0.00    -0.354 N 
ATOM     32  N   UNL     1       0.976  -9.987   1.756  1.00  0.00    -0.248 NA
ATOM     33  C   UNL     1      -0.277  -9.136   3.534  1.00  0.00     0.031 C 
ATOM     34  C   UNL     1       5.410  -8.795   3.513  1.00  0.00     0.029 A 
ATOM     35  C   UNL     1       4.109  -9.281   3.640  1.00  0.00     0.049 A 
ATOM     36  H   UNL     1       3.209  -9.540   5.534  1.00  0.00     0.167 HD
ATOM     37  C   UNL     1       1.825  -9.844   2.844  1.00  0.00     0.074 A 
ATOM     38  C   UNL     1       0.974  -9.377   3.936  1.00  0.00     0.031 C 
ATOM     39  C   UNL     1       3.182  -9.844   2.691  1.00  0.00     0.037 A 
BRANCH  26  40
ATOM     40  C   UNL     1       3.103  -6.996   7.317  1.00  0.00     0.064 A 
ATOM     41  C   UNL     1       3.654  -7.968   8.176  1.00  0.00     0.173 A 
ATOM     42  C   UNL     1       1.842  -6.489   7.702  1.00  0.00     0.173 A 
ATOM     43  F   UNL     1       4.842  -8.528   7.902  1.00  0.00    -0.203 F 
ATOM     44  C   UNL     1       2.954  -8.457   9.283  1.00  0.00     0.198 A 
ATOM     45  C   UNL     1       1.169  -6.943   8.835  1.00  0.00     0.198 A 
ATOM     46  F   UNL     1       1.161  -5.622   6.943  1.00  0.00    -0.203 F 
ATOM     47  F   UNL     1       3.461  -9.472   9.995  1.00  0.00    -0.200 F 
ATOM     48  C   UNL     1       1.708  -7.951   9.605  1.00  0.00     0.200 A 
ATOM     49  F   UNL     1      -0.044  -6.450   9.121  1.00  0.00    -0.200 F 
ATOM     50  F   UNL     1       1.005  -8.465  10.623  1.00  0.00    -0.200 F 
ENDBRANCH  26  40
BRANCH  27  51
ATOM     51  C   UNL     1      -2.430  -8.725   1.075  1.00  0.00     0.064 A 
ATOM     52  C   UNL     1      -3.036  -9.989   1.097  1.00  0.00     0.173 A 
ATOM     53  C   UNL     1      -3.292  -7.614   1.188  1.00  0.00     0.173 A 
ATOM     54  F   UNL     1      -2.283 -11.097   1.056  1.00  0.00    -0.203 F 
ATOM     55  C   UNL     1      -4.423 -10.132   1.221  1.00  0.00     0.198 A 
ATOM     56  C   UNL     1      -4.674  -7.757   1.298  1.00  0.00     0.198 A 
ATOM     57  F   UNL     1      -2.804  -6.369   1.285  1.00  0.00    -0.203 F 
ATOM     58  F   UNL     1      -4.966 -11.356   1.287  1.00  0.00    -0.200 F 
ATOM     59  C   UNL     1      -5.240  -9.017   1.323  1.00  0.00     0.200 A 
ATOM     60  F   UNL     1      -5.446  -6.669   1.435  1.00  0.00    -0.200 F 
ATOM     61  F   UNL     1      -6.563  -9.155   1.486  1.00  0.00    -0.200 F 
ENDBRANCH  27  51
BRANCH  39  62
ATOM     62  C   UNL     1       3.733 -10.194   1.339  1.00  0.00     0.064 A 
ATOM     63  C   UNL     1       3.538  -9.394   0.199  1.00  0.00     0.173 A 
ATOM     64  C   UNL     1       4.624 -11.266   1.226  1.00  0.00     0.173 A 
ATOM     65  F   UNL     1       2.796  -8.283   0.258  1.00  0.00    -0.203 F 
ATOM     66  C   UNL     1       4.168  -9.683  -1.009  1.00  0.00     0.198 A 
ATOM     67  C   UNL     1       5.282 -11.533   0.028  1.00  0.00     0.198 A 
ATOM     68  F   UNL     1       4.905 -12.021   2.300  1.00  0.00    -0.203 F 
ATOM     69  F   UNL     1       3.959  -8.903  -2.080  1.00  0.00    -0.200 F 
ATOM     70  C   UNL     1       5.046 -10.749  -1.091  1.00  0.00     0.200 A 
ATOM     71  F   UNL     1       6.176 -12.530  -0.033  1.00  0.00    -0.200 F 
ATOM     72  F   UNL     1       5.693 -11.000  -2.238  1.00  0.00    -0.200 F 
ENDBRANCH  39  62
ENDBRANCH  13  14
ENDBRANCH   6   8
ENDBRANCH   3   4
ENDBRANCH   2   3
ENDBRANCH   1   2
BRANCH   1  73
ATOM     73  C   UNL     1       4.681   1.374  -3.757  1.00  0.00     0.116 C 
BRANCH  73  74
ATOM     74  N   UNL     1       6.125   1.326  -3.847  1.00  0.00    -0.355 N 
ATOM     75  C   UNL     1       6.859   1.426  -4.993  1.00  0.00     0.234 C 
ATOM     76  H   UNL     1       6.622   1.211  -3.005  1.00  0.00     0.163 HD
ATOM     77  O   UNL     1       8.039   1.079  -4.977  1.00  0.00    -0.274 OA
BRANCH  75  78
ATOM     78  C   UNL     1       6.111   2.025  -6.184  1.00  0.00     0.125 C 
ATOM     79  C   UNL     1       6.180   0.585  -6.862  1.00  0.00     0.280 C 
ATOM     80  C   UNL     1       5.704   2.578  -7.569  1.00  0.00     0.087 C 
ATOM     81  C   UNL     1       7.134   3.261  -6.039  1.00  0.00     0.143 C 
ATOM     82  N   UNL     1       4.894   0.416  -7.584  1.00  0.00    -0.345 N 
ATOM     83  C   UNL     1       4.562   1.742  -8.085  1.00  0.00     0.267 C 
ATOM     84  C   UNL     1       5.367   4.038  -7.394  1.00  0.00     0.130 C 
ATOM     85  N   UNL     1       6.398   4.447  -6.487  1.00  0.00    -0.337 N 
ATOM     86  H   UNL     1       4.169   0.081  -6.950  1.00  0.00     0.346 HD
ATOM     87  H   UNL     1       4.966  -0.269  -8.336  1.00  0.00     0.346 HD
BRANCH  85  88
ATOM     88  C   UNL     1       6.509   5.772  -6.097  1.00  0.00     0.256 C 
ATOM     89  O   UNL     1       5.737   6.640  -6.469  1.00  0.00    -0.269 OA
BRANCH  88  90
ATOM     90  C   UNL     1       7.607   6.169  -5.181  1.00  0.00     0.065 A 
ATOM     91  C   UNL     1       7.211   6.768  -3.973  1.00  0.00     0.016 A 
ATOM     92  C   UNL     1       8.968   5.937  -5.425  1.00  0.00     0.079 A 
ATOM     93  C   UNL     1       8.158   7.097  -3.002  1.00  0.00     0.001 A 
ATOM     94  C   UNL     1       9.910   6.221  -4.420  1.00  0.00     0.029 A 
ATOM     95  C   UNL     1       9.504   6.812  -3.221  1.00  0.00     0.002 A 
BRANCH  92  96
ATOM     96  N   UNL     1       9.438   5.422  -6.654  1.00  0.00    -0.220 N 
ATOM     97  C   UNL     1       8.917   5.550  -7.919  1.00  0.00     0.225 A 
ATOM     98  N   UNL     1      10.523   4.610  -6.703  1.00  0.00    -0.155 NA
ATOM     99  N   UNL     1       9.520   4.727  -8.746  1.00  0.00    -0.223 NA
ATOM    100  C   UNL     1      10.473   4.158  -7.957  1.00  0.00     0.246 A 
ENDBRANCH  92  96
ENDBRANCH  88  90
ENDBRANCH  85  88
ENDBRANCH  75  78
ENDBRANCH  73  74
ENDBRANCH   1  73
TORSDOF 14
