REMARK SMILES CCCCCC[C@@H](C)N1C[C@H](C(=O)NCCCCNC(=O)c2ccc(-c3c4nc(c(-c5c(F)c(F)c(F)c(F)c5F)c5ccc([nH]5)c(-c5c(F)c(F)c(F)c(F)c5F)c5nc(c(-c6c(F)c(F)c(F)c(F)c6F)c6ccc3[nH]6)C=C5)C=C4)cc2)CC1=O
REMARK SMILES IDX 12 1 13 2 14 3 11 5 9 6 10 7 86 8 85 9 87 10 7 11 8 12 6 13
REMARK SMILES IDX 5 14 4 15 3 16 2 17 1 18 15 19 16 20 17 21 18 22 19 23 20 24
REMARK SMILES IDX 21 26 22 27 23 28 84 29 24 30 83 31 25 32 26 33 27 34 77 35
REMARK SMILES IDX 28 36 82 37 76 38 78 39 29 40 81 41 75 42 74 43 30 45 62 46
REMARK SMILES IDX 42 47 61 48 43 49 46 50 60 51 79 52 44 53 45 54 59 56 80 57
REMARK SMILES IDX 47 58 31 59 32 60 40 61 33 62 34 63 38 64 41 65 35 66 36 67
REMARK SMILES IDX 39 68 37 69 63 70 64 71 72 72 65 73 66 74 70 75 73 76 67 77
REMARK SMILES IDX 68 78 71 79 69 80 48 81 49 82 57 83 50 84 51 85 55 86 58 87
REMARK SMILES IDX 52 88 53 89 56 90 54 91
REMARK H PARENT 14 4 19 25 78 44 46 55
REMARK Flexibility Score: inf
ROOT
ATOM      1  C   UNL     1      -3.798   8.121  -1.377  1.00  0.00     0.225 C 
ATOM      2  O   UNL     1      -3.745   8.273  -2.596  1.00  0.00    -0.275 OA
ATOM      3  N   UNL     1      -5.023   8.167  -0.779  1.00  0.00    -0.356 N 
ATOM      4  H   UNL     1      -5.791   8.161  -1.395  1.00  0.00     0.163 HD
ENDROOT
BRANCH   1   5
ATOM      5  C   UNL     1      -2.577   7.795  -0.538  1.00  0.00     0.107 C 
ATOM      6  N   UNL     1      -1.345   6.071  -1.548  1.00  0.00    -0.339 N 
ATOM      7  C   UNL     1      -2.372   6.287  -0.555  1.00  0.00     0.133 C 
ATOM      8  C   UNL     1      -0.693   7.244  -1.899  1.00  0.00     0.223 C 
ATOM      9  C   UNL     1      -1.295   8.380  -1.122  1.00  0.00     0.115 C 
ATOM     10  O   UNL     1       0.254   7.349  -2.667  1.00  0.00    -0.275 OA
BRANCH   6  11
ATOM     11  C   UNL     1      -1.029   4.781  -2.170  1.00  0.00     0.082 C 
ATOM     12  C   UNL     1      -1.604   4.738  -3.591  1.00  0.00     0.031 C 
BRANCH  11  13
ATOM     13  C   UNL     1      -1.490   3.566  -1.340  1.00  0.00     0.025 C 
BRANCH  13  14
ATOM     14  C   UNL     1      -0.938   2.216  -1.822  1.00  0.00     0.002 C 
BRANCH  14  15
ATOM     15  C   UNL     1       0.589   2.090  -1.775  1.00  0.00     0.000 C 
BRANCH  15  16
ATOM     16  C   UNL     1       1.204   2.216  -0.378  1.00  0.00    -0.000 C 
BRANCH  16  17
ATOM     17  C   UNL     1       0.753   1.152   0.627  1.00  0.00    -0.003 C 
ATOM     18  C   UNL     1       1.107  -0.265   0.200  1.00  0.00     0.004 C 
ENDBRANCH  16  17
ENDBRANCH  15  16
ENDBRANCH  14  15
ENDBRANCH  13  14
ENDBRANCH  11  13
ENDBRANCH   6  11
ENDBRANCH   1   5
BRANCH   3  19
ATOM     19  C   UNL     1      -5.361   8.223   0.631  1.00  0.00     0.116 C 
BRANCH  19  20
ATOM     20  C   UNL     1      -5.690   9.655   1.054  1.00  0.00     0.023 C 
BRANCH  20  21
ATOM     21  C   UNL     1      -6.943  10.239   0.390  1.00  0.00     0.023 C 
BRANCH  21  22
ATOM     22  C   UNL     1      -8.217   9.418   0.568  1.00  0.00     0.116 C 
BRANCH  22  23
ATOM     23  N   UNL     1      -8.564   9.211   1.964  1.00  0.00    -0.352 N 
ATOM     24  C   UNL     1      -9.787   9.293   2.582  1.00  0.00     0.251 C 
ATOM     25  H   UNL     1      -7.811   8.978   2.553  1.00  0.00     0.163 HD
ATOM     26  O   UNL     1      -9.853   9.221   3.806  1.00  0.00    -0.269 OA
BRANCH  24  27
ATOM     27  C   UNL     1     -11.019   9.495   1.789  1.00  0.00     0.039 A 
ATOM     28  C   UNL     1     -11.982  10.385   2.272  1.00  0.00     0.014 A 
ATOM     29  C   UNL     1     -11.244   8.805   0.595  1.00  0.00     0.014 A 
ATOM     30  C   UNL     1     -13.144  10.619   1.535  1.00  0.00     0.010 A 
ATOM     31  C   UNL     1     -12.367   9.097  -0.178  1.00  0.00     0.010 A 
ATOM     32  C   UNL     1     -13.333  10.001   0.288  1.00  0.00    -0.014 A 
BRANCH  32  33
ATOM     33  C   UNL     1     -14.537  10.300  -0.530  1.00  0.00     0.031 A 
ATOM     34  C   UNL     1     -15.540   9.223  -0.841  1.00  0.00     0.074 A 
ATOM     35  C   UNL     1     -14.708  11.540  -1.027  1.00  0.00     0.049 A 
ATOM     36  N   UNL     1     -16.650   9.300  -1.532  1.00  0.00    -0.248 NA
ATOM     37  C   UNL     1     -15.245   7.875  -0.333  1.00  0.00     0.031 C 
ATOM     38  C   UNL     1     -13.775  12.654  -0.852  1.00  0.00     0.029 A 
ATOM     39  N   UNL     1     -15.723  12.073  -1.782  1.00  0.00    -0.354 N 
ATOM     40  C   UNL     1     -17.177   8.015  -1.550  1.00  0.00     0.074 A 
ATOM     41  C   UNL     1     -16.236   7.166  -0.852  1.00  0.00     0.031 C 
ATOM     42  C   UNL     1     -14.273  13.744  -1.458  1.00  0.00     0.029 A 
ATOM     43  C   UNL     1     -15.542  13.399  -2.091  1.00  0.00     0.049 A 
ATOM     44  H   UNL     1     -16.506  11.553  -2.076  1.00  0.00     0.167 HD
ATOM     45  C   UNL     1     -18.349   7.587  -2.077  1.00  0.00     0.037 A 
ATOM     46  C   UNL     1     -16.311  14.242  -2.804  1.00  0.00     0.037 A 
ATOM     47  C   UNL     1     -19.291   8.440  -2.756  1.00  0.00     0.049 A 
ATOM     48  C   UNL     1     -17.616  13.747  -3.366  1.00  0.00     0.074 A 
ATOM     49  C   UNL     1     -20.537   8.118  -3.265  1.00  0.00     0.029 A 
ATOM     50  N   UNL     1     -19.084   9.785  -3.031  1.00  0.00    -0.354 N 
ATOM     51  N   UNL     1     -18.147  12.550  -3.297  1.00  0.00    -0.248 NA
ATOM     52  C   UNL     1     -18.436  14.726  -4.093  1.00  0.00     0.031 C 
ATOM     53  C   UNL     1     -21.058   9.251  -3.899  1.00  0.00     0.029 A 
ATOM     54  C   UNL     1     -20.168  10.299  -3.727  1.00  0.00     0.049 A 
ATOM     55  H   UNL     1     -18.286  10.298  -2.769  1.00  0.00     0.167 HD
ATOM     56  C   UNL     1     -19.372  12.638  -3.945  1.00  0.00     0.074 A 
ATOM     57  C   UNL     1     -19.514  14.012  -4.381  1.00  0.00     0.031 C 
ATOM     58  C   UNL     1     -20.296  11.668  -4.159  1.00  0.00     0.037 A 
BRANCH  45  59
ATOM     59  C   UNL     1     -18.678   6.126  -1.945  1.00  0.00     0.064 A 
ATOM     60  C   UNL     1     -18.963   5.541  -0.700  1.00  0.00     0.173 A 
ATOM     61  C   UNL     1     -18.739   5.304  -3.081  1.00  0.00     0.173 A 
ATOM     62  F   UNL     1     -18.910   6.277   0.420  1.00  0.00    -0.203 F 
ATOM     63  C   UNL     1     -19.257   4.184  -0.595  1.00  0.00     0.198 A 
ATOM     64  C   UNL     1     -19.069   3.955  -2.976  1.00  0.00     0.198 A 
ATOM     65  F   UNL     1     -18.484   5.811  -4.297  1.00  0.00    -0.203 F 
ATOM     66  F   UNL     1     -19.466   3.637   0.611  1.00  0.00    -0.200 F 
ATOM     67  C   UNL     1     -19.318   3.394  -1.733  1.00  0.00     0.200 A 
ATOM     68  F   UNL     1     -19.142   3.197  -4.078  1.00  0.00    -0.200 F 
ATOM     69  F   UNL     1     -19.607   2.089  -1.630  1.00  0.00    -0.200 F 
ENDBRANCH  45  59
BRANCH  46  70
ATOM     70  C   UNL     1     -15.878  15.650  -3.002  1.00  0.00     0.064 A 
ATOM     71  C   UNL     1     -16.561  16.711  -2.391  1.00  0.00     0.173 A 
ATOM     72  C   UNL     1     -14.769  15.964  -3.802  1.00  0.00     0.173 A 
ATOM     73  F   UNL     1     -17.638  16.465  -1.631  1.00  0.00    -0.203 F 
ATOM     74  C   UNL     1     -16.166  18.033  -2.592  1.00  0.00     0.198 A 
ATOM     75  C   UNL     1     -14.356  17.283  -3.976  1.00  0.00     0.198 A 
ATOM     76  F   UNL     1     -14.076  14.985  -4.403  1.00  0.00    -0.203 F 
ATOM     77  F   UNL     1     -16.867  19.030  -2.035  1.00  0.00    -0.200 F 
ATOM     78  C   UNL     1     -15.060  18.317  -3.378  1.00  0.00     0.200 A 
ATOM     79  F   UNL     1     -13.276  17.552  -4.722  1.00  0.00    -0.200 F 
ATOM     80  F   UNL     1     -14.677  19.587  -3.565  1.00  0.00    -0.200 F 
ENDBRANCH  46  70
BRANCH  58  81
ATOM     81  C   UNL     1     -21.559  12.069  -4.870  1.00  0.00     0.064 A 
ATOM     82  C   UNL     1     -21.564  12.426  -6.227  1.00  0.00     0.173 A 
ATOM     83  C   UNL     1     -22.784  12.082  -4.185  1.00  0.00     0.173 A 
ATOM     84  F   UNL     1     -20.419  12.442  -6.925  1.00  0.00    -0.203 F 
ATOM     85  C   UNL     1     -22.741  12.819  -6.860  1.00  0.00     0.198 A 
ATOM     86  C   UNL     1     -23.964  12.441  -4.830  1.00  0.00     0.198 A 
ATOM     87  F   UNL     1     -22.838  11.742  -2.888  1.00  0.00    -0.203 F 
ATOM     88  F   UNL     1     -22.710  13.219  -8.139  1.00  0.00    -0.200 F 
ATOM     89  C   UNL     1     -23.940  12.821  -6.163  1.00  0.00     0.200 A 
ATOM     90  F   UNL     1     -25.124  12.426  -4.159  1.00  0.00    -0.200 F 
ATOM     91  F   UNL     1     -25.071  13.200  -6.774  1.00  0.00    -0.200 F 
ENDBRANCH  58  81
ENDBRANCH  32  33
ENDBRANCH  24  27
ENDBRANCH  22  23
ENDBRANCH  21  22
ENDBRANCH  20  21
ENDBRANCH  19  20
ENDBRANCH   3  19
TORSDOF 17
