REMARK SMILES O=C(NCCCCNC(=O)c1cnccc1C(=O)Nc1ccc(Cl)c(Cl)c1)c1ccc(-c2c3nc(c(-c4c(F)c(F)c(F)c(F)c4F)c4ccc([nH]4)c(-c4c(F)c(F)c(F)c(F)c4F)c4nc(c(-c5c(F)c(F)c(F)c(F)c5F)c5ccc2[nH]5)C=C4)C=C3)cc1
REMARK SMILES IDX 5 1 4 2 3 3 1 4 2 5 28 7 29 8 90 9 30 10 89 11 31 12 32 13
REMARK SMILES IDX 33 14 83 15 34 16 88 17 82 18 84 19 35 20 87 21 81 22 80 23
REMARK SMILES IDX 36 25 68 26 48 27 67 28 49 29 52 30 66 31 85 32 50 33 51 34
REMARK SMILES IDX 65 36 86 37 53 38 37 39 38 40 46 41 39 42 40 43 44 44 47 45
REMARK SMILES IDX 41 46 42 47 45 48 43 49 69 50 70 51 78 52 71 53 72 54 76 55
REMARK SMILES IDX 79 56 73 57 74 58 77 59 75 60 54 61 55 62 63 63 56 64 57 65
REMARK SMILES IDX 61 66 64 67 58 68 59 69 62 70 60 71 6 72 7 73 8 74 9 75
REMARK SMILES IDX 10 77 11 78 12 79 16 80 13 81 15 82 14 83 17 84 18 85 19 86
REMARK SMILES IDX 20 88 21 89 27 90 22 91 25 92 23 93 26 94 24 95
REMARK H PARENT 3 6 84 24 52 35 8 76 19 87
REMARK Flexibility Score: inf
ROOT
ATOM      1  C   UNL     1       4.439  -2.486   0.764  1.00  0.00     0.023 C 
ENDROOT
BRANCH   1   2
ATOM      2  C   UNL     1       4.367  -1.414  -0.319  1.00  0.00     0.116 C 
BRANCH   2   3
ATOM      3  N   UNL     1       3.003  -0.984  -0.580  1.00  0.00    -0.352 N 
ATOM      4  O   UNL     1       1.125   0.229  -0.315  1.00  0.00    -0.269 OA
ATOM      5  C   UNL     1       2.343   0.155  -0.186  1.00  0.00     0.251 C 
ATOM      6  H   UNL     1       2.469  -1.607  -1.123  1.00  0.00     0.163 HD
BRANCH   5   7
ATOM      7  C   UNL     1       3.084   1.288   0.410  1.00  0.00     0.039 A 
ATOM      8  C   UNL     1       4.282   1.741  -0.148  1.00  0.00     0.014 A 
ATOM      9  C   UNL     1       2.542   1.944   1.521  1.00  0.00     0.014 A 
ATOM     10  C   UNL     1       5.009   2.744   0.488  1.00  0.00     0.010 A 
ATOM     11  C   UNL     1       3.235   3.006   2.111  1.00  0.00     0.010 A 
ATOM     12  C   UNL     1       4.493   3.389   1.623  1.00  0.00    -0.014 A 
BRANCH  12  13
ATOM     13  C   UNL     1       5.273   4.479   2.265  1.00  0.00     0.031 A 
ATOM     14  C   UNL     1       5.827   4.317   3.654  1.00  0.00     0.074 A 
ATOM     15  C   UNL     1       5.506   5.613   1.577  1.00  0.00     0.049 A 
ATOM     16  N   UNL     1       6.557   5.149   4.355  1.00  0.00    -0.248 NA
ATOM     17  C   UNL     1       5.514   3.062   4.353  1.00  0.00     0.031 C 
ATOM     18  C   UNL     1       5.011   5.895   0.230  1.00  0.00     0.029 A 
ATOM     19  N   UNL     1       6.232   6.729   1.906  1.00  0.00    -0.354 N 
ATOM     20  C   UNL     1       6.769   4.532   5.581  1.00  0.00     0.074 A 
ATOM     21  C   UNL     1       6.070   3.264   5.539  1.00  0.00     0.031 C 
ATOM     22  C   UNL     1       5.487   7.083  -0.173  1.00  0.00     0.029 A 
ATOM     23  C   UNL     1       6.279   7.667   0.904  1.00  0.00     0.049 A 
ATOM     24  H   UNL     1       6.677   6.847   2.777  1.00  0.00     0.167 HD
ATOM     25  C   UNL     1       7.487   4.977   6.640  1.00  0.00     0.037 A 
ATOM     26  C   UNL     1       6.890   8.865   0.858  1.00  0.00     0.037 A 
ATOM     27  C   UNL     1       8.206   6.225   6.670  1.00  0.00     0.049 A 
ATOM     28  C   UNL     1       7.679   9.334   2.047  1.00  0.00     0.074 A 
ATOM     29  C   UNL     1       9.003   6.740   7.678  1.00  0.00     0.029 A 
ATOM     30  N   UNL     1       8.214   7.157   5.642  1.00  0.00    -0.354 N 
ATOM     31  N   UNL     1       7.906   8.722   3.183  1.00  0.00    -0.248 NA
ATOM     32  C   UNL     1       8.297  10.663   1.945  1.00  0.00     0.031 C 
ATOM     33  C   UNL     1       9.459   8.001   7.277  1.00  0.00     0.029 A 
ATOM     34  C   UNL     1       8.985   8.252   6.000  1.00  0.00     0.049 A 
ATOM     35  H   UNL     1       7.742   7.055   4.784  1.00  0.00     0.167 HD
ATOM     36  C   UNL     1       8.713   9.576   3.921  1.00  0.00     0.074 A 
ATOM     37  C   UNL     1       8.946  10.745   3.098  1.00  0.00     0.031 C 
ATOM     38  C   UNL     1       9.216   9.405   5.168  1.00  0.00     0.037 A 
BRANCH  25  39
ATOM     39  C   UNL     1       7.517   4.116   7.870  1.00  0.00     0.064 A 
ATOM     40  C   UNL     1       8.234   2.911   7.912  1.00  0.00     0.173 A 
ATOM     41  C   UNL     1       6.845   4.520   9.034  1.00  0.00     0.173 A 
ATOM     42  F   UNL     1       8.884   2.474   6.824  1.00  0.00    -0.203 F 
ATOM     43  C   UNL     1       8.253   2.129   9.065  1.00  0.00     0.198 A 
ATOM     44  C   UNL     1       6.888   3.750  10.193  1.00  0.00     0.198 A 
ATOM     45  F   UNL     1       6.150   5.668   9.049  1.00  0.00    -0.203 F 
ATOM     46  F   UNL     1       8.906   0.959   9.068  1.00  0.00    -0.200 F 
ATOM     47  C   UNL     1       7.586   2.551  10.205  1.00  0.00     0.200 A 
ATOM     48  F   UNL     1       6.252   4.165  11.296  1.00  0.00    -0.200 F 
ATOM     49  F   UNL     1       7.608   1.799  11.314  1.00  0.00    -0.200 F 
ENDBRANCH  25  39
BRANCH  26  50
ATOM     50  C   UNL     1       6.800   9.689  -0.373  1.00  0.00     0.064 A 
ATOM     51  C   UNL     1       7.917   9.867  -1.200  1.00  0.00     0.173 A 
ATOM     52  C   UNL     1       5.596  10.294  -0.760  1.00  0.00     0.173 A 
ATOM     53  F   UNL     1       9.095   9.323  -0.860  1.00  0.00    -0.203 F 
ATOM     54  C   UNL     1       7.836  10.630  -2.362  1.00  0.00     0.198 A 
ATOM     55  C   UNL     1       5.510  11.035  -1.936  1.00  0.00     0.198 A 
ATOM     56  F   UNL     1       4.498  10.148  -0.004  1.00  0.00    -0.203 F 
ATOM     57  F   UNL     1       8.928  10.814  -3.118  1.00  0.00    -0.200 F 
ATOM     58  C   UNL     1       6.631  11.207  -2.733  1.00  0.00     0.200 A 
ATOM     59  F   UNL     1       4.340  11.579  -2.299  1.00  0.00    -0.200 F 
ATOM     60  F   UNL     1       6.551  11.932  -3.857  1.00  0.00    -0.200 F 
ENDBRANCH  26  50
BRANCH  38  61
ATOM     61  C   UNL     1      10.102  10.491   5.702  1.00  0.00     0.064 A 
ATOM     62  C   UNL     1       9.586  11.729   6.110  1.00  0.00     0.173 A 
ATOM     63  C   UNL     1      11.484  10.280   5.826  1.00  0.00     0.173 A 
ATOM     64  F   UNL     1       8.274  11.984   5.994  1.00  0.00    -0.203 F 
ATOM     65  C   UNL     1      10.425  12.727   6.598  1.00  0.00     0.198 A 
ATOM     66  C   UNL     1      12.316  11.271   6.339  1.00  0.00     0.198 A 
ATOM     67  F   UNL     1      12.026   9.111   5.453  1.00  0.00    -0.203 F 
ATOM     68  F   UNL     1       9.917  13.921   6.936  1.00  0.00    -0.200 F 
ATOM     69  C   UNL     1      11.787  12.496   6.717  1.00  0.00     0.200 A 
ATOM     70  F   UNL     1      13.630  11.042   6.463  1.00  0.00    -0.200 F 
ATOM     71  F   UNL     1      12.593  13.458   7.188  1.00  0.00    -0.200 F 
ENDBRANCH  38  61
ENDBRANCH  12  13
ENDBRANCH   5   7
ENDBRANCH   2   3
ENDBRANCH   1   2
BRANCH   1  72
ATOM     72  C   UNL     1       3.811  -3.832   0.382  1.00  0.00     0.023 C 
BRANCH  72  73
ATOM     73  C   UNL     1       4.425  -4.503  -0.846  1.00  0.00     0.116 C 
BRANCH  73  74
ATOM     74  N   UNL     1       5.828  -4.804  -0.645  1.00  0.00    -0.352 N 
ATOM     75  C   UNL     1       6.616  -5.726  -1.274  1.00  0.00     0.253 C 
ATOM     76  H   UNL     1       6.279  -4.266   0.045  1.00  0.00     0.163 HD
ATOM     77  O   UNL     1       7.726  -5.976  -0.817  1.00  0.00    -0.269 OA
BRANCH  75  78
ATOM     78  C   UNL     1       6.143  -6.483  -2.439  1.00  0.00     0.070 A 
ATOM     79  C   UNL     1       6.219  -7.866  -2.291  1.00  0.00     0.125 A 
ATOM     80  C   UNL     1       5.659  -5.984  -3.651  1.00  0.00     0.056 A 
ATOM     81  N   UNL     1       5.778  -8.761  -3.205  1.00  0.00    -0.264 NA
ATOM     82  C   UNL     1       5.176  -6.904  -4.600  1.00  0.00     0.035 A 
ATOM     83  C   UNL     1       5.246  -8.259  -4.333  1.00  0.00     0.112 A 
BRANCH  80  84
ATOM     84  C   UNL     1       5.471  -4.562  -4.025  1.00  0.00     0.256 C 
ATOM     85  O   UNL     1       4.425  -4.270  -4.611  1.00  0.00    -0.269 OA
ATOM     86  N   UNL     1       6.309  -3.528  -3.693  1.00  0.00    -0.322 N 
ATOM     87  H   UNL     1       5.925  -2.639  -3.870  1.00  0.00     0.170 HD
BRANCH  86  88
ATOM     88  C   UNL     1       7.596  -3.481  -3.154  1.00  0.00     0.043 A 
ATOM     89  C   UNL     1       8.574  -4.442  -3.392  1.00  0.00     0.028 A 
ATOM     90  C   UNL     1       7.868  -2.409  -2.297  1.00  0.00     0.048 A 
ATOM     91  C   UNL     1       9.785  -4.384  -2.691  1.00  0.00     0.024 A 
ATOM     92  C   UNL     1       9.056  -2.376  -1.563  1.00  0.00     0.061 A 
ATOM     93  C   UNL     1      10.015  -3.374  -1.751  1.00  0.00     0.059 A 
ATOM     94  Cl  UNL     1       9.235  -1.106  -0.404  1.00  0.00    -0.083 Cl
ATOM     95  Cl  UNL     1      11.485  -3.421  -0.849  1.00  0.00    -0.083 Cl
ENDBRANCH  86  88
ENDBRANCH  80  84
ENDBRANCH  75  78
ENDBRANCH  73  74
ENDBRANCH  72  73
ENDBRANCH   1  72
TORSDOF 13
