REMARK SMILES C[C@H](Oc1ccc(-c2ccccc2)cc1)C(=O)N[C@H](C)C(=O)NCCCCNC(=O)c1ccc(-c2c3nc(c(-c4c(F)c(F)c(F)c(F)c4F)c4ccc([nH]4)c(-c4c(F)c(F)c(F)c(F)c4F)c4nc(c(-c5c(F)c(F)c(F)c(F)c5F)c5ccc2[nH]5)C=C4)C=C3)cc1
REMARK SMILES IDX 24 1 23 2 21 3 22 4 19 6 20 7 18 8 16 9 17 10 2 12 1 13 3 14
REMARK SMILES IDX 4 15 5 16 15 17 6 18 14 19 7 20 8 21 9 22 13 23 10 24 12 25
REMARK SMILES IDX 11 26 25 27 26 28 27 29 28 30 29 31 30 33 31 34 32 35 93 36
REMARK SMILES IDX 33 37 92 38 34 39 35 40 36 41 86 42 37 43 91 44 85 45 87 46
REMARK SMILES IDX 38 47 90 48 84 49 83 50 39 52 71 53 51 54 70 55 52 56 55 57
REMARK SMILES IDX 69 58 88 59 53 60 54 61 68 63 89 64 56 65 40 66 41 67 49 68
REMARK SMILES IDX 42 69 43 70 47 71 50 72 44 73 45 74 48 75 46 76 72 77 73 78
REMARK SMILES IDX 81 79 74 80 75 81 79 82 82 83 76 84 77 85 80 86 78 87 57 88
REMARK SMILES IDX 58 89 66 90 59 91 60 92 64 93 67 94 61 95 62 96 65 97 63 98
REMARK H PARENT 23 5 18 11 28 32 87 51 55 62
REMARK Flexibility Score: inf
ROOT
ATOM      1  C   UNL     1      -3.789   3.360   0.075  1.00  0.00     0.116 C 
ENDROOT
BRANCH   1   2
ATOM      2  N   UNL     1      -2.612   4.025   0.604  1.00  0.00    -0.354 N 
ATOM      3  C   UNL     1      -1.311   3.606   0.676  1.00  0.00     0.242 C 
ATOM      4  O   UNL     1      -0.503   4.360   1.227  1.00  0.00    -0.273 OA
ATOM      5  H   UNL     1      -2.777   4.924   0.970  1.00  0.00     0.163 HD
BRANCH   3   6
ATOM      6  C   UNL     1      -0.896   2.178   0.240  1.00  0.00     0.168 C 
ATOM      7  C   UNL     1      -1.305   1.245   1.368  1.00  0.00     0.041 C 
BRANCH   6   8
ATOM      8  N   UNL     1      -1.363   1.947  -1.137  1.00  0.00    -0.341 N 
ATOM      9  C   UNL     1      -1.719   0.884  -1.908  1.00  0.00     0.261 C 
ATOM     10  O   UNL     1      -1.967   1.130  -3.094  1.00  0.00    -0.271 OA
ATOM     11  H   UNL     1      -1.440   2.792  -1.637  1.00  0.00     0.164 HD
BRANCH   9  12
ATOM     12  C   UNL     1      -1.940  -0.525  -1.355  1.00  0.00     0.258 C 
ATOM     13  C   UNL     1      -3.230  -0.532  -0.526  1.00  0.00     0.064 C 
BRANCH  12  14
ATOM     14  O   UNL     1      -0.723  -0.887  -0.713  1.00  0.00    -0.481 OA
BRANCH  14  15
ATOM     15  C   UNL     1      -0.605  -2.062  -0.036  1.00  0.00     0.120 A 
ATOM     16  C   UNL     1      -1.586  -3.032   0.112  1.00  0.00     0.047 A 
ATOM     17  C   UNL     1       0.612  -2.219   0.629  1.00  0.00     0.047 A 
ATOM     18  C   UNL     1      -1.402  -4.073   1.024  1.00  0.00     0.012 A 
ATOM     19  C   UNL     1       0.813  -3.284   1.509  1.00  0.00     0.012 A 
ATOM     20  C   UNL     1      -0.208  -4.213   1.752  1.00  0.00    -0.018 A 
BRANCH  20  21
ATOM     21  C   UNL     1      -0.062  -5.291   2.745  1.00  0.00    -0.018 A 
ATOM     22  C   UNL     1      -0.507  -6.594   2.459  1.00  0.00     0.009 A 
ATOM     23  C   UNL     1       0.479  -5.048   4.019  1.00  0.00     0.009 A 
ATOM     24  C   UNL     1      -0.434  -7.610   3.413  1.00  0.00     0.001 A 
ATOM     25  C   UNL     1       0.559  -6.066   4.974  1.00  0.00     0.001 A 
ATOM     26  C   UNL     1       0.096  -7.344   4.672  1.00  0.00     0.000 A 
ENDBRANCH  20  21
ENDBRANCH  14  15
ENDBRANCH  12  14
ENDBRANCH   9  12
ENDBRANCH   6   8
ENDBRANCH   3   6
ENDBRANCH   1   2
BRANCH   1  27
ATOM     27  C   UNL     1      -4.698   2.790   1.163  1.00  0.00     0.023 C 
BRANCH  27  28
ATOM     28  C   UNL     1      -5.471   3.835   1.962  1.00  0.00     0.023 C 
BRANCH  28  29
ATOM     29  C   UNL     1      -6.315   4.787   1.127  1.00  0.00     0.116 C 
BRANCH  29  30
ATOM     30  N   UNL     1      -7.289   4.109   0.287  1.00  0.00    -0.352 N 
ATOM     31  C   UNL     1      -8.575   4.485  -0.021  1.00  0.00     0.251 C 
ATOM     32  H   UNL     1      -6.986   3.264  -0.117  1.00  0.00     0.163 HD
ATOM     33  O   UNL     1      -9.305   3.727  -0.645  1.00  0.00    -0.269 OA
BRANCH  31  34
ATOM     34  C   UNL     1      -9.088   5.793   0.444  1.00  0.00     0.039 A 
ATOM     35  C   UNL     1     -10.370   5.849   0.994  1.00  0.00     0.014 A 
ATOM     36  C   UNL     1      -8.309   6.951   0.359  1.00  0.00     0.014 A 
ATOM     37  C   UNL     1     -10.843   7.052   1.517  1.00  0.00     0.010 A 
ATOM     38  C   UNL     1      -8.747   8.127   0.960  1.00  0.00     0.010 A 
ATOM     39  C   UNL     1     -10.020   8.192   1.543  1.00  0.00    -0.014 A 
BRANCH  39  40
ATOM     40  C   UNL     1     -10.483   9.442   2.199  1.00  0.00     0.031 A 
ATOM     41  C   UNL     1     -10.670  10.704   1.403  1.00  0.00     0.074 A 
ATOM     42  C   UNL     1     -10.706   9.442   3.528  1.00  0.00     0.049 A 
ATOM     43  N   UNL     1     -11.095  11.877   1.801  1.00  0.00    -0.248 NA
ATOM     44  C   UNL     1     -10.308  10.653  -0.022  1.00  0.00     0.031 C 
ATOM     45  C   UNL     1     -10.496   8.300   4.420  1.00  0.00     0.029 A 
ATOM     46  N   UNL     1     -11.164  10.432   4.361  1.00  0.00    -0.354 N 
ATOM     47  C   UNL     1     -11.047  12.698   0.683  1.00  0.00     0.074 A 
ATOM     48  C   UNL     1     -10.494  11.910  -0.396  1.00  0.00     0.031 C 
ATOM     49  C   UNL     1     -10.870   8.638   5.664  1.00  0.00     0.029 A 
ATOM     50  C   UNL     1     -11.307  10.029   5.667  1.00  0.00     0.049 A 
ATOM     51  H   UNL     1     -11.370  11.344   4.052  1.00  0.00     0.167 HD
ATOM     52  C   UNL     1     -11.451  13.986   0.562  1.00  0.00     0.037 A 
ATOM     53  C   UNL     1     -11.748  10.706   6.744  1.00  0.00     0.037 A 
ATOM     54  C   UNL     1     -12.019  14.760   1.635  1.00  0.00     0.049 A 
ATOM     55  C   UNL     1     -12.190  12.135   6.577  1.00  0.00     0.074 A 
ATOM     56  C   UNL     1     -12.525  16.048   1.597  1.00  0.00     0.029 A 
ATOM     57  N   UNL     1     -12.147  14.321   2.946  1.00  0.00    -0.354 N 
ATOM     58  N   UNL     1     -12.231  12.871   5.493  1.00  0.00    -0.248 NA
ATOM     59  C   UNL     1     -12.659  12.823   7.787  1.00  0.00     0.031 C 
ATOM     60  C   UNL     1     -12.901  16.410   2.895  1.00  0.00     0.029 A 
ATOM     61  C   UNL     1     -12.692  15.325   3.731  1.00  0.00     0.049 A 
ATOM     62  H   UNL     1     -11.888  13.428   3.270  1.00  0.00     0.167 HD
ATOM     63  C   UNL     1     -12.754  14.096   5.883  1.00  0.00     0.074 A 
ATOM     64  C   UNL     1     -13.044  13.993   7.298  1.00  0.00     0.031 C 
ATOM     65  C   UNL     1     -12.971  15.210   5.140  1.00  0.00     0.037 A 
BRANCH  52  66
ATOM     66  C   UNL     1     -11.297  14.644  -0.781  1.00  0.00     0.064 A 
ATOM     67  C   UNL     1     -12.072  14.258  -1.886  1.00  0.00     0.173 A 
ATOM     68  C   UNL     1     -10.399  15.709  -0.951  1.00  0.00     0.173 A 
ATOM     69  F   UNL     1     -12.938  13.239  -1.782  1.00  0.00    -0.203 F 
ATOM     70  C   UNL     1     -11.934  14.897  -3.117  1.00  0.00     0.198 A 
ATOM     71  C   UNL     1     -10.289  16.367  -2.174  1.00  0.00     0.198 A 
ATOM     72  F   UNL     1      -9.638  16.122   0.073  1.00  0.00    -0.203 F 
ATOM     73  F   UNL     1     -12.651  14.479  -4.170  1.00  0.00    -0.200 F 
ATOM     74  C   UNL     1     -11.051  15.956  -3.257  1.00  0.00     0.200 A 
ATOM     75  F   UNL     1      -9.445  17.400  -2.303  1.00  0.00    -0.200 F 
ATOM     76  F   UNL     1     -10.929  16.578  -4.438  1.00  0.00    -0.200 F 
ENDBRANCH  52  66
BRANCH  53  77
ATOM     77  C   UNL     1     -11.825  10.037   8.070  1.00  0.00     0.064 A 
ATOM     78  C   UNL     1     -13.062   9.793   8.684  1.00  0.00     0.173 A 
ATOM     79  C   UNL     1     -10.668   9.654   8.764  1.00  0.00     0.173 A 
ATOM     80  F   UNL     1     -14.198  10.158   8.070  1.00  0.00    -0.203 F 
ATOM     81  C   UNL     1     -13.139   9.221   9.952  1.00  0.00     0.198 A 
ATOM     82  C   UNL     1     -10.747   9.050  10.018  1.00  0.00     0.198 A 
ATOM     83  F   UNL     1      -9.459   9.858   8.221  1.00  0.00    -0.203 F 
ATOM     84  F   UNL     1     -14.332   9.056  10.539  1.00  0.00    -0.200 F 
ATOM     85  C   UNL     1     -11.981   8.846  10.616  1.00  0.00     0.200 A 
ATOM     86  F   UNL     1      -9.627   8.673  10.649  1.00  0.00    -0.200 F 
ATOM     87  F   UNL     1     -12.054   8.297  11.836  1.00  0.00    -0.200 F 
ENDBRANCH  53  77
BRANCH  65  88
ATOM     88  C   UNL     1     -13.578  16.392   5.843  1.00  0.00     0.064 A 
ATOM     89  C   UNL     1     -12.874  17.111   6.821  1.00  0.00     0.173 A 
ATOM     90  C   UNL     1     -14.883  16.809   5.536  1.00  0.00     0.173 A 
ATOM     91  F   UNL     1     -11.629  16.746   7.163  1.00  0.00    -0.203 F 
ATOM     92  C   UNL     1     -13.470  18.172   7.498  1.00  0.00     0.198 A 
ATOM     93  C   UNL     1     -15.460  17.896   6.187  1.00  0.00     0.198 A 
ATOM     94  F   UNL     1     -15.598  16.165   4.602  1.00  0.00    -0.203 F 
ATOM     95  F   UNL     1     -12.804  18.795   8.480  1.00  0.00    -0.200 F 
ATOM     96  C   UNL     1     -14.760  18.566   7.177  1.00  0.00     0.200 A 
ATOM     97  F   UNL     1     -16.701  18.286   5.863  1.00  0.00    -0.200 F 
ATOM     98  F   UNL     1     -15.333  19.585   7.832  1.00  0.00    -0.200 F 
ENDBRANCH  65  88
ENDBRANCH  39  40
ENDBRANCH  31  34
ENDBRANCH  29  30
ENDBRANCH  28  29
ENDBRANCH  27  28
ENDBRANCH   1  27
TORSDOF 16
