REMARK SMILES Cn1cc(-c2cc(C(F)(F)F)c3c(C4CC4)nn(CC(=O)NCCCCNC(=O)c4ccc(-c5c6nc(c(-c7c(F)c(F)c(F)c(F)c7F)c7ccc([nH]7)c(-c7c(F)c(F)c(F)c(F)c7F)c7nc(c(-c8c(F)c(F)c(F)c(F)c8F)c8ccc5[nH]8)C=C7)C=C6)cc4)c3n2)cn1
REMARK SMILES IDX 24 1 23 2 22 3 20 4 21 5 19 7 18 8 5 9 6 10 94 11 7 12 93 13
REMARK SMILES IDX 12 14 13 15 17 16 4 17 1 18 2 19 3 20 96 21 95 22 8 23 9 24
REMARK SMILES IDX 10 25 11 26 14 27 15 28 16 29 25 30 26 31 27 32 28 33 29 35
REMARK SMILES IDX 30 36 31 37 92 38 32 39 91 40 33 41 34 42 35 43 85 44 36 45
REMARK SMILES IDX 90 46 84 47 86 48 37 49 89 50 83 51 82 52 38 54 70 55 50 56
REMARK SMILES IDX 69 57 51 58 54 59 68 60 87 61 52 62 53 63 67 65 88 66 55 67
REMARK SMILES IDX 39 68 40 69 48 70 41 71 42 72 46 73 49 74 43 75 44 76 47 77
REMARK SMILES IDX 45 78 71 79 72 80 80 81 73 82 74 83 78 84 81 85 75 86 76 87
REMARK SMILES IDX 79 88 77 89 56 90 57 91 65 92 58 93 59 94 63 95 66 96 60 97
REMARK SMILES IDX 61 98 64 99 62 100
REMARK H PARENT 22 6 27 34 86 53 54 64
REMARK Flexibility Score: inf
ROOT
ATOM      1  C   UNL     1      -2.722  -3.636  -3.097  1.00  0.00     0.023 C 
ENDROOT
BRANCH   1   2
ATOM      2  C   UNL     1      -2.647  -2.187  -3.575  1.00  0.00     0.116 C 
BRANCH   2   3
ATOM      3  N   UNL     1      -3.549  -1.315  -2.854  1.00  0.00    -0.354 N 
ATOM      4  C   UNL     1      -3.243  -0.538  -1.770  1.00  0.00     0.241 C 
ATOM      5  O   UNL     1      -4.126   0.143  -1.249  1.00  0.00    -0.273 OA
ATOM      6  H   UNL     1      -4.479  -1.278  -3.176  1.00  0.00     0.163 HD
BRANCH   4   7
ATOM      7  C   UNL     1      -1.814  -0.463  -1.322  1.00  0.00     0.246 C 
BRANCH   7   8
ATOM      8  N   UNL     1      -1.295  -1.722  -0.823  1.00  0.00    -0.237 N 
ATOM      9  C   UNL     1       1.997  -1.310  -0.314  1.00  0.00     0.077 A 
ATOM     10  C   UNL     1       2.416  -2.577   0.087  1.00  0.00     0.043 A 
ATOM     11  N   UNL     1       1.015  -1.223  -1.242  1.00  0.00    -0.228 NA
ATOM     12  C   UNL     1       1.528  -3.669  -0.083  1.00  0.00     0.071 A 
ATOM     13  C   UNL     1       0.022  -2.055  -0.880  1.00  0.00     0.159 A 
ATOM     14  C   UNL     1       0.191  -3.243  -0.188  1.00  0.00     0.055 A 
ATOM     15  C   UNL     1      -1.076  -3.430   0.429  1.00  0.00     0.076 A 
ATOM     16  N   UNL     1      -1.990  -2.537   0.004  1.00  0.00    -0.175 NA
BRANCH   9  17
ATOM     17  C   UNL     1       1.728  -0.239   0.686  1.00  0.00     0.038 A 
ATOM     18  C   UNL     1      -1.374   0.838   2.078  1.00  0.00     0.173 C 
ATOM     19  N   UNL     1       0.029   0.741   1.720  1.00  0.00    -0.275 N 
ATOM     20  C   UNL     1       0.758  -0.422   1.672  1.00  0.00     0.118 A 
ATOM     21  N   UNL     1       0.630   1.753   1.069  1.00  0.00    -0.181 NA
ATOM     22  C   UNL     1       1.615   1.148   0.392  1.00  0.00     0.145 A 
ENDBRANCH   9  17
BRANCH  12  23
ATOM     23  C   UNL     1       2.006  -5.050  -0.434  1.00  0.00     0.417 C 
ATOM     24  F   UNL     1       1.597  -6.041   0.394  1.00  0.00    -0.166 F 
ATOM     25  F   UNL     1       1.579  -5.421  -1.677  1.00  0.00    -0.166 F 
ATOM     26  F   UNL     1       3.365  -5.147  -0.476  1.00  0.00    -0.166 F 
ENDBRANCH  12  23
BRANCH  15  27
ATOM     27  C   UNL     1      -1.434  -4.272   1.654  1.00  0.00     0.041 C 
ATOM     28  C   UNL     1      -0.533  -5.289   2.300  1.00  0.00     0.011 C 
ATOM     29  C   UNL     1      -0.720  -3.971   2.964  1.00  0.00     0.011 C 
ENDBRANCH  15  27
ENDBRANCH   7   8
ENDBRANCH   4   7
ENDBRANCH   2   3
ENDBRANCH   1   2
BRANCH   1  30
ATOM     30  C   UNL     1      -3.995  -4.393  -3.473  1.00  0.00     0.023 C 
BRANCH  30  31
ATOM     31  C   UNL     1      -4.253  -4.434  -4.966  1.00  0.00     0.116 C 
BRANCH  31  32
ATOM     32  N   UNL     1      -3.099  -4.941  -5.703  1.00  0.00    -0.352 N 
ATOM     33  C   UNL     1      -2.896  -4.956  -7.066  1.00  0.00     0.251 C 
ATOM     34  H   UNL     1      -2.374  -5.322  -5.157  1.00  0.00     0.163 HD
ATOM     35  O   UNL     1      -2.076  -5.694  -7.581  1.00  0.00    -0.269 OA
BRANCH  33  36
ATOM     36  C   UNL     1      -3.675  -4.020  -7.886  1.00  0.00     0.039 A 
ATOM     37  C   UNL     1      -4.254  -4.418  -9.091  1.00  0.00     0.014 A 
ATOM     38  C   UNL     1      -3.805  -2.713  -7.419  1.00  0.00     0.014 A 
ATOM     39  C   UNL     1      -4.988  -3.481  -9.807  1.00  0.00     0.010 A 
ATOM     40  C   UNL     1      -4.654  -1.840  -8.034  1.00  0.00     0.010 A 
ATOM     41  C   UNL     1      -5.169  -2.198  -9.267  1.00  0.00    -0.014 A 
BRANCH  41  42
ATOM     42  C   UNL     1      -5.959  -1.199  -9.951  1.00  0.00     0.031 A 
ATOM     43  C   UNL     1      -7.394  -1.543 -10.059  1.00  0.00     0.074 A 
ATOM     44  C   UNL     1      -5.456   0.010 -10.274  1.00  0.00     0.049 A 
ATOM     45  N   UNL     1      -8.025  -1.908 -11.123  1.00  0.00    -0.248 NA
ATOM     46  C   UNL     1      -8.185  -1.661  -8.824  1.00  0.00     0.031 C 
ATOM     47  C   UNL     1      -4.153   0.594  -9.939  1.00  0.00     0.029 A 
ATOM     48  N   UNL     1      -6.068   1.016 -10.948  1.00  0.00    -0.354 N 
ATOM     49  C   UNL     1      -9.344  -2.107 -10.735  1.00  0.00     0.074 A 
ATOM     50  C   UNL     1      -9.340  -2.135  -9.296  1.00  0.00     0.031 C 
ATOM     51  C   UNL     1      -4.157   1.915 -10.236  1.00  0.00     0.029 A 
ATOM     52  C   UNL     1      -5.392   2.230 -10.928  1.00  0.00     0.049 A 
ATOM     53  H   UNL     1      -6.926   0.894 -11.416  1.00  0.00     0.167 HD
ATOM     54  C   UNL     1     -10.355  -1.979 -11.638  1.00  0.00     0.037 A 
ATOM     55  C   UNL     1      -5.860   3.401 -11.430  1.00  0.00     0.037 A 
ATOM     56  C   UNL     1      -9.842  -2.002 -12.987  1.00  0.00     0.049 A 
ATOM     57  C   UNL     1      -6.915   3.044 -12.419  1.00  0.00     0.074 A 
ATOM     58  C   UNL     1      -9.158  -2.933 -13.746  1.00  0.00     0.029 A 
ATOM     59  N   UNL     1      -9.640  -0.795 -13.613  1.00  0.00    -0.354 N 
ATOM     60  N   UNL     1      -6.673   2.414 -13.536  1.00  0.00    -0.248 NA
ATOM     61  C   UNL     1      -8.284   2.954 -11.931  1.00  0.00     0.031 C 
ATOM     62  C   UNL     1      -8.196  -2.177 -14.480  1.00  0.00     0.029 A 
ATOM     63  C   UNL     1      -8.398  -0.826 -14.193  1.00  0.00     0.049 A 
ATOM     64  H   UNL     1     -10.275  -0.043 -13.639  1.00  0.00     0.167 HD
ATOM     65  C   UNL     1      -7.718   1.511 -13.665  1.00  0.00     0.074 A 
ATOM     66  C   UNL     1      -8.712   1.934 -12.678  1.00  0.00     0.031 C 
ATOM     67  C   UNL     1      -7.554   0.338 -14.343  1.00  0.00     0.037 A 
BRANCH  54  68
ATOM     68  C   UNL     1     -11.732  -1.458 -11.313  1.00  0.00     0.064 A 
ATOM     69  C   UNL     1     -12.725  -1.487 -12.313  1.00  0.00     0.173 A 
ATOM     70  C   UNL     1     -12.038  -0.676 -10.179  1.00  0.00     0.173 A 
ATOM     71  F   UNL     1     -12.536  -2.183 -13.445  1.00  0.00    -0.203 F 
ATOM     72  C   UNL     1     -13.895  -0.729 -12.216  1.00  0.00     0.198 A 
ATOM     73  C   UNL     1     -13.231   0.035 -10.061  1.00  0.00     0.198 A 
ATOM     74  F   UNL     1     -11.159  -0.471  -9.191  1.00  0.00    -0.203 F 
ATOM     75  F   UNL     1     -14.748  -0.689 -13.248  1.00  0.00    -0.200 F 
ATOM     76  C   UNL     1     -14.144   0.036 -11.092  1.00  0.00     0.200 A 
ATOM     77  F   UNL     1     -13.443   0.787  -8.971  1.00  0.00    -0.200 F 
ATOM     78  F   UNL     1     -15.235   0.809 -11.021  1.00  0.00    -0.200 F 
ENDBRANCH  54  68
BRANCH  55  79
ATOM     79  C   UNL     1      -5.797   4.753 -10.813  1.00  0.00     0.064 A 
ATOM     80  C   UNL     1      -6.245   5.878 -11.531  1.00  0.00     0.173 A 
ATOM     81  C   UNL     1      -5.620   4.928  -9.428  1.00  0.00     0.173 A 
ATOM     82  F   UNL     1      -6.465   5.790 -12.851  1.00  0.00    -0.203 F 
ATOM     83  C   UNL     1      -6.563   7.080 -10.892  1.00  0.00     0.198 A 
ATOM     84  C   UNL     1      -5.934   6.132  -8.792  1.00  0.00     0.198 A 
ATOM     85  F   UNL     1      -5.240   3.909  -8.646  1.00  0.00    -0.203 F 
ATOM     86  F   UNL     1      -7.071   8.100 -11.599  1.00  0.00    -0.200 F 
ATOM     87  C   UNL     1      -6.427   7.199  -9.519  1.00  0.00     0.200 A 
ATOM     88  F   UNL     1      -5.828   6.225  -7.458  1.00  0.00    -0.200 F 
ATOM     89  F   UNL     1      -6.811   8.321  -8.894  1.00  0.00    -0.200 F 
ENDBRANCH  55  79
BRANCH  67  90
ATOM     90  C   UNL     1      -6.290   0.160 -15.142  1.00  0.00     0.064 A 
ATOM     91  C   UNL     1      -5.002   0.088 -14.581  1.00  0.00     0.173 A 
ATOM     92  C   UNL     1      -6.407  -0.107 -16.511  1.00  0.00     0.173 A 
ATOM     93  F   UNL     1      -4.813   0.242 -13.266  1.00  0.00    -0.203 F 
ATOM     94  C   UNL     1      -3.885  -0.207 -15.362  1.00  0.00     0.198 A 
ATOM     95  C   UNL     1      -5.296  -0.435 -17.283  1.00  0.00     0.198 A 
ATOM     96  F   UNL     1      -7.617  -0.102 -17.093  1.00  0.00    -0.203 F 
ATOM     97  F   UNL     1      -2.667  -0.266 -14.802  1.00  0.00    -0.200 F 
ATOM     98  C   UNL     1      -4.035  -0.478 -16.711  1.00  0.00     0.200 A 
ATOM     99  F   UNL     1      -5.454  -0.743 -18.578  1.00  0.00    -0.200 F 
ATOM    100  F   UNL     1      -2.970  -0.808 -17.455  1.00  0.00    -0.200 F 
ENDBRANCH  67  90
ENDBRANCH  41  42
ENDBRANCH  33  36
ENDBRANCH  31  32
ENDBRANCH  30  31
ENDBRANCH   1  30
TORSDOF 15
