REMARK SMILES C[C@@H]1CC[C@H]([N@@H+](CC(=O)NCCCCNC(=O)c2ccc(-c3c4nc(c(-c5c(F)c(F)c(F)c(F)c5F)c5ccc([nH]5)c(-c5c(F)c(F)c(F)c(F)c5F)c5nc(c(-c6c(F)c(F)c(F)c(F)c6F)c6ccc3[nH]6)C=C5)C=C4)cc2)CC(F)(F)F)C[C@@H]1C
REMARK SMILES IDX 12 1 11 2 10 3 8 4 9 5 7 7 6 8 5 10 1 11 2 12 3 13 87 14
REMARK SMILES IDX 4 15 86 16 88 17 81 18 82 19 83 20 84 21 85 22 13 23 14 24
REMARK SMILES IDX 15 25 16 26 17 28 18 29 19 30 80 31 20 32 79 33 21 34 22 35
REMARK SMILES IDX 23 36 73 37 24 38 78 39 72 40 74 41 25 42 77 43 71 44 70 45
REMARK SMILES IDX 26 47 58 48 38 49 57 50 39 51 42 52 56 53 75 54 40 55 41 56
REMARK SMILES IDX 55 58 76 59 43 60 27 61 28 62 36 63 29 64 30 65 34 66 37 67
REMARK SMILES IDX 31 68 32 69 35 70 33 71 59 72 60 73 68 74 61 75 62 76 66 77
REMARK SMILES IDX 69 78 63 79 64 80 67 81 65 82 44 83 45 84 53 85 46 86 47 87
REMARK SMILES IDX 51 88 54 89 48 90 49 91 52 92 50 93
REMARK H PARENT 10 6 6 9 15 27 74 46 42 57
REMARK Flexibility Score: inf
ROOT
ATOM      1  C   UNL     1      -1.911  -0.452   3.606  1.00  0.00     0.023 C 
ENDROOT
BRANCH   1   2
ATOM      2  C   UNL     1      -3.378  -0.267   3.183  1.00  0.00     0.116 C 
BRANCH   2   3
ATOM      3  N   UNL     1      -3.588   0.560   2.001  1.00  0.00    -0.351 N 
ATOM      4  C   UNL     1      -4.036   0.277   0.741  1.00  0.00     0.275 C 
ATOM      5  O   UNL     1      -4.307   1.246   0.027  1.00  0.00    -0.269 OA
ATOM      6  H   UNL     1      -3.363   1.508   2.137  1.00  0.00     0.163 HD
BRANCH   4   7
ATOM      7  C   UNL     1      -4.150  -1.164   0.215  1.00  0.00     0.364 C 
BRANCH   7   8
ATOM      8  N   UNL     1      -3.026  -1.612  -0.650  1.00  0.00    -0.317 N 
ATOM      9  H   UNL     1      -2.987  -2.623  -0.527  1.00  0.00     0.349 HD
BRANCH   8  10
ATOM     10  C   UNL     1      -1.705  -1.229  -0.164  1.00  0.00     0.184 C 
ATOM     11  C   UNL     1       2.027  -0.351  -0.977  1.00  0.00     0.008 C 
ATOM     12  C   UNL     1       1.139  -0.445   0.261  1.00  0.00    -0.011 C 
ATOM     13  C   UNL     1       0.642  -1.897   0.478  1.00  0.00     0.010 C 
ATOM     14  C   UNL     1      -0.035   0.554   0.247  1.00  0.00    -0.006 C 
ATOM     15  C   UNL     1      -0.608  -2.293  -0.337  1.00  0.00     0.065 C 
ATOM     16  C   UNL     1      -1.158   0.104  -0.681  1.00  0.00     0.068 C 
ATOM     17  C   UNL     1       0.328   2.014   0.001  1.00  0.00     0.008 C 
ENDBRANCH   8  10
BRANCH   8  18
ATOM     18  C   UNL     1      -3.281  -1.600  -2.107  1.00  0.00     0.379 C 
BRANCH  18  19
ATOM     19  C   UNL     1      -3.517  -0.335  -2.969  1.00  0.00     0.438 C 
ATOM     20  F   UNL     1      -2.402   0.405  -3.134  1.00  0.00    -0.165 F 
ATOM     21  F   UNL     1      -3.909  -0.714  -4.215  1.00  0.00    -0.165 F 
ATOM     22  F   UNL     1      -4.491   0.453  -2.482  1.00  0.00    -0.165 F 
ENDBRANCH  18  19
ENDBRANCH   8  18
ENDBRANCH   7   8
ENDBRANCH   4   7
ENDBRANCH   2   3
ENDBRANCH   1   2
BRANCH   1  23
ATOM     23  C   UNL     1      -1.060   0.821   3.621  1.00  0.00     0.023 C 
BRANCH  23  24
ATOM     24  C   UNL     1      -1.156   1.649   4.888  1.00  0.00     0.116 C 
BRANCH  24  25
ATOM     25  N   UNL     1      -0.211   1.197   5.896  1.00  0.00    -0.352 N 
ATOM     26  C   UNL     1       0.967   1.750   6.341  1.00  0.00     0.251 C 
ATOM     27  H   UNL     1      -0.457   0.351   6.335  1.00  0.00     0.163 HD
ATOM     28  O   UNL     1       1.722   1.059   7.022  1.00  0.00    -0.269 OA
BRANCH  26  29
ATOM     29  C   UNL     1       1.354   3.153   6.032  1.00  0.00     0.039 A 
ATOM     30  C   UNL     1       2.716   3.482   5.979  1.00  0.00     0.014 A 
ATOM     31  C   UNL     1       0.410   4.172   5.898  1.00  0.00     0.014 A 
ATOM     32  C   UNL     1       3.119   4.810   5.789  1.00  0.00     0.010 A 
ATOM     33  C   UNL     1       0.807   5.472   5.590  1.00  0.00     0.010 A 
ATOM     34  C   UNL     1       2.165   5.818   5.590  1.00  0.00    -0.014 A 
BRANCH  34  35
ATOM     35  C   UNL     1       2.543   7.254   5.506  1.00  0.00     0.031 A 
ATOM     36  C   UNL     1       2.039   8.214   6.556  1.00  0.00     0.074 A 
ATOM     37  C   UNL     1       3.284   7.710   4.478  1.00  0.00     0.049 A 
ATOM     38  N   UNL     1       2.155   9.517   6.621  1.00  0.00    -0.248 NA
ATOM     39  C   UNL     1       1.261   7.632   7.663  1.00  0.00     0.031 C 
ATOM     40  C   UNL     1       3.796   6.895   3.377  1.00  0.00     0.029 A 
ATOM     41  N   UNL     1       3.725   8.977   4.189  1.00  0.00    -0.354 N 
ATOM     42  C   UNL     1       1.435   9.905   7.745  1.00  0.00     0.074 A 
ATOM     43  C   UNL     1       0.835   8.712   8.297  1.00  0.00     0.031 C 
ATOM     44  C   UNL     1       4.504   7.677   2.545  1.00  0.00     0.029 A 
ATOM     45  C   UNL     1       4.467   9.052   3.036  1.00  0.00     0.049 A 
ATOM     46  H   UNL     1       3.529   9.758   4.755  1.00  0.00     0.167 HD
ATOM     47  C   UNL     1       1.310  11.139   8.289  1.00  0.00     0.037 A 
ATOM     48  C   UNL     1       5.049  10.113   2.443  1.00  0.00     0.037 A 
ATOM     49  C   UNL     1       1.962  12.312   7.775  1.00  0.00     0.049 A 
ATOM     50  C   UNL     1       4.926  11.469   3.085  1.00  0.00     0.074 A 
ATOM     51  C   UNL     1       1.970  13.595   8.293  1.00  0.00     0.029 A 
ATOM     52  N   UNL     1       2.736  12.339   6.624  1.00  0.00    -0.354 N 
ATOM     53  N   UNL     1       4.292  11.814   4.179  1.00  0.00    -0.248 NA
ATOM     54  C   UNL     1       5.608  12.584   2.411  1.00  0.00     0.031 C 
ATOM     55  C   UNL     1       2.720  14.406   7.435  1.00  0.00     0.029 A 
ATOM     56  C   UNL     1       3.214  13.620   6.406  1.00  0.00     0.049 A 
ATOM     57  H   UNL     1       2.918  11.562   6.047  1.00  0.00     0.167 HD
ATOM     58  C   UNL     1       4.515  13.175   4.338  1.00  0.00     0.074 A 
ATOM     59  C   UNL     1       5.359  13.590   3.237  1.00  0.00     0.031 C 
ATOM     60  C   UNL     1       4.059  14.008   5.306  1.00  0.00     0.037 A 
BRANCH  47  61
ATOM     61  C   UNL     1       0.446  11.276   9.511  1.00  0.00     0.064 A 
ATOM     62  C   UNL     1       0.820  10.725  10.747  1.00  0.00     0.173 A 
ATOM     63  C   UNL     1      -0.765  11.982   9.451  1.00  0.00     0.173 A 
ATOM     64  F   UNL     1       1.962  10.029  10.857  1.00  0.00    -0.203 F 
ATOM     65  C   UNL     1      -0.003  10.841  11.864  1.00  0.00     0.198 A 
ATOM     66  C   UNL     1      -1.570  12.125  10.579  1.00  0.00     0.198 A 
ATOM     67  F   UNL     1      -1.170  12.536   8.298  1.00  0.00    -0.203 F 
ATOM     68  F   UNL     1       0.348  10.252  13.016  1.00  0.00    -0.200 F 
ATOM     69  C   UNL     1      -1.193  11.545  11.781  1.00  0.00     0.200 A 
ATOM     70  F   UNL     1      -2.715  12.817  10.501  1.00  0.00    -0.200 F 
ATOM     71  F   UNL     1      -1.983  11.658  12.858  1.00  0.00    -0.200 F 
ENDBRANCH  47  61
BRANCH  48  72
ATOM     72  C   UNL     1       5.833   9.925   1.195  1.00  0.00     0.064 A 
ATOM     73  C   UNL     1       7.230  10.046   1.201  1.00  0.00     0.173 A 
ATOM     74  C   UNL     1       5.211   9.615  -0.023  1.00  0.00     0.173 A 
ATOM     75  F   UNL     1       7.869  10.362   2.337  1.00  0.00    -0.203 F 
ATOM     76  C   UNL     1       7.973   9.878   0.035  1.00  0.00     0.198 A 
ATOM     77  C   UNL     1       5.958   9.422  -1.183  1.00  0.00     0.198 A 
ATOM     78  F   UNL     1       3.878   9.486  -0.082  1.00  0.00    -0.203 F 
ATOM     79  F   UNL     1       9.304  10.037   0.062  1.00  0.00    -0.200 F 
ATOM     80  C   UNL     1       7.337   9.559  -1.155  1.00  0.00     0.200 A 
ATOM     81  F   UNL     1       5.341   9.101  -2.329  1.00  0.00    -0.200 F 
ATOM     82  F   UNL     1       8.053   9.390  -2.275  1.00  0.00    -0.200 F 
ENDBRANCH  48  72
BRANCH  60  83
ATOM     83  C   UNL     1       4.485  15.444   5.232  1.00  0.00     0.064 A 
ATOM     84  C   UNL     1       3.953  16.317   4.272  1.00  0.00     0.173 A 
ATOM     85  C   UNL     1       5.398  15.963   6.162  1.00  0.00     0.173 A 
ATOM     86  F   UNL     1       3.086  15.863   3.354  1.00  0.00    -0.203 F 
ATOM     87  C   UNL     1       4.338  17.654   4.232  1.00  0.00     0.198 A 
ATOM     88  C   UNL     1       5.759  17.307   6.136  1.00  0.00     0.198 A 
ATOM     89  F   UNL     1       5.928  15.170   7.105  1.00  0.00    -0.203 F 
ATOM     90  F   UNL     1       3.849  18.461   3.280  1.00  0.00    -0.200 F 
ATOM     91  C   UNL     1       5.234  18.149   5.168  1.00  0.00     0.200 A 
ATOM     92  F   UNL     1       6.614  17.788   7.049  1.00  0.00    -0.200 F 
ATOM     93  F   UNL     1       5.596  19.439   5.132  1.00  0.00    -0.200 F 
ENDBRANCH  60  83
ENDBRANCH  34  35
ENDBRANCH  26  29
ENDBRANCH  24  25
ENDBRANCH  23  24
ENDBRANCH   1  23
TORSDOF 15
