REMARK SMILES Nc1ccc(C(=O)N2Cc3nc[nH]c3C[C@H]2C(=O)NCCCCNC(=O)c2ccc(-c3c4nc(c(-c5c(F)c(F)c(F)c(F)c5F)c5ccc([nH]5)c(-c5c(F)c(F)c(F)c(F)c5F)c5nc(c(-c6c(F)c(F)c(F)c(F)c6F)c6ccc3[nH]6)C=C5)C=C4)cc2)cc1
REMARK SMILES IDX 21 1 20 2 19 3 17 4 18 5 16 7 8 8 9 9 10 10 15 11 11 12
REMARK SMILES IDX 14 13 12 14 13 15 6 17 7 18 5 19 2 20 3 21 91 22 4 23 90 24
REMARK SMILES IDX 1 25 22 28 23 29 24 30 25 31 26 33 27 34 28 35 89 36 29 37
REMARK SMILES IDX 88 38 30 39 31 40 32 41 82 42 33 43 87 44 81 45 83 46 34 47
REMARK SMILES IDX 86 48 80 49 79 50 35 52 67 53 47 54 66 55 48 56 51 57 65 58
REMARK SMILES IDX 84 59 49 60 50 61 64 63 85 64 52 65 36 66 37 67 45 68 38 69
REMARK SMILES IDX 39 70 43 71 46 72 40 73 41 74 44 75 42 76 68 77 69 78 77 79
REMARK SMILES IDX 70 80 71 81 75 82 78 83 72 84 73 85 76 86 74 87 53 88 54 89
REMARK SMILES IDX 62 90 55 91 56 92 60 93 63 94 57 95 58 96 61 97 59 98
REMARK H PARENT 19 6 13 16 1 26 1 27 24 32 83 51 51 62
REMARK Flexibility Score: inf
ROOT
ATOM      1  C   UNL     1      -4.611   4.281   2.155  1.00  0.00     0.023 C 
ENDROOT
BRANCH   1   2
ATOM      2  C   UNL     1      -4.540   4.615   0.667  1.00  0.00     0.116 C 
BRANCH   2   3
ATOM      3  N   UNL     1      -3.294   4.269   0.015  1.00  0.00    -0.354 N 
ATOM      4  C   UNL     1      -3.016   3.355  -0.956  1.00  0.00     0.243 C 
ATOM      5  O   UNL     1      -2.073   3.659  -1.702  1.00  0.00    -0.273 OA
ATOM      6  H   UNL     1      -2.514   4.782   0.327  1.00  0.00     0.163 HD
BRANCH   4   7
ATOM      7  C   UNL     1      -3.807   2.045  -1.242  1.00  0.00     0.181 C 
ATOM      8  N   UNL     1      -4.117   1.122  -0.095  1.00  0.00    -0.320 N 
ATOM      9  C   UNL     1      -5.440   1.149   0.572  1.00  0.00     0.178 C 
ATOM     10  C   UNL     1      -6.434   1.962  -0.169  1.00  0.00     0.081 A 
ATOM     11  C   UNL     1      -5.001   2.312  -2.212  1.00  0.00     0.091 C 
ATOM     12  N   UNL     1      -7.580   2.474   0.380  1.00  0.00    -0.240 NA
ATOM     13  C   UNL     1      -6.241   2.474  -1.428  1.00  0.00     0.042 A 
ATOM     14  C   UNL     1      -8.095   3.249  -0.551  1.00  0.00     0.197 A 
ATOM     15  N   UNL     1      -7.331   3.252  -1.690  1.00  0.00    -0.348 N 
ATOM     16  H   UNL     1      -7.529   3.724  -2.531  1.00  0.00     0.167 HD
BRANCH   8  17
ATOM     17  C   UNL     1      -3.286   0.072   0.330  1.00  0.00     0.254 C 
ATOM     18  O   UNL     1      -3.727  -0.882   0.974  1.00  0.00    -0.269 OA
BRANCH  17  19
ATOM     19  C   UNL     1      -1.820   0.066   0.084  1.00  0.00     0.040 A 
ATOM     20  C   UNL     1       1.000  -0.074  -0.046  1.00  0.00     0.031 A 
ATOM     21  C   UNL     1       0.224  -1.226  -0.188  1.00  0.00     0.026 A 
ATOM     22  C   UNL     1       0.353   1.135   0.210  1.00  0.00     0.026 A 
ATOM     23  C   UNL     1      -1.175  -1.158  -0.140  1.00  0.00     0.016 A 
ATOM     24  C   UNL     1      -1.042   1.202   0.300  1.00  0.00     0.016 A 
BRANCH  20  25
ATOM     25  N   UNL     1       2.382  -0.150   0.003  1.00  0.00    -0.399 N 
ATOM     26  H   UNL     1       2.834  -1.005  -0.179  1.00  0.00     0.156 HD
ATOM     27  H   UNL     1       2.912   0.651   0.218  1.00  0.00     0.156 HD
ENDBRANCH  20  25
ENDBRANCH  17  19
ENDBRANCH   8  17
ENDBRANCH   4   7
ENDBRANCH   2   3
ENDBRANCH   1   2
BRANCH   1  28
ATOM     28  C   UNL     1      -4.244   5.424   3.114  1.00  0.00     0.023 C 
BRANCH  28  29
ATOM     29  C   UNL     1      -5.112   6.679   3.026  1.00  0.00     0.116 C 
BRANCH  29  30
ATOM     30  N   UNL     1      -6.520   6.471   3.360  1.00  0.00    -0.352 N 
ATOM     31  C   UNL     1      -7.570   7.351   3.126  1.00  0.00     0.251 C 
ATOM     32  H   UNL     1      -6.749   5.619   3.797  1.00  0.00     0.163 HD
ATOM     33  O   UNL     1      -8.598   7.328   3.771  1.00  0.00    -0.269 OA
BRANCH  31  34
ATOM     34  C   UNL     1      -7.396   8.322   2.030  1.00  0.00     0.039 A 
ATOM     35  C   UNL     1      -7.600   9.689   2.222  1.00  0.00     0.014 A 
ATOM     36  C   UNL     1      -6.903   7.824   0.828  1.00  0.00     0.014 A 
ATOM     37  C   UNL     1      -7.195  10.569   1.220  1.00  0.00     0.010 A 
ATOM     38  C   UNL     1      -6.374   8.698  -0.090  1.00  0.00     0.010 A 
ATOM     39  C   UNL     1      -6.546  10.071   0.076  1.00  0.00    -0.014 A 
BRANCH  39  40
ATOM     40  C   UNL     1      -5.950  10.989  -0.894  1.00  0.00     0.031 A 
ATOM     41  C   UNL     1      -5.086  12.070  -0.329  1.00  0.00     0.074 A 
ATOM     42  C   UNL     1      -5.994  10.795  -2.230  1.00  0.00     0.049 A 
ATOM     43  N   UNL     1      -5.283  13.346  -0.388  1.00  0.00    -0.248 NA
ATOM     44  C   UNL     1      -3.906  11.690   0.463  1.00  0.00     0.031 C 
ATOM     45  C   UNL     1      -6.521   9.652  -2.983  1.00  0.00     0.029 A 
ATOM     46  N   UNL     1      -5.466  11.576  -3.212  1.00  0.00    -0.354 N 
ATOM     47  C   UNL     1      -4.182  13.948   0.218  1.00  0.00     0.074 A 
ATOM     48  C   UNL     1      -3.433  12.883   0.835  1.00  0.00     0.031 C 
ATOM     49  C   UNL     1      -6.072   9.700  -4.256  1.00  0.00     0.029 A 
ATOM     50  C   UNL     1      -5.392  10.964  -4.454  1.00  0.00     0.049 A 
ATOM     51  H   UNL     1      -5.161  12.498  -3.053  1.00  0.00     0.167 HD
ATOM     52  C   UNL     1      -3.879  15.259  -0.007  1.00  0.00     0.037 A 
ATOM     53  C   UNL     1      -4.798  11.456  -5.568  1.00  0.00     0.037 A 
ATOM     54  C   UNL     1      -5.009  15.969  -0.551  1.00  0.00     0.049 A 
ATOM     55  C   UNL     1      -4.703  12.928  -5.400  1.00  0.00     0.074 A 
ATOM     56  C   UNL     1      -6.302  16.201  -0.119  1.00  0.00     0.029 A 
ATOM     57  N   UNL     1      -5.024  16.251  -1.896  1.00  0.00    -0.354 N 
ATOM     58  N   UNL     1      -5.739  13.721  -5.378  1.00  0.00    -0.248 NA
ATOM     59  C   UNL     1      -3.494  13.460  -4.790  1.00  0.00     0.031 C 
ATOM     60  C   UNL     1      -7.106  16.068  -1.290  1.00  0.00     0.029 A 
ATOM     61  C   UNL     1      -6.247  15.843  -2.366  1.00  0.00     0.049 A 
ATOM     62  H   UNL     1      -4.300  16.665  -2.419  1.00  0.00     0.167 HD
ATOM     63  C   UNL     1      -5.452  14.645  -4.385  1.00  0.00     0.074 A 
ATOM     64  C   UNL     1      -4.023  14.487  -4.120  1.00  0.00     0.031 C 
ATOM     65  C   UNL     1      -6.443  15.251  -3.668  1.00  0.00     0.037 A 
BRANCH  52  66
ATOM     66  C   UNL     1      -2.480  15.828  -0.063  1.00  0.00     0.064 A 
ATOM     67  C   UNL     1      -2.306  17.222  -0.196  1.00  0.00     0.173 A 
ATOM     68  C   UNL     1      -1.329  15.049  -0.307  1.00  0.00     0.173 A 
ATOM     69  F   UNL     1      -3.333  18.062   0.004  1.00  0.00    -0.203 F 
ATOM     70  C   UNL     1      -1.102  17.781  -0.634  1.00  0.00     0.198 A 
ATOM     71  C   UNL     1      -0.114  15.615  -0.694  1.00  0.00     0.198 A 
ATOM     72  F   UNL     1      -1.359  13.712  -0.296  1.00  0.00    -0.203 F 
ATOM     73  F   UNL     1      -1.028  19.096  -0.877  1.00  0.00    -0.200 F 
ATOM     74  C   UNL     1      -0.010  16.975  -0.893  1.00  0.00     0.200 A 
ATOM     75  F   UNL     1       0.930  14.815  -0.955  1.00  0.00    -0.200 F 
ATOM     76  F   UNL     1       1.123  17.498  -1.381  1.00  0.00    -0.200 F 
ENDBRANCH  52  66
BRANCH  53  77
ATOM     77  C   UNL     1      -4.060  10.709  -6.611  1.00  0.00     0.064 A 
ATOM     78  C   UNL     1      -3.754  11.299  -7.847  1.00  0.00     0.173 A 
ATOM     79  C   UNL     1      -3.401   9.498  -6.315  1.00  0.00     0.173 A 
ATOM     80  F   UNL     1      -4.306  12.472  -8.189  1.00  0.00    -0.203 F 
ATOM     81  C   UNL     1      -2.824  10.727  -8.722  1.00  0.00     0.198 A 
ATOM     82  C   UNL     1      -2.479   8.925  -7.191  1.00  0.00     0.198 A 
ATOM     83  F   UNL     1      -3.571   8.894  -5.129  1.00  0.00    -0.203 F 
ATOM     84  F   UNL     1      -2.510  11.352  -9.866  1.00  0.00    -0.200 F 
ATOM     85  C   UNL     1      -2.179   9.547  -8.387  1.00  0.00     0.200 A 
ATOM     86  F   UNL     1      -1.839   7.801  -6.839  1.00  0.00    -0.200 F 
ATOM     87  F   UNL     1      -1.242   9.033  -9.196  1.00  0.00    -0.200 F 
ENDBRANCH  53  77
BRANCH  65  88
ATOM     88  C   UNL     1      -7.865  15.083  -4.126  1.00  0.00     0.064 A 
ATOM     89  C   UNL     1      -8.527  13.845  -4.209  1.00  0.00     0.173 A 
ATOM     90  C   UNL     1      -8.636  16.235  -4.334  1.00  0.00     0.173 A 
ATOM     91  F   UNL     1      -7.895  12.701  -3.924  1.00  0.00    -0.203 F 
ATOM     92  C   UNL     1      -9.883  13.766  -4.527  1.00  0.00     0.198 A 
ATOM     93  C   UNL     1      -9.998  16.156  -4.615  1.00  0.00     0.198 A 
ATOM     94  F   UNL     1      -8.076  17.449  -4.213  1.00  0.00    -0.203 F 
ATOM     95  F   UNL     1     -10.485  12.570  -4.609  1.00  0.00    -0.200 F 
ATOM     96  C   UNL     1     -10.618  14.922  -4.722  1.00  0.00     0.200 A 
ATOM     97  F   UNL     1     -10.716  17.279  -4.752  1.00  0.00    -0.200 F 
ATOM     98  F   UNL     1     -11.931  14.849  -4.985  1.00  0.00    -0.200 F 
ENDBRANCH  65  88
ENDBRANCH  39  40
ENDBRANCH  31  34
ENDBRANCH  29  30
ENDBRANCH  28  29
ENDBRANCH   1  28
TORSDOF 14
