REMARK SMILES O=C(NCCCCNC(=O)[C@@H]1C[N@@H+](CC(=O)c2ccc[nH]2)CC[NH2+]1)c1ccc(-c2c3nc(c(-c4c(F)c(F)c(F)c(F)c4F)c4ccc([nH]4)c(-c4c(F)c(F)c(F)c(F)c4F)c4nc(c(-c5c(F)c(F)c(F)c(F)c5F)c5ccc2[nH]5)C=C4)C=C3)cc1
REMARK SMILES IDX 6 1 5 2 4 3 3 4 1 5 2 6 25 8 26 9 87 10 27 11 86 12 28 13
REMARK SMILES IDX 29 14 30 15 80 16 31 17 85 18 79 19 81 20 32 21 84 22 78 23
REMARK SMILES IDX 77 24 33 26 65 27 45 28 64 29 46 30 49 31 63 32 82 33 47 34
REMARK SMILES IDX 48 35 62 37 83 38 50 39 34 40 35 41 43 42 36 43 37 44 41 45
REMARK SMILES IDX 44 46 38 47 39 48 42 49 40 50 66 51 67 52 75 53 68 54 69 55
REMARK SMILES IDX 73 56 76 57 70 58 71 59 74 60 72 61 51 62 52 63 60 64 53 65
REMARK SMILES IDX 54 66 58 67 61 68 55 69 56 70 59 71 57 72 7 73 8 74 9 75
REMARK SMILES IDX 10 77 11 78 12 79 24 80 13 81 23 82 22 85 14 87 15 88 16 89
REMARK SMILES IDX 17 90 18 91 21 92 19 93 20 94
REMARK H PARENT 3 7 81 25 49 36 8 76 24 83 24 84 13 86 21 95
REMARK Flexibility Score: inf
ROOT
ATOM      1  C   UNL     1       4.383  -0.713   3.274  1.00  0.00     0.023 C 
ENDROOT
BRANCH   1   2
ATOM      2  C   UNL     1       5.037  -0.047   2.069  1.00  0.00     0.023 C 
BRANCH   2   3
ATOM      3  C   UNL     1       4.733  -0.671   0.705  1.00  0.00     0.116 C 
BRANCH   3   4
ATOM      4  N   UNL     1       3.335  -0.757   0.322  1.00  0.00    -0.352 N 
ATOM      5  O   UNL     1       1.292  -0.156  -0.389  1.00  0.00    -0.269 OA
ATOM      6  C   UNL     1       2.400   0.196   0.018  1.00  0.00     0.251 C 
ATOM      7  H   UNL     1       2.993  -1.679   0.273  1.00  0.00     0.163 HD
BRANCH   6   8
ATOM      8  C   UNL     1       2.659   1.628   0.258  1.00  0.00     0.039 A 
ATOM      9  C   UNL     1       3.902   2.211   0.016  1.00  0.00     0.014 A 
ATOM     10  C   UNL     1       1.605   2.405   0.763  1.00  0.00     0.014 A 
ATOM     11  C   UNL     1       4.145   3.508   0.423  1.00  0.00     0.010 A 
ATOM     12  C   UNL     1       1.819   3.738   1.105  1.00  0.00     0.010 A 
ATOM     13  C   UNL     1       3.098   4.278   0.946  1.00  0.00    -0.014 A 
BRANCH  13  14
ATOM     14  C   UNL     1       3.353   5.731   0.991  1.00  0.00     0.031 A 
ATOM     15  C   UNL     1       3.345   6.300  -0.451  1.00  0.00     0.074 A 
ATOM     16  C   UNL     1       3.664   6.274   2.208  1.00  0.00     0.049 A 
ATOM     17  N   UNL     1       4.017   7.285  -0.961  1.00  0.00    -0.248 NA
ATOM     18  C   UNL     1       2.540   5.612  -1.505  1.00  0.00     0.031 C 
ATOM     19  C   UNL     1       3.578   5.562   3.502  1.00  0.00     0.029 A 
ATOM     20  N   UNL     1       4.132   7.511   2.615  1.00  0.00    -0.354 N 
ATOM     21  C   UNL     1       3.578   7.460  -2.295  1.00  0.00     0.074 A 
ATOM     22  C   UNL     1       2.769   6.325  -2.609  1.00  0.00     0.031 C 
ATOM     23  C   UNL     1       4.048   6.330   4.513  1.00  0.00     0.029 A 
ATOM     24  C   UNL     1       4.478   7.614   3.994  1.00  0.00     0.049 A 
ATOM     25  H   UNL     1       4.220   8.269   1.993  1.00  0.00     0.167 HD
ATOM     26  C   UNL     1       3.798   8.607  -3.003  1.00  0.00     0.037 A 
ATOM     27  C   UNL     1       5.105   8.645   4.652  1.00  0.00     0.037 A 
ATOM     28  C   UNL     1       4.558   9.511  -2.213  1.00  0.00     0.049 A 
ATOM     29  C   UNL     1       5.181   9.722   3.660  1.00  0.00     0.074 A 
ATOM     30  C   UNL     1       5.879   9.517  -1.857  1.00  0.00     0.029 A 
ATOM     31  N   UNL     1       3.852  10.348  -1.385  1.00  0.00    -0.354 N 
ATOM     32  N   UNL     1       4.167  10.440   3.280  1.00  0.00    -0.248 NA
ATOM     33  C   UNL     1       6.460   9.975   2.986  1.00  0.00     0.031 C 
ATOM     34  C   UNL     1       5.844   9.976  -0.528  1.00  0.00     0.029 A 
ATOM     35  C   UNL     1       4.566  10.463  -0.222  1.00  0.00     0.049 A 
ATOM     36  H   UNL     1       2.994  10.785  -1.589  1.00  0.00     0.167 HD
ATOM     37  C   UNL     1       4.624  10.967   2.098  1.00  0.00     0.074 A 
ATOM     38  C   UNL     1       6.069  10.942   2.161  1.00  0.00     0.031 C 
ATOM     39  C   UNL     1       3.863  10.832   0.983  1.00  0.00     0.037 A 
BRANCH  26  40
ATOM     40  C   UNL     1       3.210   9.164  -4.268  1.00  0.00     0.064 A 
ATOM     41  C   UNL     1       3.897  10.233  -4.901  1.00  0.00     0.173 A 
ATOM     42  C   UNL     1       1.872   8.985  -4.634  1.00  0.00     0.173 A 
ATOM     43  F   UNL     1       5.201  10.449  -4.662  1.00  0.00    -0.203 F 
ATOM     44  C   UNL     1       3.240  11.159  -5.707  1.00  0.00     0.198 A 
ATOM     45  C   UNL     1       1.229   9.889  -5.487  1.00  0.00     0.198 A 
ATOM     46  F   UNL     1       1.133   8.007  -4.096  1.00  0.00    -0.203 F 
ATOM     47  F   UNL     1       3.893  12.244  -6.148  1.00  0.00    -0.200 F 
ATOM     48  C   UNL     1       1.898  10.998  -5.981  1.00  0.00     0.200 A 
ATOM     49  F   UNL     1      -0.072   9.726  -5.762  1.00  0.00    -0.200 F 
ATOM     50  F   UNL     1       1.239  11.927  -6.687  1.00  0.00    -0.200 F 
ENDBRANCH  26  40
BRANCH  27  51
ATOM     51  C   UNL     1       5.751   8.956   5.993  1.00  0.00     0.064 A 
ATOM     52  C   UNL     1       5.715   8.155   7.139  1.00  0.00     0.173 A 
ATOM     53  C   UNL     1       6.551  10.133   6.143  1.00  0.00     0.173 A 
ATOM     54  F   UNL     1       4.913   7.088   7.208  1.00  0.00    -0.203 F 
ATOM     55  C   UNL     1       6.503   8.440   8.277  1.00  0.00     0.198 A 
ATOM     56  C   UNL     1       7.375  10.384   7.240  1.00  0.00     0.198 A 
ATOM     57  F   UNL     1       6.569  11.102   5.219  1.00  0.00    -0.203 F 
ATOM     58  F   UNL     1       6.435   7.640   9.350  1.00  0.00    -0.200 F 
ATOM     59  C   UNL     1       7.364   9.525   8.307  1.00  0.00     0.200 A 
ATOM     60  F   UNL     1       8.184  11.454   7.233  1.00  0.00    -0.200 F 
ATOM     61  F   UNL     1       8.165   9.748   9.358  1.00  0.00    -0.200 F 
ENDBRANCH  27  51
BRANCH  39  62
ATOM     62  C   UNL     1       2.377  10.682   1.263  1.00  0.00     0.064 A 
ATOM     63  C   UNL     1       1.691  11.700   1.945  1.00  0.00     0.173 A 
ATOM     64  C   UNL     1       1.635   9.518   1.004  1.00  0.00     0.173 A 
ATOM     65  F   UNL     1       2.313  12.859   2.212  1.00  0.00    -0.203 F 
ATOM     66  C   UNL     1       0.365  11.547   2.363  1.00  0.00     0.198 A 
ATOM     67  C   UNL     1       0.310   9.359   1.419  1.00  0.00     0.198 A 
ATOM     68  F   UNL     1       2.176   8.506   0.334  1.00  0.00    -0.203 F 
ATOM     69  F   UNL     1      -0.247  12.545   3.015  1.00  0.00    -0.200 F 
ATOM     70  C   UNL     1      -0.324  10.374   2.106  1.00  0.00     0.200 A 
ATOM     71  F   UNL     1      -0.348   8.221   1.144  1.00  0.00    -0.200 F 
ATOM     72  F   UNL     1      -1.597  10.230   2.500  1.00  0.00    -0.200 F 
ENDBRANCH  39  62
ENDBRANCH  13  14
ENDBRANCH   6   8
ENDBRANCH   3   4
ENDBRANCH   2   3
ENDBRANCH   1   2
BRANCH   1  73
ATOM     73  C   UNL     1       4.374  -2.232   3.267  1.00  0.00     0.116 C 
BRANCH  73  74
ATOM     74  N   UNL     1       5.676  -2.822   3.026  1.00  0.00    -0.351 N 
ATOM     75  C   UNL     1       6.193  -3.980   3.524  1.00  0.00     0.284 C 
ATOM     76  H   UNL     1       6.267  -2.317   2.421  1.00  0.00     0.163 HD
ATOM     77  O   UNL     1       7.160  -4.457   2.921  1.00  0.00    -0.268 OA
BRANCH  75  78
ATOM     78  C   UNL     1       5.722  -4.540   4.871  1.00  0.00     0.328 C 
ATOM     79  C   UNL     1       6.341  -5.937   5.112  1.00  0.00     0.339 C 
ATOM     80  N   UNL     1       4.248  -4.629   5.037  1.00  0.00    -0.327 N 
ATOM     81  N   UNL     1       6.073  -6.499   6.444  1.00  0.00    -0.318 N 
ATOM     82  C   UNL     1       3.998  -4.991   6.447  1.00  0.00     0.323 C 
ATOM     83  H   UNL     1       3.868  -5.345   4.418  1.00  0.00     0.347 HD
ATOM     84  H   UNL     1       3.799  -3.744   4.801  1.00  0.00     0.347 HD
ATOM     85  C   UNL     1       4.668  -6.327   6.851  1.00  0.00     0.324 C 
ATOM     86  H   UNL     1       6.189  -7.508   6.357  1.00  0.00     0.348 HD
BRANCH  81  87
ATOM     87  C   UNL     1       7.089  -6.176   7.465  1.00  0.00     0.346 C 
BRANCH  87  88
ATOM     88  C   UNL     1       7.113  -4.738   7.988  1.00  0.00     0.232 C 
ATOM     89  O   UNL     1       6.399  -4.417   8.942  1.00  0.00    -0.286 OA
BRANCH  88  90
ATOM     90  C   UNL     1       7.965  -3.747   7.341  1.00  0.00     0.088 A 
ATOM     91  C   UNL     1       8.772  -3.790   6.215  1.00  0.00     0.031 A 
ATOM     92  N   UNL     1       8.037  -2.450   7.813  1.00  0.00    -0.359 N 
ATOM     93  C   UNL     1       9.189  -2.467   5.920  1.00  0.00     0.020 A 
ATOM     94  C   UNL     1       8.732  -1.663   6.935  1.00  0.00     0.083 A 
ATOM     95  H   UNL     1       7.645  -2.138   8.660  1.00  0.00     0.166 HD
ENDBRANCH  88  90
ENDBRANCH  87  88
ENDBRANCH  81  87
ENDBRANCH  75  78
ENDBRANCH  73  74
ENDBRANCH   1  73
TORSDOF 14
