REMARK SMILES O=C(NCCCCNC(=O)[C@H]1C[C@](O)(c2ccc(F)cc2)[C@@H](c2ccc(F)cc2)O1)c1ccc(-c2c3nc(c(-c4c(F)c(F)c(F)c(F)c4F)c4ccc([nH]4)c(-c4c(F)c(F)c(F)c(F)c4F)c4nc(c(-c5c(F)c(F)c(F)c(F)c5F)c5ccc2[nH]5)C=C4)C=C3)cc1
REMARK SMILES IDX 5 1 4 2 3 3 1 4 2 5 31 7 32 8 93 9 33 10 92 11 34 12 35 13
REMARK SMILES IDX 36 14 86 15 37 16 91 17 85 18 87 19 38 20 90 21 84 22 83 23
REMARK SMILES IDX 39 25 71 26 51 27 70 28 52 29 55 30 69 31 88 32 53 33 54 34
REMARK SMILES IDX 68 36 89 37 56 38 40 39 41 40 49 41 42 42 43 43 47 44 50 45
REMARK SMILES IDX 44 46 45 47 48 48 46 49 72 50 73 51 81 52 74 53 75 54 79 55
REMARK SMILES IDX 82 56 76 57 77 58 80 59 78 60 57 61 58 62 66 63 59 64 60 65
REMARK SMILES IDX 64 66 67 67 61 68 62 69 65 70 63 71 6 72 7 73 8 74 9 75
REMARK SMILES IDX 10 77 11 78 12 79 30 80 13 81 22 82 15 83 16 84 21 85 17 86
REMARK SMILES IDX 20 87 18 88 19 89 14 90 23 92 24 93 29 94 25 95 28 96 26 97
REMARK SMILES IDX 27 98
REMARK H PARENT 3 6 87 24 55 35 8 76 14 91
REMARK Flexibility Score: inf
ROOT
ATOM      1  C   UNL     1       5.307   9.864  -4.427  1.00  0.00     0.023 C 
ENDROOT
BRANCH   1   2
ATOM      2  C   UNL     1       3.932  10.486  -4.217  1.00  0.00     0.116 C 
BRANCH   2   3
ATOM      3  N   UNL     1       3.948  11.752  -3.503  1.00  0.00    -0.352 N 
ATOM      4  O   UNL     1       3.268  13.883  -3.108  1.00  0.00    -0.269 OA
ATOM      5  C   UNL     1       3.137  12.851  -3.732  1.00  0.00     0.251 C 
ATOM      6  H   UNL     1       4.608  11.837  -2.777  1.00  0.00     0.163 HD
BRANCH   5   7
ATOM      7  C   UNL     1       2.124  12.742  -4.809  1.00  0.00     0.039 A 
ATOM      8  C   UNL     1       1.213  11.684  -4.806  1.00  0.00     0.014 A 
ATOM      9  C   UNL     1       2.170  13.640  -5.877  1.00  0.00     0.014 A 
ATOM     10  C   UNL     1       0.451  11.436  -5.942  1.00  0.00     0.010 A 
ATOM     11  C   UNL     1       1.345  13.432  -6.987  1.00  0.00     0.010 A 
ATOM     12  C   UNL     1       0.509  12.306  -7.045  1.00  0.00    -0.014 A 
BRANCH  12  13
ATOM     13  C   UNL     1      -0.348  12.042  -8.228  1.00  0.00     0.031 A 
ATOM     14  C   UNL     1       0.245  11.678  -9.560  1.00  0.00     0.074 A 
ATOM     15  C   UNL     1      -1.685  12.099  -8.078  1.00  0.00     0.049 A 
ATOM     16  N   UNL     1      -0.365  11.427 -10.692  1.00  0.00    -0.248 NA
ATOM     17  C   UNL     1       1.711  11.585  -9.640  1.00  0.00     0.031 C 
ATOM     18  C   UNL     1      -2.373  12.435  -6.830  1.00  0.00     0.029 A 
ATOM     19  N   UNL     1      -2.701  11.858  -8.965  1.00  0.00    -0.354 N 
ATOM     20  C   UNL     1       0.636  11.169 -11.619  1.00  0.00     0.074 A 
ATOM     21  C   UNL     1       1.899  11.306 -10.924  1.00  0.00     0.031 C 
ATOM     22  C   UNL     1      -3.696  12.330  -7.017  1.00  0.00     0.029 A 
ATOM     23  C   UNL     1      -3.951  11.984  -8.411  1.00  0.00     0.049 A 
ATOM     24  H   UNL     1      -2.550  11.618  -9.908  1.00  0.00     0.167 HD
ATOM     25  C   UNL     1       0.508  10.843 -12.928  1.00  0.00     0.037 A 
ATOM     26  C   UNL     1      -5.170  11.852  -8.965  1.00  0.00     0.037 A 
ATOM     27  C   UNL     1      -0.752  10.682 -13.608  1.00  0.00     0.049 A 
ATOM     28  C   UNL     1      -5.281  11.513 -10.421  1.00  0.00     0.074 A 
ATOM     29  C   UNL     1      -0.981  10.325 -14.927  1.00  0.00     0.029 A 
ATOM     30  N   UNL     1      -1.997  10.863 -13.023  1.00  0.00    -0.354 N 
ATOM     31  N   UNL     1      -4.325  11.277 -11.286  1.00  0.00    -0.248 NA
ATOM     32  C   UNL     1      -6.636  11.435 -10.982  1.00  0.00     0.031 C 
ATOM     33  C   UNL     1      -2.361  10.327 -15.149  1.00  0.00     0.029 A 
ATOM     34  C   UNL     1      -2.995  10.644 -13.959  1.00  0.00     0.049 A 
ATOM     35  H   UNL     1      -2.148  11.111 -12.082  1.00  0.00     0.167 HD
ATOM     36  C   UNL     1      -4.960  11.020 -12.492  1.00  0.00     0.074 A 
ATOM     37  C   UNL     1      -6.384  11.108 -12.243  1.00  0.00     0.031 C 
ATOM     38  C   UNL     1      -4.408  10.743 -13.697  1.00  0.00     0.037 A 
BRANCH  25  39
ATOM     39  C   UNL     1       1.758  10.641 -13.732  1.00  0.00     0.064 A 
ATOM     40  C   UNL     1       2.133  11.578 -14.707  1.00  0.00     0.173 A 
ATOM     41  C   UNL     1       2.531   9.477 -13.609  1.00  0.00     0.173 A 
ATOM     42  F   UNL     1       1.422  12.704 -14.871  1.00  0.00    -0.203 F 
ATOM     43  C   UNL     1       3.226  11.350 -15.539  1.00  0.00     0.198 A 
ATOM     44  C   UNL     1       3.636   9.262 -14.429  1.00  0.00     0.198 A 
ATOM     45  F   UNL     1       2.218   8.555 -12.686  1.00  0.00    -0.203 F 
ATOM     46  F   UNL     1       3.546  12.245 -16.485  1.00  0.00    -0.200 F 
ATOM     47  C   UNL     1       3.977  10.193 -15.399  1.00  0.00     0.200 A 
ATOM     48  F   UNL     1       4.372   8.151 -14.281  1.00  0.00    -0.200 F 
ATOM     49  F   UNL     1       5.030   9.975 -16.200  1.00  0.00    -0.200 F 
ENDBRANCH  25  39
BRANCH  26  50
ATOM     50  C   UNL     1      -6.373  12.046  -8.119  1.00  0.00     0.064 A 
ATOM     51  C   UNL     1      -6.716  13.312  -7.622  1.00  0.00     0.173 A 
ATOM     52  C   UNL     1      -7.167  10.956  -7.741  1.00  0.00     0.173 A 
ATOM     53  F   UNL     1      -5.980  14.384  -7.952  1.00  0.00    -0.203 F 
ATOM     54  C   UNL     1      -7.791  13.476  -6.754  1.00  0.00     0.198 A 
ATOM     55  C   UNL     1      -8.259  11.125  -6.893  1.00  0.00     0.198 A 
ATOM     56  F   UNL     1      -6.887   9.730  -8.207  1.00  0.00    -0.203 F 
ATOM     57  F   UNL     1      -8.071  14.689  -6.257  1.00  0.00    -0.200 F 
ATOM     58  C   UNL     1      -8.563  12.383  -6.391  1.00  0.00     0.200 A 
ATOM     59  F   UNL     1      -9.015  10.070  -6.559  1.00  0.00    -0.200 F 
ATOM     60  F   UNL     1      -9.601  12.540  -5.558  1.00  0.00    -0.200 F 
ENDBRANCH  26  50
BRANCH  38  61
ATOM     61  C   UNL     1      -5.345  10.512 -14.843  1.00  0.00     0.064 A 
ATOM     62  C   UNL     1      -5.540   9.221 -15.355  1.00  0.00     0.173 A 
ATOM     63  C   UNL     1      -6.004  11.579 -15.470  1.00  0.00     0.173 A 
ATOM     64  F   UNL     1      -4.926   8.170 -14.791  1.00  0.00    -0.203 F 
ATOM     65  C   UNL     1      -6.356   9.008 -16.462  1.00  0.00     0.198 A 
ATOM     66  C   UNL     1      -6.837  11.359 -16.563  1.00  0.00     0.198 A 
ATOM     67  F   UNL     1      -5.859  12.829 -15.005  1.00  0.00    -0.203 F 
ATOM     68  F   UNL     1      -6.511   7.769 -16.950  1.00  0.00    -0.200 F 
ATOM     69  C   UNL     1      -7.006  10.076 -17.062  1.00  0.00     0.200 A 
ATOM     70  F   UNL     1      -7.482  12.388 -17.129  1.00  0.00    -0.200 F 
ATOM     71  F   UNL     1      -7.801   9.867 -18.122  1.00  0.00    -0.200 F 
ENDBRANCH  38  61
ENDBRANCH  12  13
ENDBRANCH   5   7
ENDBRANCH   2   3
ENDBRANCH   1   2
BRANCH   1  72
ATOM     72  C   UNL     1       5.969   9.325  -3.162  1.00  0.00     0.023 C 
BRANCH  72  73
ATOM     73  C   UNL     1       5.157   8.234  -2.460  1.00  0.00     0.116 C 
BRANCH  73  74
ATOM     74  N   UNL     1       5.805   6.941  -2.477  1.00  0.00    -0.354 N 
ATOM     75  C   UNL     1       6.457   6.244  -1.509  1.00  0.00     0.249 C 
ATOM     76  H   UNL     1       5.766   6.482  -3.348  1.00  0.00     0.163 HD
ATOM     77  O   UNL     1       6.766   5.080  -1.795  1.00  0.00    -0.272 OA
BRANCH  75  78
ATOM     78  C   UNL     1       6.809   6.812  -0.111  1.00  0.00     0.211 C 
ATOM     79  C   UNL     1       7.396   8.202  -0.083  1.00  0.00     0.085 C 
ATOM     80  O   UNL     1       5.799   6.717   0.878  1.00  0.00    -0.357 OA
ATOM     81  C   UNL     1       6.498   9.048   0.832  1.00  0.00     0.123 C 
ATOM     82  C   UNL     1       5.426   8.022   1.359  1.00  0.00     0.186 C 
BRANCH  81  83
ATOM     83  C   UNL     1       7.403   9.804   1.815  1.00  0.00    -0.013 A 
ATOM     84  C   UNL     1       8.402  10.653   1.269  1.00  0.00     0.010 A 
ATOM     85  C   UNL     1       7.326   9.708   3.210  1.00  0.00     0.010 A 
ATOM     86  C   UNL     1       9.307  11.340   2.076  1.00  0.00     0.039 A 
ATOM     87  C   UNL     1       8.232  10.406   4.021  1.00  0.00     0.039 A 
ATOM     88  C   UNL     1       9.215  11.205   3.450  1.00  0.00     0.123 A 
ATOM     89  F   UNL     1      10.085  11.852   4.236  1.00  0.00    -0.207 F 
ENDBRANCH  81  83
BRANCH  81  90
ATOM     90  O   UNL     1       5.895  10.080   0.030  1.00  0.00    -0.382 OA
ATOM     91  H   UNL     1       5.302   9.677  -0.623  1.00  0.00     0.212 HD
ENDBRANCH  81  90
BRANCH  82  92
ATOM     92  C   UNL     1       3.957   8.256   0.984  1.00  0.00    -0.016 A 
ATOM     93  C   UNL     1       3.240   7.323   0.202  1.00  0.00     0.009 A 
ATOM     94  C   UNL     1       3.279   9.409   1.413  1.00  0.00     0.009 A 
ATOM     95  C   UNL     1       1.934   7.576  -0.218  1.00  0.00     0.039 A 
ATOM     96  C   UNL     1       1.965   9.658   1.000  1.00  0.00     0.039 A 
ATOM     97  C   UNL     1       1.313   8.749   0.175  1.00  0.00     0.123 A 
ATOM     98  F   UNL     1       0.068   9.009  -0.247  1.00  0.00    -0.207 F 
ENDBRANCH  82  92
ENDBRANCH  75  78
ENDBRANCH  73  74
ENDBRANCH  72  73
ENDBRANCH   1  72
TORSDOF 14
