REMARK SMILES Cc1cc(NC(=O)/C=C/c2ccco2)cc(C(=O)NCCCCNC(=O)c2ccc(-c3c4nc(c(-c5c(F)c(F)c(F)c(F)c5F)c5ccc([nH]5)c(-c5c(F)c(F)c(F)c(F)c5F)c5nc(c(-c6c(F)c(F)c(F)c(F)c6F)c6ccc3[nH]6)C=C5)C=C4)cc2)c1O
REMARK SMILES IDX 21 1 20 2 19 3 17 4 18 5 16 7 1 8 2 9 3 10 90 11 4 12 15 13
REMARK SMILES IDX 91 14 5 16 6 17 7 19 8 20 9 21 10 22 11 23 14 24 12 25 13 26
REMARK SMILES IDX 22 27 23 28 24 29 25 30 26 32 27 33 28 34 89 35 29 36 88 37
REMARK SMILES IDX 30 38 31 39 32 40 82 41 33 42 87 43 81 44 83 45 34 46 86 47
REMARK SMILES IDX 80 48 79 49 35 51 67 52 47 53 66 54 48 55 51 56 65 57 84 58
REMARK SMILES IDX 49 59 50 60 64 62 85 63 52 64 36 65 37 66 45 67 38 68 39 69
REMARK SMILES IDX 43 70 46 71 40 72 41 73 44 74 42 75 68 76 69 77 77 78 70 79
REMARK SMILES IDX 71 80 75 81 78 82 72 83 73 84 76 85 74 86 53 87 54 88 62 89
REMARK SMILES IDX 55 90 56 91 60 92 63 93 57 94 58 95 61 96 59 97
REMARK H PARENT 19 6 91 15 5 18 24 31 83 50 51 61
REMARK Flexibility Score: inf
ROOT
ATOM      1  C   UNL     1       3.392   3.791  -2.608  1.00  0.00     0.023 C 
ENDROOT
BRANCH   1   2
ATOM      2  C   UNL     1       2.707   3.185  -1.386  1.00  0.00     0.116 C 
BRANCH   2   3
ATOM      3  N   UNL     1       1.333   3.573  -1.117  1.00  0.00    -0.352 N 
ATOM      4  C   UNL     1       0.311   2.872  -0.482  1.00  0.00     0.255 C 
ATOM      5  O   UNL     1      -0.690   3.506  -0.150  1.00  0.00    -0.269 OA
ATOM      6  H   UNL     1       1.086   4.473  -1.433  1.00  0.00     0.163 HD
BRANCH   4   7
ATOM      7  C   UNL     1       0.395   1.395  -0.206  1.00  0.00     0.083 A 
ATOM      8  C   UNL     1      -1.750  -1.780  -0.397  1.00  0.00     0.048 C 
ATOM      9  C   UNL     1      -0.587  -0.844  -0.225  1.00  0.00    -0.006 A 
ATOM     10  C   UNL     1       0.669  -1.380   0.107  1.00  0.00     0.033 A 
ATOM     11  C   UNL     1      -0.708   0.548  -0.396  1.00  0.00     0.131 A 
ATOM     12  C   UNL     1       1.767  -0.555   0.356  1.00  0.00     0.042 A 
ATOM     13  C   UNL     1       1.586   0.827   0.267  1.00  0.00     0.044 A 
BRANCH  11  14
ATOM     14  O   UNL     1      -1.906   1.069  -0.801  1.00  0.00    -0.507 OA
ATOM     15  H   UNL     1      -2.643   0.505  -0.928  1.00  0.00     0.293 HD
ENDBRANCH  11  14
BRANCH  12  16
ATOM     16  N   UNL     1       3.015  -1.191   0.558  1.00  0.00    -0.322 N 
ATOM     17  C   UNL     1       4.230  -0.726   0.989  1.00  0.00     0.248 C 
ATOM     18  H   UNL     1       3.009  -2.153   0.349  1.00  0.00     0.170 HD
ATOM     19  O   UNL     1       5.267  -1.342   0.769  1.00  0.00    -0.270 OA
BRANCH  17  20
ATOM     20  C   UNL     1       4.224   0.478   1.829  1.00  0.00     0.075 C 
ATOM     21  C   UNL     1       4.732   1.625   1.359  1.00  0.00     0.053 C 
BRANCH  21  22
ATOM     22  C   UNL     1       4.287   2.838   1.956  1.00  0.00     0.126 A 
ATOM     23  C   UNL     1       4.778   4.127   1.826  1.00  0.00     0.050 A 
ATOM     24  O   UNL     1       3.106   2.922   2.667  1.00  0.00    -0.465 OA
ATOM     25  C   UNL     1       3.826   5.015   2.387  1.00  0.00     0.042 A 
ATOM     26  C   UNL     1       2.827   4.225   2.892  1.00  0.00     0.195 A 
ENDBRANCH  21  22
ENDBRANCH  17  20
ENDBRANCH  12  16
ENDBRANCH   4   7
ENDBRANCH   2   3
ENDBRANCH   1   2
BRANCH   1  27
ATOM     27  C   UNL     1       3.767   5.276  -2.592  1.00  0.00     0.023 C 
BRANCH  27  28
ATOM     28  C   UNL     1       4.682   5.806  -1.484  1.00  0.00     0.116 C 
BRANCH  28  29
ATOM     29  N   UNL     1       5.958   5.125  -1.319  1.00  0.00    -0.352 N 
ATOM     30  C   UNL     1       7.125   5.611  -0.759  1.00  0.00     0.251 C 
ATOM     31  H   UNL     1       5.995   4.198  -1.650  1.00  0.00     0.163 HD
ATOM     32  O   UNL     1       8.107   4.882  -0.647  1.00  0.00    -0.269 OA
BRANCH  30  33
ATOM     33  C   UNL     1       7.218   7.028  -0.332  1.00  0.00     0.039 A 
ATOM     34  C   UNL     1       8.244   7.819  -0.857  1.00  0.00     0.014 A 
ATOM     35  C   UNL     1       6.284   7.595   0.538  1.00  0.00     0.014 A 
ATOM     36  C   UNL     1       8.247   9.199  -0.624  1.00  0.00     0.010 A 
ATOM     37  C   UNL     1       6.263   8.977   0.740  1.00  0.00     0.010 A 
ATOM     38  C   UNL     1       7.213   9.797   0.116  1.00  0.00    -0.014 A 
BRANCH  38  39
ATOM     39  C   UNL     1       7.023  11.273   0.099  1.00  0.00     0.031 A 
ATOM     40  C   UNL     1       7.183  12.111   1.333  1.00  0.00     0.074 A 
ATOM     41  C   UNL     1       6.610  11.851  -1.048  1.00  0.00     0.049 A 
ATOM     42  N   UNL     1       7.030  13.405   1.476  1.00  0.00    -0.248 NA
ATOM     43  C   UNL     1       7.541  11.407   2.571  1.00  0.00     0.031 C 
ATOM     44  C   UNL     1       6.346  11.139  -2.300  1.00  0.00     0.029 A 
ATOM     45  N   UNL     1       6.329  13.161  -1.347  1.00  0.00    -0.354 N 
ATOM     46  C   UNL     1       7.275  13.673   2.815  1.00  0.00     0.074 A 
ATOM     47  C   UNL     1       7.543  12.399   3.453  1.00  0.00     0.031 C 
ATOM     48  C   UNL     1       5.967  12.021  -3.237  1.00  0.00     0.029 A 
ATOM     49  C   UNL     1       5.929  13.355  -2.648  1.00  0.00     0.049 A 
ATOM     50  H   UNL     1       6.406  13.892  -0.693  1.00  0.00     0.167 HD
ATOM     51  C   UNL     1       7.293  14.871   3.448  1.00  0.00     0.037 A 
ATOM     52  C   UNL     1       5.571  14.479  -3.297  1.00  0.00     0.037 A 
ATOM     53  C   UNL     1       7.031  16.139   2.813  1.00  0.00     0.049 A 
ATOM     54  C   UNL     1       5.598  15.794  -2.570  1.00  0.00     0.074 A 
ATOM     55  C   UNL     1       7.088  17.409   3.364  1.00  0.00     0.029 A 
ATOM     56  N   UNL     1       6.651  16.299   1.488  1.00  0.00    -0.354 N 
ATOM     57  N   UNL     1       5.925  16.044  -1.327  1.00  0.00    -0.248 NA
ATOM     58  C   UNL     1       5.215  16.986  -3.341  1.00  0.00     0.031 C 
ATOM     59  C   UNL     1       6.699  18.331   2.386  1.00  0.00     0.029 A 
ATOM     60  C   UNL     1       6.447  17.642   1.212  1.00  0.00     0.049 A 
ATOM     61  H   UNL     1       6.541  15.566   0.840  1.00  0.00     0.167 HD
ATOM     62  C   UNL     1       5.819  17.419  -1.174  1.00  0.00     0.074 A 
ATOM     63  C   UNL     1       5.406  17.953  -2.454  1.00  0.00     0.031 C 
ATOM     64  C   UNL     1       6.048  18.169  -0.069  1.00  0.00     0.037 A 
BRANCH  51  65
ATOM     65  C   UNL     1       7.617  14.877   4.914  1.00  0.00     0.064 A 
ATOM     66  C   UNL     1       8.913  14.608   5.378  1.00  0.00     0.173 A 
ATOM     67  C   UNL     1       6.636  15.210   5.862  1.00  0.00     0.173 A 
ATOM     68  F   UNL     1       9.885  14.282   4.513  1.00  0.00    -0.203 F 
ATOM     69  C   UNL     1       9.210  14.645   6.738  1.00  0.00     0.198 A 
ATOM     70  C   UNL     1       6.944  15.272   7.219  1.00  0.00     0.198 A 
ATOM     71  F   UNL     1       5.384  15.488   5.471  1.00  0.00    -0.203 F 
ATOM     72  F   UNL     1      10.446  14.344   7.161  1.00  0.00    -0.200 F 
ATOM     73  C   UNL     1       8.227  14.982   7.656  1.00  0.00     0.200 A 
ATOM     74  F   UNL     1       5.997  15.613   8.104  1.00  0.00    -0.200 F 
ATOM     75  F   UNL     1       8.516  15.025   8.964  1.00  0.00    -0.200 F 
ENDBRANCH  51  65
BRANCH  52  76
ATOM     76  C   UNL     1       5.188  14.412  -4.731  1.00  0.00     0.064 A 
ATOM     77  C   UNL     1       6.027  14.941  -5.722  1.00  0.00     0.173 A 
ATOM     78  C   UNL     1       3.986  13.819  -5.139  1.00  0.00     0.173 A 
ATOM     79  F   UNL     1       7.179  15.534  -5.377  1.00  0.00    -0.203 F 
ATOM     80  C   UNL     1       5.668  14.896  -7.067  1.00  0.00     0.198 A 
ATOM     81  C   UNL     1       3.640  13.750  -6.487  1.00  0.00     0.198 A 
ATOM     82  F   UNL     1       3.153  13.292  -4.229  1.00  0.00    -0.203 F 
ATOM     83  F   UNL     1       6.467  15.446  -7.990  1.00  0.00    -0.200 F 
ATOM     84  C   UNL     1       4.477  14.296  -7.449  1.00  0.00     0.200 A 
ATOM     85  F   UNL     1       2.496  13.156  -6.854  1.00  0.00    -0.200 F 
ATOM     86  F   UNL     1       4.134  14.248  -8.743  1.00  0.00    -0.200 F 
ENDBRANCH  52  76
BRANCH  64  87
ATOM     87  C   UNL     1       5.896  19.656  -0.200  1.00  0.00     0.064 A 
ATOM     88  C   UNL     1       4.636  20.262  -0.314  1.00  0.00     0.173 A 
ATOM     89  C   UNL     1       7.025  20.489  -0.170  1.00  0.00     0.173 A 
ATOM     90  F   UNL     1       3.528  19.509  -0.366  1.00  0.00    -0.203 F 
ATOM     91  C   UNL     1       4.514  21.646  -0.412  1.00  0.00     0.198 A 
ATOM     92  C   UNL     1       6.898  21.874  -0.241  1.00  0.00     0.198 A 
ATOM     93  F   UNL     1       8.253  19.960  -0.060  1.00  0.00    -0.203 F 
ATOM     94  F   UNL     1       3.303  22.201  -0.561  1.00  0.00    -0.200 F 
ATOM     95  C   UNL     1       5.643  22.451  -0.367  1.00  0.00     0.200 A 
ATOM     96  F   UNL     1       7.989  22.650  -0.187  1.00  0.00    -0.200 F 
ATOM     97  F   UNL     1       5.523  23.783  -0.452  1.00  0.00    -0.200 F 
ENDBRANCH  64  87
ENDBRANCH  38  39
ENDBRANCH  30  33
ENDBRANCH  28  29
ENDBRANCH  27  28
ENDBRANCH   1  27
TORSDOF 15
