REMARK SMILES [NH3+]Cc1c(-c2ccccc2)c(C(=O)NCCCCNC(=O)c2ccc(-c3c4nc(c(-c5c(F)c(F)c(F)c(F)c5F)c5ccc([nH]5)c(-c5c(F)c(F)c(F)c(F)c5F)c5nc(c(-c6c(F)c(F)c(F)c(F)c6F)c6ccc3[nH]6)C=C5)C=C4)cc2)c2ccccn12
REMARK SMILES IDX 16 1 15 2 14 3 12 4 13 5 11 7 3 8 4 9 90 10 85 11 89 12
REMARK SMILES IDX 86 13 88 14 87 15 2 16 1 17 5 21 6 22 10 23 7 24 9 25 8 26
REMARK SMILES IDX 17 27 18 28 19 29 20 30 21 32 22 33 23 34 84 35 24 36 83 37
REMARK SMILES IDX 25 38 26 39 27 40 77 41 28 42 82 43 76 44 78 45 29 46 81 47
REMARK SMILES IDX 75 48 74 49 30 51 62 52 42 53 61 54 43 55 46 56 60 57 79 58
REMARK SMILES IDX 44 59 45 60 59 62 80 63 47 64 31 65 32 66 40 67 33 68 34 69
REMARK SMILES IDX 38 70 41 71 35 72 36 73 39 74 37 75 63 76 64 77 72 78 65 79
REMARK SMILES IDX 66 80 70 81 73 82 67 83 68 84 71 85 69 86 48 87 49 88 57 89
REMARK SMILES IDX 50 90 51 91 55 92 58 93 52 94 53 95 56 96 54 97
REMARK H PARENT 14 6 1 18 1 19 1 20 19 31 78 50 46 61
REMARK Flexibility Score: inf
ROOT
ATOM      1  C   UNL     1       0.331   6.224   5.787  1.00  0.00     0.023 C 
ENDROOT
BRANCH   1   2
ATOM      2  C   UNL     1       1.048   5.527   4.636  1.00  0.00     0.116 C 
BRANCH   2   3
ATOM      3  N   UNL     1       2.179   4.706   5.012  1.00  0.00    -0.352 N 
ATOM      4  C   UNL     1       2.689   3.565   4.425  1.00  0.00     0.254 C 
ATOM      5  O   UNL     1       3.728   3.119   4.905  1.00  0.00    -0.269 OA
ATOM      6  H   UNL     1       2.662   5.010   5.814  1.00  0.00     0.163 HD
BRANCH   4   7
ATOM      7  C   UNL     1       1.974   2.884   3.341  1.00  0.00     0.073 A 
ATOM      8  C   UNL     1       1.032   1.202   2.086  1.00  0.00     0.086 A 
ATOM      9  C   UNL     1       1.878   1.456   3.163  1.00  0.00     0.022 A 
ATOM     10  N   UNL     1       0.609   2.428   1.605  1.00  0.00    -0.314 N 
ATOM     11  C   UNL     1       1.354   3.430   2.224  1.00  0.00     0.059 A 
ATOM     12  C   UNL     1      -0.372   2.710   0.645  1.00  0.00     0.092 A 
ATOM     13  C   UNL     1       1.278   4.733   1.640  1.00  0.00     0.027 A 
ATOM     14  C   UNL     1      -0.554   3.972   0.226  1.00  0.00     0.018 A 
ATOM     15  C   UNL     1       0.345   5.001   0.708  1.00  0.00     0.004 A 
BRANCH   8  16
ATOM     16  C   UNL     1       0.580  -0.090   1.490  1.00  0.00     0.315 C 
BRANCH  16  17
ATOM     17  N   UNL     1       1.228  -0.310   0.203  1.00  0.00    -0.353 N 
ATOM     18  H   UNL     1       0.910  -1.195  -0.192  1.00  0.00     0.344 HD
ATOM     19  H   UNL     1       2.240  -0.339   0.333  1.00  0.00     0.344 HD
ATOM     20  H   UNL     1       0.989   0.451  -0.432  1.00  0.00     0.344 HD
ENDBRANCH  16  17
ENDBRANCH   8  16
BRANCH   9  21
ATOM     21  C   UNL     1       2.517   0.397   3.933  1.00  0.00    -0.016 A 
ATOM     22  C   UNL     1       2.181   0.185   5.274  1.00  0.00     0.009 A 
ATOM     23  C   UNL     1       3.505  -0.400   3.339  1.00  0.00     0.009 A 
ATOM     24  C   UNL     1       2.829  -0.810   6.011  1.00  0.00     0.001 A 
ATOM     25  C   UNL     1       4.147  -1.398   4.075  1.00  0.00     0.001 A 
ATOM     26  C   UNL     1       3.811  -1.600   5.412  1.00  0.00     0.000 A 
ENDBRANCH   9  21
ENDBRANCH   4   7
ENDBRANCH   2   3
ENDBRANCH   1   2
BRANCH   1  27
ATOM     27  C   UNL     1       1.176   7.111   6.697  1.00  0.00     0.023 C 
BRANCH  27  28
ATOM     28  C   UNL     1       2.148   8.071   6.021  1.00  0.00     0.116 C 
BRANCH  28  29
ATOM     29  N   UNL     1       1.519   9.022   5.119  1.00  0.00    -0.352 N 
ATOM     30  C   UNL     1       1.560  10.397   5.099  1.00  0.00     0.251 C 
ATOM     31  H   UNL     1       0.974   8.616   4.406  1.00  0.00     0.163 HD
ATOM     32  O   UNL     1       0.901  11.013   4.268  1.00  0.00    -0.269 OA
BRANCH  30  33
ATOM     33  C   UNL     1       2.356  11.146   6.099  1.00  0.00     0.039 A 
ATOM     34  C   UNL     1       1.782  12.269   6.706  1.00  0.00     0.014 A 
ATOM     35  C   UNL     1       3.651  10.759   6.447  1.00  0.00     0.014 A 
ATOM     36  C   UNL     1       2.471  12.945   7.717  1.00  0.00     0.010 A 
ATOM     37  C   UNL     1       4.298  11.376   7.515  1.00  0.00     0.010 A 
ATOM     38  C   UNL     1       3.718  12.477   8.162  1.00  0.00    -0.014 A 
BRANCH  38  39
ATOM     39  C   UNL     1       4.433  13.133   9.289  1.00  0.00     0.031 A 
ATOM     40  C   UNL     1       5.779  13.768   9.064  1.00  0.00     0.074 A 
ATOM     41  C   UNL     1       3.906  13.101  10.529  1.00  0.00     0.049 A 
ATOM     42  N   UNL     1       6.588  14.327   9.928  1.00  0.00    -0.248 NA
ATOM     43  C   UNL     1       6.300  13.742   7.688  1.00  0.00     0.031 C 
ATOM     44  C   UNL     1       2.640  12.464  10.896  1.00  0.00     0.029 A 
ATOM     45  N   UNL     1       4.376  13.608  11.716  1.00  0.00    -0.354 N 
ATOM     46  C   UNL     1       7.717  14.694   9.207  1.00  0.00     0.074 A 
ATOM     47  C   UNL     1       7.514  14.246   7.847  1.00  0.00     0.031 C 
ATOM     48  C   UNL     1       2.421  12.641  12.209  1.00  0.00     0.029 A 
ATOM     49  C   UNL     1       3.544  13.375  12.784  1.00  0.00     0.049 A 
ATOM     50  H   UNL     1       5.229  14.093  11.793  1.00  0.00     0.167 HD
ATOM     51  C   UNL     1       8.813  15.367   9.632  1.00  0.00     0.037 A 
ATOM     52  C   UNL     1       3.672  13.717  14.081  1.00  0.00     0.037 A 
ATOM     53  C   UNL     1       8.998  15.849  10.975  1.00  0.00     0.049 A 
ATOM     54  C   UNL     1       4.881  14.500  14.519  1.00  0.00     0.074 A 
ATOM     55  C   UNL     1      10.046  16.591  11.491  1.00  0.00     0.029 A 
ATOM     56  N   UNL     1       8.107  15.639  12.017  1.00  0.00    -0.354 N 
ATOM     57  N   UNL     1       5.910  14.900  13.812  1.00  0.00    -0.248 NA
ATOM     58  C   UNL     1       4.939  14.891  15.934  1.00  0.00     0.031 C 
ATOM     59  C   UNL     1       9.805  16.803  12.853  1.00  0.00     0.029 A 
ATOM     60  C   UNL     1       8.584  16.233  13.174  1.00  0.00     0.049 A 
ATOM     61  H   UNL     1       7.260  15.142  11.944  1.00  0.00     0.167 HD
ATOM     62  C   UNL     1       6.715  15.620  14.684  1.00  0.00     0.074 A 
ATOM     63  C   UNL     1       6.051  15.611  15.970  1.00  0.00     0.031 C 
ATOM     64  C   UNL     1       7.899  16.234  14.441  1.00  0.00     0.037 A 
BRANCH  51  65
ATOM     65  C   UNL     1       9.894  15.636   8.625  1.00  0.00     0.064 A 
ATOM     66  C   UNL     1       9.709  16.546   7.572  1.00  0.00     0.173 A 
ATOM     67  C   UNL     1      11.141  15.000   8.729  1.00  0.00     0.173 A 
ATOM     68  F   UNL     1       8.531  17.170   7.420  1.00  0.00    -0.203 F 
ATOM     69  C   UNL     1      10.718  16.785   6.644  1.00  0.00     0.198 A 
ATOM     70  C   UNL     1      12.159  15.265   7.817  1.00  0.00     0.198 A 
ATOM     71  F   UNL     1      11.374  14.126   9.720  1.00  0.00    -0.203 F 
ATOM     72  F   UNL     1      10.499  17.617   5.618  1.00  0.00    -0.200 F 
ATOM     73  C   UNL     1      11.945  16.150   6.771  1.00  0.00     0.200 A 
ATOM     74  F   UNL     1      13.349  14.662   7.949  1.00  0.00    -0.200 F 
ATOM     75  F   UNL     1      12.918  16.386   5.881  1.00  0.00    -0.200 F 
ENDBRANCH  51  65
BRANCH  52  76
ATOM     76  C   UNL     1       2.606  13.364  15.054  1.00  0.00     0.064 A 
ATOM     77  C   UNL     1       1.783  14.355  15.609  1.00  0.00     0.173 A 
ATOM     78  C   UNL     1       2.396  12.039  15.461  1.00  0.00     0.173 A 
ATOM     79  F   UNL     1       1.960  15.640  15.267  1.00  0.00    -0.203 F 
ATOM     80  C   UNL     1       0.809  14.038  16.553  1.00  0.00     0.198 A 
ATOM     81  C   UNL     1       1.402  11.719  16.384  1.00  0.00     0.198 A 
ATOM     82  F   UNL     1       3.151  11.053  14.955  1.00  0.00    -0.203 F 
ATOM     83  F   UNL     1       0.072  15.011  17.105  1.00  0.00    -0.200 F 
ATOM     84  C   UNL     1       0.616  12.719  16.937  1.00  0.00     0.200 A 
ATOM     85  F   UNL     1       1.209  10.442  16.743  1.00  0.00    -0.200 F 
ATOM     86  F   UNL     1      -0.321  12.414  17.845  1.00  0.00    -0.200 F 
ENDBRANCH  52  76
BRANCH  64  87
ATOM     87  C   UNL     1       8.524  16.994  15.574  1.00  0.00     0.064 A 
ATOM     88  C   UNL     1       9.101  16.343  16.674  1.00  0.00     0.173 A 
ATOM     89  C   UNL     1       8.571  18.396  15.542  1.00  0.00     0.173 A 
ATOM     90  F   UNL     1       9.069  15.004  16.758  1.00  0.00    -0.203 F 
ATOM     91  C   UNL     1       9.672  17.068  17.715  1.00  0.00     0.198 A 
ATOM     92  C   UNL     1       9.170  19.118  16.570  1.00  0.00     0.198 A 
ATOM     93  F   UNL     1       8.040  19.067  14.508  1.00  0.00    -0.203 F 
ATOM     94  F   UNL     1      10.170  16.427  18.782  1.00  0.00    -0.200 F 
ATOM     95  C   UNL     1       9.712  18.454  17.660  1.00  0.00     0.200 A 
ATOM     96  F   UNL     1       9.218  20.455  16.509  1.00  0.00    -0.200 F 
ATOM     97  F   UNL     1      10.265  19.150  18.663  1.00  0.00    -0.200 F 
ENDBRANCH  64  87
ENDBRANCH  38  39
ENDBRANCH  30  33
ENDBRANCH  28  29
ENDBRANCH  27  28
ENDBRANCH   1  27
TORSDOF 14
