REMARK SMILES CCc1ccsc1CNC(=O)N[C@@H](CCO)C(=O)NCCCCNC(=O)c1ccc(-c2c3nc(c(-c4c(F)c(F)c(F)c(F)c4F)c4ccc([nH]4)c(-c4c(F)c(F)c(F)c(F)c4F)c4nc(c(-c5c(F)c(F)c(F)c(F)c5F)c5ccc2[nH]5)C=C4)C=C3)cc1
REMARK SMILES IDX 20 1 19 2 17 3 18 4 13 6 12 7 9 8 10 9 11 11 8 13 7 14 3 15
REMARK SMILES IDX 4 16 5 17 6 18 2 19 1 20 14 21 15 22 16 23 21 25 22 26 23 27
REMARK SMILES IDX 24 28 25 29 26 31 27 32 28 33 89 34 29 35 88 36 30 37 31 38
REMARK SMILES IDX 32 39 82 40 33 41 87 42 81 43 83 44 34 45 86 46 80 47 79 48
REMARK SMILES IDX 35 50 67 51 47 52 66 53 48 54 51 55 65 56 84 57 49 58 50 59
REMARK SMILES IDX 64 61 85 62 52 63 36 64 37 65 45 66 38 67 39 68 43 69 46 70
REMARK SMILES IDX 40 71 41 72 44 73 42 74 68 75 69 76 77 77 70 78 71 79 75 80
REMARK SMILES IDX 78 81 72 82 73 83 76 84 74 85 53 86 54 87 62 88 55 89 56 90
REMARK SMILES IDX 60 91 63 92 57 93 58 94 61 95 59 96
REMARK H PARENT 19 5 9 10 12 12 16 24 24 30 83 49 51 60
REMARK Flexibility Score: inf
ROOT
ATOM      1  C   UNL     1       1.295   7.992   1.236  1.00  0.00     0.116 C 
ENDROOT
BRANCH   1   2
ATOM      2  N   UNL     1       2.118   6.940   1.798  1.00  0.00    -0.354 N 
ATOM      3  C   UNL     1       2.178   5.602   1.576  1.00  0.00     0.242 C 
ATOM      4  O   UNL     1       3.230   5.059   1.938  1.00  0.00    -0.273 OA
ATOM      5  H   UNL     1       2.760   7.258   2.472  1.00  0.00     0.163 HD
BRANCH   3   6
ATOM      6  C   UNL     1       1.165   4.806   0.725  1.00  0.00     0.175 C 
BRANCH   6   7
ATOM      7  N   UNL     1      -0.248   5.147   0.895  1.00  0.00    -0.326 N 
ATOM      8  N   UNL     1      -1.217   3.321   2.026  1.00  0.00    -0.333 N 
ATOM      9  C   UNL     1      -1.198   4.609   1.673  1.00  0.00     0.315 C 
ATOM     10  H   UNL     1      -1.782   3.130   2.809  1.00  0.00     0.165 HD
ATOM     11  O   UNL     1      -2.115   5.341   2.046  1.00  0.00    -0.249 OA
ATOM     12  H   UNL     1      -0.554   5.903   0.343  1.00  0.00     0.166 HD
BRANCH   8  13
ATOM     13  C   UNL     1      -0.564   2.155   1.476  1.00  0.00     0.165 C 
BRANCH  13  14
ATOM     14  C   UNL     1       0.307   1.456   2.488  1.00  0.00     0.027 A 
ATOM     15  C   UNL     1       0.780   0.147   2.429  1.00  0.00    -0.033 A 
ATOM     16  C   UNL     1       1.560  -0.178   3.591  1.00  0.00     0.016 A 
ATOM     17  C   UNL     1       1.676   0.874   4.466  1.00  0.00     0.065 A 
ATOM     18  S   UNL     1       0.870   2.260   3.902  1.00  0.00    -0.147 S 
BRANCH  15  19
ATOM     19  C   UNL     1       0.510  -0.838   1.322  1.00  0.00     0.033 C 
ATOM     20  C   UNL     1       1.247  -0.503   0.034  1.00  0.00     0.009 C 
ENDBRANCH  15  19
ENDBRANCH  13  14
ENDBRANCH   8  13
ENDBRANCH   6   7
BRANCH   6  21
ATOM     21  C   UNL     1       1.561   4.730  -0.761  1.00  0.00     0.063 C 
BRANCH  21  22
ATOM     22  C   UNL     1       1.723   6.055  -1.498  1.00  0.00     0.158 C 
BRANCH  22  23
ATOM     23  O   UNL     1       2.984   6.670  -1.274  1.00  0.00    -0.396 OA
ATOM     24  H   UNL     1       3.083   6.872  -0.330  1.00  0.00     0.210 HD
ENDBRANCH  22  23
ENDBRANCH  21  22
ENDBRANCH   6  21
ENDBRANCH   3   6
ENDBRANCH   1   2
BRANCH   1  25
ATOM     25  C   UNL     1       0.849   9.010   2.277  1.00  0.00     0.023 C 
BRANCH  25  26
ATOM     26  C   UNL     1       1.982   9.782   2.951  1.00  0.00     0.023 C 
BRANCH  26  27
ATOM     27  C   UNL     1       3.026  10.370   2.008  1.00  0.00     0.116 C 
BRANCH  27  28
ATOM     28  N   UNL     1       2.458  11.255   1.003  1.00  0.00    -0.352 N 
ATOM     29  C   UNL     1       2.808  12.544   0.683  1.00  0.00     0.251 C 
ATOM     30  H   UNL     1       1.717  10.876   0.477  1.00  0.00     0.163 HD
ATOM     31  O   UNL     1       2.141  13.192  -0.117  1.00  0.00    -0.269 OA
BRANCH  29  32
ATOM     32  C   UNL     1       3.975  13.159   1.343  1.00  0.00     0.039 A 
ATOM     33  C   UNL     1       3.832  14.418   1.929  1.00  0.00     0.014 A 
ATOM     34  C   UNL     1       5.191  12.476   1.417  1.00  0.00     0.014 A 
ATOM     35  C   UNL     1       4.891  14.961   2.657  1.00  0.00     0.010 A 
ATOM     36  C   UNL     1       6.215  12.980   2.212  1.00  0.00     0.010 A 
ATOM     37  C   UNL     1       6.076  14.229   2.837  1.00  0.00    -0.014 A 
BRANCH  37  38
ATOM     38  C   UNL     1       7.186  14.757   3.669  1.00  0.00     0.031 A 
ATOM     39  C   UNL     1       8.519  15.052   3.042  1.00  0.00     0.074 A 
ATOM     40  C   UNL     1       7.013  14.908   4.997  1.00  0.00     0.049 A 
ATOM     41  N   UNL     1       9.630  15.455   3.605  1.00  0.00    -0.248 NA
ATOM     42  C   UNL     1       8.628  14.835   1.590  1.00  0.00     0.031 C 
ATOM     43  C   UNL     1       5.785  14.602   5.731  1.00  0.00     0.029 A 
ATOM     44  N   UNL     1       7.879  15.348   5.967  1.00  0.00    -0.354 N 
ATOM     45  C   UNL     1      10.568  15.522   2.584  1.00  0.00     0.074 A 
ATOM     46  C   UNL     1       9.915  15.063   1.378  1.00  0.00     0.031 C 
ATOM     47  C   UNL     1       5.966  14.888   7.031  1.00  0.00     0.029 A 
ATOM     48  C   UNL     1       7.333  15.363   7.227  1.00  0.00     0.049 A 
ATOM     49  H   UNL     1       8.804  15.627   5.777  1.00  0.00     0.167 HD
ATOM     50  C   UNL     1      11.850  15.954   2.641  1.00  0.00     0.037 A 
ATOM     51  C   UNL     1       7.876  15.717   8.407  1.00  0.00     0.037 A 
ATOM     52  C   UNL     1      12.486  16.439   3.837  1.00  0.00     0.049 A 
ATOM     53  C   UNL     1       9.300  16.204   8.442  1.00  0.00     0.074 A 
ATOM     54  C   UNL     1      13.761  16.954   3.989  1.00  0.00     0.029 A 
ATOM     55  N   UNL     1      11.890  16.468   5.090  1.00  0.00    -0.354 N 
ATOM     56  N   UNL     1      10.156  16.331   7.457  1.00  0.00    -0.248 NA
ATOM     57  C   UNL     1       9.830  16.607   9.752  1.00  0.00     0.031 C 
ATOM     58  C   UNL     1      13.952  17.256   5.341  1.00  0.00     0.029 A 
ATOM     59  C   UNL     1      12.778  16.978   6.023  1.00  0.00     0.049 A 
ATOM     60  H   UNL     1      10.972  16.171   5.287  1.00  0.00     0.167 HD
ATOM     61  C   UNL     1      11.310  16.858   8.020  1.00  0.00     0.074 A 
ATOM     62  C   UNL     1      11.041  17.038   9.431  1.00  0.00     0.031 C 
ATOM     63  C   UNL     1      12.488  17.164   7.422  1.00  0.00     0.037 A 
BRANCH  50  64
ATOM     64  C   UNL     1      12.646  15.928   1.369  1.00  0.00     0.064 A 
ATOM     65  C   UNL     1      12.363  16.798   0.305  1.00  0.00     0.173 A 
ATOM     66  C   UNL     1      13.724  15.042   1.221  1.00  0.00     0.173 A 
ATOM     67  F   UNL     1      11.335  17.657   0.391  1.00  0.00    -0.203 F 
ATOM     68  C   UNL     1      13.107  16.761  -0.871  1.00  0.00     0.198 A 
ATOM     69  C   UNL     1      14.486  15.029   0.056  1.00  0.00     0.198 A 
ATOM     70  F   UNL     1      14.042  14.191   2.208  1.00  0.00    -0.203 F 
ATOM     71  F   UNL     1      12.783  17.565  -1.893  1.00  0.00    -0.200 F 
ATOM     72  C   UNL     1      14.172  15.882  -0.992  1.00  0.00     0.200 A 
ATOM     73  F   UNL     1      15.524  14.188  -0.055  1.00  0.00    -0.200 F 
ATOM     74  F   UNL     1      14.892  15.851  -2.122  1.00  0.00    -0.200 F 
ENDBRANCH  50  64
BRANCH  51  75
ATOM     75  C   UNL     1       7.061  15.660   9.649  1.00  0.00     0.064 A 
ATOM     76  C   UNL     1       6.661  16.835  10.301  1.00  0.00     0.173 A 
ATOM     77  C   UNL     1       6.673  14.436  10.214  1.00  0.00     0.173 A 
ATOM     78  F   UNL     1       7.024  18.029   9.811  1.00  0.00    -0.203 F 
ATOM     79  C   UNL     1       5.924  16.788  11.483  1.00  0.00     0.198 A 
ATOM     80  C   UNL     1       5.912  14.391  11.380  1.00  0.00     0.198 A 
ATOM     81  F   UNL     1       7.025  13.283   9.626  1.00  0.00    -0.203 F 
ATOM     82  F   UNL     1       5.597  17.925  12.111  1.00  0.00    -0.200 F 
ATOM     83  C   UNL     1       5.546  15.566  12.019  1.00  0.00     0.200 A 
ATOM     84  F   UNL     1       5.537  13.209  11.887  1.00  0.00    -0.200 F 
ATOM     85  F   UNL     1       4.836  15.521  13.154  1.00  0.00    -0.200 F 
ENDBRANCH  51  75
BRANCH  63  86
ATOM     86  C   UNL     1      13.559  17.769   8.282  1.00  0.00     0.064 A 
ATOM     87  C   UNL     1      14.252  17.015   9.239  1.00  0.00     0.173 A 
ATOM     88  C   UNL     1      13.921  19.115   8.117  1.00  0.00     0.173 A 
ATOM     89  F   UNL     1      13.934  15.728   9.444  1.00  0.00    -0.203 F 
ATOM     90  C   UNL     1      15.251  17.592  10.019  1.00  0.00     0.198 A 
ATOM     91  C   UNL     1      14.941  19.681   8.877  1.00  0.00     0.198 A 
ATOM     92  F   UNL     1      13.293  19.879   7.210  1.00  0.00    -0.203 F 
ATOM     93  F   UNL     1      15.866  16.866  10.961  1.00  0.00    -0.200 F 
ATOM     94  C   UNL     1      15.599  18.922   9.832  1.00  0.00     0.200 A 
ATOM     95  F   UNL     1      15.285  20.962   8.685  1.00  0.00    -0.200 F 
ATOM     96  F   UNL     1      16.565  19.474  10.579  1.00  0.00    -0.200 F 
ENDBRANCH  63  86
ENDBRANCH  37  38
ENDBRANCH  29  32
ENDBRANCH  27  28
ENDBRANCH  26  27
ENDBRANCH  25  26
ENDBRANCH   1  25
TORSDOF 18
