REMARK SMILES O=C(CC1(NS(=O)(=O)C[C@H]2CCCO2)CCC1)NCCCCNC(=O)c1ccc(-c2c3nc(c(-c4c(F)c(F)c(F)c(F)c4F)c4ccc([nH]4)c(-c4c(F)c(F)c(F)c(F)c4F)c4nc(c(-c5c(F)c(F)c(F)c(F)c5F)c5ccc2[nH]5)C=C4)C=C3)cc1
REMARK SMILES IDX 19 1 18 2 1 3 2 4 3 6 4 7 15 8 17 9 16 10 5 11 6 13 7 14
REMARK SMILES IDX 8 15 9 16 10 17 11 18 14 19 12 20 13 21 20 22 21 23 22 24
REMARK SMILES IDX 23 25 24 26 25 28 26 29 27 30 88 31 28 32 87 33 29 34 30 35
REMARK SMILES IDX 31 36 81 37 32 38 86 39 80 40 82 41 33 42 85 43 79 44 78 45
REMARK SMILES IDX 34 47 66 48 46 49 65 50 47 51 50 52 64 53 83 54 48 55 49 56
REMARK SMILES IDX 63 58 84 59 51 60 35 61 36 62 44 63 37 64 38 65 42 66 45 67
REMARK SMILES IDX 39 68 40 69 43 70 41 71 67 72 68 73 76 74 69 75 70 76 74 77
REMARK SMILES IDX 77 78 71 79 72 80 75 81 73 82 52 83 53 84 61 85 54 86 55 87
REMARK SMILES IDX 59 88 62 89 56 90 57 91 60 92 58 93
REMARK H PARENT 18 5 5 12 23 27 82 46 50 57
REMARK Flexibility Score: inf
ROOT
ATOM      1  C   UNL     1       0.383  -0.836   3.176  1.00  0.00     0.116 C 
ENDROOT
BRANCH   1   2
ATOM      2  N   UNL     1       0.719   0.552   3.441  1.00  0.00    -0.356 N 
ATOM      3  O   UNL     1       2.443   0.667   1.947  1.00  0.00    -0.275 OA
ATOM      4  C   UNL     1       1.583   1.238   2.617  1.00  0.00     0.221 C 
ATOM      5  H   UNL     1       0.324   1.008   4.219  1.00  0.00     0.163 HD
BRANCH   4   6
ATOM      6  C   UNL     1       1.404   2.741   2.535  1.00  0.00     0.123 C 
BRANCH   6   7
ATOM      7  C   UNL     1      -0.001   3.276   2.191  1.00  0.00     0.042 C 
ATOM      8  C   UNL     1      -0.969   3.360   3.413  1.00  0.00     0.024 C 
ATOM      9  C   UNL     1      -0.014   4.849   2.200  1.00  0.00     0.024 C 
ATOM     10  C   UNL     1      -1.276   4.819   3.069  1.00  0.00     0.004 C 
BRANCH   7  11
ATOM     11  N   UNL     1      -0.503   2.719   0.869  1.00  0.00    -0.208 NA
ATOM     12  H   UNL     1       0.344   2.545   0.328  1.00  0.00     0.141 HD
BRANCH  11  13
ATOM     13  S   UNL     1      -1.461   1.366   0.597  1.00  0.00     0.214 S 
ATOM     14  O   UNL     1      -1.893   0.871   1.886  1.00  0.00    -0.212 OA
ATOM     15  O   UNL     1      -2.448   1.756  -0.385  1.00  0.00    -0.212 OA
BRANCH  13  16
ATOM     16  C   UNL     1      -0.336   0.171  -0.068  1.00  0.00     0.185 C 
BRANCH  16  17
ATOM     17  C   UNL     1       0.209   0.298  -1.475  1.00  0.00     0.134 C 
ATOM     18  C   UNL     1       0.510  -1.099  -2.024  1.00  0.00     0.035 C 
ATOM     19  O   UNL     1      -0.720   0.861  -2.396  1.00  0.00    -0.377 OA
ATOM     20  C   UNL     1      -0.837  -1.503  -2.580  1.00  0.00     0.031 C 
ATOM     21  C   UNL     1      -1.353  -0.192  -3.136  1.00  0.00     0.160 C 
ENDBRANCH  16  17
ENDBRANCH  13  16
ENDBRANCH  11  13
ENDBRANCH   7  11
ENDBRANCH   6   7
ENDBRANCH   4   6
ENDBRANCH   1   2
BRANCH   1  22
ATOM     22  C   UNL     1       1.191  -1.897   3.901  1.00  0.00     0.023 C 
BRANCH  22  23
ATOM     23  C   UNL     1       0.783  -2.149   5.344  1.00  0.00     0.023 C 
BRANCH  23  24
ATOM     24  C   UNL     1      -0.704  -2.367   5.588  1.00  0.00     0.116 C 
BRANCH  24  25
ATOM     25  N   UNL     1      -1.277  -3.535   4.929  1.00  0.00    -0.352 N 
ATOM     26  C   UNL     1      -2.303  -4.324   5.412  1.00  0.00     0.251 C 
ATOM     27  H   UNL     1      -0.896  -3.785   4.056  1.00  0.00     0.163 HD
ATOM     28  O   UNL     1      -2.705  -5.312   4.812  1.00  0.00    -0.269 OA
BRANCH  26  29
ATOM     29  C   UNL     1      -2.869  -3.958   6.725  1.00  0.00     0.039 A 
ATOM     30  C   UNL     1      -2.647  -4.803   7.813  1.00  0.00     0.014 A 
ATOM     31  C   UNL     1      -3.415  -2.683   6.901  1.00  0.00     0.014 A 
ATOM     32  C   UNL     1      -2.891  -4.330   9.103  1.00  0.00     0.010 A 
ATOM     33  C   UNL     1      -3.580  -2.189   8.190  1.00  0.00     0.010 A 
ATOM     34  C   UNL     1      -3.308  -3.002   9.303  1.00  0.00    -0.014 A 
BRANCH  34  35
ATOM     35  C   UNL     1      -3.454  -2.443  10.671  1.00  0.00     0.031 A 
ATOM     36  C   UNL     1      -4.804  -1.994  11.153  1.00  0.00     0.074 A 
ATOM     37  C   UNL     1      -2.369  -2.277  11.454  1.00  0.00     0.049 A 
ATOM     38  N   UNL     1      -5.134  -1.431  12.287  1.00  0.00    -0.248 NA
ATOM     39  C   UNL     1      -5.929  -2.173  10.221  1.00  0.00     0.031 C 
ATOM     40  C   UNL     1      -0.994  -2.614  11.081  1.00  0.00     0.029 A 
ATOM     41  N   UNL     1      -2.250  -1.774  12.727  1.00  0.00    -0.354 N 
ATOM     42  C   UNL     1      -6.497  -1.181  12.199  1.00  0.00     0.074 A 
ATOM     43  C   UNL     1      -6.920  -1.591  10.879  1.00  0.00     0.031 C 
ATOM     44  C   UNL     1      -0.176  -2.333  12.109  1.00  0.00     0.029 A 
ATOM     45  C   UNL     1      -0.961  -1.767  13.202  1.00  0.00     0.049 A 
ATOM     46  H   UNL     1      -3.018  -1.448  13.250  1.00  0.00     0.167 HD
ATOM     47  C   UNL     1      -7.328  -0.683  13.145  1.00  0.00     0.037 A 
ATOM     48  C   UNL     1      -0.470  -1.351  14.386  1.00  0.00     0.037 A 
ATOM     49  C   UNL     1      -6.911  -0.301  14.467  1.00  0.00     0.049 A 
ATOM     50  C   UNL     1      -1.416  -0.807  15.424  1.00  0.00     0.074 A 
ATOM     51  C   UNL     1      -7.687   0.159  15.517  1.00  0.00     0.029 A 
ATOM     52  N   UNL     1      -5.601  -0.336  14.922  1.00  0.00    -0.354 N 
ATOM     53  N   UNL     1      -2.716  -0.648  15.356  1.00  0.00    -0.248 NA
ATOM     54  C   UNL     1      -0.829  -0.394  16.706  1.00  0.00     0.031 C 
ATOM     55  C   UNL     1      -6.840   0.442  16.594  1.00  0.00     0.029 A 
ATOM     56  C   UNL     1      -5.544   0.112  16.232  1.00  0.00     0.049 A 
ATOM     57  H   UNL     1      -4.827  -0.635  14.392  1.00  0.00     0.167 HD
ATOM     58  C   UNL     1      -3.104  -0.146  16.591  1.00  0.00     0.074 A 
ATOM     59  C   UNL     1      -1.904  -0.041  17.395  1.00  0.00     0.031 C 
ATOM     60  C   UNL     1      -4.343   0.199  17.021  1.00  0.00     0.037 A 
BRANCH  47  61
ATOM     61  C   UNL     1      -8.776  -0.537  12.782  1.00  0.00     0.064 A 
ATOM     62  C   UNL     1      -9.602  -1.657  12.596  1.00  0.00     0.173 A 
ATOM     63  C   UNL     1      -9.353   0.734  12.644  1.00  0.00     0.173 A 
ATOM     64  F   UNL     1      -9.095  -2.894  12.703  1.00  0.00    -0.203 F 
ATOM     65  C   UNL     1     -10.944  -1.509  12.255  1.00  0.00     0.198 A 
ATOM     66  C   UNL     1     -10.703   0.878  12.335  1.00  0.00     0.198 A 
ATOM     67  F   UNL     1      -8.609   1.837  12.815  1.00  0.00    -0.203 F 
ATOM     68  F   UNL     1     -11.699  -2.594  12.031  1.00  0.00    -0.200 F 
ATOM     69  C   UNL     1     -11.495  -0.243  12.132  1.00  0.00     0.200 A 
ATOM     70  F   UNL     1     -11.238   2.102  12.228  1.00  0.00    -0.200 F 
ATOM     71  F   UNL     1     -12.788  -0.102  11.811  1.00  0.00    -0.200 F 
ENDBRANCH  47  61
BRANCH  48  72
ATOM     72  C   UNL     1       0.986  -1.458  14.671  1.00  0.00     0.064 A 
ATOM     73  C   UNL     1       1.470  -2.369  15.621  1.00  0.00     0.173 A 
ATOM     74  C   UNL     1       1.921  -0.642  14.016  1.00  0.00     0.173 A 
ATOM     75  F   UNL     1       0.614  -3.155  16.290  1.00  0.00    -0.203 F 
ATOM     76  C   UNL     1       2.829  -2.443  15.923  1.00  0.00     0.198 A 
ATOM     77  C   UNL     1       3.282  -0.737  14.299  1.00  0.00     0.198 A 
ATOM     78  F   UNL     1       1.511   0.244  13.097  1.00  0.00    -0.203 F 
ATOM     79  F   UNL     1       3.257  -3.287  16.872  1.00  0.00    -0.200 F 
ATOM     80  C   UNL     1       3.734  -1.630  15.258  1.00  0.00     0.200 A 
ATOM     81  F   UNL     1       4.155   0.042  13.645  1.00  0.00    -0.200 F 
ATOM     82  F   UNL     1       5.040  -1.701  15.548  1.00  0.00    -0.200 F 
ENDBRANCH  48  72
BRANCH  60  83
ATOM     83  C   UNL     1      -4.472   0.687  18.434  1.00  0.00     0.064 A 
ATOM     84  C   UNL     1      -4.006   1.952  18.822  1.00  0.00     0.173 A 
ATOM     85  C   UNL     1      -5.114  -0.102  19.400  1.00  0.00     0.173 A 
ATOM     86  F   UNL     1      -3.373   2.738  17.938  1.00  0.00    -0.203 F 
ATOM     87  C   UNL     1      -4.157   2.398  20.132  1.00  0.00     0.198 A 
ATOM     88  C   UNL     1      -5.291   0.360  20.701  1.00  0.00     0.198 A 
ATOM     89  F   UNL     1      -5.585  -1.317  19.078  1.00  0.00    -0.203 F 
ATOM     90  F   UNL     1      -3.664   3.592  20.491  1.00  0.00    -0.200 F 
ATOM     91  C   UNL     1      -4.806   1.606  21.068  1.00  0.00     0.200 A 
ATOM     92  F   UNL     1      -5.931  -0.401  21.600  1.00  0.00    -0.200 F 
ATOM     93  F   UNL     1      -4.959   2.042  22.326  1.00  0.00    -0.200 F 
ENDBRANCH  60  83
ENDBRANCH  34  35
ENDBRANCH  26  29
ENDBRANCH  24  25
ENDBRANCH  23  24
ENDBRANCH  22  23
ENDBRANCH   1  22
TORSDOF 16
