REMARK SMILES COc1ccc([C@@H]([NH3+])[C@](C)(C(N)=O)C(=O)NCCCCNC(=O)c2ccc(-c3c4nc(c(-c5c(F)c(F)c(F)c(F)c5F)c5ccc([nH]5)c(-c5c(F)c(F)c(F)c(F)c5F)c5nc(c(-c6c(F)c(F)c(F)c(F)c6F)c6ccc3[nH]6)C=C5)C=C4)cc2)cc1OC
REMARK SMILES IDX 18 1 17 2 16 3 14 4 15 5 9 7 10 8 7 9 6 10 3 11 4 12 88 13
REMARK SMILES IDX 5 14 87 15 2 16 1 17 89 18 90 19 8 20 11 24 12 25 13 26
REMARK SMILES IDX 19 29 20 30 21 31 22 32 23 34 24 35 25 36 86 37 26 38 85 39
REMARK SMILES IDX 27 40 28 41 29 42 79 43 30 44 84 45 78 46 80 47 31 48 83 49
REMARK SMILES IDX 77 50 76 51 32 53 64 54 44 55 63 56 45 57 48 58 62 59 81 60
REMARK SMILES IDX 46 61 47 62 61 64 82 65 49 66 33 67 34 68 42 69 35 70 36 71
REMARK SMILES IDX 40 72 43 73 37 74 38 75 41 76 39 77 65 78 66 79 74 80 67 81
REMARK SMILES IDX 68 82 72 83 75 84 69 85 70 86 73 87 71 88 50 89 51 90 59 91
REMARK SMILES IDX 52 92 53 93 57 94 60 95 54 96 55 97 58 98 56 99
REMARK H PARENT 16 6 8 21 8 22 8 23 12 27 12 28 21 33 80 52 48 63
REMARK Flexibility Score: inf
ROOT
ATOM      1  C   UNL     1      -1.171   6.899  -7.222  1.00  0.00     0.023 C 
ENDROOT
BRANCH   1   2
ATOM      2  C   UNL     1      -0.668   6.139  -6.001  1.00  0.00     0.116 C 
BRANCH   2   3
ATOM      3  N   UNL     1      -0.916   4.714  -6.124  1.00  0.00    -0.355 N 
ATOM      4  C   UNL     1      -0.055   3.658  -6.110  1.00  0.00     0.241 C 
ATOM      5  O   UNL     1      -0.545   2.555  -6.372  1.00  0.00    -0.274 OA
ATOM      6  H   UNL     1      -1.864   4.470  -6.236  1.00  0.00     0.163 HD
BRANCH   4   7
ATOM      7  C   UNL     1       1.442   3.834  -5.800  1.00  0.00     0.180 C 
ATOM      8  C   UNL     1       2.160   2.485  -6.046  1.00  0.00     0.039 C 
BRANCH   7   9
ATOM      9  C   UNL     1       1.629   4.349  -4.318  1.00  0.00     0.237 C 
BRANCH   9  10
ATOM     10  C   UNL     1       0.559   3.889  -3.326  1.00  0.00     0.015 A 
ATOM     11  C   UNL     1      -1.624   3.110  -1.715  1.00  0.00     0.160 A 
ATOM     12  C   UNL     1      -0.704   2.162  -2.179  1.00  0.00     0.051 A 
ATOM     13  C   UNL     1      -1.426   4.466  -1.987  1.00  0.00     0.161 A 
ATOM     14  C   UNL     1       0.378   2.548  -2.978  1.00  0.00     0.014 A 
ATOM     15  C   UNL     1      -0.325   4.836  -2.774  1.00  0.00     0.060 A 
BRANCH  11  16
ATOM     16  O   UNL     1      -2.652   2.676  -0.922  1.00  0.00    -0.493 OA
ATOM     17  C   UNL     1      -3.668   2.026  -1.688  1.00  0.00     0.278 C 
ENDBRANCH  11  16
BRANCH  13  18
ATOM     18  O   UNL     1      -2.177   5.542  -1.598  1.00  0.00    -0.493 OA
ATOM     19  C   UNL     1      -3.445   5.307  -1.007  1.00  0.00     0.278 C 
ENDBRANCH  13  18
ENDBRANCH   9  10
BRANCH   9  20
ATOM     20  N   UNL     1       2.968   4.098  -3.752  1.00  0.00    -0.350 N 
ATOM     21  H   UNL     1       3.101   3.094  -3.625  1.00  0.00     0.345 HD
ATOM     22  H   UNL     1       3.050   4.568  -2.850  1.00  0.00     0.345 HD
ATOM     23  H   UNL     1       3.680   4.457  -4.388  1.00  0.00     0.345 HD
ENDBRANCH   9  20
ENDBRANCH   7   9
BRANCH   7  24
ATOM     24  C   UNL     1       2.096   4.807  -6.789  1.00  0.00     0.239 C 
ATOM     25  N   UNL     1       1.702   4.730  -8.097  1.00  0.00    -0.369 N 
ATOM     26  O   UNL     1       2.971   5.613  -6.476  1.00  0.00    -0.274 OA
ATOM     27  H   UNL     1       1.003   4.091  -8.364  1.00  0.00     0.159 HD
ATOM     28  H   UNL     1       2.118   5.314  -8.771  1.00  0.00     0.159 HD
ENDBRANCH   7  24
ENDBRANCH   4   7
ENDBRANCH   2   3
ENDBRANCH   1   2
BRANCH   1  29
ATOM     29  C   UNL     1      -2.690   6.873  -7.388  1.00  0.00     0.023 C 
BRANCH  29  30
ATOM     30  C   UNL     1      -3.472   7.349  -6.170  1.00  0.00     0.116 C 
BRANCH  30  31
ATOM     31  N   UNL     1      -3.135   8.710  -5.782  1.00  0.00    -0.352 N 
ATOM     32  C   UNL     1      -3.966   9.790  -5.593  1.00  0.00     0.251 C 
ATOM     33  H   UNL     1      -2.178   8.883  -5.634  1.00  0.00     0.163 HD
ATOM     34  O   UNL     1      -3.506  10.909  -5.428  1.00  0.00    -0.269 OA
BRANCH  32  35
ATOM     35  C   UNL     1      -5.429   9.583  -5.625  1.00  0.00     0.039 A 
ATOM     36  C   UNL     1      -6.216  10.443  -6.394  1.00  0.00     0.014 A 
ATOM     37  C   UNL     1      -6.011   8.522  -4.928  1.00  0.00     0.014 A 
ATOM     38  C   UNL     1      -7.582  10.190  -6.523  1.00  0.00     0.010 A 
ATOM     39  C   UNL     1      -7.353   8.221  -5.130  1.00  0.00     0.010 A 
ATOM     40  C   UNL     1      -8.153   9.053  -5.927  1.00  0.00    -0.014 A 
BRANCH  40  41
ATOM     41  C   UNL     1      -9.585   8.717  -6.124  1.00  0.00     0.031 A 
ATOM     42  C   UNL     1     -10.517   8.677  -4.945  1.00  0.00     0.074 A 
ATOM     43  C   UNL     1     -10.030   8.380  -7.350  1.00  0.00     0.049 A 
ATOM     44  N   UNL     1     -11.780   8.339  -4.898  1.00  0.00    -0.248 NA
ATOM     45  C   UNL     1      -9.943   9.035  -3.638  1.00  0.00     0.031 C 
ATOM     46  C   UNL     1      -9.212   8.331  -8.562  1.00  0.00     0.029 A 
ATOM     47  N   UNL     1     -11.279   8.005  -7.777  1.00  0.00    -0.354 N 
ATOM     48  C   UNL     1     -12.145   8.429  -3.562  1.00  0.00     0.074 A 
ATOM     49  C   UNL     1     -10.956   8.790  -2.821  1.00  0.00     0.031 C 
ATOM     50  C   UNL     1      -9.986   7.977  -9.601  1.00  0.00     0.029 A 
ATOM     51  C   UNL     1     -11.343   7.732  -9.121  1.00  0.00     0.049 A 
ATOM     52  H   UNL     1     -12.057   7.939  -7.176  1.00  0.00     0.167 HD
ATOM     53  C   UNL     1     -13.367   8.253  -3.005  1.00  0.00     0.037 A 
ATOM     54  C   UNL     1     -12.377   7.324  -9.880  1.00  0.00     0.037 A 
ATOM     55  C   UNL     1     -14.552   7.915  -3.751  1.00  0.00     0.049 A 
ATOM     56  C   UNL     1     -13.723   7.122  -9.236  1.00  0.00     0.074 A 
ATOM     57  C   UNL     1     -15.849   7.775  -3.292  1.00  0.00     0.029 A 
ATOM     58  N   UNL     1     -14.579   7.657  -5.114  1.00  0.00    -0.354 N 
ATOM     59  N   UNL     1     -14.074   7.282  -7.984  1.00  0.00    -0.248 NA
ATOM     60  C   UNL     1     -14.818   6.688 -10.115  1.00  0.00     0.031 C 
ATOM     61  C   UNL     1     -16.652   7.378  -4.366  1.00  0.00     0.029 A 
ATOM     62  C   UNL     1     -15.867   7.331  -5.508  1.00  0.00     0.049 A 
ATOM     63  H   UNL     1     -13.799   7.700  -5.713  1.00  0.00     0.167 HD
ATOM     64  C   UNL     1     -15.432   7.000  -7.928  1.00  0.00     0.074 A 
ATOM     65  C   UNL     1     -15.845   6.672  -9.277  1.00  0.00     0.031 C 
ATOM     66  C   UNL     1     -16.263   7.012  -6.856  1.00  0.00     0.037 A 
BRANCH  53  67
ATOM     67  C   UNL     1     -13.482   8.421  -1.517  1.00  0.00     0.064 A 
ATOM     68  C   UNL     1     -13.317   9.672  -0.899  1.00  0.00     0.173 A 
ATOM     69  C   UNL     1     -13.779   7.322  -0.697  1.00  0.00     0.173 A 
ATOM     70  F   UNL     1     -13.019  10.754  -1.635  1.00  0.00    -0.203 F 
ATOM     71  C   UNL     1     -13.408   9.807   0.483  1.00  0.00     0.198 A 
ATOM     72  C   UNL     1     -13.905   7.469   0.682  1.00  0.00     0.198 A 
ATOM     73  F   UNL     1     -13.952   6.105  -1.233  1.00  0.00    -0.203 F 
ATOM     74  F   UNL     1     -13.185  11.000   1.054  1.00  0.00    -0.200 F 
ATOM     75  C   UNL     1     -13.708   8.708   1.272  1.00  0.00     0.200 A 
ATOM     76  F   UNL     1     -14.209   6.407   1.442  1.00  0.00    -0.200 F 
ATOM     77  F   UNL     1     -13.799   8.841   2.603  1.00  0.00    -0.200 F 
ENDBRANCH  53  67
BRANCH  54  78
ATOM     78  C   UNL     1     -12.188   7.106 -11.339  1.00  0.00     0.064 A 
ATOM     79  C   UNL     1     -12.787   7.958 -12.277  1.00  0.00     0.173 A 
ATOM     80  C   UNL     1     -11.407   6.047 -11.825  1.00  0.00     0.173 A 
ATOM     81  F   UNL     1     -13.559   8.973 -11.862  1.00  0.00    -0.203 F 
ATOM     82  C   UNL     1     -12.628   7.748 -13.645  1.00  0.00     0.198 A 
ATOM     83  C   UNL     1     -11.224   5.856 -13.193  1.00  0.00     0.198 A 
ATOM     84  F   UNL     1     -10.807   5.206 -10.970  1.00  0.00    -0.203 F 
ATOM     85  F   UNL     1     -13.249   8.551 -14.520  1.00  0.00    -0.200 F 
ATOM     86  C   UNL     1     -11.842   6.702 -14.102  1.00  0.00     0.200 A 
ATOM     87  F   UNL     1     -10.450   4.854 -13.630  1.00  0.00    -0.200 F 
ATOM     88  F   UNL     1     -11.684   6.505 -15.418  1.00  0.00    -0.200 F 
ENDBRANCH  54  78
BRANCH  66  89
ATOM     89  C   UNL     1     -17.711   6.697  -7.103  1.00  0.00     0.064 A 
ATOM     90  C   UNL     1     -18.142   5.403  -7.431  1.00  0.00     0.173 A 
ATOM     91  C   UNL     1     -18.686   7.699  -6.970  1.00  0.00     0.173 A 
ATOM     92  F   UNL     1     -17.249   4.414  -7.585  1.00  0.00    -0.203 F 
ATOM     93  C   UNL     1     -19.490   5.130  -7.642  1.00  0.00     0.198 A 
ATOM     94  C   UNL     1     -20.037   7.414  -7.148  1.00  0.00     0.198 A 
ATOM     95  F   UNL     1     -18.329   8.952  -6.651  1.00  0.00    -0.203 F 
ATOM     96  F   UNL     1     -19.873   3.897  -8.005  1.00  0.00    -0.200 F 
ATOM     97  C   UNL     1     -20.437   6.132  -7.493  1.00  0.00     0.200 A 
ATOM     98  F   UNL     1     -20.951   8.381  -6.987  1.00  0.00    -0.200 F 
ATOM     99  F   UNL     1     -21.735   5.864  -7.688  1.00  0.00    -0.200 F 
ENDBRANCH  66  89
ENDBRANCH  40  41
ENDBRANCH  32  35
ENDBRANCH  30  31
ENDBRANCH  29  30
ENDBRANCH   1  29
TORSDOF 17
