REMARK SMILES Cc1ccc(NS(=O)(=O)c2cc(C(=O)Nc3ccccc3C(=O)NCCCCNC(=O)c3ccc(-c4c5nc(c(-c6c(F)c(F)c(F)c(F)c6F)c6ccc([nH]6)c(-c6c(F)c(F)c(F)c(F)c6F)c6nc(c(-c7c(F)c(F)c(F)c(F)c7F)c7ccc4[nH]7)C=C6)C=C5)cc3)ccc2Br)cc1
REMARK SMILES IDX 25 1 24 2 22 3 23 4 21 6 16 7 17 8 18 9 20 10 19 11 15 12
REMARK SMILES IDX 13 13 14 14 12 16 10 17 11 18 97 19 96 20 98 21 95 22 7 23
REMARK SMILES IDX 8 24 9 25 6 26 5 28 1 29 2 30 3 31 100 32 4 33 99 34 26 35
REMARK SMILES IDX 27 36 28 37 29 38 30 39 31 41 32 42 33 43 94 44 34 45 93 46
REMARK SMILES IDX 35 47 36 48 37 49 87 50 38 51 92 52 86 53 88 54 39 55 91 56
REMARK SMILES IDX 85 57 84 58 40 60 72 61 52 62 71 63 53 64 56 65 70 66 89 67
REMARK SMILES IDX 54 68 55 69 69 71 90 72 57 73 41 74 42 75 50 76 43 77 44 78
REMARK SMILES IDX 48 79 51 80 45 81 46 82 49 83 47 84 73 85 74 86 82 87 75 88
REMARK SMILES IDX 76 89 80 90 83 91 77 92 78 93 81 94 79 95 58 96 59 97 67 98
REMARK SMILES IDX 60 99 61 100 65 101 68 102 62 103 63 104 66 105 64 106
REMARK H PARENT 24 5 15 15 6 27 29 40 88 59 56 70
REMARK Flexibility Score: inf
ROOT
ATOM      1  C   UNL     1      -3.679  -1.130   3.009  1.00  0.00     0.116 C 
ENDROOT
BRANCH   1   2
ATOM      2  N   UNL     1      -2.359  -1.663   3.268  1.00  0.00    -0.352 N 
ATOM      3  C   UNL     1      -1.138  -1.199   2.817  1.00  0.00     0.253 C 
ATOM      4  O   UNL     1      -0.104  -1.620   3.322  1.00  0.00    -0.269 OA
ATOM      5  H   UNL     1      -2.326  -2.462   3.843  1.00  0.00     0.163 HD
BRANCH   3   6
ATOM      6  C   UNL     1      -1.079  -0.297   1.635  1.00  0.00     0.063 A 
ATOM      7  C   UNL     1       0.093  -0.646   0.285  1.00  0.00     0.054 A 
ATOM      8  C   UNL     1       0.073   0.656  -1.286  1.00  0.00     0.027 A 
ATOM      9  C   UNL     1      -1.156   1.976  -1.312  1.00  0.00     0.002 A 
ATOM     10  C   UNL     1      -2.178   1.082   1.475  1.00  0.00     0.016 A 
ATOM     11  C   UNL     1      -2.235   2.141   0.053  1.00  0.00     0.001 A 
BRANCH   7  12
ATOM     12  N   UNL     1       0.824  -1.937   0.567  1.00  0.00    -0.321 N 
ATOM     13  C   UNL     1       0.450  -3.297   0.669  1.00  0.00     0.255 C 
ATOM     14  O   UNL     1       1.341  -4.130   0.862  1.00  0.00    -0.269 OA
ATOM     15  H   UNL     1       1.788  -1.800   0.714  1.00  0.00     0.170 HD
BRANCH  13  16
ATOM     16  C   UNL     1      -0.922  -3.843   0.392  1.00  0.00     0.041 A 
ATOM     17  C   UNL     1      -3.131  -3.187  -0.413  1.00  0.00     0.102 A 
ATOM     18  C   UNL     1      -1.954  -2.965   0.257  1.00  0.00     0.037 A 
ATOM     19  C   UNL     1      -3.509  -4.499  -0.583  1.00  0.00     0.038 A 
ATOM     20  C   UNL     1      -2.570  -5.505  -0.255  1.00  0.00     0.018 A 
ATOM     21  Br  UNL     1      -5.254  -5.002  -1.090  1.00  0.00    -0.049 Br
ATOM     22  C   UNL     1      -1.250  -5.172   0.148  1.00  0.00     0.015 A 
BRANCH  17  23
ATOM     23  S   UNL     1      -3.872  -1.710  -1.104  1.00  0.00     0.263 S 
ATOM     24  O   UNL     1      -5.205  -1.591  -0.551  1.00  0.00    -0.201 OA
ATOM     25  O   UNL     1      -3.657  -1.752  -2.532  1.00  0.00    -0.201 OA
BRANCH  23  26
ATOM     26  N   UNL     1      -3.023  -0.350  -0.456  1.00  0.00    -0.280 N 
ATOM     27  H   UNL     1      -3.572   0.304   0.033  1.00  0.00     0.180 HD
BRANCH  26  28
ATOM     28  C   UNL     1      -1.530  -0.032  -0.544  1.00  0.00     0.049 A 
ATOM     29  C   UNL     1       3.580  -0.380  -0.804  1.00  0.00     0.044 C 
ATOM     30  C   UNL     1       2.096  -0.161  -0.842  1.00  0.00    -0.051 A 
ATOM     31  C   UNL     1       1.046  -1.255  -1.773  1.00  0.00     0.005 A 
ATOM     32  C   UNL     1       1.496   1.057   0.248  1.00  0.00     0.005 A 
ATOM     33  C   UNL     1      -0.723  -1.218  -1.668  1.00  0.00     0.027 A 
ATOM     34  C   UNL     1      -0.269   1.217   0.456  1.00  0.00     0.027 A 
ENDBRANCH  26  28
ENDBRANCH  23  26
ENDBRANCH  17  23
ENDBRANCH  13  16
ENDBRANCH   7  12
ENDBRANCH   3   6
ENDBRANCH   1   2
BRANCH   1  35
ATOM     35  C   UNL     1      -4.718  -2.059   2.416  1.00  0.00     0.023 C 
BRANCH  35  36
ATOM     36  C   UNL     1      -5.301  -3.138   3.275  1.00  0.00     0.023 C 
BRANCH  36  37
ATOM     37  C   UNL     1      -5.729  -2.625   4.612  1.00  0.00     0.116 C 
BRANCH  37  38
ATOM     38  N   UNL     1      -6.788  -1.637   4.604  1.00  0.00    -0.352 N 
ATOM     39  C   UNL     1      -7.613  -1.270   5.654  1.00  0.00     0.251 C 
ATOM     40  H   UNL     1      -6.940  -1.171   3.750  1.00  0.00     0.163 HD
ATOM     41  O   UNL     1      -8.623  -0.614   5.419  1.00  0.00    -0.269 OA
BRANCH  39  42
ATOM     42  C   UNL     1      -7.175  -1.485   7.074  1.00  0.00     0.039 A 
ATOM     43  C   UNL     1      -7.549  -0.466   7.958  1.00  0.00     0.014 A 
ATOM     44  C   UNL     1      -5.968  -2.120   7.290  1.00  0.00     0.014 A 
ATOM     45  C   UNL     1      -6.571   0.138   8.731  1.00  0.00     0.010 A 
ATOM     46  C   UNL     1      -4.941  -1.335   7.700  1.00  0.00     0.010 A 
ATOM     47  C   UNL     1      -5.259  -0.212   8.454  1.00  0.00    -0.014 A 
BRANCH  47  48
ATOM     48  C   UNL     1      -4.090   0.267   9.139  1.00  0.00     0.031 A 
ATOM     49  C   UNL     1      -3.779  -0.564  10.334  1.00  0.00     0.074 A 
ATOM     50  C   UNL     1      -3.336   1.137   8.423  1.00  0.00     0.049 A 
ATOM     51  N   UNL     1      -3.156  -0.154  11.371  1.00  0.00    -0.248 NA
ATOM     52  C   UNL     1      -4.260  -1.951  10.534  1.00  0.00     0.031 C 
ATOM     53  C   UNL     1      -1.931   1.501   8.531  1.00  0.00     0.029 A 
ATOM     54  N   UNL     1      -3.810   2.021   7.427  1.00  0.00    -0.354 N 
ATOM     55  C   UNL     1      -2.721  -1.291  12.034  1.00  0.00     0.074 A 
ATOM     56  C   UNL     1      -3.618  -2.334  11.643  1.00  0.00     0.031 C 
ATOM     57  C   UNL     1      -1.747   2.722   7.986  1.00  0.00     0.029 A 
ATOM     58  C   UNL     1      -3.051   3.208   7.567  1.00  0.00     0.049 A 
ATOM     59  H   UNL     1      -4.522   1.847   6.770  1.00  0.00     0.167 HD
ATOM     60  C   UNL     1      -1.487  -1.246  12.608  1.00  0.00     0.037 A 
ATOM     61  C   UNL     1      -3.656   4.346   8.030  1.00  0.00     0.037 A 
ATOM     62  C   UNL     1      -0.905   0.050  12.284  1.00  0.00     0.049 A 
ATOM     63  C   UNL     1      -3.178   4.639   9.430  1.00  0.00     0.074 A 
ATOM     64  C   UNL     1      -0.026   0.445  11.292  1.00  0.00     0.029 A 
ATOM     65  N   UNL     1      -1.545   1.188  12.736  1.00  0.00    -0.354 N 
ATOM     66  N   UNL     1      -2.852   3.707  10.287  1.00  0.00    -0.248 NA
ATOM     67  C   UNL     1      -2.885   5.986   9.911  1.00  0.00     0.031 C 
ATOM     68  C   UNL     1      -0.152   1.853  11.154  1.00  0.00     0.029 A 
ATOM     69  C   UNL     1      -1.133   2.291  12.028  1.00  0.00     0.049 A 
ATOM     70  H   UNL     1      -2.206   1.206  13.466  1.00  0.00     0.167 HD
ATOM     71  C   UNL     1      -2.243   4.295  11.365  1.00  0.00     0.074 A 
ATOM     72  C   UNL     1      -2.311   5.718  11.095  1.00  0.00     0.031 C 
ATOM     73  C   UNL     1      -1.658   3.592  12.379  1.00  0.00     0.037 A 
BRANCH  60  74
ATOM     74  C   UNL     1      -0.642  -2.347  13.201  1.00  0.00     0.064 A 
ATOM     75  C   UNL     1       0.712  -2.067  13.520  1.00  0.00     0.173 A 
ATOM     76  C   UNL     1      -1.055  -3.656  13.501  1.00  0.00     0.173 A 
ATOM     77  F   UNL     1       1.236  -0.845  13.354  1.00  0.00    -0.203 F 
ATOM     78  C   UNL     1       1.585  -3.019  14.040  1.00  0.00     0.198 A 
ATOM     79  C   UNL     1      -0.176  -4.612  14.034  1.00  0.00     0.198 A 
ATOM     80  F   UNL     1      -2.317  -4.058  13.322  1.00  0.00    -0.203 F 
ATOM     81  F   UNL     1       2.856  -2.680  14.296  1.00  0.00    -0.200 F 
ATOM     82  C   UNL     1       1.143  -4.295  14.296  1.00  0.00     0.200 A 
ATOM     83  F   UNL     1      -0.622  -5.849  14.301  1.00  0.00    -0.200 F 
ATOM     84  F   UNL     1       1.977  -5.208  14.810  1.00  0.00    -0.200 F 
ENDBRANCH  60  74
BRANCH  61  85
ATOM     85  C   UNL     1      -5.052   4.447   7.497  1.00  0.00     0.064 A 
ATOM     86  C   UNL     1      -5.155   4.564   6.093  1.00  0.00     0.173 A 
ATOM     87  C   UNL     1      -6.132   3.866   8.175  1.00  0.00     0.173 A 
ATOM     88  F   UNL     1      -4.168   5.153   5.397  1.00  0.00    -0.203 F 
ATOM     89  C   UNL     1      -6.153   3.897   5.387  1.00  0.00     0.198 A 
ATOM     90  C   UNL     1      -7.162   3.245   7.459  1.00  0.00     0.198 A 
ATOM     91  F   UNL     1      -6.115   3.755   9.510  1.00  0.00    -0.203 F 
ATOM     92  F   UNL     1      -6.096   3.837   4.047  1.00  0.00    -0.200 F 
ATOM     93  C   UNL     1      -7.128   3.196   6.072  1.00  0.00     0.200 A 
ATOM     94  F   UNL     1      -8.136   2.601   8.118  1.00  0.00    -0.200 F 
ATOM     95  F   UNL     1      -8.005   2.442   5.396  1.00  0.00    -0.200 F 
ENDBRANCH  61  85
BRANCH  73  96
ATOM     96  C   UNL     1      -1.426   4.105  13.780  1.00  0.00     0.064 A 
ATOM     97  C   UNL     1      -2.056   5.247  14.294  1.00  0.00     0.173 A 
ATOM     98  C   UNL     1      -0.670   3.360  14.726  1.00  0.00     0.173 A 
ATOM     99  F   UNL     1      -2.949   5.942  13.578  1.00  0.00    -0.203 F 
ATOM    100  C   UNL     1      -1.834   5.687  15.598  1.00  0.00     0.198 A 
ATOM    101  C   UNL     1      -0.542   3.744  16.055  1.00  0.00     0.198 A 
ATOM    102  F   UNL     1      -0.048   2.215  14.414  1.00  0.00    -0.203 F 
ATOM    103  F   UNL     1      -2.376   6.844  16.000  1.00  0.00    -0.200 F 
ATOM    104  C   UNL     1      -1.086   4.933  16.480  1.00  0.00     0.200 A 
ATOM    105  F   UNL     1       0.101   2.944  16.916  1.00  0.00    -0.200 F 
ATOM    106  F   UNL     1      -0.907   5.341  17.741  1.00  0.00    -0.200 F 
ENDBRANCH  73  96
ENDBRANCH  47  48
ENDBRANCH  39  42
ENDBRANCH  37  38
ENDBRANCH  36  37
ENDBRANCH  35  36
ENDBRANCH   1  35
TORSDOF 16
