REMARK SMILES C[C@](NC(=O)Nc1ccccc1Cl)(C(=O)NCCCCNC(=O)c1ccc(-c2c3nc(c(-c4c(F)c(F)c(F)c(F)c4F)c4ccc([nH]4)c(-c4c(F)c(F)c(F)c(F)c4F)c4nc(c(-c5c(F)c(F)c(F)c(F)c5F)c5ccc2[nH]5)C=C4)C=C3)cc1)C(F)(F)F
REMARK SMILES IDX 18 1 17 2 16 3 14 4 15 5 2 7 1 8 87 9 88 10 89 11 90 12 3 13
REMARK SMILES IDX 4 14 5 16 6 17 7 19 8 20 12 21 9 22 11 23 13 24 10 25 19 26
REMARK SMILES IDX 20 27 21 28 22 29 23 31 24 32 25 33 86 34 26 35 85 36 27 37
REMARK SMILES IDX 28 38 29 39 79 40 30 41 84 42 78 43 80 44 31 45 83 46 77 47
REMARK SMILES IDX 76 48 32 50 64 51 44 52 63 53 45 54 48 55 62 56 81 57 46 58
REMARK SMILES IDX 47 59 61 61 82 62 49 63 33 64 34 65 42 66 35 67 36 68 40 69
REMARK SMILES IDX 43 70 37 71 38 72 41 73 39 74 65 75 66 76 74 77 67 78 68 79
REMARK SMILES IDX 72 80 75 81 69 82 70 83 73 84 71 85 50 86 51 87 59 88 52 89
REMARK SMILES IDX 53 90 57 91 60 92 54 93 55 94 58 95 56 96
REMARK H PARENT 16 6 3 15 6 18 21 30 80 49 48 60
REMARK Flexibility Score: inf
ROOT
ATOM      1  C   UNL     1      -1.561   1.772  -1.591  1.00  0.00     0.023 C 
ENDROOT
BRANCH   1   2
ATOM      2  C   UNL     1      -1.603   1.634  -0.073  1.00  0.00     0.116 C 
BRANCH   2   3
ATOM      3  N   UNL     1      -1.917   0.288   0.328  1.00  0.00    -0.354 N 
ATOM      4  C   UNL     1      -1.145  -0.668   0.921  1.00  0.00     0.255 C 
ATOM      5  O   UNL     1      -1.748  -1.715   1.177  1.00  0.00    -0.272 OA
ATOM      6  H   UNL     1      -2.843   0.010   0.142  1.00  0.00     0.163 HD
BRANCH   4   7
ATOM      7  C   UNL     1       0.299  -0.398   1.431  1.00  0.00     0.213 C 
ATOM      8  C   UNL     1       0.171   0.419   2.713  1.00  0.00     0.056 C 
BRANCH   7   9
ATOM      9  C   UNL     1       0.837  -1.795   1.857  1.00  0.00     0.420 C 
ATOM     10  F   UNL     1       0.871  -2.651   0.806  1.00  0.00    -0.168 F 
ATOM     11  F   UNL     1       2.122  -1.686   2.292  1.00  0.00    -0.168 F 
ATOM     12  F   UNL     1       0.146  -2.371   2.862  1.00  0.00    -0.168 F 
ENDBRANCH   7   9
BRANCH   7  13
ATOM     13  N   UNL     1       1.238   0.130   0.353  1.00  0.00    -0.316 N 
ATOM     14  C   UNL     1       1.752   1.213  -0.229  1.00  0.00     0.320 C 
ATOM     15  H   UNL     1       1.625  -0.653  -0.102  1.00  0.00     0.166 HD
ATOM     16  O   UNL     1       2.232   1.037  -1.354  1.00  0.00    -0.248 OA
ATOM     17  N   UNL     1       1.678   2.474   0.213  1.00  0.00    -0.307 N 
ATOM     18  H   UNL     1       1.730   3.144  -0.506  1.00  0.00     0.171 HD
BRANCH  17  19
ATOM     19  C   UNL     1       1.544   3.035   1.486  1.00  0.00     0.061 A 
ATOM     20  C   UNL     1       0.563   4.029   1.620  1.00  0.00     0.028 A 
ATOM     21  C   UNL     1       2.322   2.681   2.594  1.00  0.00     0.064 A 
ATOM     22  C   UNL     1       0.234   4.525   2.881  1.00  0.00     0.002 A 
ATOM     23  C   UNL     1       2.012   3.209   3.852  1.00  0.00     0.023 A 
ATOM     24  Cl  UNL     1       3.695   1.643   2.459  1.00  0.00    -0.082 Cl
ATOM     25  C   UNL     1       0.944   4.097   4.000  1.00  0.00     0.002 A 
ENDBRANCH  17  19
ENDBRANCH   7  13
ENDBRANCH   4   7
ENDBRANCH   2   3
ENDBRANCH   1   2
BRANCH   1  26
ATOM     26  C   UNL     1      -2.942   1.996  -2.208  1.00  0.00     0.023 C 
BRANCH  26  27
ATOM     27  C   UNL     1      -3.586   3.330  -1.841  1.00  0.00     0.116 C 
BRANCH  27  28
ATOM     28  N   UNL     1      -2.848   4.482  -2.335  1.00  0.00    -0.352 N 
ATOM     29  C   UNL     1      -3.352   5.667  -2.823  1.00  0.00     0.251 C 
ATOM     30  H   UNL     1      -1.867   4.404  -2.320  1.00  0.00     0.163 HD
ATOM     31  O   UNL     1      -2.614   6.519  -3.293  1.00  0.00    -0.269 OA
BRANCH  29  32
ATOM     32  C   UNL     1      -4.815   5.870  -2.808  1.00  0.00     0.039 A 
ATOM     33  C   UNL     1      -5.462   6.189  -4.003  1.00  0.00     0.014 A 
ATOM     34  C   UNL     1      -5.545   5.670  -1.633  1.00  0.00     0.014 A 
ATOM     35  C   UNL     1      -6.857   6.236  -4.037  1.00  0.00     0.010 A 
ATOM     36  C   UNL     1      -6.934   5.649  -1.685  1.00  0.00     0.010 A 
ATOM     37  C   UNL     1      -7.604   5.926  -2.888  1.00  0.00    -0.014 A 
BRANCH  37  38
ATOM     38  C   UNL     1      -9.087   5.879  -2.925  1.00  0.00     0.031 A 
ATOM     39  C   UNL     1      -9.890   6.851  -2.108  1.00  0.00     0.074 A 
ATOM     40  C   UNL     1      -9.707   4.917  -3.634  1.00  0.00     0.049 A 
ATOM     41  N   UNL     1     -11.187   6.927  -1.949  1.00  0.00    -0.248 NA
ATOM     42  C   UNL     1      -9.132   7.854  -1.343  1.00  0.00     0.031 C 
ATOM     43  C   UNL     1      -9.038   3.883  -4.426  1.00  0.00     0.029 A 
ATOM     44  N   UNL     1     -11.043   4.645  -3.796  1.00  0.00    -0.354 N 
ATOM     45  C   UNL     1     -11.397   7.968  -1.056  1.00  0.00     0.074 A 
ATOM     46  C   UNL     1     -10.094   8.462  -0.666  1.00  0.00     0.031 C 
ATOM     47  C   UNL     1      -9.966   3.106  -5.008  1.00  0.00     0.029 A 
ATOM     48  C   UNL     1     -11.292   3.563  -4.605  1.00  0.00     0.049 A 
ATOM     49  H   UNL     1     -11.756   5.176  -3.373  1.00  0.00     0.167 HD
ATOM     50  C   UNL     1     -12.571   8.482  -0.619  1.00  0.00     0.037 A 
ATOM     51  C   UNL     1     -12.459   3.002  -4.975  1.00  0.00     0.037 A 
ATOM     52  C   UNL     1     -13.865   8.011  -1.036  1.00  0.00     0.049 A 
ATOM     53  C   UNL     1     -13.749   3.596  -4.479  1.00  0.00     0.074 A 
ATOM     54  C   UNL     1     -15.112   8.513  -0.709  1.00  0.00     0.029 A 
ATOM     55  N   UNL     1     -14.077   6.926  -1.874  1.00  0.00    -0.354 N 
ATOM     56  N   UNL     1     -13.938   4.629  -3.695  1.00  0.00    -0.248 NA
ATOM     57  C   UNL     1     -14.991   2.948  -4.926  1.00  0.00     0.031 C 
ATOM     58  C   UNL     1     -16.081   7.705  -1.313  1.00  0.00     0.029 A 
ATOM     59  C   UNL     1     -15.437   6.728  -2.056  1.00  0.00     0.049 A 
ATOM     60  H   UNL     1     -13.367   6.377  -2.279  1.00  0.00     0.167 HD
ATOM     61  C   UNL     1     -15.313   4.775  -3.579  1.00  0.00     0.074 A 
ATOM     62  C   UNL     1     -15.913   3.730  -4.383  1.00  0.00     0.031 C 
ATOM     63  C   UNL     1     -16.017   5.691  -2.869  1.00  0.00     0.037 A 
BRANCH  50  64
ATOM     64  C   UNL     1     -12.509   9.618   0.360  1.00  0.00     0.064 A 
ATOM     65  C   UNL     1     -12.068  10.894  -0.021  1.00  0.00     0.173 A 
ATOM     66  C   UNL     1     -12.928   9.437   1.687  1.00  0.00     0.173 A 
ATOM     67  F   UNL     1     -11.644  11.116  -1.274  1.00  0.00    -0.203 F 
ATOM     68  C   UNL     1     -12.018  11.939   0.898  1.00  0.00     0.198 A 
ATOM     69  C   UNL     1     -12.906  10.492   2.595  1.00  0.00     0.198 A 
ATOM     70  F   UNL     1     -13.362   8.238   2.102  1.00  0.00    -0.203 F 
ATOM     71  F   UNL     1     -11.544  13.135   0.525  1.00  0.00    -0.200 F 
ATOM     72  C   UNL     1     -12.444  11.739   2.203  1.00  0.00     0.200 A 
ATOM     73  F   UNL     1     -13.328  10.300   3.853  1.00  0.00    -0.200 F 
ATOM     74  F   UNL     1     -12.401  12.747   3.085  1.00  0.00    -0.200 F 
ENDBRANCH  50  64
BRANCH  51  75
ATOM     75  C   UNL     1     -12.465   1.831  -5.890  1.00  0.00     0.064 A 
ATOM     76  C   UNL     1     -12.929   1.953  -7.207  1.00  0.00     0.173 A 
ATOM     77  C   UNL     1     -12.018   0.570  -5.470  1.00  0.00     0.173 A 
ATOM     78  F   UNL     1     -13.386   3.134  -7.649  1.00  0.00    -0.203 F 
ATOM     79  C   UNL     1     -12.967   0.854  -8.063  1.00  0.00     0.198 A 
ATOM     80  C   UNL     1     -12.031  -0.523  -6.335  1.00  0.00     0.198 A 
ATOM     81  F   UNL     1     -11.560   0.402  -4.221  1.00  0.00    -0.203 F 
ATOM     82  F   UNL     1     -13.459   0.989  -9.302  1.00  0.00    -0.200 F 
ATOM     83  C   UNL     1     -12.513  -0.382  -7.628  1.00  0.00     0.200 A 
ATOM     84  F   UNL     1     -11.579  -1.712  -5.915  1.00  0.00    -0.200 F 
ATOM     85  F   UNL     1     -12.547  -1.438  -8.451  1.00  0.00    -0.200 F 
ENDBRANCH  51  75
BRANCH  63  86
ATOM     86  C   UNL     1     -17.513   5.630  -2.960  1.00  0.00     0.064 A 
ATOM     87  C   UNL     1     -18.249   4.613  -2.335  1.00  0.00     0.173 A 
ATOM     88  C   UNL     1     -18.222   6.629  -3.646  1.00  0.00     0.173 A 
ATOM     89  F   UNL     1     -17.616   3.628  -1.680  1.00  0.00    -0.203 F 
ATOM     90  C   UNL     1     -19.639   4.585  -2.413  1.00  0.00     0.198 A 
ATOM     91  C   UNL     1     -19.613   6.613  -3.697  1.00  0.00     0.198 A 
ATOM     92  F   UNL     1     -17.565   7.627  -4.255  1.00  0.00    -0.203 F 
ATOM     93  F   UNL     1     -20.319   3.578  -1.846  1.00  0.00    -0.200 F 
ATOM     94  C   UNL     1     -20.319   5.588  -3.087  1.00  0.00     0.200 A 
ATOM     95  F   UNL     1     -20.270   7.590  -4.337  1.00  0.00    -0.200 F 
ATOM     96  F   UNL     1     -21.657   5.563  -3.154  1.00  0.00    -0.200 F 
ENDBRANCH  63  86
ENDBRANCH  37  38
ENDBRANCH  29  32
ENDBRANCH  27  28
ENDBRANCH  26  27
ENDBRANCH   1  26
TORSDOF 14
