REMARK SMILES [NH3+][C@]1(C(=O)NCCCCNC(=O)c2ccc(-c3c4nc(c(-c5c(F)c(F)c(F)c(F)c5F)c5ccc([nH]5)c(-c5c(F)c(F)c(F)c(F)c5F)c5nc(c(-c6c(F)c(F)c(F)c(F)c6F)c6ccc3[nH]6)C=C5)C=C4)cc2)CCC[C@H]1CC[NH+]1CCCCC1
REMARK SMILES IDX 7 1 6 2 5 3 3 4 4 5 2 7 76 8 79 9 77 10 78 11 1 12 80 16
REMARK SMILES IDX 81 17 82 18 83 19 87 20 84 22 86 23 85 24 8 25 9 26 10 27
REMARK SMILES IDX 11 28 12 30 13 31 14 32 75 33 15 34 74 35 16 36 17 37 18 38
REMARK SMILES IDX 68 39 19 40 73 41 67 42 69 43 20 44 72 45 66 46 65 47 21 49
REMARK SMILES IDX 53 50 33 51 52 52 34 53 37 54 51 55 70 56 35 57 36 58 50 60
REMARK SMILES IDX 71 61 38 62 22 63 23 64 31 65 24 66 25 67 29 68 32 69 26 70
REMARK SMILES IDX 27 71 30 72 28 73 54 74 55 75 63 76 56 77 57 78 61 79 64 80
REMARK SMILES IDX 58 81 59 82 62 83 60 84 39 85 40 86 48 87 41 88 42 89 46 90
REMARK SMILES IDX 49 91 43 92 44 93 47 94 45 95
REMARK H PARENT 5 6 1 13 1 14 1 15 82 21 10 29 69 48 37 59
REMARK Flexibility Score: inf
ROOT
ATOM      1  C   UNL     1      -1.768  -1.296  -1.464  1.00  0.00     0.023 C 
ENDROOT
BRANCH   1   2
ATOM      2  C   UNL     1      -1.351  -1.151  -0.001  1.00  0.00     0.116 C 
BRANCH   2   3
ATOM      3  N   UNL     1       0.083  -1.008   0.142  1.00  0.00    -0.351 N 
ATOM      4  C   UNL     1       0.879   0.089   0.275  1.00  0.00     0.281 C 
ATOM      5  O   UNL     1       2.056  -0.163   0.574  1.00  0.00    -0.268 OA
ATOM      6  H   UNL     1       0.573  -1.862   0.143  1.00  0.00     0.163 HD
BRANCH   4   7
ATOM      7  C   UNL     1       0.387   1.567   0.168  1.00  0.00     0.177 C 
ATOM      8  C   UNL     1       0.599   2.202   1.557  1.00  0.00     0.079 C 
ATOM      9  C   UNL     1       1.179   2.525  -0.774  1.00  0.00     0.066 C 
ATOM     10  C   UNL     1       0.553   3.700   1.328  1.00  0.00     0.008 C 
ATOM     11  C   UNL     1       1.148   3.906  -0.060  1.00  0.00     0.011 C 
BRANCH   7  12
ATOM     12  N   UNL     1      -1.046   1.699  -0.207  1.00  0.00    -0.345 N 
ATOM     13  H   UNL     1      -1.294   2.688  -0.257  1.00  0.00     0.345 HD
ATOM     14  H   UNL     1      -1.625   1.239   0.495  1.00  0.00     0.345 HD
ATOM     15  H   UNL     1      -1.201   1.263  -1.116  1.00  0.00     0.345 HD
ENDBRANCH   7  12
BRANCH   9  16
ATOM     16  C   UNL     1       2.631   2.184  -1.170  1.00  0.00     0.072 C 
BRANCH  16  17
ATOM     17  C   UNL     1       2.826   1.024  -2.167  1.00  0.00     0.262 C 
BRANCH  17  18
ATOM     18  N   UNL     1       1.881   0.996  -3.300  1.00  0.00    -0.335 N 
ATOM     19  C   UNL     1       2.086   2.135  -4.210  1.00  0.00     0.262 C 
ATOM     20  C   UNL     1       2.031  -0.278  -4.027  1.00  0.00     0.262 C 
ATOM     21  H   UNL     1       0.933   1.074  -2.930  1.00  0.00     0.348 HD
ATOM     22  C   UNL     1       1.077   2.104  -5.361  1.00  0.00     0.062 C 
ATOM     23  C   UNL     1       1.037  -0.390  -5.181  1.00  0.00     0.062 C 
ATOM     24  C   UNL     1       1.159   0.793  -6.133  1.00  0.00     0.012 C 
ENDBRANCH  17  18
ENDBRANCH  16  17
ENDBRANCH   9  16
ENDBRANCH   4   7
ENDBRANCH   2   3
ENDBRANCH   1   2
BRANCH   1  25
ATOM     25  C   UNL     1      -1.499  -2.680  -2.068  1.00  0.00     0.023 C 
BRANCH  25  26
ATOM     26  C   UNL     1      -2.124  -3.856  -1.321  1.00  0.00     0.116 C 
BRANCH  26  27
ATOM     27  N   UNL     1      -3.557  -3.721  -1.110  1.00  0.00    -0.352 N 
ATOM     28  C   UNL     1      -4.506  -4.711  -1.006  1.00  0.00     0.251 C 
ATOM     29  H   UNL     1      -3.892  -2.799  -1.031  1.00  0.00     0.163 HD
ATOM     30  O   UNL     1      -5.694  -4.431  -0.915  1.00  0.00    -0.269 OA
BRANCH  28  31
ATOM     31  C   UNL     1      -4.081  -6.126  -1.053  1.00  0.00     0.039 A 
ATOM     32  C   UNL     1      -4.730  -6.991  -1.937  1.00  0.00     0.014 A 
ATOM     33  C   UNL     1      -3.033  -6.587  -0.253  1.00  0.00     0.014 A 
ATOM     34  C   UNL     1      -4.279  -8.305  -2.072  1.00  0.00     0.010 A 
ATOM     35  C   UNL     1      -2.544  -7.877  -0.434  1.00  0.00     0.010 A 
ATOM     36  C   UNL     1      -3.158  -8.745  -1.349  1.00  0.00    -0.014 A 
BRANCH  36  37
ATOM     37  C   UNL     1      -2.605 -10.108  -1.546  1.00  0.00     0.031 A 
ATOM     38  C   UNL     1      -2.636 -11.104  -0.423  1.00  0.00     0.074 A 
ATOM     39  C   UNL     1      -2.007 -10.419  -2.712  1.00  0.00     0.049 A 
ATOM     40  N   UNL     1      -2.135 -12.312  -0.374  1.00  0.00    -0.248 NA
ATOM     41  C   UNL     1      -3.295 -10.675   0.820  1.00  0.00     0.031 C 
ATOM     42  C   UNL     1      -1.868  -9.519  -3.858  1.00  0.00     0.029 A 
ATOM     43  N   UNL     1      -1.390 -11.575  -3.121  1.00  0.00    -0.354 N 
ATOM     44  C   UNL     1      -2.403 -12.779   0.906  1.00  0.00     0.074 A 
ATOM     45  C   UNL     1      -3.067 -11.708   1.617  1.00  0.00     0.031 C 
ATOM     46  C   UNL     1      -1.225 -10.162  -4.846  1.00  0.00     0.029 A 
ATOM     47  C   UNL     1      -0.876 -11.505  -4.392  1.00  0.00     0.049 A 
ATOM     48  H   UNL     1      -1.323 -12.379  -2.556  1.00  0.00     0.167 HD
ATOM     49  C   UNL     1      -2.138 -13.999   1.432  1.00  0.00     0.037 A 
ATOM     50  C   UNL     1      -0.195 -12.419  -5.108  1.00  0.00     0.037 A 
ATOM     51  C   UNL     1      -1.503 -15.071   0.711  1.00  0.00     0.049 A 
ATOM     52  C   UNL     1       0.080 -13.769  -4.503  1.00  0.00     0.074 A 
ATOM     53  C   UNL     1      -1.248 -16.363   1.134  1.00  0.00     0.029 A 
ATOM     54  N   UNL     1      -1.020 -14.971  -0.586  1.00  0.00    -0.354 N 
ATOM     55  N   UNL     1      -0.240 -14.224  -3.316  1.00  0.00    -0.248 NA
ATOM     56  C   UNL     1       0.806 -14.734  -5.340  1.00  0.00     0.031 C 
ATOM     57  C   UNL     1      -0.576 -17.035   0.107  1.00  0.00     0.029 A 
ATOM     58  C   UNL     1      -0.452 -16.175  -0.972  1.00  0.00     0.049 A 
ATOM     59  H   UNL     1      -1.073 -14.165  -1.148  1.00  0.00     0.167 HD
ATOM     60  C   UNL     1       0.219 -15.533  -3.273  1.00  0.00     0.074 A 
ATOM     61  C   UNL     1       0.828 -15.805  -4.558  1.00  0.00     0.031 C 
ATOM     62  C   UNL     1       0.142 -16.430  -2.260  1.00  0.00     0.037 A 
BRANCH  49  63
ATOM     63  C   UNL     1      -2.542 -14.241   2.857  1.00  0.00     0.064 A 
ATOM     64  C   UNL     1      -3.890 -14.353   3.229  1.00  0.00     0.173 A 
ATOM     65  C   UNL     1      -1.571 -14.393   3.857  1.00  0.00     0.173 A 
ATOM     66  F   UNL     1      -4.859 -14.204   2.312  1.00  0.00    -0.203 F 
ATOM     67  C   UNL     1      -4.252 -14.579   4.554  1.00  0.00     0.198 A 
ATOM     68  C   UNL     1      -1.935 -14.649   5.176  1.00  0.00     0.198 A 
ATOM     69  F   UNL     1      -0.267 -14.301   3.554  1.00  0.00    -0.203 F 
ATOM     70  F   UNL     1      -5.547 -14.633   4.894  1.00  0.00    -0.200 F 
ATOM     71  C   UNL     1      -3.274 -14.734   5.525  1.00  0.00     0.200 A 
ATOM     72  F   UNL     1      -0.989 -14.810   6.112  1.00  0.00    -0.200 F 
ATOM     73  F   UNL     1      -3.623 -14.957   6.800  1.00  0.00    -0.200 F 
ENDBRANCH  49  63
BRANCH  50  74
ATOM     74  C   UNL     1       0.249 -12.100  -6.489  1.00  0.00     0.064 A 
ATOM     75  C   UNL     1      -0.352 -12.715  -7.596  1.00  0.00     0.173 A 
ATOM     76  C   UNL     1       1.278 -11.179  -6.732  1.00  0.00     0.173 A 
ATOM     77  F   UNL     1      -1.327 -13.618  -7.412  1.00  0.00    -0.203 F 
ATOM     78  C   UNL     1       0.072 -12.436  -8.893  1.00  0.00     0.198 A 
ATOM     79  C   UNL     1       1.684 -10.881  -8.031  1.00  0.00     0.198 A 
ATOM     80  F   UNL     1       1.881 -10.559  -5.707  1.00  0.00    -0.203 F 
ATOM     81  F   UNL     1      -0.490 -13.070  -9.931  1.00  0.00    -0.200 F 
ATOM     82  C   UNL     1       1.086 -11.515  -9.110  1.00  0.00     0.200 A 
ATOM     83  F   UNL     1       2.654  -9.980  -8.238  1.00  0.00    -0.200 F 
ATOM     84  F   UNL     1       1.492 -11.244 -10.358  1.00  0.00    -0.200 F 
ENDBRANCH  50  74
BRANCH  62  85
ATOM     85  C   UNL     1       0.699 -17.800  -2.511  1.00  0.00     0.064 A 
ATOM     86  C   UNL     1       2.080 -18.032  -2.574  1.00  0.00     0.173 A 
ATOM     87  C   UNL     1      -0.161 -18.901  -2.649  1.00  0.00     0.173 A 
ATOM     88  F   UNL     1       2.942 -17.010  -2.464  1.00  0.00    -0.203 F 
ATOM     89  C   UNL     1       2.581 -19.314  -2.788  1.00  0.00     0.198 A 
ATOM     90  C   UNL     1       0.344 -20.184  -2.834  1.00  0.00     0.198 A 
ATOM     91  F   UNL     1      -1.490 -18.732  -2.591  1.00  0.00    -0.203 F 
ATOM     92  F   UNL     1       3.903 -19.506  -2.888  1.00  0.00    -0.200 F 
ATOM     93  C   UNL     1       1.713 -20.389  -2.910  1.00  0.00     0.200 A 
ATOM     94  F   UNL     1      -0.496 -21.224  -2.941  1.00  0.00    -0.200 F 
ATOM     95  F   UNL     1       2.197 -21.623  -3.108  1.00  0.00    -0.200 F 
ENDBRANCH  62  85
ENDBRANCH  36  37
ENDBRANCH  28  31
ENDBRANCH  26  27
ENDBRANCH  25  26
ENDBRANCH   1  25
TORSDOF 15
