REMARK SMILES CCC[C@]1(C(=O)NCCCCNC(=O)c2ccc(-c3c4nc(c(-c5c(F)c(F)c(F)c(F)c5F)c5ccc([nH]5)c(-c5c(F)c(F)c(F)c(F)c5F)c5nc(c(-c6c(F)c(F)c(F)c(F)c6F)c6ccc3[nH]6)C=C5)C=C4)cc2)CCN(c2cncc(C(=O)OC)n2)C1
REMARK SMILES IDX 9 1 8 2 7 3 5 4 6 5 4 7 78 8 91 9 79 10 80 11 3 12 2 13 1 14
REMARK SMILES IDX 81 15 82 16 90 17 83 18 85 19 84 20 86 21 87 22 88 23 89 24
REMARK SMILES IDX 10 25 11 26 12 27 13 28 14 30 15 31 16 32 77 33 17 34 76 35
REMARK SMILES IDX 18 36 19 37 20 38 70 39 21 40 75 41 69 42 71 43 22 44 74 45
REMARK SMILES IDX 68 46 67 47 23 49 55 50 35 51 54 52 36 53 39 54 53 55 72 56
REMARK SMILES IDX 37 57 38 58 52 60 73 61 40 62 24 63 25 64 33 65 26 66 27 67
REMARK SMILES IDX 31 68 34 69 28 70 29 71 32 72 30 73 56 74 57 75 65 76 58 77
REMARK SMILES IDX 59 78 63 79 66 80 60 81 61 82 64 83 62 84 41 85 42 86 50 87
REMARK SMILES IDX 43 88 44 89 48 90 51 91 45 92 46 93 49 94 47 95
REMARK H PARENT 7 6 12 29 71 48 39 59
REMARK Flexibility Score: inf
ROOT
ATOM      1  C   UNL     1      -0.763  -1.972   6.256  1.00  0.00     0.023 C 
ENDROOT
BRANCH   1   2
ATOM      2  C   UNL     1      -0.024  -1.133   5.223  1.00  0.00     0.116 C 
BRANCH   2   3
ATOM      3  N   UNL     1       1.086  -1.850   4.621  1.00  0.00    -0.356 N 
ATOM      4  C   UNL     1       1.418  -2.079   3.319  1.00  0.00     0.228 C 
ATOM      5  O   UNL     1       2.457  -2.723   3.141  1.00  0.00    -0.274 OA
ATOM      6  H   UNL     1       1.713  -2.242   5.271  1.00  0.00     0.163 HD
BRANCH   4   7
ATOM      7  C   UNL     1       0.549  -1.598   2.134  1.00  0.00     0.068 C 
ATOM      8  C   UNL     1      -0.849  -2.256   2.212  1.00  0.00     0.040 C 
ATOM      9  C   UNL     1       0.307  -0.079   2.240  1.00  0.00     0.135 C 
ATOM     10  C   UNL     1      -1.845  -1.161   1.861  1.00  0.00     0.119 C 
ATOM     11  N   UNL     1      -1.135   0.068   2.138  1.00  0.00    -0.354 N 
BRANCH   7  12
ATOM     12  C   UNL     1       1.259  -2.009   0.807  1.00  0.00     0.018 C 
BRANCH  12  13
ATOM     13  C   UNL     1       0.683  -1.540  -0.538  1.00  0.00    -0.002 C 
ATOM     14  C   UNL     1       1.075  -0.126  -0.945  1.00  0.00     0.004 C 
ENDBRANCH  12  13
ENDBRANCH   7  12
BRANCH  11  15
ATOM     15  C   UNL     1      -1.760   1.267   2.340  1.00  0.00     0.148 A 
ATOM     16  C   UNL     1      -2.798   1.386   3.276  1.00  0.00     0.157 A 
ATOM     17  N   UNL     1      -1.354   2.352   1.647  1.00  0.00    -0.221 NA
ATOM     18  N   UNL     1      -3.456   2.536   3.557  1.00  0.00    -0.258 NA
ATOM     19  C   UNL     1      -2.045   3.508   1.877  1.00  0.00     0.169 A 
ATOM     20  C   UNL     1      -3.058   3.597   2.822  1.00  0.00     0.147 A 
BRANCH  19  21
ATOM     21  C   UNL     1      -1.770   4.717   1.059  1.00  0.00     0.358 C 
ATOM     22  O   UNL     1      -2.324   5.788   1.251  1.00  0.00    -0.244 OA
BRANCH  21  23
ATOM     23  O   UNL     1      -0.877   4.458   0.069  1.00  0.00    -0.464 OA
ATOM     24  C   UNL     1      -0.648   5.571  -0.797  1.00  0.00     0.282 C 
ENDBRANCH  21  23
ENDBRANCH  19  21
ENDBRANCH  11  15
ENDBRANCH   4   7
ENDBRANCH   2   3
ENDBRANCH   1   2
BRANCH   1  25
ATOM     25  C   UNL     1       0.039  -2.276   7.518  1.00  0.00     0.023 C 
BRANCH  25  26
ATOM     26  C   UNL     1       0.626  -1.056   8.216  1.00  0.00     0.116 C 
BRANCH  26  27
ATOM     27  N   UNL     1      -0.380  -0.067   8.577  1.00  0.00    -0.352 N 
ATOM     28  C   UNL     1      -0.609   0.534   9.790  1.00  0.00     0.251 C 
ATOM     29  H   UNL     1      -0.982   0.209   7.848  1.00  0.00     0.163 HD
ATOM     30  O   UNL     1      -1.600   1.235   9.959  1.00  0.00    -0.269 OA
BRANCH  28  31
ATOM     31  C   UNL     1       0.332   0.302  10.904  1.00  0.00     0.039 A 
ATOM     32  C   UNL     1      -0.179  -0.017  12.163  1.00  0.00     0.014 A 
ATOM     33  C   UNL     1       1.713   0.367  10.697  1.00  0.00     0.014 A 
ATOM     34  C   UNL     1       0.699  -0.343  13.198  1.00  0.00     0.010 A 
ATOM     35  C   UNL     1       2.580  -0.047  11.701  1.00  0.00     0.010 A 
ATOM     36  C   UNL     1       2.083  -0.402  12.963  1.00  0.00    -0.014 A 
BRANCH  36  37
ATOM     37  C   UNL     1       3.021  -0.837  14.029  1.00  0.00     0.031 A 
ATOM     38  C   UNL     1       4.070   0.108  14.545  1.00  0.00     0.074 A 
ATOM     39  C   UNL     1       2.958  -2.099  14.495  1.00  0.00     0.049 A 
ATOM     40  N   UNL     1       4.998  -0.097  15.447  1.00  0.00    -0.248 NA
ATOM     41  C   UNL     1       4.101   1.454  13.951  1.00  0.00     0.031 C 
ATOM     42  C   UNL     1       2.020  -3.125  14.036  1.00  0.00     0.029 A 
ATOM     43  N   UNL     1       3.701  -2.737  15.458  1.00  0.00    -0.354 N 
ATOM     44  C   UNL     1       5.720   1.086  15.520  1.00  0.00     0.074 A 
ATOM     45  C   UNL     1       5.170   1.981  14.527  1.00  0.00     0.031 C 
ATOM     46  C   UNL     1       2.219  -4.250  14.740  1.00  0.00     0.029 A 
ATOM     47  C   UNL     1       3.325  -4.041  15.669  1.00  0.00     0.049 A 
ATOM     48  H   UNL     1       4.433  -2.300  15.950  1.00  0.00     0.167 HD
ATOM     49  C   UNL     1       6.732   1.408  16.361  1.00  0.00     0.037 A 
ATOM     50  C   UNL     1       3.821  -4.965  16.514  1.00  0.00     0.037 A 
ATOM     51  C   UNL     1       7.267   0.517  17.358  1.00  0.00     0.049 A 
ATOM     52  C   UNL     1       4.960  -4.588  17.424  1.00  0.00     0.074 A 
ATOM     53  C   UNL     1       8.257   0.764  18.293  1.00  0.00     0.029 A 
ATOM     54  N   UNL     1       6.860  -0.796  17.545  1.00  0.00    -0.354 N 
ATOM     55  N   UNL     1       5.585  -3.441  17.537  1.00  0.00    -0.248 NA
ATOM     56  C   UNL     1       5.455  -5.633  18.329  1.00  0.00     0.031 C 
ATOM     57  C   UNL     1       8.490  -0.417  19.005  1.00  0.00     0.029 A 
ATOM     58  C   UNL     1       7.598  -1.381  18.561  1.00  0.00     0.049 A 
ATOM     59  H   UNL     1       6.151  -1.246  17.031  1.00  0.00     0.167 HD
ATOM     60  C   UNL     1       6.524  -3.616  18.546  1.00  0.00     0.074 A 
ATOM     61  C   UNL     1       6.371  -4.974  19.024  1.00  0.00     0.031 C 
ATOM     62  C   UNL     1       7.431  -2.733  19.031  1.00  0.00     0.037 A 
BRANCH  49  63
ATOM     63  C   UNL     1       7.325   2.783  16.240  1.00  0.00     0.064 A 
ATOM     64  C   UNL     1       6.598   3.933  16.587  1.00  0.00     0.173 A 
ATOM     65  C   UNL     1       8.648   2.954  15.804  1.00  0.00     0.173 A 
ATOM     66  F   UNL     1       5.325   3.829  16.999  1.00  0.00    -0.203 F 
ATOM     67  C   UNL     1       7.160   5.202  16.470  1.00  0.00     0.198 A 
ATOM     68  C   UNL     1       9.219   4.221  15.723  1.00  0.00     0.198 A 
ATOM     69  F   UNL     1       9.391   1.890  15.465  1.00  0.00    -0.203 F 
ATOM     70  F   UNL     1       6.426   6.287  16.754  1.00  0.00    -0.200 F 
ATOM     71  C   UNL     1       8.473   5.344  16.046  1.00  0.00     0.200 A 
ATOM     72  F   UNL     1      10.492   4.356  15.328  1.00  0.00    -0.200 F 
ATOM     73  F   UNL     1       9.016   6.565  15.943  1.00  0.00    -0.200 F 
ENDBRANCH  49  63
BRANCH  50  74
ATOM     74  C   UNL     1       3.228  -6.329  16.560  1.00  0.00     0.064 A 
ATOM     75  C   UNL     1       2.530  -6.773  17.692  1.00  0.00     0.173 A 
ATOM     76  C   UNL     1       3.358  -7.219  15.485  1.00  0.00     0.173 A 
ATOM     77  F   UNL     1       2.394  -5.966  18.755  1.00  0.00    -0.203 F 
ATOM     78  C   UNL     1       2.008  -8.063  17.757  1.00  0.00     0.198 A 
ATOM     79  C   UNL     1       2.807  -8.498  15.537  1.00  0.00     0.198 A 
ATOM     80  F   UNL     1       4.011  -6.843  14.376  1.00  0.00    -0.203 F 
ATOM     81  F   UNL     1       1.393  -8.480  18.872  1.00  0.00    -0.200 F 
ATOM     82  C   UNL     1       2.142  -8.923  16.677  1.00  0.00     0.200 A 
ATOM     83  F   UNL     1       2.924  -9.319  14.485  1.00  0.00    -0.200 F 
ATOM     84  F   UNL     1       1.638 -10.163  16.738  1.00  0.00    -0.200 F 
ENDBRANCH  50  74
BRANCH  62  85
ATOM     85  C   UNL     1       8.302  -3.195  20.166  1.00  0.00     0.064 A 
ATOM     86  C   UNL     1       9.298  -4.166  19.987  1.00  0.00     0.173 A 
ATOM     87  C   UNL     1       8.153  -2.636  21.445  1.00  0.00     0.173 A 
ATOM     88  F   UNL     1       9.473  -4.742  18.788  1.00  0.00    -0.203 F 
ATOM     89  C   UNL     1      10.088  -4.587  21.055  1.00  0.00     0.198 A 
ATOM     90  C   UNL     1       8.969  -3.032  22.501  1.00  0.00     0.198 A 
ATOM     91  F   UNL     1       7.222  -1.697  21.670  1.00  0.00    -0.203 F 
ATOM     92  F   UNL     1      10.991  -5.560  20.874  1.00  0.00    -0.200 F 
ATOM     93  C   UNL     1       9.928  -4.015  22.308  1.00  0.00     0.200 A 
ATOM     94  F   UNL     1       8.825  -2.465  23.706  1.00  0.00    -0.200 F 
ATOM     95  F   UNL     1      10.693  -4.417  23.332  1.00  0.00    -0.200 F 
ENDBRANCH  62  85
ENDBRANCH  36  37
ENDBRANCH  28  31
ENDBRANCH  26  27
ENDBRANCH  25  26
ENDBRANCH   1  25
TORSDOF 16
