REMARK SMILES O=C(NCCCCNC(=O)c1ccc(-c2c3nc(c(-c4c(F)c(F)c(F)c(F)c4F)c4ccc([nH]4)c(-c4c(F)c(F)c(F)c(F)c4F)c4nc(c(-c5c(F)c(F)c(F)c(F)c5F)c5ccc2[nH]5)C=C4)C=C3)cc1)c1ccc(-c2ccsc2)cc1
REMARK SMILES IDX 6 1 5 2 4 3 3 4 1 5 2 6 74 8 75 9 84 10 76 11 83 12 77 13
REMARK SMILES IDX 78 14 79 15 82 16 80 17 81 18 7 19 8 20 9 21 10 23 11 24
REMARK SMILES IDX 12 25 73 26 13 27 72 28 14 29 15 30 16 31 66 32 17 33 71 34
REMARK SMILES IDX 65 35 67 36 18 37 70 38 64 39 63 40 19 42 51 43 31 44 50 45
REMARK SMILES IDX 32 46 35 47 49 48 68 49 33 50 34 51 48 53 69 54 36 55 20 56
REMARK SMILES IDX 21 57 29 58 22 59 23 60 27 61 30 62 24 63 25 64 28 65 26 66
REMARK SMILES IDX 52 67 53 68 61 69 54 70 55 71 59 72 62 73 56 74 57 75 60 76
REMARK SMILES IDX 58 77 37 78 38 79 46 80 39 81 40 82 44 83 47 84 41 85 42 86
REMARK SMILES IDX 45 87 43 88
REMARK H PARENT 3 7 8 22 67 41 35 52
REMARK Flexibility Score: inf
ROOT
ATOM      1  C   UNL     1       4.474   3.567  -1.280  1.00  0.00     0.023 C 
ENDROOT
BRANCH   1   2
ATOM      2  C   UNL     1       4.953   2.117  -1.344  1.00  0.00     0.023 C 
BRANCH   2   3
ATOM      3  C   UNL     1       4.590   1.254  -0.138  1.00  0.00     0.116 C 
BRANCH   3   4
ATOM      4  N   UNL     1       3.153   1.114   0.033  1.00  0.00    -0.352 N 
ATOM      5  O   UNL     1       1.160   0.051   0.006  1.00  0.00    -0.269 OA
ATOM      6  C   UNL     1       2.385  -0.023  -0.010  1.00  0.00     0.251 C 
ATOM      7  H   UNL     1       2.663   1.951   0.204  1.00  0.00     0.163 HD
BRANCH   6   8
ATOM      8  C   UNL     1       3.042  -1.341  -0.102  1.00  0.00     0.039 A 
ATOM      9  C   UNL     1       3.984  -1.736   0.852  1.00  0.00     0.014 A 
ATOM     10  C   UNL     1       2.713  -2.185  -1.165  1.00  0.00     0.014 A 
ATOM     11  C   UNL     1       4.663  -2.945   0.693  1.00  0.00     0.009 A 
ATOM     12  C   UNL     1       3.389  -3.398  -1.317  1.00  0.00     0.009 A 
ATOM     13  C   UNL     1       4.382  -3.776  -0.401  1.00  0.00    -0.018 A 
BRANCH  13  14
ATOM     14  C   UNL     1       5.141  -5.003  -0.612  1.00  0.00    -0.008 A 
ATOM     15  C   UNL     1       5.735  -5.446  -1.837  1.00  0.00     0.020 A 
ATOM     16  C   UNL     1       5.381  -5.902   0.410  1.00  0.00     0.073 A 
ATOM     17  C   UNL     1       6.407  -6.640  -1.697  1.00  0.00     0.065 A 
ATOM     18  S   UNL     1       6.316  -7.242  -0.100  1.00  0.00    -0.152 S 
ENDBRANCH  13  14
ENDBRANCH   6   8
ENDBRANCH   3   4
ENDBRANCH   2   3
ENDBRANCH   1   2
BRANCH   1  19
ATOM     19  C   UNL     1       4.851   4.332  -0.015  1.00  0.00     0.116 C 
BRANCH  19  20
ATOM     20  N   UNL     1       6.286   4.399   0.214  1.00  0.00    -0.352 N 
ATOM     21  C   UNL     1       7.072   5.483   0.526  1.00  0.00     0.251 C 
ATOM     22  H   UNL     1       6.764   3.543   0.132  1.00  0.00     0.163 HD
ATOM     23  O   UNL     1       8.292   5.362   0.582  1.00  0.00    -0.269 OA
BRANCH  21  24
ATOM     24  C   UNL     1       6.454   6.807   0.757  1.00  0.00     0.039 A 
ATOM     25  C   UNL     1       7.016   7.926   0.135  1.00  0.00     0.014 A 
ATOM     26  C   UNL     1       5.323   6.948   1.565  1.00  0.00     0.014 A 
ATOM     27  C   UNL     1       6.396   9.172   0.258  1.00  0.00     0.010 A 
ATOM     28  C   UNL     1       4.668   8.175   1.630  1.00  0.00     0.010 A 
ATOM     29  C   UNL     1       5.193   9.297   0.971  1.00  0.00    -0.014 A 
BRANCH  29  30
ATOM     30  C   UNL     1       4.460  10.588   1.025  1.00  0.00     0.031 A 
ATOM     31  C   UNL     1       4.278  11.301   2.335  1.00  0.00     0.074 A 
ATOM     32  C   UNL     1       3.890  11.077  -0.093  1.00  0.00     0.049 A 
ATOM     33  N   UNL     1       3.596  12.387   2.599  1.00  0.00    -0.248 NA
ATOM     34  C   UNL     1       4.927  10.699   3.509  1.00  0.00     0.031 C 
ATOM     35  C   UNL     1       3.950  10.453  -1.416  1.00  0.00     0.029 A 
ATOM     36  N   UNL     1       3.133  12.205  -0.293  1.00  0.00    -0.354 N 
ATOM     37  C   UNL     1       3.716  12.586   3.967  1.00  0.00     0.074 A 
ATOM     38  C   UNL     1       4.500  11.485   4.487  1.00  0.00     0.031 C 
ATOM     39  C   UNL     1       3.276  11.214  -2.292  1.00  0.00     0.029 A 
ATOM     40  C   UNL     1       2.706  12.360  -1.589  1.00  0.00     0.049 A 
ATOM     41  H   UNL     1       2.918  12.843   0.425  1.00  0.00     0.167 HD
ATOM     42  C   UNL     1       3.235  13.604   4.719  1.00  0.00     0.037 A 
ATOM     43  C   UNL     1       1.936  13.314  -2.146  1.00  0.00     0.037 A 
ATOM     44  C   UNL     1       2.485  14.716   4.197  1.00  0.00     0.049 A 
ATOM     45  C   UNL     1       1.424  14.440  -1.291  1.00  0.00     0.074 A 
ATOM     46  C   UNL     1       2.011  15.830   4.868  1.00  0.00     0.029 A 
ATOM     47  N   UNL     1       2.097  14.852   2.872  1.00  0.00    -0.354 N 
ATOM     48  N   UNL     1       1.600  14.652  -0.010  1.00  0.00    -0.248 NA
ATOM     49  C   UNL     1       0.610  15.463  -1.962  1.00  0.00     0.031 C 
ATOM     50  C   UNL     1       1.306  16.623   3.956  1.00  0.00     0.029 A 
ATOM     51  C   UNL     1       1.376  16.025   2.709  1.00  0.00     0.049 A 
ATOM     52  H   UNL     1       2.304  14.212   2.154  1.00  0.00     0.167 HD
ATOM     53  C   UNL     1       0.945  15.842   0.274  1.00  0.00     0.074 A 
ATOM     54  C   UNL     1       0.376  16.313  -0.971  1.00  0.00     0.031 C 
ATOM     55  C   UNL     1       0.825  16.485   1.461  1.00  0.00     0.037 A 
BRANCH  42  56
ATOM     56  C   UNL     1       3.514  13.568   6.193  1.00  0.00     0.064 A 
ATOM     57  C   UNL     1       4.801  13.792   6.703  1.00  0.00     0.173 A 
ATOM     58  C   UNL     1       2.475  13.340   7.108  1.00  0.00     0.173 A 
ATOM     59  F   UNL     1       5.830  14.003   5.868  1.00  0.00    -0.203 F 
ATOM     60  C   UNL     1       5.044  13.762   8.073  1.00  0.00     0.198 A 
ATOM     61  C   UNL     1       2.717  13.338   8.480  1.00  0.00     0.198 A 
ATOM     62  F   UNL     1       1.224  13.125   6.673  1.00  0.00    -0.203 F 
ATOM     63  F   UNL     1       6.291  13.932   8.534  1.00  0.00    -0.200 F 
ATOM     64  C   UNL     1       4.002  13.541   8.960  1.00  0.00     0.200 A 
ATOM     65  F   UNL     1       1.706  13.136   9.337  1.00  0.00    -0.200 F 
ATOM     66  F   UNL     1       4.237  13.518  10.280  1.00  0.00    -0.200 F 
ENDBRANCH  42  56
BRANCH  43  67
ATOM     67  C   UNL     1       1.625  13.260  -3.597  1.00  0.00     0.064 A 
ATOM     68  C   UNL     1       2.200  14.178  -4.487  1.00  0.00     0.173 A 
ATOM     69  C   UNL     1       0.753  12.297  -4.123  1.00  0.00     0.173 A 
ATOM     70  F   UNL     1       3.024  15.130  -4.026  1.00  0.00    -0.203 F 
ATOM     71  C   UNL     1       1.901  14.145  -5.847  1.00  0.00     0.198 A 
ATOM     72  C   UNL     1       0.474  12.249  -5.488  1.00  0.00     0.198 A 
ATOM     73  F   UNL     1       0.181  11.395  -3.313  1.00  0.00    -0.203 F 
ATOM     74  F   UNL     1       2.433  15.059  -6.670  1.00  0.00    -0.200 F 
ATOM     75  C   UNL     1       1.043  13.177  -6.347  1.00  0.00     0.200 A 
ATOM     76  F   UNL     1      -0.346  11.306  -5.969  1.00  0.00    -0.200 F 
ATOM     77  F   UNL     1       0.758  13.143  -7.656  1.00  0.00    -0.200 F 
ENDBRANCH  43  67
BRANCH  55  78
ATOM     78  C   UNL     1       0.080  17.787   1.464  1.00  0.00     0.064 A 
ATOM     79  C   UNL     1      -1.316  17.835   1.342  1.00  0.00     0.173 A 
ATOM     80  C   UNL     1       0.769  18.998   1.633  1.00  0.00     0.173 A 
ATOM     81  F   UNL     1      -2.017  16.705   1.163  1.00  0.00    -0.203 F 
ATOM     82  C   UNL     1      -1.994  19.050   1.368  1.00  0.00     0.198 A 
ATOM     83  C   UNL     1       0.085  20.209   1.684  1.00  0.00     0.198 A 
ATOM     84  F   UNL     1       2.104  19.004   1.759  1.00  0.00    -0.203 F 
ATOM     85  F   UNL     1      -3.325  19.077   1.208  1.00  0.00    -0.200 F 
ATOM     86  C   UNL     1      -1.295  20.235   1.546  1.00  0.00     0.200 A 
ATOM     87  F   UNL     1       0.761  21.351   1.867  1.00  0.00    -0.200 F 
ATOM     88  F   UNL     1      -1.950  21.403   1.577  1.00  0.00    -0.200 F 
ENDBRANCH  55  78
ENDBRANCH  29  30
ENDBRANCH  21  24
ENDBRANCH  19  20
ENDBRANCH   1  19
TORSDOF 12
