REMARK SMILES O=C(NCCCCNC(=O)c1cc(OC[C@@H]2Cc3cc(F)ccc3O2)cs1)c1ccc(-c2c3nc(c(-c4c(F)c(F)c(F)c(F)c4F)c4ccc([nH]4)c(-c4c(F)c(F)c(F)c(F)c4F)c4nc(c(-c5c(F)c(F)c(F)c(F)c5F)c5ccc2[nH]5)C=C4)C=C3)cc1
REMARK SMILES IDX 6 1 5 2 4 3 3 4 1 5 2 6 28 8 29 9 90 10 30 11 89 12 31 13
REMARK SMILES IDX 32 14 33 15 83 16 34 17 88 18 82 19 84 20 35 21 87 22 81 23
REMARK SMILES IDX 80 24 36 26 68 27 48 28 67 29 49 30 52 31 66 32 85 33 50 34
REMARK SMILES IDX 51 35 65 37 86 38 53 39 37 40 38 41 46 42 39 43 40 44 44 45
REMARK SMILES IDX 47 46 41 47 42 48 45 49 43 50 69 51 70 52 78 53 71 54 72 55
REMARK SMILES IDX 76 56 79 57 73 58 74 59 77 60 75 61 54 62 55 63 63 64 56 65
REMARK SMILES IDX 57 66 61 67 64 68 58 69 59 70 62 71 60 72 7 73 8 74 9 75
REMARK SMILES IDX 10 77 11 78 12 79 27 80 13 81 26 82 14 83 15 84 16 85 17 86
REMARK SMILES IDX 25 87 18 88 24 89 19 90 23 91 20 92 22 93 21 94
REMARK H PARENT 3 7 84 25 52 36 8 76
REMARK Flexibility Score: inf
ROOT
ATOM      1  C   UNL     1       4.460  -3.876  -1.708  1.00  0.00     0.023 C 
ENDROOT
BRANCH   1   2
ATOM      2  C   UNL     1       4.930  -2.888  -0.636  1.00  0.00     0.023 C 
BRANCH   2   3
ATOM      3  C   UNL     1       4.590  -1.418  -0.860  1.00  0.00     0.116 C 
BRANCH   3   4
ATOM      4  N   UNL     1       3.168  -1.127  -0.833  1.00  0.00    -0.352 N 
ATOM      5  O   UNL     1       1.188  -0.346  -0.126  1.00  0.00    -0.269 OA
ATOM      6  C   UNL     1       2.410  -0.364   0.022  1.00  0.00     0.251 C 
ATOM      7  H   UNL     1       2.655  -1.554  -1.557  1.00  0.00     0.163 HD
BRANCH   6   8
ATOM      8  C   UNL     1       3.006   0.417   1.137  1.00  0.00     0.039 A 
ATOM      9  C   UNL     1       2.300   0.480   2.345  1.00  0.00     0.014 A 
ATOM     10  C   UNL     1       4.189   1.149   1.004  1.00  0.00     0.014 A 
ATOM     11  C   UNL     1       2.795   1.230   3.418  1.00  0.00     0.010 A 
ATOM     12  C   UNL     1       4.724   1.833   2.102  1.00  0.00     0.010 A 
ATOM     13  C   UNL     1       4.025   1.898   3.317  1.00  0.00    -0.014 A 
BRANCH  13  14
ATOM     14  C   UNL     1       4.547   2.701   4.458  1.00  0.00     0.031 A 
ATOM     15  C   UNL     1       4.679   4.197   4.344  1.00  0.00     0.074 A 
ATOM     16  C   UNL     1       4.904   2.095   5.608  1.00  0.00     0.049 A 
ATOM     17  N   UNL     1       5.075   5.065   5.243  1.00  0.00    -0.248 NA
ATOM     18  C   UNL     1       4.339   4.798   3.045  1.00  0.00     0.031 C 
ATOM     19  C   UNL     1       4.865   0.653   5.848  1.00  0.00     0.029 A 
ATOM     20  N   UNL     1       5.360   2.618   6.795  1.00  0.00    -0.354 N 
ATOM     21  C   UNL     1       5.037   6.304   4.617  1.00  0.00     0.074 A 
ATOM     22  C   UNL     1       4.639   6.072   3.246  1.00  0.00     0.031 C 
ATOM     23  C   UNL     1       5.238   0.409   7.115  1.00  0.00     0.029 A 
ATOM     24  C   UNL     1       5.569   1.673   7.771  1.00  0.00     0.049 A 
ATOM     25  H   UNL     1       5.522   3.579   6.934  1.00  0.00     0.167 HD
ATOM     26  C   UNL     1       5.276   7.529   5.143  1.00  0.00     0.037 A 
ATOM     27  C   UNL     1       5.970   1.807   9.050  1.00  0.00     0.037 A 
ATOM     28  C   UNL     1       5.631   7.774   6.514  1.00  0.00     0.049 A 
ATOM     29  C   UNL     1       6.258   3.175   9.606  1.00  0.00     0.074 A 
ATOM     30  C   UNL     1       5.804   8.989   7.155  1.00  0.00     0.029 A 
ATOM     31  N   UNL     1       5.873   6.786   7.455  1.00  0.00    -0.354 N 
ATOM     32  N   UNL     1       6.138   4.343   9.025  1.00  0.00    -0.248 NA
ATOM     33  C   UNL     1       6.741   3.243  10.994  1.00  0.00     0.031 C 
ATOM     34  C   UNL     1       6.193   8.736   8.473  1.00  0.00     0.029 A 
ATOM     35  C   UNL     1       6.228   7.364   8.664  1.00  0.00     0.049 A 
ATOM     36  H   UNL     1       5.803   5.818   7.290  1.00  0.00     0.167 HD
ATOM     37  C   UNL     1       6.516   5.283   9.975  1.00  0.00     0.074 A 
ATOM     38  C   UNL     1       6.858   4.552  11.177  1.00  0.00     0.031 C 
ATOM     39  C   UNL     1       6.574   6.631   9.854  1.00  0.00     0.037 A 
BRANCH  26  40
ATOM     40  C   UNL     1       5.138   8.713   4.231  1.00  0.00     0.064 A 
ATOM     41  C   UNL     1       3.880   9.151   3.789  1.00  0.00     0.173 A 
ATOM     42  C   UNL     1       6.267   9.442   3.831  1.00  0.00     0.173 A 
ATOM     43  F   UNL     1       2.771   8.482   4.139  1.00  0.00    -0.203 F 
ATOM     44  C   UNL     1       3.761  10.259   2.955  1.00  0.00     0.198 A 
ATOM     45  C   UNL     1       6.141  10.567   3.020  1.00  0.00     0.198 A 
ATOM     46  F   UNL     1       7.491   9.071   4.236  1.00  0.00    -0.203 F 
ATOM     47  F   UNL     1       2.553  10.633   2.509  1.00  0.00    -0.200 F 
ATOM     48  C   UNL     1       4.890  10.969   2.576  1.00  0.00     0.200 A 
ATOM     49  F   UNL     1       7.231  11.261   2.665  1.00  0.00    -0.200 F 
ATOM     50  F   UNL     1       4.772  12.040   1.779  1.00  0.00    -0.200 F 
ENDBRANCH  26  40
BRANCH  27  51
ATOM     51  C   UNL     1       6.080   0.601   9.910  1.00  0.00     0.064 A 
ATOM     52  C   UNL     1       5.135   0.352  10.915  1.00  0.00     0.173 A 
ATOM     53  C   UNL     1       7.105  -0.338   9.728  1.00  0.00     0.173 A 
ATOM     54  F   UNL     1       4.150   1.234  11.140  1.00  0.00    -0.203 F 
ATOM     55  C   UNL     1       5.210  -0.793  11.705  1.00  0.00     0.198 A 
ATOM     56  C   UNL     1       7.168  -1.492  10.506  1.00  0.00     0.198 A 
ATOM     57  F   UNL     1       8.033  -0.143   8.780  1.00  0.00    -0.203 F 
ATOM     58  F   UNL     1       4.307  -0.998  12.673  1.00  0.00    -0.200 F 
ATOM     59  C   UNL     1       6.222  -1.718  11.495  1.00  0.00     0.200 A 
ATOM     60  F   UNL     1       8.141  -2.389  10.293  1.00  0.00    -0.200 F 
ATOM     61  F   UNL     1       6.286  -2.826  12.246  1.00  0.00    -0.200 F 
ENDBRANCH  27  51
BRANCH  39  62
ATOM     62  C   UNL     1       7.034   7.425  11.040  1.00  0.00     0.064 A 
ATOM     63  C   UNL     1       8.391   7.489  11.385  1.00  0.00     0.173 A 
ATOM     64  C   UNL     1       6.130   8.213  11.768  1.00  0.00     0.173 A 
ATOM     65  F   UNL     1       9.291   6.744  10.726  1.00  0.00    -0.203 F 
ATOM     66  C   UNL     1       8.828   8.319  12.414  1.00  0.00     0.198 A 
ATOM     67  C   UNL     1       6.573   9.058  12.782  1.00  0.00     0.198 A 
ATOM     68  F   UNL     1       4.822   8.190  11.471  1.00  0.00    -0.203 F 
ATOM     69  F   UNL     1      10.128   8.358  12.735  1.00  0.00    -0.200 F 
ATOM     70  C   UNL     1       7.921   9.112  13.103  1.00  0.00     0.200 A 
ATOM     71  F   UNL     1       5.698   9.833  13.437  1.00  0.00    -0.200 F 
ATOM     72  F   UNL     1       8.347   9.930  14.075  1.00  0.00    -0.200 F 
ENDBRANCH  39  62
ENDBRANCH  13  14
ENDBRANCH   6   8
ENDBRANCH   3   4
ENDBRANCH   2   3
ENDBRANCH   1   2
BRANCH   1  73
ATOM     73  C   UNL     1       4.908  -3.597  -3.141  1.00  0.00     0.116 C 
BRANCH  73  74
ATOM     74  N   UNL     1       6.350  -3.568  -3.336  1.00  0.00    -0.351 N 
ATOM     75  C   UNL     1       7.020  -3.592  -4.546  1.00  0.00     0.261 C 
ATOM     76  H   UNL     1       6.905  -3.528  -2.524  1.00  0.00     0.163 HD
ATOM     77  O   UNL     1       8.232  -3.367  -4.552  1.00  0.00    -0.268 OA
BRANCH  75  78
ATOM     78  C   UNL     1       6.238  -3.807  -5.740  1.00  0.00     0.096 A 
ATOM     79  C   UNL     1       5.745  -2.860  -6.615  1.00  0.00     0.072 A 
ATOM     80  S   UNL     1       5.802  -5.388  -6.221  1.00  0.00    -0.135 S 
ATOM     81  C   UNL     1       4.696  -3.397  -7.414  1.00  0.00     0.131 A 
ATOM     82  C   UNL     1       4.692  -4.774  -7.376  1.00  0.00     0.112 A 
BRANCH  81  83
ATOM     83  O   UNL     1       3.759  -2.750  -8.156  1.00  0.00    -0.489 OA
BRANCH  83  84
ATOM     84  C   UNL     1       3.549  -1.358  -7.853  1.00  0.00     0.275 C 
BRANCH  84  85
ATOM     85  C   UNL     1       2.825  -1.110  -6.504  1.00  0.00     0.215 C 
ATOM     86  C   UNL     1       2.278   0.327  -6.351  1.00  0.00     0.088 C 
ATOM     87  O   UNL     1       3.754  -1.332  -5.410  1.00  0.00    -0.486 OA
ATOM     88  C   UNL     1       3.317   0.919  -5.473  1.00  0.00     0.001 A 
ATOM     89  C   UNL     1       4.147  -0.084  -5.015  1.00  0.00     0.123 A 
ATOM     90  C   UNL     1       3.507   2.223  -5.053  1.00  0.00     0.047 A 
ATOM     91  C   UNL     1       5.244   0.166  -4.213  1.00  0.00     0.050 A 
ATOM     92  C   UNL     1       4.584   2.486  -4.202  1.00  0.00     0.123 A 
ATOM     93  C   UNL     1       5.463   1.476  -3.797  1.00  0.00     0.043 A 
ATOM     94  F   UNL     1       4.784   3.734  -3.759  1.00  0.00    -0.207 F 
ENDBRANCH  84  85
ENDBRANCH  83  84
ENDBRANCH  81  83
ENDBRANCH  75  78
ENDBRANCH  73  74
ENDBRANCH   1  73
TORSDOF 14
