REMARK SMILES O=C(NCCCCNC(=O)[C@@H]1CCCC[C@@H]1Sc1ccncc1)c1ccc(-c2c3nc(c(-c4c(F)c(F)c(F)c(F)c4F)c4ccc([nH]4)c(-c4c(F)c(F)c(F)c(F)c4F)c4nc(c(-c5c(F)c(F)c(F)c(F)c5F)c5ccc2[nH]5)C=C4)C=C3)cc1
REMARK SMILES IDX 5 1 4 2 3 3 1 4 2 5 24 7 25 8 86 9 26 10 85 11 27 12 28 13
REMARK SMILES IDX 29 14 79 15 30 16 84 17 78 18 80 19 31 20 83 21 77 22 76 23
REMARK SMILES IDX 32 25 64 26 44 27 63 28 45 29 48 30 62 31 81 32 46 33 47 34
REMARK SMILES IDX 61 36 82 37 49 38 33 39 34 40 42 41 35 42 36 43 40 44 43 45
REMARK SMILES IDX 37 46 38 47 41 48 39 49 65 50 66 51 74 52 67 53 68 54 72 55
REMARK SMILES IDX 75 56 69 57 70 58 73 59 71 60 50 61 51 62 59 63 52 64 53 65
REMARK SMILES IDX 57 66 60 67 54 68 55 69 58 70 56 71 6 72 7 73 8 74 9 75
REMARK SMILES IDX 10 77 11 78 12 79 16 80 13 81 15 82 14 83 17 84 18 85 19 86
REMARK SMILES IDX 23 87 20 88 22 89 21 90
REMARK H PARENT 3 6 80 24 48 35 8 76
REMARK Flexibility Score: inf
ROOT
ATOM      1  C   UNL     1       4.807  -0.811   2.454  1.00  0.00     0.023 C 
ENDROOT
BRANCH   1   2
ATOM      2  C   UNL     1       4.484  -0.902   0.967  1.00  0.00     0.116 C 
BRANCH   2   3
ATOM      3  N   UNL     1       3.054  -0.966   0.710  1.00  0.00    -0.352 N 
ATOM      4  O   UNL     1       1.043  -0.248  -0.009  1.00  0.00    -0.269 OA
ATOM      5  C   UNL     1       2.266  -0.135  -0.044  1.00  0.00     0.251 C 
ATOM      6  H   UNL     1       2.583  -1.716   1.140  1.00  0.00     0.163 HD
BRANCH   5   7
ATOM      7  C   UNL     1       2.884   0.915  -0.879  1.00  0.00     0.039 A 
ATOM      8  C   UNL     1       3.984   0.632  -1.695  1.00  0.00     0.014 A 
ATOM      9  C   UNL     1       2.337   2.200  -0.855  1.00  0.00     0.014 A 
ATOM     10  C   UNL     1       4.613   1.660  -2.391  1.00  0.00     0.010 A 
ATOM     11  C   UNL     1       2.925   3.215  -1.612  1.00  0.00     0.010 A 
ATOM     12  C   UNL     1       4.083   2.959  -2.365  1.00  0.00    -0.014 A 
BRANCH  12  13
ATOM     13  C   UNL     1       4.709   4.044  -3.159  1.00  0.00     0.031 A 
ATOM     14  C   UNL     1       5.316   5.236  -2.478  1.00  0.00     0.074 A 
ATOM     15  C   UNL     1       4.686   3.972  -4.502  1.00  0.00     0.049 A 
ATOM     16  N   UNL     1       5.804   6.332  -3.004  1.00  0.00    -0.248 NA
ATOM     17  C   UNL     1       5.371   5.197  -1.010  1.00  0.00     0.031 C 
ATOM     18  C   UNL     1       4.127   2.862  -5.274  1.00  0.00     0.029 A 
ATOM     19  N   UNL     1       5.125   4.856  -5.455  1.00  0.00    -0.354 N 
ATOM     20  C   UNL     1       6.199   7.122  -1.933  1.00  0.00     0.074 A 
ATOM     21  C   UNL     1       5.869   6.392  -0.727  1.00  0.00     0.031 C 
ATOM     22  C   UNL     1       4.255   3.129  -6.581  1.00  0.00     0.029 A 
ATOM     23  C   UNL     1       4.844   4.455  -6.738  1.00  0.00     0.049 A 
ATOM     24  H   UNL     1       5.594   5.694  -5.240  1.00  0.00     0.167 HD
ATOM     25  C   UNL     1       6.786   8.344  -1.959  1.00  0.00     0.037 A 
ATOM     26  C   UNL     1       5.003   5.099  -7.909  1.00  0.00     0.037 A 
ATOM     27  C   UNL     1       7.107   9.059  -3.168  1.00  0.00     0.049 A 
ATOM     28  C   UNL     1       5.606   6.475  -7.914  1.00  0.00     0.074 A 
ATOM     29  C   UNL     1       7.737  10.284  -3.306  1.00  0.00     0.029 A 
ATOM     30  N   UNL     1       6.806   8.620  -4.451  1.00  0.00    -0.354 N 
ATOM     31  N   UNL     1       6.010   7.201  -6.901  1.00  0.00    -0.248 NA
ATOM     32  C   UNL     1       5.778   7.120  -9.222  1.00  0.00     0.031 C 
ATOM     33  C   UNL     1       7.755  10.617  -4.664  1.00  0.00     0.029 A 
ATOM     34  C   UNL     1       7.207   9.566  -5.382  1.00  0.00     0.049 A 
ATOM     35  H   UNL     1       6.372   7.764  -4.668  1.00  0.00     0.167 HD
ATOM     36  C   UNL     1       6.515   8.373  -7.447  1.00  0.00     0.074 A 
ATOM     37  C   UNL     1       6.363   8.261  -8.883  1.00  0.00     0.031 C 
ATOM     38  C   UNL     1       7.063   9.438  -6.812  1.00  0.00     0.037 A 
BRANCH  25  39
ATOM     39  C   UNL     1       7.077   9.002  -0.639  1.00  0.00     0.064 A 
ATOM     40  C   UNL     1       8.040   8.497   0.250  1.00  0.00     0.173 A 
ATOM     41  C   UNL     1       6.386  10.164  -0.259  1.00  0.00     0.173 A 
ATOM     42  F   UNL     1       8.727   7.386  -0.058  1.00  0.00    -0.203 F 
ATOM     43  C   UNL     1       8.263   9.100   1.486  1.00  0.00     0.198 A 
ATOM     44  C   UNL     1       6.639  10.786   0.961  1.00  0.00     0.198 A 
ATOM     45  F   UNL     1       5.463  10.699  -1.072  1.00  0.00    -0.203 F 
ATOM     46  F   UNL     1       9.137   8.558   2.345  1.00  0.00    -0.200 F 
ATOM     47  C   UNL     1       7.566  10.246   1.839  1.00  0.00     0.200 A 
ATOM     48  F   UNL     1       5.976  11.903   1.292  1.00  0.00    -0.200 F 
ATOM     49  F   UNL     1       7.780  10.823   3.029  1.00  0.00    -0.200 F 
ENDBRANCH  25  39
BRANCH  26  50
ATOM     50  C   UNL     1       4.566   4.435  -9.163  1.00  0.00     0.064 A 
ATOM     51  C   UNL     1       5.500   3.964 -10.094  1.00  0.00     0.173 A 
ATOM     52  C   UNL     1       3.206   4.209  -9.428  1.00  0.00     0.173 A 
ATOM     53  F   UNL     1       6.810   4.170  -9.891  1.00  0.00    -0.203 F 
ATOM     54  C   UNL     1       5.091   3.294 -11.245  1.00  0.00     0.198 A 
ATOM     55  C   UNL     1       2.801   3.513 -10.564  1.00  0.00     0.198 A 
ATOM     56  F   UNL     1       2.274   4.632  -8.562  1.00  0.00    -0.203 F 
ATOM     57  F   UNL     1       6.003   2.876 -12.133  1.00  0.00    -0.200 F 
ATOM     58  C   UNL     1       3.743   3.060 -11.474  1.00  0.00     0.200 A 
ATOM     59  F   UNL     1       1.499   3.271 -10.770  1.00  0.00    -0.200 F 
ATOM     60  F   UNL     1       3.353   2.398 -12.571  1.00  0.00    -0.200 F 
ENDBRANCH  26  50
BRANCH  38  61
ATOM     61  C   UNL     1       7.599  10.555  -7.661  1.00  0.00     0.064 A 
ATOM     62  C   UNL     1       6.756  11.445  -8.340  1.00  0.00     0.173 A 
ATOM     63  C   UNL     1       8.984  10.781  -7.728  1.00  0.00     0.173 A 
ATOM     64  F   UNL     1       5.427  11.263  -8.322  1.00  0.00    -0.203 F 
ATOM     65  C   UNL     1       7.279  12.516  -9.061  1.00  0.00     0.198 A 
ATOM     66  C   UNL     1       9.501  11.869  -8.424  1.00  0.00     0.198 A 
ATOM     67  F   UNL     1       9.834   9.959  -7.094  1.00  0.00    -0.203 F 
ATOM     68  F   UNL     1       6.457  13.337  -9.729  1.00  0.00    -0.200 F 
ATOM     69  C   UNL     1       8.649  12.734  -9.092  1.00  0.00     0.200 A 
ATOM     70  F   UNL     1      10.823  12.086  -8.438  1.00  0.00    -0.200 F 
ATOM     71  F   UNL     1       9.148  13.778  -9.768  1.00  0.00    -0.200 F 
ENDBRANCH  38  61
ENDBRANCH  12  13
ENDBRANCH   5   7
ENDBRANCH   2   3
ENDBRANCH   1   2
BRANCH   1  72
ATOM     72  C   UNL     1       4.320  -1.992   3.299  1.00  0.00     0.023 C 
BRANCH  72  73
ATOM     73  C   UNL     1       4.754  -3.366   2.793  1.00  0.00     0.116 C 
BRANCH  73  74
ATOM     74  N   UNL     1       6.200  -3.482   2.750  1.00  0.00    -0.356 N 
ATOM     75  C   UNL     1       7.064  -4.268   3.448  1.00  0.00     0.224 C 
ATOM     76  H   UNL     1       6.633  -2.885   2.098  1.00  0.00     0.163 HD
ATOM     77  O   UNL     1       8.262  -4.029   3.301  1.00  0.00    -0.275 OA
BRANCH  75  78
ATOM     78  C   UNL     1       6.536  -5.351   4.384  1.00  0.00     0.092 C 
ATOM     79  C   UNL     1       6.700  -4.926   5.849  1.00  0.00     0.014 C 
ATOM     80  C   UNL     1       7.104  -6.765   4.096  1.00  0.00     0.064 C 
ATOM     81  C   UNL     1       6.056  -5.943   6.791  1.00  0.00     0.001 C 
ATOM     82  C   UNL     1       6.390  -7.752   5.044  1.00  0.00     0.015 C 
ATOM     83  C   UNL     1       6.521  -7.371   6.521  1.00  0.00     0.001 C 
BRANCH  80  84
ATOM     84  S   UNL     1       8.938  -6.877   4.304  1.00  0.00    -0.122 SA
BRANCH  84  85
ATOM     85  C   UNL     1       9.429  -8.435   3.586  1.00  0.00     0.011 A 
ATOM     86  C   UNL     1       8.589  -9.361   2.974  1.00  0.00     0.035 A 
ATOM     87  C   UNL     1      10.790  -8.741   3.677  1.00  0.00     0.035 A 
ATOM     88  C   UNL     1       9.130 -10.561   2.535  1.00  0.00     0.112 A 
ATOM     89  C   UNL     1      11.240  -9.958   3.195  1.00  0.00     0.112 A 
ATOM     90  N   UNL     1      10.436 -10.882   2.635  1.00  0.00    -0.265 NA
ENDBRANCH  84  85
ENDBRANCH  80  84
ENDBRANCH  75  78
ENDBRANCH  73  74
ENDBRANCH  72  73
ENDBRANCH   1  72
TORSDOF 13
