REMARK SMILES CC[C@H](C)[NH2+][C@H](CS)C(=O)NCCCCNC(=O)c1ccc(-c2c3nc(c(-c4c(F)c(F)c(F)c(F)c4F)c4ccc([nH]4)c(-c4c(F)c(F)c(F)c(F)c4F)c4nc(c(-c5c(F)c(F)c(F)c(F)c5F)c5ccc2[nH]5)C=C4)C=C3)cc1
REMARK SMILES IDX 13 1 12 2 11 3 9 4 10 5 6 7 5 8 3 11 4 12 2 13 1 14 7 15
REMARK SMILES IDX 8 16 14 18 15 19 16 20 17 21 18 23 19 24 20 25 81 26 21 27
REMARK SMILES IDX 80 28 22 29 23 30 24 31 74 32 25 33 79 34 73 35 75 36 26 37
REMARK SMILES IDX 78 38 72 39 71 40 27 42 59 43 39 44 58 45 40 46 43 47 57 48
REMARK SMILES IDX 76 49 41 50 42 51 56 53 77 54 44 55 28 56 29 57 37 58 30 59
REMARK SMILES IDX 31 60 35 61 38 62 32 63 33 64 36 65 34 66 60 67 61 68 69 69
REMARK SMILES IDX 62 70 63 71 67 72 70 73 64 74 65 75 68 76 66 77 45 78 46 79
REMARK SMILES IDX 54 80 47 81 48 82 52 83 55 84 49 85 50 86 53 87 51 88
REMARK H PARENT 11 6 5 9 5 10 8 17 16 22 75 41 43 52
REMARK Flexibility Score: inf
ROOT
ATOM      1  C   UNL     1      -2.808   2.009   4.658  1.00  0.00     0.023 C 
ENDROOT
BRANCH   1   2
ATOM      2  C   UNL     1      -1.955   3.231   4.327  1.00  0.00     0.116 C 
BRANCH   2   3
ATOM      3  N   UNL     1      -0.880   3.427   5.287  1.00  0.00    -0.351 N 
ATOM      4  C   UNL     1       0.475   3.358   5.086  1.00  0.00     0.279 C 
ATOM      5  O   UNL     1       1.219   3.627   6.033  1.00  0.00    -0.268 OA
ATOM      6  H   UNL     1      -1.163   3.637   6.206  1.00  0.00     0.163 HD
BRANCH   4   7
ATOM      7  C   UNL     1       1.042   2.985   3.691  1.00  0.00     0.282 C 
BRANCH   7   8
ATOM      8  N   UNL     1       0.563   4.038   2.759  1.00  0.00    -0.333 N 
ATOM      9  H   UNL     1      -0.440   4.143   2.914  1.00  0.00     0.347 HD
ATOM     10  H   UNL     1       1.141   4.848   2.983  1.00  0.00     0.347 HD
BRANCH   8  11
ATOM     11  C   UNL     1       0.760   3.847   1.323  1.00  0.00     0.179 C 
ATOM     12  C   UNL     1       0.181   5.097   0.644  1.00  0.00     0.075 C 
BRANCH  11  13
ATOM     13  C   UNL     1       2.227   3.595   0.943  1.00  0.00     0.061 C 
ATOM     14  C   UNL     1       2.433   3.395  -0.553  1.00  0.00     0.010 C 
ENDBRANCH  11  13
ENDBRANCH   8  11
ENDBRANCH   7   8
BRANCH   7  15
ATOM     15  C   UNL     1       0.668   1.516   3.388  1.00  0.00     0.141 C 
BRANCH  15  16
ATOM     16  S   UNL     1       2.070   0.363   3.593  1.00  0.00    -0.173 SA
ATOM     17  H   UNL     1       3.058   0.691   2.719  1.00  0.00     0.102 HD
ENDBRANCH  15  16
ENDBRANCH   7  15
ENDBRANCH   4   7
ENDBRANCH   2   3
ENDBRANCH   1   2
BRANCH   1  18
ATOM     18  C   UNL     1      -3.599   2.120   5.957  1.00  0.00     0.023 C 
BRANCH  18  19
ATOM     19  C   UNL     1      -4.520   3.328   6.039  1.00  0.00     0.116 C 
BRANCH  19  20
ATOM     20  N   UNL     1      -5.500   3.367   4.964  1.00  0.00    -0.352 N 
ATOM     21  C   UNL     1      -6.859   3.545   5.035  1.00  0.00     0.251 C 
ATOM     22  H   UNL     1      -5.137   3.249   4.056  1.00  0.00     0.163 HD
ATOM     23  O   UNL     1      -7.557   3.399   4.035  1.00  0.00    -0.269 OA
BRANCH  21  24
ATOM     24  C   UNL     1      -7.485   3.883   6.330  1.00  0.00     0.039 A 
ATOM     25  C   UNL     1      -8.642   3.205   6.717  1.00  0.00     0.014 A 
ATOM     26  C   UNL     1      -6.918   4.846   7.169  1.00  0.00     0.014 A 
ATOM     27  C   UNL     1      -9.193   3.446   7.976  1.00  0.00     0.010 A 
ATOM     28  C   UNL     1      -7.415   5.018   8.457  1.00  0.00     0.010 A 
ATOM     29  C   UNL     1      -8.561   4.325   8.872  1.00  0.00    -0.014 A 
BRANCH  29  30
ATOM     30  C   UNL     1      -9.090   4.531  10.244  1.00  0.00     0.031 A 
ATOM     31  C   UNL     1      -9.574   5.889  10.671  1.00  0.00     0.074 A 
ATOM     32  C   UNL     1      -9.090   3.507  11.119  1.00  0.00     0.049 A 
ATOM     33  N   UNL     1     -10.032   6.277  11.835  1.00  0.00    -0.248 NA
ATOM     34  C   UNL     1      -9.511   6.962   9.666  1.00  0.00     0.031 C 
ATOM     35  C   UNL     1      -8.598   2.156  10.841  1.00  0.00     0.029 A 
ATOM     36  N   UNL     1      -9.513   3.443  12.424  1.00  0.00    -0.354 N 
ATOM     37  C   UNL     1     -10.308   7.631  11.700  1.00  0.00     0.074 A 
ATOM     38  C   UNL     1      -9.899   8.016  10.367  1.00  0.00     0.031 C 
ATOM     39  C   UNL     1      -8.774   1.391  11.930  1.00  0.00     0.029 A 
ATOM     40  C   UNL     1      -9.351   2.204  12.995  1.00  0.00     0.049 A 
ATOM     41  H   UNL     1      -9.896   4.212  12.904  1.00  0.00     0.167 HD
ATOM     42  C   UNL     1     -10.881   8.472  12.595  1.00  0.00     0.037 A 
ATOM     43  C   UNL     1      -9.632   1.776  14.241  1.00  0.00     0.037 A 
ATOM     44  C   UNL     1     -11.295   8.084  13.917  1.00  0.00     0.049 A 
ATOM     45  C   UNL     1     -10.242   2.739  15.225  1.00  0.00     0.074 A 
ATOM     46  C   UNL     1     -11.917   8.850  14.887  1.00  0.00     0.029 A 
ATOM     47  N   UNL     1     -11.124   6.817  14.458  1.00  0.00    -0.354 N 
ATOM     48  N   UNL     1     -10.565   3.999  15.062  1.00  0.00    -0.248 NA
ATOM     49  C   UNL     1     -10.538   2.214  16.565  1.00  0.00     0.031 C 
ATOM     50  C   UNL     1     -12.076   8.062  16.032  1.00  0.00     0.029 A 
ATOM     51  C   UNL     1     -11.610   6.787  15.756  1.00  0.00     0.049 A 
ATOM     52  H   UNL     1     -10.717   6.053  13.989  1.00  0.00     0.167 HD
ATOM     53  C   UNL     1     -11.130   4.408  16.263  1.00  0.00     0.074 A 
ATOM     54  C   UNL     1     -11.125   3.255  17.138  1.00  0.00     0.031 C 
ATOM     55  C   UNL     1     -11.609   5.628  16.611  1.00  0.00     0.037 A 
BRANCH  42  56
ATOM     56  C   UNL     1     -11.102   9.895  12.166  1.00  0.00     0.064 A 
ATOM     57  C   UNL     1     -12.040  10.225  11.175  1.00  0.00     0.173 A 
ATOM     58  C   UNL     1     -10.397  10.944  12.775  1.00  0.00     0.173 A 
ATOM     59  F   UNL     1     -12.733   9.260  10.552  1.00  0.00    -0.203 F 
ATOM     60  C   UNL     1     -12.241  11.548  10.788  1.00  0.00     0.198 A 
ATOM     61  C   UNL     1     -10.626  12.269  12.410  1.00  0.00     0.198 A 
ATOM     62  F   UNL     1      -9.493  10.687  13.732  1.00  0.00    -0.203 F 
ATOM     63  F   UNL     1     -13.102  11.832   9.801  1.00  0.00    -0.200 F 
ATOM     64  C   UNL     1     -11.540  12.569  11.411  1.00  0.00     0.200 A 
ATOM     65  F   UNL     1      -9.959  13.256  13.024  1.00  0.00    -0.200 F 
ATOM     66  F   UNL     1     -11.741  13.842  11.044  1.00  0.00    -0.200 F 
ENDBRANCH  42  56
BRANCH  43  67
ATOM     67  C   UNL     1      -9.356   0.367  14.629  1.00  0.00     0.064 A 
ATOM     68  C   UNL     1     -10.403  -0.518  14.925  1.00  0.00     0.173 A 
ATOM     69  C   UNL     1      -8.045  -0.118  14.739  1.00  0.00     0.173 A 
ATOM     70  F   UNL     1     -11.675  -0.099  14.853  1.00  0.00    -0.203 F 
ATOM     71  C   UNL     1     -10.148  -1.821  15.349  1.00  0.00     0.198 A 
ATOM     72  C   UNL     1      -7.792  -1.431  15.130  1.00  0.00     0.198 A 
ATOM     73  F   UNL     1      -7.006   0.684  14.461  1.00  0.00    -0.203 F 
ATOM     74  F   UNL     1     -11.166  -2.625  15.685  1.00  0.00    -0.200 F 
ATOM     75  C   UNL     1      -8.843  -2.278  15.447  1.00  0.00     0.200 A 
ATOM     76  F   UNL     1      -6.529  -1.873  15.207  1.00  0.00    -0.200 F 
ATOM     77  F   UNL     1      -8.597  -3.530  15.857  1.00  0.00    -0.200 F 
ENDBRANCH  43  67
BRANCH  55  78
ATOM     78  C   UNL     1     -12.209   5.766  17.981  1.00  0.00     0.064 A 
ATOM     79  C   UNL     1     -11.424   5.716  19.142  1.00  0.00     0.173 A 
ATOM     80  C   UNL     1     -13.589   5.978  18.131  1.00  0.00     0.173 A 
ATOM     81  F   UNL     1     -10.102   5.502  19.056  1.00  0.00    -0.203 F 
ATOM     82  C   UNL     1     -12.002   5.839  20.403  1.00  0.00     0.198 A 
ATOM     83  C   UNL     1     -14.158   6.136  19.391  1.00  0.00     0.198 A 
ATOM     84  F   UNL     1     -14.385   6.043  17.053  1.00  0.00    -0.203 F 
ATOM     85  F   UNL     1     -11.240   5.728  21.501  1.00  0.00    -0.200 F 
ATOM     86  C   UNL     1     -13.366   6.056  20.526  1.00  0.00     0.200 A 
ATOM     87  F   UNL     1     -15.473   6.364  19.507  1.00  0.00    -0.200 F 
ATOM     88  F   UNL     1     -13.920   6.179  21.741  1.00  0.00    -0.200 F 
ENDBRANCH  55  78
ENDBRANCH  29  30
ENDBRANCH  21  24
ENDBRANCH  19  20
ENDBRANCH  18  19
ENDBRANCH   1  18
TORSDOF 16
