REMARK SMILES C[C@@H]1CCCN(c2cc(Br)ccc2/C=C/C(=O)NCCCCNC(=O)c2ccc(-c3c4nc(c(-c5c(F)c(F)c(F)c(F)c5F)c5ccc([nH]5)c(-c5c(F)c(F)c(F)c(F)c5F)c5nc(c(-c6c(F)c(F)c(F)c(F)c6F)c6ccc3[nH]6)C=C5)C=C4)cc2)C1
REMARK SMILES IDX 20 1 19 2 18 3 16 4 17 5 15 7 14 8 13 9 7 10 8 11 9 12 12 13
REMARK SMILES IDX 10 14 11 15 6 16 1 17 2 18 3 19 89 20 4 21 5 22 21 23 22 24
REMARK SMILES IDX 23 25 24 26 25 28 26 29 27 30 88 31 28 32 87 33 29 34 30 35
REMARK SMILES IDX 31 36 81 37 32 38 86 39 80 40 82 41 33 42 85 43 79 44 78 45
REMARK SMILES IDX 34 47 66 48 46 49 65 50 47 51 50 52 64 53 83 54 48 55 49 56
REMARK SMILES IDX 63 58 84 59 51 60 35 61 36 62 44 63 37 64 38 65 42 66 45 67
REMARK SMILES IDX 39 68 40 69 43 70 41 71 67 72 68 73 76 74 69 75 70 76 74 77
REMARK SMILES IDX 77 78 71 79 72 80 75 81 73 82 52 83 53 84 61 85 54 86 55 87
REMARK SMILES IDX 59 88 62 89 56 90 57 91 60 92 58 93
REMARK H PARENT 18 6 23 27 82 46 50 57
REMARK Flexibility Score: inf
ROOT
ATOM      1  C   UNL     1       0.403   2.530   3.762  1.00  0.00     0.023 C 
ENDROOT
BRANCH   1   2
ATOM      2  C   UNL     1      -0.329   3.654   3.029  1.00  0.00     0.116 C 
BRANCH   2   3
ATOM      3  N   UNL     1       0.336   4.923   3.233  1.00  0.00    -0.353 N 
ATOM      4  C   UNL     1       1.112   5.639   2.375  1.00  0.00     0.244 C 
ATOM      5  O   UNL     1       1.516   6.752   2.705  1.00  0.00    -0.270 OA
ATOM      6  H   UNL     1       0.207   5.328   4.121  1.00  0.00     0.163 HD
BRANCH   4   7
ATOM      7  C   UNL     1       1.395   5.139   1.010  1.00  0.00     0.072 C 
ATOM      8  C   UNL     1       1.842   3.907   0.719  1.00  0.00     0.016 C 
BRANCH   8   9
ATOM      9  C   UNL     1       2.161   3.440  -0.647  1.00  0.00    -0.002 A 
ATOM     10  C   UNL     1       1.894   2.106  -1.052  1.00  0.00     0.045 A 
ATOM     11  C   UNL     1       2.312   1.701  -2.332  1.00  0.00     0.042 A 
ATOM     12  C   UNL     1       2.977   2.580  -3.186  1.00  0.00     0.020 A 
ATOM     13  C   UNL     1       2.850   4.305  -1.519  1.00  0.00     0.011 A 
ATOM     14  Br  UNL     1       3.524   1.993  -4.897  1.00  0.00    -0.051 Br
ATOM     15  C   UNL     1       3.251   3.881  -2.785  1.00  0.00     0.016 A 
BRANCH  10  16
ATOM     16  N   UNL     1       1.242   1.190  -0.238  1.00  0.00    -0.371 N 
ATOM     17  C   UNL     1      -2.406   0.122  -0.042  1.00  0.00     0.009 C 
ATOM     18  C   UNL     1      -0.939   0.061  -0.468  1.00  0.00     0.005 C 
ATOM     19  C   UNL     1      -0.279  -1.213   0.081  1.00  0.00     0.007 C 
ATOM     20  C   UNL     1      -0.189   1.314   0.011  1.00  0.00     0.119 C 
ATOM     21  C   UNL     1       1.203  -1.259  -0.285  1.00  0.00     0.022 C 
ATOM     22  C   UNL     1       1.933  -0.014   0.208  1.00  0.00     0.116 C 
ENDBRANCH  10  16
ENDBRANCH   8   9
ENDBRANCH   4   7
ENDBRANCH   2   3
ENDBRANCH   1   2
BRANCH   1  23
ATOM     23  C   UNL     1       0.048   2.418   5.246  1.00  0.00     0.023 C 
BRANCH  23  24
ATOM     24  C   UNL     1      -1.418   2.103   5.530  1.00  0.00     0.116 C 
BRANCH  24  25
ATOM     25  N   UNL     1      -1.882   0.878   4.900  1.00  0.00    -0.352 N 
ATOM     26  C   UNL     1      -2.846   0.001   5.338  1.00  0.00     0.251 C 
ATOM     27  H   UNL     1      -1.448   0.645   4.047  1.00  0.00     0.163 HD
ATOM     28  O   UNL     1      -3.051  -1.045   4.738  1.00  0.00    -0.269 OA
BRANCH  26  29
ATOM     29  C   UNL     1      -3.601   0.314   6.570  1.00  0.00     0.039 A 
ATOM     30  C   UNL     1      -3.723  -0.674   7.550  1.00  0.00     0.014 A 
ATOM     31  C   UNL     1      -4.160   1.579   6.769  1.00  0.00     0.014 A 
ATOM     32  C   UNL     1      -4.353  -0.372   8.758  1.00  0.00     0.010 A 
ATOM     33  C   UNL     1      -4.723   1.900   8.001  1.00  0.00     0.010 A 
ATOM     34  C   UNL     1      -4.827   0.927   9.006  1.00  0.00    -0.014 A 
BRANCH  34  35
ATOM     35  C   UNL     1      -5.431   1.280  10.315  1.00  0.00     0.031 A 
ATOM     36  C   UNL     1      -6.879   1.674  10.399  1.00  0.00     0.074 A 
ATOM     37  C   UNL     1      -4.660   1.296  11.419  1.00  0.00     0.049 A 
ATOM     38  N   UNL     1      -7.578   2.038  11.445  1.00  0.00    -0.248 NA
ATOM     39  C   UNL     1      -7.636   1.688   9.138  1.00  0.00     0.031 C 
ATOM     40  C   UNL     1      -3.229   0.992  11.455  1.00  0.00     0.029 A 
ATOM     41  N   UNL     1      -4.971   1.583  12.725  1.00  0.00    -0.354 N 
ATOM     42  C   UNL     1      -8.848   2.332  10.966  1.00  0.00     0.074 A 
ATOM     43  C   UNL     1      -8.809   2.162   9.530  1.00  0.00     0.031 C 
ATOM     44  C   UNL     1      -2.792   1.082  12.722  1.00  0.00     0.029 A 
ATOM     45  C   UNL     1      -3.903   1.478  13.581  1.00  0.00     0.049 A 
ATOM     46  H   UNL     1      -5.875   1.841  13.019  1.00  0.00     0.167 HD
ATOM     47  C   UNL     1      -9.954   2.685  11.665  1.00  0.00     0.037 A 
ATOM     48  C   UNL     1      -3.830   1.677  14.911  1.00  0.00     0.037 A 
ATOM     49  C   UNL     1      -9.994   2.830  13.096  1.00  0.00     0.049 A 
ATOM     50  C   UNL     1      -5.075   2.059  15.664  1.00  0.00     0.074 A 
ATOM     51  C   UNL     1     -11.079   3.123  13.904  1.00  0.00     0.029 A 
ATOM     52  N   UNL     1      -8.897   2.693  13.934  1.00  0.00    -0.354 N 
ATOM     53  N   UNL     1      -6.290   2.255  15.211  1.00  0.00    -0.248 NA
ATOM     54  C   UNL     1      -4.941   2.237  17.116  1.00  0.00     0.031 C 
ATOM     55  C   UNL     1     -10.629   3.207  15.226  1.00  0.00     0.029 A 
ATOM     56  C   UNL     1      -9.275   2.916  15.248  1.00  0.00     0.049 A 
ATOM     57  H   UNL     1      -7.984   2.471  13.638  1.00  0.00     0.167 HD
ATOM     58  C   UNL     1      -7.069   2.550  16.322  1.00  0.00     0.074 A 
ATOM     59  C   UNL     1      -6.192   2.490  17.473  1.00  0.00     0.031 C 
ATOM     60  C   UNL     1      -8.390   2.846  16.383  1.00  0.00     0.037 A 
BRANCH  47  61
ATOM     61  C   UNL     1     -11.215   2.931  10.888  1.00  0.00     0.064 A 
ATOM     62  C   UNL     1     -11.908   1.883  10.261  1.00  0.00     0.173 A 
ATOM     63  C   UNL     1     -11.757   4.221  10.797  1.00  0.00     0.173 A 
ATOM     64  F   UNL     1     -11.425   0.632  10.307  1.00  0.00    -0.203 F 
ATOM     65  C   UNL     1     -13.079   2.124   9.548  1.00  0.00     0.198 A 
ATOM     66  C   UNL     1     -12.946   4.453  10.110  1.00  0.00     0.198 A 
ATOM     67  F   UNL     1     -11.139   5.258  11.382  1.00  0.00    -0.203 F 
ATOM     68  F   UNL     1     -13.695   1.115   8.915  1.00  0.00    -0.200 F 
ATOM     69  C   UNL     1     -13.601   3.406   9.479  1.00  0.00     0.200 A 
ATOM     70  F   UNL     1     -13.456   5.691  10.054  1.00  0.00    -0.200 F 
ATOM     71  F   UNL     1     -14.733   3.635   8.798  1.00  0.00    -0.200 F 
ENDBRANCH  47  61
BRANCH  48  72
ATOM     72  C   UNL     1      -2.540   1.482  15.622  1.00  0.00     0.064 A 
ATOM     73  C   UNL     1      -2.359   0.406  16.502  1.00  0.00     0.173 A 
ATOM     74  C   UNL     1      -1.466   2.367  15.444  1.00  0.00     0.173 A 
ATOM     75  F   UNL     1      -3.363  -0.456  16.720  1.00  0.00    -0.203 F 
ATOM     76  C   UNL     1      -1.163   0.235  17.195  1.00  0.00     0.198 A 
ATOM     77  C   UNL     1      -0.260   2.179  16.116  1.00  0.00     0.198 A 
ATOM     78  F   UNL     1      -1.586   3.409  14.609  1.00  0.00    -0.203 F 
ATOM     79  F   UNL     1      -1.034  -0.775  18.066  1.00  0.00    -0.200 F 
ATOM     80  C   UNL     1      -0.112   1.118  16.997  1.00  0.00     0.200 A 
ATOM     81  F   UNL     1       0.757   3.026  15.911  1.00  0.00    -0.200 F 
ATOM     82  F   UNL     1       1.039   0.952  17.662  1.00  0.00    -0.200 F 
ENDBRANCH  48  72
BRANCH  60  83
ATOM     83  C   UNL     1      -8.976   3.093  17.743  1.00  0.00     0.064 A 
ATOM     84  C   UNL     1      -8.683   4.256  18.471  1.00  0.00     0.173 A 
ATOM     85  C   UNL     1      -9.865   2.168  18.312  1.00  0.00     0.173 A 
ATOM     86  F   UNL     1      -7.826   5.163  17.978  1.00  0.00    -0.203 F 
ATOM     87  C   UNL     1      -9.236   4.469  19.731  1.00  0.00     0.198 A 
ATOM     88  C   UNL     1     -10.441   2.400  19.557  1.00  0.00     0.198 A 
ATOM     89  F   UNL     1     -10.184   1.044  17.653  1.00  0.00    -0.203 F 
ATOM     90  F   UNL     1      -8.901   5.562  20.431  1.00  0.00    -0.200 F 
ATOM     91  C   UNL     1     -10.119   3.545  20.270  1.00  0.00     0.200 A 
ATOM     92  F   UNL     1     -11.304   1.513  20.070  1.00  0.00    -0.200 F 
ATOM     93  F   UNL     1     -10.654   3.755  21.480  1.00  0.00    -0.200 F 
ENDBRANCH  60  83
ENDBRANCH  34  35
ENDBRANCH  26  29
ENDBRANCH  24  25
ENDBRANCH  23  24
ENDBRANCH   1  23
TORSDOF 13
