REMARK SMILES C[C@H]1[C@H](C(=O)NCCCCNC(=O)c2ccc(-c3c4nc(c(-c5c(F)c(F)c(F)c(F)c5F)c5ccc([nH]5)c(-c5c(F)c(F)c(F)c(F)c5F)c5nc(c(-c6c(F)c(F)c(F)c(F)c6F)c6ccc3[nH]6)C=C5)C=C4)cc2)CCN1C(=O)[C@H]1CC[C@@H](C[NH3+])CC1
REMARK SMILES IDX 7 1 6 2 4 3 5 4 3 6 1 7 2 8 79 9 77 10 78 11 80 12 81 13
REMARK SMILES IDX 82 14 89 15 83 16 88 17 84 18 85 19 86 20 87 21 8 25 9 26
REMARK SMILES IDX 10 27 11 28 12 29 13 31 14 32 15 33 76 34 16 35 75 36 17 37
REMARK SMILES IDX 18 38 19 39 69 40 20 41 74 42 68 43 70 44 21 45 73 46 67 47
REMARK SMILES IDX 66 48 22 50 54 51 34 52 53 53 35 54 38 55 52 56 71 57 36 58
REMARK SMILES IDX 37 59 51 61 72 62 39 63 23 64 24 65 32 66 25 67 26 68 30 69
REMARK SMILES IDX 33 70 27 71 28 72 31 73 29 74 55 75 56 76 64 77 57 78 58 79
REMARK SMILES IDX 62 80 65 81 59 82 60 83 63 84 61 85 40 86 41 87 49 88 42 89
REMARK SMILES IDX 43 90 47 91 50 92 44 93 45 94 48 95 46 96
REMARK H PARENT 6 5 87 22 87 23 87 24 11 30 70 49 38 60
REMARK Flexibility Score: inf
ROOT
ATOM      1  C   UNL     1      -0.855   0.545   2.957  1.00  0.00     0.116 C 
ENDROOT
BRANCH   1   2
ATOM      2  N   UNL     1      -0.483   1.829   2.404  1.00  0.00    -0.356 N 
ATOM      3  C   UNL     1      -0.164   2.195   1.138  1.00  0.00     0.225 C 
ATOM      4  O   UNL     1       0.196   3.365   0.973  1.00  0.00    -0.275 OA
ATOM      5  H   UNL     1      -0.457   2.563   3.059  1.00  0.00     0.163 HD
BRANCH   3   6
ATOM      6  C   UNL     1      -0.217   1.248  -0.050  1.00  0.00     0.102 C 
ATOM      7  C   UNL     1       1.733   0.350  -1.300  1.00  0.00     0.032 C 
ATOM      8  C   UNL     1       0.873   0.152  -0.042  1.00  0.00     0.094 C 
ATOM      9  N   UNL     1       0.135  -1.121  -0.077  1.00  0.00    -0.339 N 
ATOM     10  C   UNL     1      -1.552   0.538  -0.273  1.00  0.00     0.037 C 
ATOM     11  C   UNL     1      -1.185  -0.890  -0.644  1.00  0.00     0.120 C 
BRANCH   9  12
ATOM     12  C   UNL     1       0.477  -2.413   0.286  1.00  0.00     0.225 C 
ATOM     13  O   UNL     1      -0.310  -3.339   0.046  1.00  0.00    -0.275 OA
BRANCH  12  14
ATOM     14  C   UNL     1       1.765  -2.775   1.054  1.00  0.00     0.078 C 
ATOM     15  C   UNL     1       3.062  -2.568   0.278  1.00  0.00     0.014 C 
ATOM     16  C   UNL     1       1.782  -2.171   2.456  1.00  0.00     0.014 C 
ATOM     17  C   UNL     1       4.315  -2.835   1.115  1.00  0.00     0.010 C 
ATOM     18  C   UNL     1       3.072  -2.429   3.230  1.00  0.00     0.010 C 
ATOM     19  C   UNL     1       4.322  -2.034   2.430  1.00  0.00     0.044 C 
BRANCH  19  20
ATOM     20  C   UNL     1       4.452  -0.518   2.156  1.00  0.00     0.262 C 
BRANCH  20  21
ATOM     21  N   UNL     1       4.501   0.283   3.374  1.00  0.00    -0.357 N 
ATOM     22  H   UNL     1       3.633   0.163   3.896  1.00  0.00     0.344 HD
ATOM     23  H   UNL     1       4.618   1.267   3.129  1.00  0.00     0.344 HD
ATOM     24  H   UNL     1       5.288  -0.019   3.948  1.00  0.00     0.344 HD
ENDBRANCH  20  21
ENDBRANCH  19  20
ENDBRANCH  12  14
ENDBRANCH   9  12
ENDBRANCH   3   6
ENDBRANCH   1   2
BRANCH   1  25
ATOM     25  C   UNL     1       0.073   0.149   4.101  1.00  0.00     0.023 C 
BRANCH  25  26
ATOM     26  C   UNL     1      -0.066   0.948   5.385  1.00  0.00     0.023 C 
BRANCH  26  27
ATOM     27  C   UNL     1      -1.465   0.978   5.972  1.00  0.00     0.116 C 
BRANCH  27  28
ATOM     28  N   UNL     1      -2.015  -0.344   6.234  1.00  0.00    -0.352 N 
ATOM     29  C   UNL     1      -2.578  -0.839   7.389  1.00  0.00     0.251 C 
ATOM     30  H   UNL     1      -1.979  -0.974   5.478  1.00  0.00     0.163 HD
ATOM     31  O   UNL     1      -2.900  -2.016   7.470  1.00  0.00    -0.269 OA
BRANCH  29  32
ATOM     32  C   UNL     1      -2.747   0.060   8.548  1.00  0.00     0.039 A 
ATOM     33  C   UNL     1      -2.319  -0.370   9.806  1.00  0.00     0.014 A 
ATOM     34  C   UNL     1      -3.264   1.346   8.379  1.00  0.00     0.014 A 
ATOM     35  C   UNL     1      -2.325   0.526  10.876  1.00  0.00     0.010 A 
ATOM     36  C   UNL     1      -3.173   2.264   9.416  1.00  0.00     0.010 A 
ATOM     37  C   UNL     1      -2.704   1.863  10.676  1.00  0.00    -0.014 A 
BRANCH  37  38
ATOM     38  C   UNL     1      -2.627   2.864  11.769  1.00  0.00     0.031 A 
ATOM     39  C   UNL     1      -3.877   3.552  12.241  1.00  0.00     0.074 A 
ATOM     40  C   UNL     1      -1.428   3.213  12.275  1.00  0.00     0.049 A 
ATOM     41  N   UNL     1      -4.012   4.521  13.111  1.00  0.00    -0.248 NA
ATOM     42  C   UNL     1      -5.141   3.119  11.625  1.00  0.00     0.031 C 
ATOM     43  C   UNL     1      -0.137   2.663  11.856  1.00  0.00     0.029 A 
ATOM     44  N   UNL     1      -1.099   4.125  13.246  1.00  0.00    -0.354 N 
ATOM     45  C   UNL     1      -5.366   4.825  13.126  1.00  0.00     0.074 A 
ATOM     46  C   UNL     1      -6.003   3.983  12.138  1.00  0.00     0.031 C 
ATOM     47  C   UNL     1       0.840   3.229  12.583  1.00  0.00     0.029 A 
ATOM     48  C   UNL     1       0.250   4.206  13.492  1.00  0.00     0.049 A 
ATOM     49  H   UNL     1      -1.766   4.671  13.721  1.00  0.00     0.167 HD
ATOM     50  C   UNL     1      -6.024   5.708  13.913  1.00  0.00     0.037 A 
ATOM     51  C   UNL     1       0.932   4.985  14.353  1.00  0.00     0.037 A 
ATOM     52  C   UNL     1      -5.393   6.513  14.924  1.00  0.00     0.049 A 
ATOM     53  C   UNL     1       0.175   5.943  15.233  1.00  0.00     0.074 A 
ATOM     54  C   UNL     1      -5.980   7.383  15.825  1.00  0.00     0.029 A 
ATOM     55  N   UNL     1      -4.028   6.540  15.170  1.00  0.00    -0.354 N 
ATOM     56  N   UNL     1      -1.114   6.171  15.289  1.00  0.00    -0.248 NA
ATOM     57  C   UNL     1       0.968   6.746  16.173  1.00  0.00     0.031 C 
ATOM     58  C   UNL     1      -4.965   7.967  16.592  1.00  0.00     0.029 A 
ATOM     59  C   UNL     1      -3.752   7.427  16.198  1.00  0.00     0.049 A 
ATOM     60  H   UNL     1      -3.356   6.009  14.685  1.00  0.00     0.167 HD
ATOM     61  C   UNL     1      -1.290   7.121  16.285  1.00  0.00     0.074 A 
ATOM     62  C   UNL     1       0.024   7.417  16.817  1.00  0.00     0.031 C 
ATOM     63  C   UNL     1      -2.437   7.699  16.720  1.00  0.00     0.037 A 
BRANCH  50  64
ATOM     64  C   UNL     1      -7.506   5.838  13.719  1.00  0.00     0.064 A 
ATOM     65  C   UNL     1      -8.389   4.810  14.085  1.00  0.00     0.173 A 
ATOM     66  C   UNL     1      -8.055   7.013  13.183  1.00  0.00     0.173 A 
ATOM     67  F   UNL     1      -7.913   3.660  14.588  1.00  0.00    -0.203 F 
ATOM     68  C   UNL     1      -9.761   4.941  13.894  1.00  0.00     0.198 A 
ATOM     69  C   UNL     1      -9.431   7.152  13.022  1.00  0.00     0.198 A 
ATOM     70  F   UNL     1      -7.256   8.027  12.819  1.00  0.00    -0.203 F 
ATOM     71  F   UNL     1     -10.579   3.924  14.202  1.00  0.00    -0.200 F 
ATOM     72  C   UNL     1     -10.281   6.114  13.369  1.00  0.00     0.200 A 
ATOM     73  F   UNL     1      -9.933   8.291  12.525  1.00  0.00    -0.200 F 
ATOM     74  F   UNL     1     -11.604   6.241  13.190  1.00  0.00    -0.200 F 
ENDBRANCH  50  64
BRANCH  51  75
ATOM     75  C   UNL     1       2.411   4.868  14.450  1.00  0.00     0.064 A 
ATOM     76  C   UNL     1       3.012   4.304  15.584  1.00  0.00     0.173 A 
ATOM     77  C   UNL     1       3.250   5.318  13.422  1.00  0.00     0.173 A 
ATOM     78  F   UNL     1       2.251   3.878  16.603  1.00  0.00    -0.203 F 
ATOM     79  C   UNL     1       4.398   4.213  15.694  1.00  0.00     0.198 A 
ATOM     80  C   UNL     1       4.635   5.202  13.521  1.00  0.00     0.198 A 
ATOM     81  F   UNL     1       2.724   5.861  12.314  1.00  0.00    -0.203 F 
ATOM     82  F   UNL     1       4.947   3.710  16.808  1.00  0.00    -0.200 F 
ATOM     83  C   UNL     1       5.208   4.657  14.661  1.00  0.00     0.200 A 
ATOM     84  F   UNL     1       5.415   5.621  12.515  1.00  0.00    -0.200 F 
ATOM     85  F   UNL     1       6.541   4.567  14.766  1.00  0.00    -0.200 F 
ENDBRANCH  51  75
BRANCH  63  86
ATOM     86  C   UNL     1      -2.326   8.683  17.846  1.00  0.00     0.064 A 
ATOM     87  C   UNL     1      -1.786   9.963  17.654  1.00  0.00     0.173 A 
ATOM     88  C   UNL     1      -2.806   8.355  19.123  1.00  0.00     0.173 A 
ATOM     89  F   UNL     1      -1.301  10.317  16.454  1.00  0.00    -0.203 F 
ATOM     90  C   UNL     1      -1.711  10.871  18.705  1.00  0.00     0.198 A 
ATOM     91  C   UNL     1      -2.755   9.276  20.165  1.00  0.00     0.198 A 
ATOM     92  F   UNL     1      -3.338   7.146  19.357  1.00  0.00    -0.203 F 
ATOM     93  F   UNL     1      -1.151  12.073  18.510  1.00  0.00    -0.200 F 
ATOM     94  C   UNL     1      -2.201  10.530  19.957  1.00  0.00     0.200 A 
ATOM     95  F   UNL     1      -3.241   8.950  21.371  1.00  0.00    -0.200 F 
ATOM     96  F   UNL     1      -2.134  11.410  20.966  1.00  0.00    -0.200 F 
ENDBRANCH  63  86
ENDBRANCH  37  38
ENDBRANCH  29  32
ENDBRANCH  27  28
ENDBRANCH  26  27
ENDBRANCH  25  26
ENDBRANCH   1  25
TORSDOF 15
