REMARK SMILES C[C@](NC(=O)NCCC[NH3+])(C(=O)NCCCCNC(=O)c1ccc(-c2c3nc(c(-c4c(F)c(F)c(F)c(F)c4F)c4ccc([nH]4)c(-c4c(F)c(F)c(F)c(F)c4F)c4nc(c(-c5c(F)c(F)c(F)c(F)c5F)c5ccc2[nH]5)C=C4)C=C3)cc1)C(F)(F)F
REMARK SMILES IDX 14 1 13 2 11 3 12 4 2 6 1 7 84 8 85 9 86 10 87 11 3 12 4 13
REMARK SMILES IDX 5 15 6 16 7 18 8 19 9 20 10 21 15 25 16 26 17 27 18 28 19 29
REMARK SMILES IDX 20 31 21 32 22 33 83 34 23 35 82 36 24 37 25 38 26 39 76 40
REMARK SMILES IDX 27 41 81 42 75 43 77 44 28 45 80 46 74 47 73 48 29 50 61 51
REMARK SMILES IDX 41 52 60 53 42 54 45 55 59 56 78 57 43 58 44 59 58 61 79 62
REMARK SMILES IDX 46 63 30 64 31 65 39 66 32 67 33 68 37 69 40 70 34 71 35 72
REMARK SMILES IDX 38 73 36 74 62 75 63 76 71 77 64 78 65 79 69 80 72 81 66 82
REMARK SMILES IDX 67 83 70 84 68 85 47 86 48 87 56 88 49 89 50 90 54 91 57 92
REMARK SMILES IDX 51 93 52 94 55 95 53 96
REMARK H PARENT 13 5 3 14 6 17 10 22 10 23 10 24 18 30 77 49 45 60
REMARK Flexibility Score: inf
ROOT
ATOM      1  C   UNL     1      -1.008   0.037  -2.110  1.00  0.00     0.116 C 
ENDROOT
BRANCH   1   2
ATOM      2  N   UNL     1      -1.738   0.377  -0.904  1.00  0.00    -0.354 N 
ATOM      3  C   UNL     1      -1.390   1.009   0.245  1.00  0.00     0.255 C 
ATOM      4  O   UNL     1      -2.357   1.367   0.926  1.00  0.00    -0.272 OA
ATOM      5  H   UNL     1      -2.680   0.091  -0.923  1.00  0.00     0.163 HD
BRANCH   3   6
ATOM      6  C   UNL     1       0.043   1.504   0.526  1.00  0.00     0.213 C 
ATOM      7  C   UNL     1       0.142   2.762  -0.376  1.00  0.00     0.056 C 
BRANCH   6   8
ATOM      8  C   UNL     1       0.017   1.722   2.069  1.00  0.00     0.420 C 
ATOM      9  F   UNL     1      -0.581   0.687   2.715  1.00  0.00    -0.168 F 
ATOM     10  F   UNL     1       1.254   1.782   2.615  1.00  0.00    -0.168 F 
ATOM     11  F   UNL     1      -0.608   2.865   2.424  1.00  0.00    -0.168 F 
ENDBRANCH   6   8
BRANCH   6  12
ATOM     12  N   UNL     1       1.106   0.532   0.146  1.00  0.00    -0.316 N 
ATOM     13  C   UNL     1       2.445   0.544   0.230  1.00  0.00     0.315 C 
ATOM     14  H   UNL     1       0.750  -0.296  -0.250  1.00  0.00     0.166 HD
ATOM     15  O   UNL     1       3.032  -0.497  -0.079  1.00  0.00    -0.249 OA
ATOM     16  N   UNL     1       3.192   1.589   0.614  1.00  0.00    -0.338 N 
ATOM     17  H   UNL     1       4.144   1.350   0.693  1.00  0.00     0.165 HD
BRANCH  16  18
ATOM     18  C   UNL     1       2.953   2.988   0.945  1.00  0.00     0.123 C 
BRANCH  18  19
ATOM     19  C   UNL     1       3.537   3.441   2.280  1.00  0.00     0.082 C 
BRANCH  19  20
ATOM     20  C   UNL     1       4.971   3.947   2.219  1.00  0.00     0.260 C 
BRANCH  20  21
ATOM     21  N   UNL     1       5.101   5.117   1.357  1.00  0.00    -0.358 N 
ATOM     22  H   UNL     1       4.827   4.871   0.406  1.00  0.00     0.344 HD
ATOM     23  H   UNL     1       6.070   5.436   1.360  1.00  0.00     0.344 HD
ATOM     24  H   UNL     1       4.497   5.863   1.702  1.00  0.00     0.344 HD
ENDBRANCH  20  21
ENDBRANCH  19  20
ENDBRANCH  18  19
ENDBRANCH  16  18
ENDBRANCH   6  12
ENDBRANCH   3   6
ENDBRANCH   1   2
BRANCH   1  25
ATOM     25  C   UNL     1      -1.476  -1.316  -2.638  1.00  0.00     0.023 C 
BRANCH  25  26
ATOM     26  C   UNL     1      -2.975  -1.382  -2.951  1.00  0.00     0.023 C 
BRANCH  26  27
ATOM     27  C   UNL     1      -3.483  -0.261  -3.849  1.00  0.00     0.116 C 
BRANCH  27  28
ATOM     28  N   UNL     1      -2.822  -0.261  -5.145  1.00  0.00    -0.352 N 
ATOM     29  C   UNL     1      -3.377  -0.403  -6.394  1.00  0.00     0.251 C 
ATOM     30  H   UNL     1      -1.845  -0.144  -5.124  1.00  0.00     0.163 HD
ATOM     31  O   UNL     1      -2.672  -0.592  -7.373  1.00  0.00    -0.269 OA
BRANCH  29  32
ATOM     32  C   UNL     1      -4.846  -0.346  -6.529  1.00  0.00     0.039 A 
ATOM     33  C   UNL     1      -5.499  -1.350  -7.245  1.00  0.00     0.014 A 
ATOM     34  C   UNL     1      -5.571   0.676  -5.912  1.00  0.00     0.014 A 
ATOM     35  C   UNL     1      -6.893  -1.363  -7.287  1.00  0.00     0.010 A 
ATOM     36  C   UNL     1      -6.959   0.611  -5.882  1.00  0.00     0.010 A 
ATOM     37  C   UNL     1      -7.634  -0.406  -6.574  1.00  0.00    -0.014 A 
BRANCH  37  38
ATOM     38  C   UNL     1      -9.117  -0.451  -6.542  1.00  0.00     0.031 A 
ATOM     39  C   UNL     1      -9.917   0.685  -7.115  1.00  0.00     0.074 A 
ATOM     40  C   UNL     1      -9.741  -1.485  -5.945  1.00  0.00     0.049 A 
ATOM     41  N   UNL     1     -11.214   0.862  -7.129  1.00  0.00    -0.248 NA
ATOM     42  C   UNL     1      -9.156   1.785  -7.730  1.00  0.00     0.031 C 
ATOM     43  C   UNL     1      -9.074  -2.622  -5.307  1.00  0.00     0.029 A 
ATOM     44  N   UNL     1     -11.077  -1.744  -5.768  1.00  0.00    -0.354 N 
ATOM     45  C   UNL     1     -11.420   2.090  -7.743  1.00  0.00     0.074 A 
ATOM     46  C   UNL     1     -10.116   2.647  -8.027  1.00  0.00     0.031 C 
ATOM     47  C   UNL     1     -10.002  -3.466  -4.831  1.00  0.00     0.029 A 
ATOM     48  C   UNL     1     -11.327  -2.912  -5.091  1.00  0.00     0.049 A 
ATOM     49  H   UNL     1     -11.789  -1.148  -6.096  1.00  0.00     0.167 HD
ATOM     50  C   UNL     1     -12.592   2.686  -8.067  1.00  0.00     0.037 A 
ATOM     51  C   UNL     1     -12.494  -3.468  -4.713  1.00  0.00     0.037 A 
ATOM     52  C   UNL     1     -13.887   2.120  -7.795  1.00  0.00     0.049 A 
ATOM     53  C   UNL     1     -13.783  -2.776  -5.067  1.00  0.00     0.074 A 
ATOM     54  C   UNL     1     -15.134   2.620  -8.126  1.00  0.00     0.029 A 
ATOM     55  N   UNL     1     -14.101   0.927  -7.118  1.00  0.00    -0.354 N 
ATOM     56  N   UNL     1     -13.968  -1.649  -5.712  1.00  0.00    -0.248 NA
ATOM     57  C   UNL     1     -15.027  -3.437  -4.649  1.00  0.00     0.031 C 
ATOM     58  C   UNL     1     -16.103   1.759  -7.601  1.00  0.00     0.029 A 
ATOM     59  C   UNL     1     -15.461   0.688  -7.000  1.00  0.00     0.049 A 
ATOM     60  H   UNL     1     -13.392   0.338  -6.774  1.00  0.00     0.167 HD
ATOM     61  C   UNL     1     -15.344  -1.482  -5.803  1.00  0.00     0.074 A 
ATOM     62  C   UNL     1     -15.946  -2.632  -5.163  1.00  0.00     0.031 C 
ATOM     63  C   UNL     1     -16.045  -0.467  -6.366  1.00  0.00     0.037 A 
BRANCH  50  64
ATOM     64  C   UNL     1     -12.526   4.019  -8.756  1.00  0.00     0.064 A 
ATOM     65  C   UNL     1     -12.036   4.148 -10.065  1.00  0.00     0.173 A 
ATOM     66  C   UNL     1     -12.986   5.178  -8.113  1.00  0.00     0.173 A 
ATOM     67  F   UNL     1     -11.571   3.074 -10.722  1.00  0.00    -0.203 F 
ATOM     68  C   UNL     1     -11.979   5.391 -10.691  1.00  0.00     0.198 A 
ATOM     69  C   UNL     1     -12.961   6.414  -8.756  1.00  0.00     0.198 A 
ATOM     70  F   UNL     1     -13.470   5.113  -6.863  1.00  0.00    -0.203 F 
ATOM     71  F   UNL     1     -11.455   5.496 -11.920  1.00  0.00    -0.200 F 
ATOM     72  C   UNL     1     -12.449   6.520 -10.040  1.00  0.00     0.200 A 
ATOM     73  F   UNL     1     -13.430   7.502  -8.130  1.00  0.00    -0.200 F 
ATOM     74  F   UNL     1     -12.402   7.714 -10.647  1.00  0.00    -0.200 F 
ENDBRANCH  50  64
BRANCH  51  75
ATOM     75  C   UNL     1     -12.499  -4.756  -3.969  1.00  0.00     0.064 A 
ATOM     76  C   UNL     1     -13.003  -5.927  -4.554  1.00  0.00     0.173 A 
ATOM     77  C   UNL     1     -12.011  -4.843  -2.656  1.00  0.00     0.173 A 
ATOM     78  F   UNL     1     -13.498  -5.893  -5.800  1.00  0.00    -0.203 F 
ATOM     79  C   UNL     1     -13.043  -7.127  -3.846  1.00  0.00     0.198 A 
ATOM     80  C   UNL     1     -12.021  -6.050  -1.962  1.00  0.00     0.198 A 
ATOM     81  F   UNL     1     -11.512  -3.754  -2.052  1.00  0.00    -0.203 F 
ATOM     82  F   UNL     1     -13.578  -8.217  -4.412  1.00  0.00    -0.200 F 
ATOM     83  C   UNL     1     -12.546  -7.189  -2.553  1.00  0.00     0.200 A 
ATOM     84  F   UNL     1     -11.524  -6.110  -0.719  1.00  0.00    -0.200 F 
ATOM     85  F   UNL     1     -12.581  -8.344  -1.875  1.00  0.00    -0.200 F 
ENDBRANCH  51  75
BRANCH  63  86
ATOM     86  C   UNL     1     -17.544  -0.573  -6.352  1.00  0.00     0.064 A 
ATOM     87  C   UNL     1     -18.283  -0.444  -5.167  1.00  0.00     0.173 A 
ATOM     88  C   UNL     1     -18.251  -0.765  -7.549  1.00  0.00     0.173 A 
ATOM     89  F   UNL     1     -17.655  -0.273  -3.994  1.00  0.00    -0.203 F 
ATOM     90  C   UNL     1     -19.673  -0.533  -5.178  1.00  0.00     0.198 A 
ATOM     91  C   UNL     1     -19.641  -0.818  -7.561  1.00  0.00     0.198 A 
ATOM     92  F   UNL     1     -17.592  -0.886  -8.712  1.00  0.00    -0.203 F 
ATOM     93  F   UNL     1     -20.356  -0.461  -4.027  1.00  0.00    -0.200 F 
ATOM     94  C   UNL     1     -20.351  -0.711  -6.375  1.00  0.00     0.200 A 
ATOM     95  F   UNL     1     -20.295  -0.972  -8.721  1.00  0.00    -0.200 F 
ATOM     96  F   UNL     1     -21.689  -0.786  -6.384  1.00  0.00    -0.200 F 
ENDBRANCH  63  86
ENDBRANCH  37  38
ENDBRANCH  29  32
ENDBRANCH  27  28
ENDBRANCH  26  27
ENDBRANCH  25  26
ENDBRANCH   1  25
TORSDOF 17
