REMARK SMILES O=C(NCCCCNC(=O)C1(CC(=O)N2CCOCC2)CCCCCCCCCCC1)c1ccc(-c2c3nc(c(-c4c(F)c(F)c(F)c(F)c4F)c4ccc([nH]4)c(-c4c(F)c(F)c(F)c(F)c4F)c4nc(c(-c5c(F)c(F)c(F)c(F)c5F)c5ccc2[nH]5)C=C4)C=C3)cc1
REMARK SMILES IDX 8 1 9 2 10 3 7 5 6 6 5 7 4 8 3 9 1 10 2 11 32 13 33 14 94 15
REMARK SMILES IDX 34 16 93 17 35 18 36 19 37 20 87 21 38 22 92 23 86 24 88 25
REMARK SMILES IDX 39 26 91 27 85 28 84 29 40 31 72 32 52 33 71 34 53 35 56 36
REMARK SMILES IDX 70 37 89 38 54 39 55 40 69 42 90 43 57 44 41 45 42 46 50 47
REMARK SMILES IDX 43 48 44 49 48 50 51 51 45 52 46 53 49 54 47 55 73 56 74 57
REMARK SMILES IDX 82 58 75 59 76 60 80 61 83 62 77 63 78 64 81 65 79 66 58 67
REMARK SMILES IDX 59 68 67 69 60 70 61 71 65 72 68 73 62 74 63 75 66 76 64 77
REMARK SMILES IDX 11 78 12 79 13 80 14 81 15 82 16 83 20 84 17 85 19 86 18 87
REMARK SMILES IDX 21 88 22 89 23 90 24 91 25 92 26 93 27 94 31 96 30 97 29 98
REMARK SMILES IDX 28 99
REMARK H PARENT 8 4 3 12 88 30 56 41
REMARK Flexibility Score: 80.00
ROOT
ATOM      1  N   UNL     1       5.859   3.458   2.768  1.00  0.00    -0.356 N 
ATOM      2  C   UNL     1       6.825   3.642   3.678  1.00  0.00     0.226 C 
ATOM      3  O   UNL     1       7.945   3.443   3.203  1.00  0.00    -0.274 OA
ATOM      4  H   UNL     1       6.228   3.250   1.879  1.00  0.00     0.163 HD
ENDROOT
BRANCH   1   5
ATOM      5  C   UNL     1       4.417   3.488   2.759  1.00  0.00     0.116 C 
BRANCH   5   6
ATOM      6  C   UNL     1       3.893   3.585   1.323  1.00  0.00     0.023 C 
BRANCH   6   7
ATOM      7  C   UNL     1       4.463   2.543   0.346  1.00  0.00     0.023 C 
BRANCH   7   8
ATOM      8  C   UNL     1       4.385   1.104   0.839  1.00  0.00     0.116 C 
BRANCH   8   9
ATOM      9  N   UNL     1       3.005   0.653   0.910  1.00  0.00    -0.352 N 
ATOM     10  O   UNL     1       1.104  -0.222   0.058  1.00  0.00    -0.269 OA
ATOM     11  C   UNL     1       2.339  -0.168   0.042  1.00  0.00     0.251 C 
ATOM     12  H   UNL     1       2.484   0.979   1.679  1.00  0.00     0.163 HD
BRANCH  11  13
ATOM     13  C   UNL     1       3.097  -0.999  -0.911  1.00  0.00     0.039 A 
ATOM     14  C   UNL     1       4.200  -1.737  -0.470  1.00  0.00     0.014 A 
ATOM     15  C   UNL     1       2.676  -1.087  -2.240  1.00  0.00     0.014 A 
ATOM     16  C   UNL     1       4.932  -2.497  -1.374  1.00  0.00     0.010 A 
ATOM     17  C   UNL     1       3.366  -1.912  -3.131  1.00  0.00     0.010 A 
ATOM     18  C   UNL     1       4.497  -2.625  -2.702  1.00  0.00    -0.014 A 
BRANCH  18  19
ATOM     19  C   UNL     1       5.146  -3.625  -3.584  1.00  0.00     0.031 A 
ATOM     20  C   UNL     1       5.915  -3.214  -4.803  1.00  0.00     0.074 A 
ATOM     21  C   UNL     1       5.003  -4.928  -3.269  1.00  0.00     0.049 A 
ATOM     22  N   UNL     1       6.497  -3.971  -5.699  1.00  0.00    -0.248 NA
ATOM     23  C   UNL     1       6.045  -1.772  -5.060  1.00  0.00     0.031 C 
ATOM     24  C   UNL     1       4.254  -5.435  -2.115  1.00  0.00     0.029 A 
ATOM     25  N   UNL     1       5.468  -6.062  -3.884  1.00  0.00    -0.354 N 
ATOM     26  C   UNL     1       7.043  -3.103  -6.634  1.00  0.00     0.074 A 
ATOM     27  C   UNL     1       6.715  -1.759  -6.206  1.00  0.00     0.031 C 
ATOM     28  C   UNL     1       4.325  -6.773  -2.096  1.00  0.00     0.029 A 
ATOM     29  C   UNL     1       5.062  -7.222  -3.270  1.00  0.00     0.049 A 
ATOM     30  H   UNL     1       6.038  -6.046  -4.686  1.00  0.00     0.167 HD
ATOM     31  C   UNL     1       7.753  -3.411  -7.746  1.00  0.00     0.037 A 
ATOM     32  C   UNL     1       5.227  -8.506  -3.633  1.00  0.00     0.037 A 
ATOM     33  C   UNL     1       8.093  -4.755  -8.143  1.00  0.00     0.049 A 
ATOM     34  C   UNL     1       5.990  -8.809  -4.891  1.00  0.00     0.074 A 
ATOM     35  C   UNL     1       8.887  -5.164  -9.201  1.00  0.00     0.029 A 
ATOM     36  N   UNL     1       7.647  -5.905  -7.510  1.00  0.00    -0.354 N 
ATOM     37  N   UNL     1       6.569  -7.979  -5.724  1.00  0.00    -0.248 NA
ATOM     38  C   UNL     1       6.113 -10.223  -5.267  1.00  0.00     0.031 C 
ATOM     39  C   UNL     1       8.867  -6.561  -9.247  1.00  0.00     0.029 A 
ATOM     40  C   UNL     1       8.107  -7.024  -8.186  1.00  0.00     0.049 A 
ATOM     41  H   UNL     1       7.087  -5.924  -6.700  1.00  0.00     0.167 HD
ATOM     42  C   UNL     1       7.131  -8.768  -6.716  1.00  0.00     0.074 A 
ATOM     43  C   UNL     1       6.851 -10.145  -6.365  1.00  0.00     0.031 C 
ATOM     44  C   UNL     1       7.809  -8.386  -7.825  1.00  0.00     0.037 A 
BRANCH  31  45
ATOM     45  C   UNL     1       8.206  -2.293  -8.638  1.00  0.00     0.064 A 
ATOM     46  C   UNL     1       9.266  -1.447  -8.284  1.00  0.00     0.173 A 
ATOM     47  C   UNL     1       7.642  -2.141  -9.915  1.00  0.00     0.173 A 
ATOM     48  F   UNL     1       9.837  -1.549  -7.074  1.00  0.00    -0.203 F 
ATOM     49  C   UNL     1       9.742  -0.486  -9.174  1.00  0.00     0.198 A 
ATOM     50  C   UNL     1       8.135  -1.195 -10.809  1.00  0.00     0.198 A 
ATOM     51  F   UNL     1       6.631  -2.932 -10.305  1.00  0.00    -0.203 F 
ATOM     52  F   UNL     1      10.746   0.324  -8.810  1.00  0.00    -0.200 F 
ATOM     53  C   UNL     1       9.184  -0.369 -10.439  1.00  0.00     0.200 A 
ATOM     54  F   UNL     1       7.605  -1.095 -12.036  1.00  0.00    -0.200 F 
ATOM     55  F   UNL     1       9.660   0.540 -11.302  1.00  0.00    -0.200 F 
ENDBRANCH  31  45
BRANCH  32  56
ATOM     56  C   UNL     1       4.616  -9.593  -2.825  1.00  0.00     0.064 A 
ATOM     57  C   UNL     1       5.408 -10.521  -2.137  1.00  0.00     0.173 A 
ATOM     58  C   UNL     1       3.221  -9.733  -2.737  1.00  0.00     0.173 A 
ATOM     59  F   UNL     1       6.745 -10.441  -2.205  1.00  0.00    -0.203 F 
ATOM     60  C   UNL     1       4.830 -11.563  -1.415  1.00  0.00     0.198 A 
ATOM     61  C   UNL     1       2.645 -10.754  -1.986  1.00  0.00     0.198 A 
ATOM     62  F   UNL     1       2.417  -8.869  -3.373  1.00  0.00    -0.203 F 
ATOM     63  F   UNL     1       5.611 -12.471  -0.813  1.00  0.00    -0.200 F 
ATOM     64  C   UNL     1       3.450 -11.676  -1.335  1.00  0.00     0.200 A 
ATOM     65  F   UNL     1       1.311 -10.847  -1.898  1.00  0.00    -0.200 F 
ATOM     66  F   UNL     1       2.896 -12.678  -0.640  1.00  0.00    -0.200 F 
ENDBRANCH  32  56
BRANCH  44  67
ATOM     67  C   UNL     1       8.293  -9.475  -8.735  1.00  0.00     0.064 A 
ATOM     68  C   UNL     1       7.403 -10.202  -9.539  1.00  0.00     0.173 A 
ATOM     69  C   UNL     1       9.661  -9.769  -8.834  1.00  0.00     0.173 A 
ATOM     70  F   UNL     1       6.083  -9.971  -9.464  1.00  0.00    -0.203 F 
ATOM     71  C   UNL     1       7.864 -11.198 -10.395  1.00  0.00     0.198 A 
ATOM     72  C   UNL     1      10.121 -10.744  -9.713  1.00  0.00     0.198 A 
ATOM     73  F   UNL     1      10.553  -9.099  -8.088  1.00  0.00    -0.203 F 
ATOM     74  F   UNL     1       6.991 -11.912 -11.120  1.00  0.00    -0.200 F 
ATOM     75  C   UNL     1       9.222 -11.462 -10.488  1.00  0.00     0.200 A 
ATOM     76  F   UNL     1      11.435 -10.990  -9.811  1.00  0.00    -0.200 F 
ATOM     77  F   UNL     1       9.665 -12.415 -11.320  1.00  0.00    -0.200 F 
ENDBRANCH  44  67
ENDBRANCH  18  19
ENDBRANCH  11  13
ENDBRANCH   8   9
ENDBRANCH   7   8
ENDBRANCH   6   7
ENDBRANCH   5   6
ENDBRANCH   1   5
BRANCH   2  78
ATOM     78  C   UNL     1       6.624   4.065   5.140  1.00  0.00     0.058 C 
BRANCH  78  79
ATOM     79  C   UNL     1       6.120   5.534   5.208  1.00  0.00     0.117 C 
BRANCH  79  80
ATOM     80  C   UNL     1       6.834   6.624   4.421  1.00  0.00     0.223 C 
ATOM     81  O   UNL     1       6.674   6.705   3.203  1.00  0.00    -0.275 OA
ATOM     82  N   UNL     1       7.508   7.598   5.146  1.00  0.00    -0.338 N 
ATOM     83  C   UNL     1       8.210   7.366   6.411  1.00  0.00     0.148 C 
ATOM     84  C   UNL     1       7.903   8.837   4.470  1.00  0.00     0.148 C 
ATOM     85  C   UNL     1       8.250   8.604   7.304  1.00  0.00     0.181 C 
ATOM     86  C   UNL     1       7.929  10.018   5.449  1.00  0.00     0.181 C 
ATOM     87  O   UNL     1       8.757   9.737   6.588  1.00  0.00    -0.378 OA
ENDBRANCH  79  80
ENDBRANCH  78  79
BRANCH  78  88
ATOM     88  C   UNL     1       5.508   3.223   5.883  1.00  0.00     0.017 C 
BRANCH  88  89
ATOM     89  C   UNL     1       5.806   1.783   6.341  1.00  0.00     0.001 C 
BRANCH  89  90
ATOM     90  C   UNL     1       5.996   0.765   5.216  1.00  0.00     0.000 C 
BRANCH  90  91
ATOM     91  C   UNL     1       6.900  -0.416   5.598  1.00  0.00     0.000 C 
BRANCH  91  92
ATOM     92  C   UNL     1       8.377  -0.061   5.838  1.00  0.00     0.000 C 
BRANCH  92  93
ATOM     93  C   UNL     1       9.112   0.413   4.577  1.00  0.00     0.000 C 
BRANCH  93  94
ATOM     94  C   UNL     1      10.540   0.910   4.844  1.00  0.00     0.000 CG0
ATOM     95  G   UNL     1      10.662   2.218   5.648  1.00  0.00     0.000 G0
ENDBRANCH  93  94
ENDBRANCH  92  93
ENDBRANCH  91  92
ENDBRANCH  90  91
ENDBRANCH  89  90
ENDBRANCH  88  89
ENDBRANCH  78  88
BRANCH  78  96
ATOM     96  C   UNL     1       7.965   3.858   5.935  1.00  0.00     0.017 C 
BRANCH  96  97
ATOM     97  C   UNL     1       9.299   4.449   5.438  1.00  0.00     0.001 C 
BRANCH  97  98
ATOM     98  C   UNL     1      10.332   3.475   4.830  1.00  0.00     0.000 C 
BRANCH  98  99
ATOM     99  C   UNL     1      10.662   2.218   5.648  1.00  0.00     0.000 CG0
ATOM    100  G   UNL     1      10.540   0.910   4.844  1.00  0.00     0.000 G0
ENDBRANCH  98  99
ENDBRANCH  97  98
ENDBRANCH  96  97
ENDBRANCH  78  96
ENDBRANCH   2  78
TORSDOF 13
