REMARK SMILES O=C(NCCCCNC(=O)c1c(OCc2ccccn2)cnc2ccccc12)c1ccc(-c2c3nc(c(-c4c(F)c(F)c(F)c(F)c4F)c4ccc([nH]4)c(-c4c(F)c(F)c(F)c(F)c4F)c4nc(c(-c5c(F)c(F)c(F)c(F)c5F)c5ccc2[nH]5)C=C4)C=C3)cc1
REMARK SMILES IDX 6 1 5 2 4 3 3 4 1 5 2 6 29 8 30 9 91 10 31 11 90 12 32 13
REMARK SMILES IDX 33 14 34 15 84 16 35 17 89 18 83 19 85 20 36 21 88 22 82 23
REMARK SMILES IDX 81 24 37 26 69 27 49 28 68 29 50 30 53 31 67 32 86 33 51 34
REMARK SMILES IDX 52 35 66 37 87 38 54 39 38 40 39 41 47 42 40 43 41 44 45 45
REMARK SMILES IDX 48 46 42 47 43 48 46 49 44 50 70 51 71 52 79 53 72 54 73 55
REMARK SMILES IDX 77 56 80 57 74 58 75 59 78 60 76 61 55 62 56 63 64 64 57 65
REMARK SMILES IDX 58 66 62 67 65 68 59 69 60 70 63 71 61 72 7 73 8 74 9 75
REMARK SMILES IDX 10 77 11 78 12 79 28 80 21 81 23 82 27 83 22 84 24 85 26 86
REMARK SMILES IDX 25 87 13 88 14 89 15 90 16 91 20 92 17 93 19 94 18 95
REMARK H PARENT 3 7 85 25 53 36 8 76
REMARK Flexibility Score: inf
ROOT
ATOM      1  C   UNL     1       4.555   2.980   2.350  1.00  0.00     0.023 C 
ENDROOT
BRANCH   1   2
ATOM      2  C   UNL     1       5.021   2.242   1.097  1.00  0.00     0.023 C 
BRANCH   2   3
ATOM      3  C   UNL     1       4.648   0.766   1.029  1.00  0.00     0.116 C 
BRANCH   3   4
ATOM      4  N   UNL     1       3.212   0.547   0.954  1.00  0.00    -0.352 N 
ATOM      5  O   UNL     1       1.242   0.007  -0.007  1.00  0.00    -0.269 OA
ATOM      6  C   UNL     1       2.470  -0.031  -0.048  1.00  0.00     0.251 C 
ATOM      7  H   UNL     1       2.697   0.858   1.733  1.00  0.00     0.163 HD
BRANCH   6   8
ATOM      8  C   UNL     1       3.147  -0.684  -1.188  1.00  0.00     0.039 A 
ATOM      9  C   UNL     1       4.217  -1.556  -0.977  1.00  0.00     0.014 A 
ATOM     10  C   UNL     1       2.688  -0.441  -2.486  1.00  0.00     0.014 A 
ATOM     11  C   UNL     1       4.912  -2.078  -2.063  1.00  0.00     0.010 A 
ATOM     12  C   UNL     1       3.332  -1.036  -3.575  1.00  0.00     0.010 A 
ATOM     13  C   UNL     1       4.460  -1.847  -3.372  1.00  0.00    -0.014 A 
BRANCH  13  14
ATOM     14  C   UNL     1       5.112  -2.552  -4.504  1.00  0.00     0.031 A 
ATOM     15  C   UNL     1       5.842  -1.800  -5.579  1.00  0.00     0.074 A 
ATOM     16  C   UNL     1       5.020  -3.895  -4.554  1.00  0.00     0.049 A 
ATOM     17  N   UNL     1       6.427  -2.265  -6.654  1.00  0.00    -0.248 NA
ATOM     18  C   UNL     1       5.924  -0.339  -5.437  1.00  0.00     0.031 C 
ATOM     19  C   UNL     1       4.320  -4.726  -3.571  1.00  0.00     0.029 A 
ATOM     20  N   UNL     1       5.508  -4.799  -5.462  1.00  0.00    -0.354 N 
ATOM     21  C   UNL     1       6.925  -1.158  -7.328  1.00  0.00     0.074 A 
ATOM     22  C   UNL     1       6.564   0.007  -6.548  1.00  0.00     0.031 C 
ATOM     23  C   UNL     1       4.439  -6.015  -3.917  1.00  0.00     0.029 A 
ATOM     24  C   UNL     1       5.161  -6.098  -5.181  1.00  0.00     0.049 A 
ATOM     25  H   UNL     1       6.055  -4.543  -6.240  1.00  0.00     0.167 HD
ATOM     26  C   UNL     1       7.620  -1.126  -8.490  1.00  0.00     0.037 A 
ATOM     27  C   UNL     1       5.362  -7.229  -5.882  1.00  0.00     0.037 A 
ATOM     28  C   UNL     1       7.994  -2.297  -9.244  1.00  0.00     0.049 A 
ATOM     29  C   UNL     1       6.102  -7.152  -7.187  1.00  0.00     0.074 A 
ATOM     30  C   UNL     1       8.772  -2.373 -10.387  1.00  0.00     0.029 A 
ATOM     31  N   UNL     1       7.605  -3.593  -8.940  1.00  0.00    -0.354 N 
ATOM     32  N   UNL     1       6.633  -6.108  -7.774  1.00  0.00    -0.248 NA
ATOM     33  C   UNL     1       6.266  -8.408  -7.930  1.00  0.00     0.031 C 
ATOM     34  C   UNL     1       8.796  -3.704 -10.812  1.00  0.00     0.029 A 
ATOM     35  C   UNL     1       8.084  -4.468  -9.903  1.00  0.00     0.049 A 
ATOM     36  H   UNL     1       7.067  -3.853  -8.157  1.00  0.00     0.167 HD
ATOM     37  C   UNL     1       7.202  -6.580  -8.947  1.00  0.00     0.074 A 
ATOM     38  C   UNL     1       6.976  -8.010  -8.976  1.00  0.00     0.031 C 
ATOM     39  C   UNL     1       7.847  -5.889  -9.918  1.00  0.00     0.037 A 
BRANCH  26  40
ATOM     40  C   UNL     1       8.013   0.211  -9.050  1.00  0.00     0.064 A 
ATOM     41  C   UNL     1       9.031   0.985  -8.477  1.00  0.00     0.173 A 
ATOM     42  C   UNL     1       7.424   0.676 -10.237  1.00  0.00     0.173 A 
ATOM     43  F   UNL     1       9.624   0.589  -7.341  1.00  0.00    -0.203 F 
ATOM     44  C   UNL     1       9.438   2.181  -9.065  1.00  0.00     0.198 A 
ATOM     45  C   UNL     1       7.850   1.859 -10.836  1.00  0.00     0.198 A 
ATOM     46  F   UNL     1       6.451  -0.031 -10.832  1.00  0.00    -0.203 F 
ATOM     47  F   UNL     1      10.397   2.918  -8.487  1.00  0.00    -0.200 F 
ATOM     48  C   UNL     1       8.855   2.611 -10.248  1.00  0.00     0.200 A 
ATOM     49  F   UNL     1       7.296   2.263 -11.987  1.00  0.00    -0.200 F 
ATOM     50  F   UNL     1       9.262   3.752 -10.823  1.00  0.00    -0.200 F 
ENDBRANCH  26  40
BRANCH  27  51
ATOM     51  C   UNL     1       4.813  -8.517  -5.384  1.00  0.00     0.064 A 
ATOM     52  C   UNL     1       5.657  -9.559  -4.980  1.00  0.00     0.173 A 
ATOM     53  C   UNL     1       3.428  -8.735  -5.312  1.00  0.00     0.173 A 
ATOM     54  F   UNL     1       6.988  -9.406  -5.048  1.00  0.00    -0.203 F 
ATOM     55  C   UNL     1       5.139 -10.777  -4.546  1.00  0.00     0.198 A 
ATOM     56  C   UNL     1       2.910  -9.940  -4.844  1.00  0.00     0.198 A 
ATOM     57  F   UNL     1       2.575  -7.768  -5.682  1.00  0.00    -0.203 F 
ATOM     58  F   UNL     1       5.969 -11.776  -4.217  1.00  0.00    -0.200 F 
ATOM     59  C   UNL     1       3.766 -10.964  -4.473  1.00  0.00     0.200 A 
ATOM     60  F   UNL     1       1.584 -10.108  -4.757  1.00  0.00    -0.200 F 
ATOM     61  F   UNL     1       3.269 -12.135  -4.052  1.00  0.00    -0.200 F 
ENDBRANCH  27  51
BRANCH  39  62
ATOM     62  C   UNL     1       8.364  -6.672 -11.088  1.00  0.00     0.064 A 
ATOM     63  C   UNL     1       7.496  -7.201 -12.055  1.00  0.00     0.173 A 
ATOM     64  C   UNL     1       9.743  -6.858 -11.268  1.00  0.00     0.173 A 
ATOM     65  F   UNL     1       6.169  -7.068 -11.916  1.00  0.00    -0.203 F 
ATOM     66  C   UNL     1       7.990  -7.903 -13.151  1.00  0.00     0.198 A 
ATOM     67  C   UNL     1      10.234  -7.532 -12.382  1.00  0.00     0.198 A 
ATOM     68  F   UNL     1      10.614  -6.368 -10.374  1.00  0.00    -0.203 F 
ATOM     69  F   UNL     1       7.141  -8.437 -14.040  1.00  0.00    -0.200 F 
ATOM     70  C   UNL     1       9.358  -8.059 -13.319  1.00  0.00     0.200 A 
ATOM     71  F   UNL     1      11.557  -7.671 -12.550  1.00  0.00    -0.200 F 
ATOM     72  F   UNL     1       9.832  -8.724 -14.382  1.00  0.00    -0.200 F 
ENDBRANCH  39  62
ENDBRANCH  13  14
ENDBRANCH   6   8
ENDBRANCH   3   4
ENDBRANCH   2   3
ENDBRANCH   1   2
BRANCH   1  73
ATOM     73  C   UNL     1       4.940   2.331   3.674  1.00  0.00     0.116 C 
BRANCH  73  74
ATOM     74  N   UNL     1       6.372   2.147   3.840  1.00  0.00    -0.352 N 
ATOM     75  C   UNL     1       7.119   2.256   4.993  1.00  0.00     0.255 C 
ATOM     76  H   UNL     1       6.873   1.916   3.025  1.00  0.00     0.163 HD
ATOM     77  O   UNL     1       8.312   1.970   4.987  1.00  0.00    -0.269 OA
BRANCH  75  78
ATOM     78  C   UNL     1       6.468   2.716   6.238  1.00  0.00     0.092 A 
ATOM     79  C   UNL     1       6.794   3.991   6.715  1.00  0.00     0.151 A 
ATOM     80  C   UNL     1       5.467   1.925   6.856  1.00  0.00     0.017 A 
ATOM     81  C   UNL     1       6.119   4.410   7.846  1.00  0.00     0.159 A 
ATOM     82  C   UNL     1       4.766   2.527   7.915  1.00  0.00     0.071 A 
ATOM     83  C   UNL     1       5.095   0.619   6.443  1.00  0.00     0.011 A 
ATOM     84  N   UNL     1       5.105   3.722   8.421  1.00  0.00    -0.252 NA
ATOM     85  C   UNL     1       3.653   1.879   8.432  1.00  0.00     0.029 A 
ATOM     86  C   UNL     1       3.975  -0.012   6.978  1.00  0.00     0.001 A 
ATOM     87  C   UNL     1       3.236   0.633   7.958  1.00  0.00     0.002 A 
BRANCH  79  88
ATOM     88  O   UNL     1       7.651   4.751   5.970  1.00  0.00    -0.485 OA
BRANCH  88  89
ATOM     89  C   UNL     1       7.902   6.112   6.342  1.00  0.00     0.285 C 
BRANCH  89  90
ATOM     90  C   UNL     1       6.795   7.115   6.063  1.00  0.00     0.078 A 
ATOM     91  C   UNL     1       5.561   6.752   5.524  1.00  0.00     0.027 A 
ATOM     92  N   UNL     1       7.064   8.399   6.419  1.00  0.00    -0.258 NA
ATOM     93  C   UNL     1       4.561   7.713   5.399  1.00  0.00     0.004 A 
ATOM     94  C   UNL     1       6.087   9.319   6.252  1.00  0.00     0.111 A 
ATOM     95  C   UNL     1       4.827   9.024   5.767  1.00  0.00     0.020 A 
ENDBRANCH  89  90
ENDBRANCH  88  89
ENDBRANCH  79  88
ENDBRANCH  75  78
ENDBRANCH  73  74
ENDBRANCH   1  73
TORSDOF 14
