REMARK SMILES C[C@@H]1CCC[C@]1(Sc1ccc(F)cc1)C(=O)NCCCCNC(=O)c1ccc(-c2c3nc(c(-c4c(F)c(F)c(F)c(F)c4F)c4ccc([nH]4)c(-c4c(F)c(F)c(F)c(F)c4F)c4nc(c(-c5c(F)c(F)c(F)c(F)c5F)c5ccc2[nH]5)C=C4)C=C3)cc1
REMARK SMILES IDX 19 1 18 2 17 3 15 4 16 5 6 7 1 8 2 9 3 10 4 11 5 12 7 13
REMARK SMILES IDX 8 14 9 15 14 16 10 17 13 18 11 19 12 20 20 21 21 22 22 23
REMARK SMILES IDX 23 24 24 26 25 27 26 28 87 29 27 30 86 31 28 32 29 33 30 34
REMARK SMILES IDX 80 35 31 36 85 37 79 38 81 39 32 40 84 41 78 42 77 43 33 45
REMARK SMILES IDX 65 46 45 47 64 48 46 49 49 50 63 51 82 52 47 53 48 54 62 56
REMARK SMILES IDX 83 57 50 58 34 59 35 60 43 61 36 62 37 63 41 64 44 65 38 66
REMARK SMILES IDX 39 67 42 68 40 69 66 70 67 71 75 72 68 73 69 74 73 75 76 76
REMARK SMILES IDX 70 77 71 78 74 79 72 80 51 81 52 82 60 83 53 84 54 85 58 86
REMARK SMILES IDX 61 87 55 88 56 89 59 90 57 91
REMARK H PARENT 17 6 22 25 81 44 49 55
REMARK Flexibility Score: inf
ROOT
ATOM      1  C   UNL     1       3.692   1.733   1.883  1.00  0.00     0.023 C 
ENDROOT
BRANCH   1   2
ATOM      2  C   UNL     1       2.242   2.139   2.126  1.00  0.00     0.116 C 
BRANCH   2   3
ATOM      3  N   UNL     1       1.623   2.743   0.959  1.00  0.00    -0.355 N 
ATOM      4  C   UNL     1       0.515   2.364   0.244  1.00  0.00     0.236 C 
ATOM      5  O   UNL     1       0.152   3.126  -0.657  1.00  0.00    -0.273 OA
ATOM      6  H   UNL     1       2.070   3.555   0.627  1.00  0.00     0.163 HD
BRANCH   4   7
ATOM      7  C   UNL     1      -0.228   1.028   0.556  1.00  0.00     0.102 C 
ATOM      8  C   UNL     1       1.661  -0.054  -0.855  1.00  0.00     0.009 C 
ATOM      9  C   UNL     1       0.682  -0.210   0.328  1.00  0.00     0.012 C 
ATOM     10  C   UNL     1      -0.271  -1.363  -0.019  1.00  0.00     0.005 C 
ATOM     11  C   UNL     1      -1.547  -0.729  -0.555  1.00  0.00     0.002 C 
ATOM     12  C   UNL     1      -1.369   0.784  -0.452  1.00  0.00     0.028 C 
BRANCH   7  13
ATOM     13  S   UNL     1      -0.989   1.353   2.264  1.00  0.00    -0.109 SA
BRANCH  13  14
ATOM     14  C   UNL     1      -1.615  -0.186   2.872  1.00  0.00     0.008 A 
ATOM     15  C   UNL     1      -0.764  -1.191   3.346  1.00  0.00     0.018 A 
ATOM     16  C   UNL     1      -2.998  -0.325   3.043  1.00  0.00     0.018 A 
ATOM     17  C   UNL     1      -1.294  -2.353   3.912  1.00  0.00     0.040 A 
ATOM     18  C   UNL     1      -3.528  -1.476   3.629  1.00  0.00     0.040 A 
ATOM     19  C   UNL     1      -2.670  -2.485   4.047  1.00  0.00     0.123 A 
ATOM     20  F   UNL     1      -3.176  -3.591   4.606  1.00  0.00    -0.207 F 
ENDBRANCH  13  14
ENDBRANCH   7  13
ENDBRANCH   4   7
ENDBRANCH   2   3
ENDBRANCH   1   2
BRANCH   1  21
ATOM     21  C   UNL     1       4.640   2.892   1.584  1.00  0.00     0.023 C 
BRANCH  21  22
ATOM     22  C   UNL     1       4.667   3.988   2.642  1.00  0.00     0.116 C 
BRANCH  22  23
ATOM     23  N   UNL     1       5.049   3.501   3.959  1.00  0.00    -0.352 N 
ATOM     24  C   UNL     1       5.932   4.053   4.855  1.00  0.00     0.251 C 
ATOM     25  H   UNL     1       4.617   2.664   4.247  1.00  0.00     0.163 HD
ATOM     26  O   UNL     1       6.241   3.454   5.880  1.00  0.00    -0.269 OA
BRANCH  24  27
ATOM     27  C   UNL     1       6.533   5.367   4.555  1.00  0.00     0.039 A 
ATOM     28  C   UNL     1       7.919   5.518   4.653  1.00  0.00     0.014 A 
ATOM     29  C   UNL     1       5.730   6.431   4.138  1.00  0.00     0.014 A 
ATOM     30  C   UNL     1       8.509   6.721   4.264  1.00  0.00     0.010 A 
ATOM     31  C   UNL     1       6.324   7.601   3.682  1.00  0.00     0.010 A 
ATOM     32  C   UNL     1       7.718   7.758   3.742  1.00  0.00    -0.014 A 
BRANCH  32  33
ATOM     33  C   UNL     1       8.312   9.031   3.270  1.00  0.00     0.031 A 
ATOM     34  C   UNL     1       7.970  10.312   3.975  1.00  0.00     0.074 A 
ATOM     35  C   UNL     1       9.083   9.049   2.167  1.00  0.00     0.049 A 
ATOM     36  N   UNL     1       8.256  11.544   3.641  1.00  0.00    -0.248 NA
ATOM     37  C   UNL     1       7.173  10.190   5.205  1.00  0.00     0.031 C 
ATOM     38  C   UNL     1       9.468   7.874   1.385  1.00  0.00     0.029 A 
ATOM     39  N   UNL     1       9.670  10.098   1.504  1.00  0.00    -0.354 N 
ATOM     40  C   UNL     1       7.656  12.341   4.606  1.00  0.00     0.074 A 
ATOM     41  C   UNL     1       6.948  11.460   5.507  1.00  0.00     0.031 C 
ATOM     42  C   UNL     1      10.248   8.264   0.364  1.00  0.00     0.029 A 
ATOM     43  C   UNL     1      10.380   9.718   0.392  1.00  0.00     0.049 A 
ATOM     44  H   UNL     1       9.590  11.034   1.798  1.00  0.00     0.167 HD
ATOM     45  C   UNL     1       7.712  13.687   4.740  1.00  0.00     0.037 A 
ATOM     46  C   UNL     1      11.053  10.461  -0.507  1.00  0.00     0.037 A 
ATOM     47  C   UNL     1       8.443  14.555   3.857  1.00  0.00     0.049 A 
ATOM     48  C   UNL     1      11.084  11.956  -0.354  1.00  0.00     0.074 A 
ATOM     49  C   UNL     1       8.591  15.929   3.927  1.00  0.00     0.029 A 
ATOM     50  N   UNL     1       9.154  14.130   2.744  1.00  0.00    -0.354 N 
ATOM     51  N   UNL     1      10.530  12.701   0.572  1.00  0.00    -0.248 NA
ATOM     52  C   UNL     1      11.827  12.716  -1.369  1.00  0.00     0.031 C 
ATOM     53  C   UNL     1       9.363  16.340   2.837  1.00  0.00     0.029 A 
ATOM     54  C   UNL     1       9.735  15.217   2.113  1.00  0.00     0.049 A 
ATOM     55  H   UNL     1       9.235  13.195   2.447  1.00  0.00     0.167 HD
ATOM     56  C   UNL     1      10.880  14.010   0.271  1.00  0.00     0.074 A 
ATOM     57  C   UNL     1      11.694  13.960  -0.927  1.00  0.00     0.031 C 
ATOM     58  C   UNL     1      10.557  15.147   0.932  1.00  0.00     0.037 A 
BRANCH  45  59
ATOM     59  C   UNL     1       6.968  14.298   5.890  1.00  0.00     0.064 A 
ATOM     60  C   UNL     1       5.833  15.091   5.665  1.00  0.00     0.173 A 
ATOM     61  C   UNL     1       7.393  14.120   7.215  1.00  0.00     0.173 A 
ATOM     62  F   UNL     1       5.387  15.297   4.417  1.00  0.00    -0.203 F 
ATOM     63  C   UNL     1       5.152  15.684   6.726  1.00  0.00     0.198 A 
ATOM     64  C   UNL     1       6.692  14.688   8.275  1.00  0.00     0.198 A 
ATOM     65  F   UNL     1       8.465  13.359   7.484  1.00  0.00    -0.203 F 
ATOM     66  F   UNL     1       4.082  16.454   6.486  1.00  0.00    -0.200 F 
ATOM     67  C   UNL     1       5.577  15.475   8.029  1.00  0.00     0.200 A 
ATOM     68  F   UNL     1       7.087  14.460   9.535  1.00  0.00    -0.200 F 
ATOM     69  F   UNL     1       4.907  16.026   9.050  1.00  0.00    -0.200 F 
ENDBRANCH  45  59
BRANCH  46  70
ATOM     70  C   UNL     1      11.790   9.783  -1.604  1.00  0.00     0.064 A 
ATOM     71  C   UNL     1      11.120   9.164  -2.668  1.00  0.00     0.173 A 
ATOM     72  C   UNL     1      13.188   9.697  -1.571  1.00  0.00     0.173 A 
ATOM     73  F   UNL     1       9.782   9.214  -2.740  1.00  0.00    -0.203 F 
ATOM     74  C   UNL     1      11.821   8.461  -3.646  1.00  0.00     0.198 A 
ATOM     75  C   UNL     1      13.890   9.012  -2.561  1.00  0.00     0.198 A 
ATOM     76  F   UNL     1      13.872  10.290  -0.582  1.00  0.00    -0.203 F 
ATOM     77  F   UNL     1      11.156   7.845  -4.633  1.00  0.00    -0.200 F 
ATOM     78  C   UNL     1      13.205   8.386  -3.592  1.00  0.00     0.200 A 
ATOM     79  F   UNL     1      15.228   8.957  -2.514  1.00  0.00    -0.200 F 
ATOM     80  F   UNL     1      13.879   7.711  -4.533  1.00  0.00    -0.200 F 
ENDBRANCH  46  70
BRANCH  58  81
ATOM     81  C   UNL     1      11.109  16.441   0.412  1.00  0.00     0.064 A 
ATOM     82  C   UNL     1      12.114  17.115   1.125  1.00  0.00     0.173 A 
ATOM     83  C   UNL     1      10.568  17.067  -0.718  1.00  0.00     0.173 A 
ATOM     84  F   UNL     1      12.656  16.558   2.218  1.00  0.00    -0.203 F 
ATOM     85  C   UNL     1      12.538  18.382   0.736  1.00  0.00     0.198 A 
ATOM     86  C   UNL     1      11.012  18.325  -1.117  1.00  0.00     0.198 A 
ATOM     87  F   UNL     1       9.614  16.456  -1.437  1.00  0.00    -0.203 F 
ATOM     88  F   UNL     1      13.469  19.025   1.456  1.00  0.00    -0.200 F 
ATOM     89  C   UNL     1      11.987  18.986  -0.383  1.00  0.00     0.200 A 
ATOM     90  F   UNL     1      10.492  18.901  -2.210  1.00  0.00    -0.200 F 
ATOM     91  F   UNL     1      12.393  20.208  -0.754  1.00  0.00    -0.200 F 
ENDBRANCH  58  81
ENDBRANCH  32  33
ENDBRANCH  24  27
ENDBRANCH  22  23
ENDBRANCH  21  22
ENDBRANCH   1  21
TORSDOF 13
