REMARK SMILES Cc1nc(-c2ccccc2F)sc1C(=O)NCc1ccc(C(=O)NCCCCNC(=O)c2ccc(-c3c4nc(c(-c5c(F)c(F)c(F)c(F)c5F)c5ccc([nH]5)c(-c5c(F)c(F)c(F)c(F)c5F)c5nc(c(-c6c(F)c(F)c(F)c(F)c6F)c6ccc3[nH]6)C=C5)C=C4)cc2)cc1
REMARK SMILES IDX 25 1 24 2 22 3 23 4 21 6 18 7 19 8 96 9 20 10 95 11 17 12
REMARK SMILES IDX 16 13 14 14 15 15 13 17 1 18 2 19 3 20 4 21 12 22 5 23 6 24
REMARK SMILES IDX 10 25 7 26 9 27 11 28 8 29 26 30 27 31 28 32 29 33 30 34
REMARK SMILES IDX 31 36 32 37 33 38 94 39 34 40 93 41 35 42 36 43 37 44 87 45
REMARK SMILES IDX 38 46 92 47 86 48 88 49 39 50 91 51 85 52 84 53 40 55 72 56
REMARK SMILES IDX 52 57 71 58 53 59 56 60 70 61 89 62 54 63 55 64 69 66 90 67
REMARK SMILES IDX 57 68 41 69 42 70 50 71 43 72 44 73 48 74 51 75 45 76 46 77
REMARK SMILES IDX 49 78 47 79 73 80 74 81 82 82 75 83 76 84 80 85 83 86 77 87
REMARK SMILES IDX 78 88 81 89 79 90 58 91 59 92 67 93 60 94 61 95 65 96 68 97
REMARK SMILES IDX 62 98 63 99 66 100 64 101
REMARK H PARENT 24 5 16 16 29 35 88 54 56 65
REMARK Flexibility Score: inf
ROOT
ATOM      1  C   UNL     1      -5.617  -5.697  -4.845  1.00  0.00     0.116 C 
ENDROOT
BRANCH   1   2
ATOM      2  N   UNL     1      -6.310  -4.438  -5.021  1.00  0.00    -0.352 N 
ATOM      3  C   UNL     1      -6.269  -3.290  -4.268  1.00  0.00     0.251 C 
ATOM      4  O   UNL     1      -6.898  -2.309  -4.662  1.00  0.00    -0.269 OA
ATOM      5  H   UNL     1      -6.905  -4.398  -5.804  1.00  0.00     0.163 HD
BRANCH   3   6
ATOM      6  C   UNL     1      -5.450  -3.179  -3.031  1.00  0.00     0.039 A 
ATOM      7  C   UNL     1      -3.837  -2.827  -0.730  1.00  0.00    -0.029 A 
ATOM      8  C   UNL     1      -4.011  -1.791  -1.656  1.00  0.00     0.006 A 
ATOM      9  C   UNL     1      -4.490  -4.040  -0.970  1.00  0.00     0.006 A 
ATOM     10  C   UNL     1      -4.821  -1.957  -2.784  1.00  0.00     0.014 A 
ATOM     11  C   UNL     1      -5.301  -4.203  -2.095  1.00  0.00     0.014 A 
BRANCH   7  12
ATOM     12  C   UNL     1      -2.918  -2.711   0.459  1.00  0.00     0.152 C 
BRANCH  12  13
ATOM     13  N   UNL     1      -1.556  -2.876   0.046  1.00  0.00    -0.347 N 
ATOM     14  C   UNL     1      -0.468  -2.081  -0.146  1.00  0.00     0.263 C 
ATOM     15  O   UNL     1       0.509  -2.761  -0.496  1.00  0.00    -0.268 OA
ATOM     16  H   UNL     1      -1.352  -3.818  -0.152  1.00  0.00     0.164 HD
BRANCH  14  17
ATOM     17  C   UNL     1      -0.378  -0.632   0.033  1.00  0.00     0.115 A 
ATOM     18  C   UNL     1      -2.641   0.740   0.379  1.00  0.00     0.068 C 
ATOM     19  C   UNL     1      -1.185   0.488   0.252  1.00  0.00     0.062 A 
ATOM     20  N   UNL     1      -0.496   1.697   0.328  1.00  0.00    -0.240 NA
ATOM     21  C   UNL     1       0.781   1.560   0.086  1.00  0.00     0.127 A 
ATOM     22  S   UNL     1       1.285  -0.044  -0.112  1.00  0.00    -0.108 S 
BRANCH  21  23
ATOM     23  C   UNL     1       1.702   2.690   0.060  1.00  0.00     0.046 A 
ATOM     24  C   UNL     1       1.599   3.663   1.067  1.00  0.00     0.014 A 
ATOM     25  C   UNL     1       2.610   2.902  -0.981  1.00  0.00     0.133 A 
ATOM     26  C   UNL     1       2.385   4.816   1.031  1.00  0.00     0.001 A 
ATOM     27  C   UNL     1       3.393   4.055  -1.025  1.00  0.00     0.040 A 
ATOM     28  F   UNL     1       2.718   2.026  -1.991  1.00  0.00    -0.206 F 
ATOM     29  C   UNL     1       3.279   5.014  -0.020  1.00  0.00     0.003 A 
ENDBRANCH  21  23
ENDBRANCH  14  17
ENDBRANCH  12  13
ENDBRANCH   7  12
ENDBRANCH   3   6
ENDBRANCH   1   2
BRANCH   1  30
ATOM     30  C   UNL     1      -6.506  -6.712  -4.124  1.00  0.00     0.023 C 
BRANCH  30  31
ATOM     31  C   UNL     1      -7.525  -7.417  -5.013  1.00  0.00     0.023 C 
BRANCH  31  32
ATOM     32  C   UNL     1      -6.921  -8.283  -6.105  1.00  0.00     0.116 C 
BRANCH  32  33
ATOM     33  N   UNL     1      -6.020  -9.308  -5.603  1.00  0.00    -0.352 N 
ATOM     34  C   UNL     1      -5.769 -10.551  -6.140  1.00  0.00     0.251 C 
ATOM     35  H   UNL     1      -5.529  -9.086  -4.779  1.00  0.00     0.163 HD
ATOM     36  O   UNL     1      -5.057 -11.354  -5.567  1.00  0.00    -0.269 OA
BRANCH  34  37
ATOM     37  C   UNL     1      -6.434 -10.905  -7.410  1.00  0.00     0.039 A 
ATOM     38  C   UNL     1      -7.199 -12.071  -7.464  1.00  0.00     0.014 A 
ATOM     39  C   UNL     1      -6.367 -10.040  -8.505  1.00  0.00     0.014 A 
ATOM     40  C   UNL     1      -7.961 -12.334  -8.602  1.00  0.00     0.010 A 
ATOM     41  C   UNL     1      -7.183 -10.266  -9.605  1.00  0.00     0.010 A 
ATOM     42  C   UNL     1      -7.989 -11.413  -9.661  1.00  0.00    -0.014 A 
BRANCH  42  43
ATOM     43  C   UNL     1      -8.858 -11.626 -10.843  1.00  0.00     0.031 A 
ATOM     44  C   UNL     1      -8.239 -11.839 -12.193  1.00  0.00     0.074 A 
ATOM     45  C   UNL     1     -10.196 -11.559 -10.707  1.00  0.00     0.049 A 
ATOM     46  N   UNL     1      -8.821 -11.958 -13.359  1.00  0.00    -0.248 NA
ATOM     47  C   UNL     1      -6.769 -11.898 -12.246  1.00  0.00     0.031 C 
ATOM     48  C   UNL     1     -10.907 -11.311  -9.452  1.00  0.00     0.029 A 
ATOM     49  N   UNL     1     -11.197 -11.684 -11.638  1.00  0.00    -0.354 N 
ATOM     50  C   UNL     1      -7.792 -12.091 -14.279  1.00  0.00     0.074 A 
ATOM     51  C   UNL     1      -6.548 -11.986 -13.549  1.00  0.00     0.031 C 
ATOM     52  C   UNL     1     -12.229 -11.331  -9.686  1.00  0.00     0.029 A 
ATOM     53  C   UNL     1     -12.458 -11.554 -11.111  1.00  0.00     0.049 A 
ATOM     54  H   UNL     1     -11.027 -11.850 -12.593  1.00  0.00     0.167 HD
ATOM     55  C   UNL     1      -7.880 -12.309 -15.612  1.00  0.00     0.037 A 
ATOM     56  C   UNL     1     -13.662 -11.606 -11.711  1.00  0.00     0.037 A 
ATOM     57  C   UNL     1      -9.120 -12.448 -16.326  1.00  0.00     0.049 A 
ATOM     58  C   UNL     1     -13.732 -11.849 -13.194  1.00  0.00     0.074 A 
ATOM     59  C   UNL     1      -9.313 -12.729 -17.667  1.00  0.00     0.029 A 
ATOM     60  N   UNL     1     -10.377 -12.323 -15.755  1.00  0.00    -0.354 N 
ATOM     61  N   UNL     1     -12.754 -12.024 -14.048  1.00  0.00    -0.248 NA
ATOM     62  C   UNL     1     -15.072 -11.903 -13.797  1.00  0.00     0.031 C 
ATOM     63  C   UNL     1     -10.688 -12.736 -17.916  1.00  0.00     0.029 A 
ATOM     64  C   UNL     1     -11.352 -12.505 -16.722  1.00  0.00     0.049 A 
ATOM     65  H   UNL     1     -10.551 -12.133 -14.805  1.00  0.00     0.167 HD
ATOM     66  C   UNL     1     -13.355 -12.231 -15.281  1.00  0.00     0.074 A 
ATOM     67  C   UNL     1     -14.785 -12.170 -15.064  1.00  0.00     0.031 C 
ATOM     68  C   UNL     1     -12.772 -12.450 -16.484  1.00  0.00     0.037 A 
BRANCH  55  69
ATOM     69  C   UNL     1      -6.601 -12.430 -16.385  1.00  0.00     0.064 A 
ATOM     70  C   UNL     1      -6.226 -11.440 -17.304  1.00  0.00     0.173 A 
ATOM     71  C   UNL     1      -5.776 -13.558 -16.259  1.00  0.00     0.173 A 
ATOM     72  F   UNL     1      -6.983 -10.343 -17.464  1.00  0.00    -0.203 F 
ATOM     73  C   UNL     1      -5.078 -11.580 -18.079  1.00  0.00     0.198 A 
ATOM     74  C   UNL     1      -4.614 -13.682 -17.015  1.00  0.00     0.198 A 
ATOM     75  F   UNL     1      -6.084 -14.526 -15.383  1.00  0.00    -0.203 F 
ATOM     76  F   UNL     1      -4.755 -10.635 -18.972  1.00  0.00    -0.200 F 
ATOM     77  C   UNL     1      -4.271 -12.698 -17.931  1.00  0.00     0.200 A 
ATOM     78  F   UNL     1      -3.822 -14.751 -16.854  1.00  0.00    -0.200 F 
ATOM     79  F   UNL     1      -3.160 -12.827 -18.670  1.00  0.00    -0.200 F 
ENDBRANCH  55  69
BRANCH  56  80
ATOM     80  C   UNL     1     -14.896 -11.464 -10.897  1.00  0.00     0.064 A 
ATOM     81  C   UNL     1     -15.260 -10.236 -10.325  1.00  0.00     0.173 A 
ATOM     82  C   UNL     1     -15.722 -12.569 -10.651  1.00  0.00     0.173 A 
ATOM     83  F   UNL     1     -14.500  -9.150 -10.526  1.00  0.00    -0.203 F 
ATOM     84  C   UNL     1     -16.394 -10.125  -9.523  1.00  0.00     0.198 A 
ATOM     85  C   UNL     1     -16.868 -12.452  -9.868  1.00  0.00     0.198 A 
ATOM     86  F   UNL     1     -15.424 -13.760 -11.192  1.00  0.00    -0.203 F 
ATOM     87  F   UNL     1     -16.703  -8.948  -8.962  1.00  0.00    -0.200 F 
ATOM     88  C   UNL     1     -17.199 -11.232  -9.299  1.00  0.00     0.200 A 
ATOM     89  F   UNL     1     -17.655 -13.518  -9.672  1.00  0.00    -0.200 F 
ATOM     90  F   UNL     1     -18.295 -11.122  -8.535  1.00  0.00    -0.200 F 
ENDBRANCH  56  80
BRANCH  68  91
ATOM     91  C   UNL     1     -13.671 -12.665 -17.665  1.00  0.00     0.064 A 
ATOM     92  C   UNL     1     -13.775 -13.934 -18.254  1.00  0.00     0.173 A 
ATOM     93  C   UNL     1     -14.352 -11.599 -18.267  1.00  0.00     0.173 A 
ATOM     94  F   UNL     1     -13.134 -14.984 -17.718  1.00  0.00    -0.203 F 
ATOM     95  C   UNL     1     -14.515 -14.123 -19.418  1.00  0.00     0.198 A 
ATOM     96  C   UNL     1     -15.111 -11.797 -19.417  1.00  0.00     0.198 A 
ATOM     97  F   UNL     1     -14.291 -10.370 -17.732  1.00  0.00    -0.203 F 
ATOM     98  F   UNL     1     -14.570 -15.335 -19.986  1.00  0.00    -0.200 F 
ATOM     99  C   UNL     1     -15.183 -13.055 -19.997  1.00  0.00     0.200 A 
ATOM    100  F   UNL     1     -15.774 -10.768 -19.965  1.00  0.00    -0.200 F 
ATOM    101  F   UNL     1     -15.897 -13.238 -21.116  1.00  0.00    -0.200 F 
ENDBRANCH  68  91
ENDBRANCH  42  43
ENDBRANCH  34  37
ENDBRANCH  32  33
ENDBRANCH  31  32
ENDBRANCH  30  31
ENDBRANCH   1  30
TORSDOF 15
