REMARK SMILES Cn1c(=O)c2c(nc(Nc3cccc(Cl)c3Cl)n2CC(=O)NCCCCNC(=O)c2ccc(-c3c4nc(c(-c5c(F)c(F)c(F)c(F)c5F)c5ccc([nH]5)c(-c5c(F)c(F)c(F)c(F)c5F)c5nc(c(-c6c(F)c(F)c(F)c(F)c6F)c6ccc3[nH]6)C=C5)C=C4)cc2)n(C)c1=O
REMARK SMILES IDX 24 1 23 2 22 3 20 4 21 5 19 7 18 8 1 9 2 10 3 11 95 12 4 13
REMARK SMILES IDX 5 14 93 15 96 16 6 17 94 18 7 19 8 20 9 21 10 23 11 24 16 25
REMARK SMILES IDX 12 26 14 27 17 28 13 29 15 30 25 31 26 32 27 33 28 34 29 36
REMARK SMILES IDX 30 37 31 38 92 39 32 40 91 41 33 42 34 43 35 44 85 45 36 46
REMARK SMILES IDX 90 47 84 48 86 49 37 50 89 51 83 52 82 53 38 55 70 56 50 57
REMARK SMILES IDX 69 58 51 59 54 60 68 61 87 62 52 63 53 64 67 66 88 67 55 68
REMARK SMILES IDX 39 69 40 70 48 71 41 72 42 73 46 74 49 75 43 76 44 77 47 78
REMARK SMILES IDX 45 79 71 80 72 81 80 82 73 83 74 84 78 85 81 86 75 87 76 88
REMARK SMILES IDX 79 89 77 90 56 91 57 92 65 93 58 94 59 95 63 96 66 97 60 98
REMARK SMILES IDX 61 99 64 100 62 101
REMARK H PARENT 22 6 9 22 27 35 86 54 54 65
REMARK Flexibility Score: inf
ROOT
ATOM      1  C   UNL     1       3.033   2.433   5.840  1.00  0.00     0.023 C 
ENDROOT
BRANCH   1   2
ATOM      2  C   UNL     1       2.617   3.887   5.638  1.00  0.00     0.116 C 
BRANCH   2   3
ATOM      3  N   UNL     1       2.751   4.330   4.270  1.00  0.00    -0.355 N 
ATOM      4  C   UNL     1       1.781   4.575   3.341  1.00  0.00     0.240 C 
ATOM      5  O   UNL     1       2.145   5.120   2.296  1.00  0.00    -0.273 OA
ATOM      6  H   UNL     1       3.675   4.477   3.963  1.00  0.00     0.163 HD
BRANCH   4   7
ATOM      7  C   UNL     1       0.311   4.344   3.643  1.00  0.00     0.226 C 
BRANCH   7   8
ATOM      8  N   UNL     1      -0.065   3.000   4.054  1.00  0.00    -0.295 N 
ATOM      9  C   UNL     1       0.987   0.135   0.128  1.00  0.00     0.159 C 
ATOM     10  N   UNL     1       0.513   0.388   1.476  1.00  0.00    -0.261 N 
ATOM     11  C   UNL     1       0.493   1.726   1.893  1.00  0.00     0.282 A 
ATOM     12  C   UNL     1       0.151  -0.721   2.261  1.00  0.00     0.332 A 
ATOM     13  O   UNL     1       0.825   2.660   1.183  1.00  0.00    -0.267 OA
ATOM     14  C   UNL     1       0.049   1.888   3.240  1.00  0.00     0.154 A 
ATOM     15  N   UNL     1      -0.310  -0.459   3.551  1.00  0.00    -0.279 N 
ATOM     16  O   UNL     1       0.248  -1.873   1.830  1.00  0.00    -0.247 OA
ATOM     17  C   UNL     1      -0.347   0.839   4.003  1.00  0.00     0.170 A 
ATOM     18  C   UNL     1      -0.725  -1.546   4.419  1.00  0.00     0.157 C 
ATOM     19  N   UNL     1      -0.745   1.236   5.233  1.00  0.00    -0.194 NA
ATOM     20  C   UNL     1      -0.622   2.551   5.252  1.00  0.00     0.210 A 
BRANCH  20  21
ATOM     21  N   UNL     1      -0.916   3.242   6.380  1.00  0.00    -0.324 N 
ATOM     22  H   UNL     1      -1.186   2.662   7.128  1.00  0.00     0.170 HD
BRANCH  21  23
ATOM     23  C   UNL     1      -0.919   4.609   6.712  1.00  0.00     0.061 A 
ATOM     24  C   UNL     1      -0.070   5.006   7.765  1.00  0.00     0.028 A 
ATOM     25  C   UNL     1      -1.706   5.590   6.077  1.00  0.00     0.083 A 
ATOM     26  C   UNL     1       0.096   6.349   8.097  1.00  0.00     0.004 A 
ATOM     27  C   UNL     1      -1.527   6.945   6.407  1.00  0.00     0.061 A 
ATOM     28  Cl  UNL     1      -2.892   5.114   4.901  1.00  0.00    -0.080 Cl
ATOM     29  C   UNL     1      -0.615   7.319   7.400  1.00  0.00     0.022 A 
ATOM     30  Cl  UNL     1      -2.375   8.216   5.598  1.00  0.00    -0.083 Cl
ENDBRANCH  21  23
ENDBRANCH  20  21
ENDBRANCH   7   8
ENDBRANCH   4   7
ENDBRANCH   2   3
ENDBRANCH   1   2
BRANCH   1  31
ATOM     31  C   UNL     1       4.522   2.145   5.619  1.00  0.00     0.023 C 
BRANCH  31  32
ATOM     32  C   UNL     1       5.462   2.971   6.485  1.00  0.00     0.116 C 
BRANCH  32  33
ATOM     33  N   UNL     1       5.312   2.708   7.912  1.00  0.00    -0.352 N 
ATOM     34  C   UNL     1       6.021   3.286   8.946  1.00  0.00     0.251 C 
ATOM     35  H   UNL     1       4.629   2.046   8.166  1.00  0.00     0.163 HD
ATOM     36  O   UNL     1       6.119   2.724  10.031  1.00  0.00    -0.269 OA
BRANCH  34  37
ATOM     37  C   UNL     1       6.667   4.595   8.727  1.00  0.00     0.039 A 
ATOM     38  C   UNL     1       7.940   4.854   9.234  1.00  0.00     0.014 A 
ATOM     39  C   UNL     1       5.986   5.569   7.994  1.00  0.00     0.014 A 
ATOM     40  C   UNL     1       8.547   6.068   8.925  1.00  0.00     0.010 A 
ATOM     41  C   UNL     1       6.635   6.713   7.581  1.00  0.00     0.010 A 
ATOM     42  C   UNL     1       7.906   6.985   8.066  1.00  0.00    -0.014 A 
BRANCH  42  43
ATOM     43  C   UNL     1       8.646   8.143   7.564  1.00  0.00     0.031 A 
ATOM     44  C   UNL     1      10.002   7.802   7.062  1.00  0.00     0.074 A 
ATOM     45  C   UNL     1       8.168   9.401   7.436  1.00  0.00     0.049 A 
ATOM     46  N   UNL     1      11.117   8.078   7.649  1.00  0.00    -0.248 NA
ATOM     47  C   UNL     1      10.146   6.923   5.892  1.00  0.00     0.031 C 
ATOM     48  C   UNL     1       6.802   9.893   7.626  1.00  0.00     0.029 A 
ATOM     49  N   UNL     1       8.831  10.527   7.037  1.00  0.00    -0.354 N 
ATOM     50  C   UNL     1      12.123   7.585   6.830  1.00  0.00     0.074 A 
ATOM     51  C   UNL     1      11.470   6.746   5.858  1.00  0.00     0.031 C 
ATOM     52  C   UNL     1       6.696  11.147   7.128  1.00  0.00     0.029 A 
ATOM     53  C   UNL     1       8.013  11.611   6.733  1.00  0.00     0.049 A 
ATOM     54  H   UNL     1       9.813  10.567   6.970  1.00  0.00     0.167 HD
ATOM     55  C   UNL     1      13.370   8.128   6.892  1.00  0.00     0.037 A 
ATOM     56  C   UNL     1       8.393  12.801   6.195  1.00  0.00     0.037 A 
ATOM     57  C   UNL     1      13.544   8.866   8.123  1.00  0.00     0.049 A 
ATOM     58  C   UNL     1       9.835  12.973   6.505  1.00  0.00     0.074 A 
ATOM     59  C   UNL     1      13.427   8.552   9.465  1.00  0.00     0.029 A 
ATOM     60  N   UNL     1      13.499  10.238   8.065  1.00  0.00    -0.354 N 
ATOM     61  N   UNL     1      10.293  13.170   7.710  1.00  0.00    -0.248 NA
ATOM     62  C   UNL     1      10.792  12.450   5.542  1.00  0.00     0.031 C 
ATOM     63  C   UNL     1      12.806   9.691  10.056  1.00  0.00     0.029 A 
ATOM     64  C   UNL     1      12.666  10.661   9.065  1.00  0.00     0.049 A 
ATOM     65  H   UNL     1      13.977  10.811   7.422  1.00  0.00     0.167 HD
ATOM     66  C   UNL     1      11.424  12.374   7.777  1.00  0.00     0.074 A 
ATOM     67  C   UNL     1      11.723  12.010   6.393  1.00  0.00     0.031 C 
ATOM     68  C   UNL     1      11.840  11.838   8.960  1.00  0.00     0.037 A 
BRANCH  55  69
ATOM     69  C   UNL     1      14.249   8.378   5.688  1.00  0.00     0.064 A 
ATOM     70  C   UNL     1      15.517   8.962   5.896  1.00  0.00     0.173 A 
ATOM     71  C   UNL     1      13.778   8.407   4.358  1.00  0.00     0.173 A 
ATOM     72  F   UNL     1      16.066   8.990   7.120  1.00  0.00    -0.203 F 
ATOM     73  C   UNL     1      16.190   9.643   4.880  1.00  0.00     0.198 A 
ATOM     74  C   UNL     1      14.480   9.043   3.336  1.00  0.00     0.198 A 
ATOM     75  F   UNL     1      12.579   7.934   4.009  1.00  0.00    -0.203 F 
ATOM     76  F   UNL     1      17.308  10.324   5.167  1.00  0.00    -0.200 F 
ATOM     77  C   UNL     1      15.663   9.696   3.604  1.00  0.00     0.200 A 
ATOM     78  F   UNL     1      13.945   9.095   2.108  1.00  0.00    -0.200 F 
ATOM     79  F   UNL     1      16.265  10.415   2.648  1.00  0.00    -0.200 F 
ENDBRANCH  55  69
BRANCH  56  80
ATOM     80  C   UNL     1       7.703  13.635   5.173  1.00  0.00     0.064 A 
ATOM     81  C   UNL     1       8.213  14.897   4.805  1.00  0.00     0.173 A 
ATOM     82  C   UNL     1       6.718  13.099   4.321  1.00  0.00     0.173 A 
ATOM     83  F   UNL     1       9.179  15.475   5.535  1.00  0.00    -0.203 F 
ATOM     84  C   UNL     1       7.803  15.550   3.636  1.00  0.00     0.198 A 
ATOM     85  C   UNL     1       6.305  13.755   3.158  1.00  0.00     0.198 A 
ATOM     86  F   UNL     1       6.202  11.883   4.545  1.00  0.00    -0.203 F 
ATOM     87  F   UNL     1       8.371  16.712   3.284  1.00  0.00    -0.200 F 
ATOM     88  C   UNL     1       6.861  14.970   2.805  1.00  0.00     0.200 A 
ATOM     89  F   UNL     1       5.414  13.168   2.347  1.00  0.00    -0.200 F 
ATOM     90  F   UNL     1       6.519  15.559   1.650  1.00  0.00    -0.200 F 
ENDBRANCH  56  80
BRANCH  68  91
ATOM     91  C   UNL     1      11.235  12.334  10.241  1.00  0.00     0.064 A 
ATOM     92  C   UNL     1       9.882  12.187  10.588  1.00  0.00     0.173 A 
ATOM     93  C   UNL     1      12.115  12.779  11.239  1.00  0.00     0.173 A 
ATOM     94  F   UNL     1       8.992  11.692   9.717  1.00  0.00    -0.203 F 
ATOM     95  C   UNL     1       9.435  12.478  11.877  1.00  0.00     0.198 A 
ATOM     96  C   UNL     1      11.672  13.032  12.533  1.00  0.00     0.198 A 
ATOM     97  F   UNL     1      13.426  12.898  10.974  1.00  0.00    -0.203 F 
ATOM     98  F   UNL     1       8.140  12.318  12.192  1.00  0.00    -0.200 F 
ATOM     99  C   UNL     1      10.333  12.883  12.851  1.00  0.00     0.200 A 
ATOM    100  F   UNL     1      12.554  13.376  13.482  1.00  0.00    -0.200 F 
ATOM    101  F   UNL     1       9.914  13.098  14.106  1.00  0.00    -0.200 F 
ENDBRANCH  68  91
ENDBRANCH  42  43
ENDBRANCH  34  37
ENDBRANCH  32  33
ENDBRANCH  31  32
ENDBRANCH   1  31
TORSDOF 14
