REMARK SMILES COC(=O)[C@@H]1CN(C(=O)N(CC(=O)NCCCCNC(=O)c2ccc(-c3c4nc(c(-c5c(F)c(F)c(F)c(F)c5F)c5ccc([nH]5)c(-c5c(F)c(F)c(F)c(F)c5F)c5nc(c(-c6c(F)c(F)c(F)c(F)c6F)c6ccc3[nH]6)C=C5)C=C4)cc2)C(C)(C)C)C[C@H]1C
REMARK SMILES IDX 15 1 14 2 12 3 13 4 11 6 10 7 8 8 9 9 7 10 5 11 6 12 90 13
REMARK SMILES IDX 89 14 91 15 3 16 4 17 2 18 1 19 85 20 86 21 87 22 88 23
REMARK SMILES IDX 16 24 17 25 18 26 19 27 20 28 21 30 22 31 23 32 84 33 24 34
REMARK SMILES IDX 83 35 25 36 26 37 27 38 77 39 28 40 82 41 76 42 78 43 29 44
REMARK SMILES IDX 81 45 75 46 74 47 30 49 62 50 42 51 61 52 43 53 46 54 60 55
REMARK SMILES IDX 79 56 44 57 45 58 59 60 80 61 47 62 31 63 32 64 40 65 33 66
REMARK SMILES IDX 34 67 38 68 41 69 35 70 36 71 39 72 37 73 63 74 64 75 72 76
REMARK SMILES IDX 65 77 66 78 70 79 73 80 67 81 68 82 71 83 69 84 48 85 49 86
REMARK SMILES IDX 57 87 50 88 51 89 55 90 58 91 52 92 53 93 56 94 54 95
REMARK H PARENT 14 5 19 29 78 48 46 59
REMARK Flexibility Score: inf
ROOT
ATOM      1  C   UNL     1       5.760  -0.983  -1.353  1.00  0.00     0.116 C 
ENDROOT
BRANCH   1   2
ATOM      2  N   UNL     1       5.930   0.226  -0.581  1.00  0.00    -0.355 N 
ATOM      3  C   UNL     1       5.311   1.437  -0.673  1.00  0.00     0.239 C 
ATOM      4  O   UNL     1       5.344   2.135   0.349  1.00  0.00    -0.273 OA
ATOM      5  H   UNL     1       6.607   0.165   0.132  1.00  0.00     0.163 HD
BRANCH   3   6
ATOM      6  C   UNL     1       4.471   1.914  -1.882  1.00  0.00     0.221 C 
BRANCH   6   7
ATOM      7  N   UNL     1       4.878   1.521  -3.233  1.00  0.00    -0.311 N 
BRANCH   7   8
ATOM      8  C   UNL     1       4.282   0.520  -4.007  1.00  0.00     0.320 C 
ATOM      9  O   UNL     1       4.704   0.294  -5.147  1.00  0.00    -0.248 OA
BRANCH   8  10
ATOM     10  N   UNL     1       3.263  -0.291  -3.536  1.00  0.00    -0.323 N 
ATOM     11  C   UNL     1       1.986  -1.767  -2.126  1.00  0.00     0.123 C 
ATOM     12  C   UNL     1       2.472  -0.331  -2.317  1.00  0.00     0.137 C 
ATOM     13  C   UNL     1       2.366  -2.489  -3.442  1.00  0.00     0.021 C 
ATOM     14  C   UNL     1       2.781  -1.366  -4.396  1.00  0.00     0.125 C 
ATOM     15  C   UNL     1       3.507  -3.489  -3.228  1.00  0.00     0.010 C 
BRANCH  11  16
ATOM     16  C   UNL     1       0.506  -1.853  -1.798  1.00  0.00     0.310 C 
ATOM     17  O   UNL     1      -0.297  -2.416  -2.537  1.00  0.00    -0.252 OA
BRANCH  16  18
ATOM     18  O   UNL     1       0.086  -1.384  -0.596  1.00  0.00    -0.469 OA
ATOM     19  C   UNL     1       0.796  -0.423   0.197  1.00  0.00     0.282 C 
ENDBRANCH  16  18
ENDBRANCH  11  16
ENDBRANCH   8  10
ENDBRANCH   7   8
BRANCH   7  20
ATOM     20  C   UNL     1       6.035   2.324  -3.846  1.00  0.00     0.037 C 
ATOM     21  C   UNL     1       7.263   1.437  -4.135  1.00  0.00     0.034 C 
ATOM     22  C   UNL     1       5.588   3.029  -5.147  1.00  0.00     0.034 C 
ATOM     23  C   UNL     1       6.586   3.462  -2.933  1.00  0.00     0.034 C 
ENDBRANCH   7  20
ENDBRANCH   6   7
ENDBRANCH   3   6
ENDBRANCH   1   2
BRANCH   1  24
ATOM     24  C   UNL     1       7.012  -1.503  -2.041  1.00  0.00     0.023 C 
BRANCH  24  25
ATOM     25  C   UNL     1       8.089  -2.026  -1.107  1.00  0.00     0.023 C 
BRANCH  25  26
ATOM     26  C   UNL     1       7.637  -3.161  -0.204  1.00  0.00     0.116 C 
BRANCH  26  27
ATOM     27  N   UNL     1       7.130  -4.313  -0.939  1.00  0.00    -0.352 N 
ATOM     28  C   UNL     1       7.455  -5.641  -0.792  1.00  0.00     0.251 C 
ATOM     29  H   UNL     1       6.464  -4.112  -1.635  1.00  0.00     0.163 HD
ATOM     30  O   UNL     1       7.031  -6.478  -1.576  1.00  0.00    -0.269 OA
BRANCH  28  31
ATOM     31  C   UNL     1       8.356  -6.038   0.308  1.00  0.00     0.039 A 
ATOM     32  C   UNL     1       9.444  -6.865   0.027  1.00  0.00     0.014 A 
ATOM     33  C   UNL     1       8.156  -5.539   1.597  1.00  0.00     0.014 A 
ATOM     34  C   UNL     1      10.379  -7.130   1.028  1.00  0.00     0.010 A 
ATOM     35  C   UNL     1       9.136  -5.723   2.562  1.00  0.00     0.010 A 
ATOM     36  C   UNL     1      10.254  -6.526   2.290  1.00  0.00    -0.014 A 
BRANCH  36  37
ATOM     37  C   UNL     1      11.275  -6.725   3.347  1.00  0.00     0.031 A 
ATOM     38  C   UNL     1      10.893  -7.385   4.641  1.00  0.00     0.074 A 
ATOM     39  C   UNL     1      12.519  -6.238   3.174  1.00  0.00     0.049 A 
ATOM     40  N   UNL     1      11.614  -7.581   5.716  1.00  0.00    -0.248 NA
ATOM     41  C   UNL     1       9.503  -7.854   4.758  1.00  0.00     0.031 C 
ATOM     42  C   UNL     1      12.989  -5.518   1.989  1.00  0.00     0.029 A 
ATOM     43  N   UNL     1      13.612  -6.263   4.003  1.00  0.00    -0.354 N 
ATOM     44  C   UNL     1      10.760  -8.172   6.638  1.00  0.00     0.074 A 
ATOM     45  C   UNL     1       9.454  -8.248   6.021  1.00  0.00     0.031 C 
ATOM     46  C   UNL     1      14.280  -5.190   2.158  1.00  0.00     0.029 A 
ATOM     47  C   UNL     1      14.718  -5.644   3.474  1.00  0.00     0.049 A 
ATOM     48  H   UNL     1      13.604  -6.684   4.893  1.00  0.00     0.167 HD
ATOM     49  C   UNL     1      11.046  -8.635   7.878  1.00  0.00     0.037 A 
ATOM     50  C   UNL     1      15.946  -5.461   3.996  1.00  0.00     0.037 A 
ATOM     51  C   UNL     1      12.356  -8.589   8.470  1.00  0.00     0.049 A 
ATOM     52  C   UNL     1      16.247  -6.006   5.365  1.00  0.00     0.074 A 
ATOM     53  C   UNL     1      12.772  -9.105   9.684  1.00  0.00     0.029 A 
ATOM     54  N   UNL     1      13.464  -7.988   7.889  1.00  0.00    -0.354 N 
ATOM     55  N   UNL     1      15.456  -6.641   6.196  1.00  0.00    -0.248 NA
ATOM     56  C   UNL     1      17.616  -5.819   5.866  1.00  0.00     0.031 C 
ATOM     57  C   UNL     1      14.120  -8.773   9.861  1.00  0.00     0.029 A 
ATOM     58  C   UNL     1      14.558  -8.098   8.732  1.00  0.00     0.049 A 
ATOM     59  H   UNL     1      13.471  -7.549   7.008  1.00  0.00     0.167 HD
ATOM     60  C   UNL     1      16.232  -6.949   7.304  1.00  0.00     0.074 A 
ATOM     61  C   UNL     1      17.563  -6.446   7.032  1.00  0.00     0.031 C 
ATOM     62  C   UNL     1      15.876  -7.591   8.444  1.00  0.00     0.037 A 
BRANCH  49  63
ATOM     63  C   UNL     1       9.919  -9.230   8.671  1.00  0.00     0.064 A 
ATOM     64  C   UNL     1       9.318 -10.445   8.305  1.00  0.00     0.173 A 
ATOM     65  C   UNL     1       9.445  -8.587   9.824  1.00  0.00     0.173 A 
ATOM     66  F   UNL     1       9.724 -11.094   7.203  1.00  0.00    -0.203 F 
ATOM     67  C   UNL     1       8.260 -10.972   9.040  1.00  0.00     0.198 A 
ATOM     68  C   UNL     1       8.409  -9.135  10.577  1.00  0.00     0.198 A 
ATOM     69  F   UNL     1       9.986  -7.426  10.223  1.00  0.00    -0.203 F 
ATOM     70  F   UNL     1       7.662 -12.101   8.635  1.00  0.00    -0.200 F 
ATOM     71  C   UNL     1       7.811 -10.321  10.179  1.00  0.00     0.200 A 
ATOM     72  F   UNL     1       7.984  -8.511  11.684  1.00  0.00    -0.200 F 
ATOM     73  F   UNL     1       6.795 -10.831  10.887  1.00  0.00    -0.200 F 
ENDBRANCH  49  63
BRANCH  50  74
ATOM     74  C   UNL     1      16.987  -4.757   3.204  1.00  0.00     0.064 A 
ATOM     75  C   UNL     1      18.083  -5.454   2.674  1.00  0.00     0.173 A 
ATOM     76  C   UNL     1      16.903  -3.381   2.947  1.00  0.00     0.173 A 
ATOM     77  F   UNL     1      18.216  -6.767   2.909  1.00  0.00    -0.203 F 
ATOM     78  C   UNL     1      19.063  -4.798   1.933  1.00  0.00     0.198 A 
ATOM     79  C   UNL     1      17.870  -2.731   2.182  1.00  0.00     0.198 A 
ATOM     80  F   UNL     1      15.871  -2.671   3.425  1.00  0.00    -0.203 F 
ATOM     81  F   UNL     1      20.120  -5.480   1.472  1.00  0.00    -0.200 F 
ATOM     82  C   UNL     1      18.952  -3.439   1.681  1.00  0.00     0.200 A 
ATOM     83  F   UNL     1      17.751  -1.421   1.928  1.00  0.00    -0.200 F 
ATOM     84  F   UNL     1      19.891  -2.810   0.960  1.00  0.00    -0.200 F 
ENDBRANCH  50  74
BRANCH  62  85
ATOM     85  C   UNL     1      16.947  -7.810   9.473  1.00  0.00     0.064 A 
ATOM     86  C   UNL     1      17.462  -6.752  10.236  1.00  0.00     0.173 A 
ATOM     87  C   UNL     1      17.434  -9.102   9.725  1.00  0.00     0.173 A 
ATOM     88  F   UNL     1      17.039  -5.497  10.023  1.00  0.00    -0.203 F 
ATOM     89  C   UNL     1      18.444  -6.976  11.197  1.00  0.00     0.198 A 
ATOM     90  C   UNL     1      18.393  -9.326  10.708  1.00  0.00     0.198 A 
ATOM     91  F   UNL     1      16.968 -10.149   9.027  1.00  0.00    -0.203 F 
ATOM     92  F   UNL     1      18.956  -5.944  11.882  1.00  0.00    -0.200 F 
ATOM     93  C   UNL     1      18.903  -8.263  11.438  1.00  0.00     0.200 A 
ATOM     94  F   UNL     1      18.824 -10.572  10.949  1.00  0.00    -0.200 F 
ATOM     95  F   UNL     1      19.842  -8.478  12.369  1.00  0.00    -0.200 F 
ENDBRANCH  62  85
ENDBRANCH  36  37
ENDBRANCH  28  31
ENDBRANCH  26  27
ENDBRANCH  25  26
ENDBRANCH  24  25
ENDBRANCH   1  24
TORSDOF 17
