REMARK SMILES C[NH+](C)[C@H]1COC[C@]1(C)C(=O)NCCCCNC(=O)c1ccc(-c2c3nc(c(-c4c(F)c(F)c(F)c(F)c4F)c4ccc([nH]4)c(-c4c(F)c(F)c(F)c(F)c4F)c4nc(c(-c5c(F)c(F)c(F)c(F)c5F)c5ccc2[nH]5)C=C4)C=C3)cc1
REMARK SMILES IDX 15 1 14 2 13 3 12 4 10 5 11 6 8 8 4 9 5 10 6 11 7 12 9 13
REMARK SMILES IDX 2 14 1 15 3 16 16 18 17 19 18 20 19 22 20 23 21 24 82 25
REMARK SMILES IDX 22 26 81 27 23 28 24 29 25 30 75 31 26 32 80 33 74 34 76 35
REMARK SMILES IDX 27 36 79 37 73 38 72 39 28 41 60 42 40 43 59 44 41 45 44 46
REMARK SMILES IDX 58 47 77 48 42 49 43 50 57 52 78 53 45 54 29 55 30 56 38 57
REMARK SMILES IDX 31 58 32 59 36 60 39 61 33 62 34 63 37 64 35 65 61 66 62 67
REMARK SMILES IDX 70 68 63 69 64 70 68 71 71 72 65 73 66 74 69 75 67 76 46 77
REMARK SMILES IDX 47 78 55 79 48 80 49 81 53 82 56 83 50 84 51 85 54 86 52 87
REMARK H PARENT 12 7 2 17 17 21 76 40 44 51
REMARK Flexibility Score: inf
ROOT
ATOM      1  C   UNL     1      -1.790  -1.371   1.040  1.00  0.00     0.023 C 
ENDROOT
BRANCH   1   2
ATOM      2  C   UNL     1      -1.347  -0.889  -0.340  1.00  0.00     0.023 C 
BRANCH   2   3
ATOM      3  C   UNL     1      -1.750   0.547  -0.671  1.00  0.00     0.116 C 
BRANCH   3   4
ATOM      4  N   UNL     1      -1.024   1.510   0.141  1.00  0.00    -0.355 N 
ATOM      5  C   UNL     1      -0.140   2.496  -0.206  1.00  0.00     0.234 C 
ATOM      6  O   UNL     1       0.326   3.160   0.722  1.00  0.00    -0.274 OA
ATOM      7  H   UNL     1      -1.199   1.442   1.107  1.00  0.00     0.163 HD
BRANCH   5   8
ATOM      8  C   UNL     1       0.184   2.784  -1.689  1.00  0.00     0.123 C 
ATOM      9  C   UNL     1       0.885   1.540  -2.288  1.00  0.00     0.227 C 
ATOM     10  C   UNL     1       2.348   1.793  -1.850  1.00  0.00     0.226 C 
ATOM     11  O   UNL     1       2.557   3.203  -1.759  1.00  0.00    -0.374 OA
ATOM     12  C   UNL     1       1.282   3.851  -1.792  1.00  0.00     0.183 C 
ATOM     13  C   UNL     1      -1.115   3.349  -2.285  1.00  0.00     0.031 C 
BRANCH   9  14
ATOM     14  N   UNL     1       0.909   1.180  -3.725  1.00  0.00    -0.334 N 
ATOM     15  C   UNL     1       0.161   1.992  -4.664  1.00  0.00     0.332 C 
ATOM     16  C   UNL     1       0.614  -0.242  -3.927  1.00  0.00     0.332 C 
ATOM     17  H   UNL     1       1.875   1.399  -3.969  1.00  0.00     0.347 HD
ENDBRANCH   9  14
ENDBRANCH   5   8
ENDBRANCH   3   4
ENDBRANCH   2   3
ENDBRANCH   1   2
BRANCH   1  18
ATOM     18  C   UNL     1      -3.287  -1.269   1.304  1.00  0.00     0.116 C 
BRANCH  18  19
ATOM     19  N   UNL     1      -4.087  -2.015   0.344  1.00  0.00    -0.352 N 
ATOM     20  C   UNL     1      -5.151  -2.852   0.576  1.00  0.00     0.251 C 
ATOM     21  H   UNL     1      -3.831  -1.904  -0.600  1.00  0.00     0.163 HD
ATOM     22  O   UNL     1      -5.635  -3.511  -0.339  1.00  0.00    -0.269 OA
BRANCH  20  23
ATOM     23  C   UNL     1      -5.685  -2.981   1.947  1.00  0.00     0.039 A 
ATOM     24  C   UNL     1      -5.902  -4.257   2.470  1.00  0.00     0.014 A 
ATOM     25  C   UNL     1      -5.934  -1.846   2.723  1.00  0.00     0.014 A 
ATOM     26  C   UNL     1      -6.302  -4.397   3.800  1.00  0.00     0.010 A 
ATOM     27  C   UNL     1      -6.256  -1.989   4.068  1.00  0.00     0.010 A 
ATOM     28  C   UNL     1      -6.443  -3.265   4.620  1.00  0.00    -0.014 A 
BRANCH  28  29
ATOM     29  C   UNL     1      -6.786  -3.395   6.058  1.00  0.00     0.031 A 
ATOM     30  C   UNL     1      -8.076  -2.828   6.579  1.00  0.00     0.074 A 
ATOM     31  C   UNL     1      -5.904  -3.961   6.905  1.00  0.00     0.049 A 
ATOM     32  N   UNL     1      -8.522  -2.776   7.809  1.00  0.00    -0.248 NA
ATOM     33  C   UNL     1      -8.973  -2.211   5.589  1.00  0.00     0.031 C 
ATOM     34  C   UNL     1      -4.596  -4.501   6.530  1.00  0.00     0.029 A 
ATOM     35  N   UNL     1      -5.970  -4.165   8.261  1.00  0.00    -0.354 N 
ATOM     36  C   UNL     1      -9.738  -2.110   7.741  1.00  0.00     0.074 A 
ATOM     37  C   UNL     1      -9.935  -1.727   6.360  1.00  0.00     0.031 C 
ATOM     38  C   UNL     1      -3.994  -4.995   7.623  1.00  0.00     0.029 A 
ATOM     39  C   UNL     1      -4.854  -4.774   8.782  1.00  0.00     0.049 A 
ATOM     40  H   UNL     1      -6.744  -3.900   8.809  1.00  0.00     0.167 HD
ATOM     41  C   UNL     1     -10.623  -1.864   8.736  1.00  0.00     0.037 A 
ATOM     42  C   UNL     1      -4.557  -5.109  10.052  1.00  0.00     0.037 A 
ATOM     43  C   UNL     1     -10.435  -2.269  10.104  1.00  0.00     0.049 A 
ATOM     44  C   UNL     1      -5.557  -4.821  11.139  1.00  0.00     0.074 A 
ATOM     45  C   UNL     1     -11.299  -2.121  11.175  1.00  0.00     0.029 A 
ATOM     46  N   UNL     1      -9.301  -2.904  10.590  1.00  0.00    -0.354 N 
ATOM     47  N   UNL     1      -6.736  -4.255  11.052  1.00  0.00    -0.248 NA
ATOM     48  C   UNL     1      -5.186  -5.226  12.502  1.00  0.00     0.031 C 
ATOM     49  C   UNL     1     -10.668  -2.624  12.318  1.00  0.00     0.029 A 
ATOM     50  C   UNL     1      -9.434  -3.134  11.950  1.00  0.00     0.049 A 
ATOM     51  H   UNL     1      -8.517  -3.153  10.049  1.00  0.00     0.167 HD
ATOM     52  C   UNL     1      -7.259  -4.263  12.337  1.00  0.00     0.074 A 
ATOM     53  C   UNL     1      -6.275  -4.903  13.185  1.00  0.00     0.031 C 
ATOM     54  C   UNL     1      -8.448  -3.782  12.777  1.00  0.00     0.037 A 
BRANCH  41  55
ATOM     55  C   UNL     1     -11.880  -1.125   8.379  1.00  0.00     0.064 A 
ATOM     56  C   UNL     1     -12.881  -1.714   7.591  1.00  0.00     0.173 A 
ATOM     57  C   UNL     1     -12.103   0.175   8.857  1.00  0.00     0.173 A 
ATOM     58  F   UNL     1     -12.712  -2.951   7.099  1.00  0.00    -0.203 F 
ATOM     59  C   UNL     1     -14.044  -1.019   7.270  1.00  0.00     0.198 A 
ATOM     60  C   UNL     1     -13.281   0.856   8.560  1.00  0.00     0.198 A 
ATOM     61  F   UNL     1     -11.181   0.784   9.618  1.00  0.00    -0.203 F 
ATOM     62  F   UNL     1     -14.962  -1.583   6.473  1.00  0.00    -0.200 F 
ATOM     63  C   UNL     1     -14.246   0.262   7.761  1.00  0.00     0.200 A 
ATOM     64  F   UNL     1     -13.481   2.089   9.045  1.00  0.00    -0.200 F 
ATOM     65  F   UNL     1     -15.369   0.928   7.456  1.00  0.00    -0.200 F 
ENDBRANCH  41  55
BRANCH  42  66
ATOM     66  C   UNL     1      -3.268  -5.780  10.361  1.00  0.00     0.064 A 
ATOM     67  C   UNL     1      -3.236  -7.121  10.769  1.00  0.00     0.173 A 
ATOM     68  C   UNL     1      -2.046  -5.098  10.266  1.00  0.00     0.173 A 
ATOM     69  F   UNL     1      -4.380  -7.810  10.895  1.00  0.00    -0.203 F 
ATOM     70  C   UNL     1      -2.034  -7.748  11.091  1.00  0.00     0.198 A 
ATOM     71  C   UNL     1      -0.842  -5.735  10.560  1.00  0.00     0.198 A 
ATOM     72  F   UNL     1      -2.021  -3.816   9.875  1.00  0.00    -0.203 F 
ATOM     73  F   UNL     1      -2.037  -9.016  11.524  1.00  0.00    -0.200 F 
ATOM     74  C   UNL     1      -0.837  -7.056  10.981  1.00  0.00     0.200 A 
ATOM     75  F   UNL     1       0.313  -5.067  10.438  1.00  0.00    -0.200 F 
ATOM     76  F   UNL     1       0.319  -7.660  11.288  1.00  0.00    -0.200 F 
ENDBRANCH  42  66
BRANCH  54  77
ATOM     77  C   UNL     1      -8.769  -3.965  14.232  1.00  0.00     0.064 A 
ATOM     78  C   UNL     1      -8.112  -3.231  15.230  1.00  0.00     0.173 A 
ATOM     79  C   UNL     1      -9.774  -4.861  14.629  1.00  0.00     0.173 A 
ATOM     80  F   UNL     1      -7.133  -2.373  14.904  1.00  0.00    -0.203 F 
ATOM     81  C   UNL     1      -8.432  -3.405  16.574  1.00  0.00     0.198 A 
ATOM     82  C   UNL     1     -10.113  -5.009  15.970  1.00  0.00     0.198 A 
ATOM     83  F   UNL     1     -10.437  -5.582  13.713  1.00  0.00    -0.203 F 
ATOM     84  F   UNL     1      -7.758  -2.729  17.514  1.00  0.00    -0.200 F 
ATOM     85  C   UNL     1      -9.436  -4.288  16.942  1.00  0.00     0.200 A 
ATOM     86  F   UNL     1     -11.093  -5.852  16.323  1.00  0.00    -0.200 F 
ATOM     87  F   UNL     1      -9.748  -4.449  18.235  1.00  0.00    -0.200 F 
ENDBRANCH  54  77
ENDBRANCH  28  29
ENDBRANCH  20  23
ENDBRANCH  18  19
ENDBRANCH   1  18
TORSDOF 12
