REMARK SMILES C=CC[N@@H+](CC(=O)NCCCCNC(=O)c1ccc(-c2c3nc(c(-c4c(F)c(F)c(F)c(F)c4F)c4ccc([nH]4)c(-c4c(F)c(F)c(F)c(F)c4F)c4nc(c(-c5c(F)c(F)c(F)c(F)c5F)c5ccc2[nH]5)C=C4)C=C3)cc1)Cc1ccc([N+](=O)[O-])o1
REMARK SMILES IDX 9 1 8 2 6 3 7 4 5 6 4 7 3 9 2 10 1 11 79 12 80 13 81 14
REMARK SMILES IDX 87 15 82 16 83 17 84 18 85 19 86 20 10 21 11 22 12 23 13 24
REMARK SMILES IDX 14 25 15 27 16 28 17 29 78 30 18 31 77 32 19 33 20 34 21 35
REMARK SMILES IDX 71 36 22 37 76 38 70 39 72 40 23 41 75 42 69 43 68 44 24 46
REMARK SMILES IDX 56 47 36 48 55 49 37 50 40 51 54 52 73 53 38 54 39 55 53 57
REMARK SMILES IDX 74 58 41 59 25 60 26 61 34 62 27 63 28 64 32 65 35 66 29 67
REMARK SMILES IDX 30 68 33 69 31 70 57 71 58 72 66 73 59 74 60 75 64 76 67 77
REMARK SMILES IDX 61 78 62 79 65 80 63 81 42 82 43 83 51 84 44 85 45 86 49 87
REMARK SMILES IDX 52 88 46 89 47 90 50 91 48 92
REMARK H PARENT 8 5 4 8 13 26 72 45 40 56
REMARK Flexibility Score: inf
ROOT
ATOM      1  C   UNL     1      -2.835   0.554   1.060  1.00  0.00     0.116 C 
ENDROOT
BRANCH   1   2
ATOM      2  N   UNL     1      -3.552   0.172  -0.139  1.00  0.00    -0.351 N 
ATOM      3  C   UNL     1      -3.660  -1.036  -0.762  1.00  0.00     0.275 C 
ATOM      4  O   UNL     1      -4.475  -1.111  -1.690  1.00  0.00    -0.269 OA
ATOM      5  H   UNL     1      -4.043   0.906  -0.576  1.00  0.00     0.163 HD
BRANCH   3   6
ATOM      6  C   UNL     1      -2.874  -2.280  -0.319  1.00  0.00     0.364 C 
BRANCH   6   7
ATOM      7  N   UNL     1      -1.458  -2.381  -0.731  1.00  0.00    -0.318 N 
ATOM      8  H   UNL     1      -1.242  -3.372  -0.621  1.00  0.00     0.349 HD
BRANCH   7   9
ATOM      9  C   UNL     1      -0.534  -1.749   0.188  1.00  0.00     0.291 C 
BRANCH   9  10
ATOM     10  C   UNL     1       0.929  -1.963  -0.044  1.00  0.00     0.025 C 
ATOM     11  C   UNL     1       1.782  -0.953  -0.276  1.00  0.00     0.010 C 
ENDBRANCH   9  10
ENDBRANCH   7   9
BRANCH   7  12
ATOM     12  C   UNL     1      -1.174  -2.272  -2.165  1.00  0.00     0.339 C 
BRANCH  12  13
ATOM     13  C   UNL     1      -1.535  -1.000  -2.862  1.00  0.00     0.165 A 
ATOM     14  C   UNL     1      -2.450  -0.730  -3.868  1.00  0.00     0.059 A 
ATOM     15  O   UNL     1      -0.877   0.148  -2.512  1.00  0.00    -0.400 OA
ATOM     16  C   UNL     1      -2.402   0.663  -4.110  1.00  0.00     0.134 A 
ATOM     17  C   UNL     1      -1.425   1.139  -3.270  1.00  0.00     0.433 A 
BRANCH  17  18
ATOM     18  N   UNL     1      -0.947   2.464  -3.040  1.00  0.00     0.102 N 
ATOM     19  O   UNL     1      -1.617   3.383  -3.533  1.00  0.00    -0.256 OA
ATOM     20  O   UNL     1       0.079   2.603  -2.362  1.00  0.00    -0.256 OA
ENDBRANCH  17  18
ENDBRANCH  12  13
ENDBRANCH   7  12
ENDBRANCH   6   7
ENDBRANCH   3   6
ENDBRANCH   1   2
BRANCH   1  21
ATOM     21  C   UNL     1      -1.650   1.481   0.765  1.00  0.00     0.023 C 
BRANCH  21  22
ATOM     22  C   UNL     1      -1.996   2.921   0.427  1.00  0.00     0.023 C 
BRANCH  22  23
ATOM     23  C   UNL     1      -2.676   3.688   1.542  1.00  0.00     0.116 C 
BRANCH  23  24
ATOM     24  N   UNL     1      -1.872   3.776   2.756  1.00  0.00    -0.352 N 
ATOM     25  C   UNL     1      -1.374   4.883   3.406  1.00  0.00     0.251 C 
ATOM     26  H   UNL     1      -1.652   2.913   3.174  1.00  0.00     0.163 HD
ATOM     27  O   UNL     1      -0.609   4.756   4.352  1.00  0.00    -0.269 OA
BRANCH  25  28
ATOM     28  C   UNL     1      -1.738   6.231   2.921  1.00  0.00     0.039 A 
ATOM     29  C   UNL     1      -0.735   7.187   2.749  1.00  0.00     0.014 A 
ATOM     30  C   UNL     1      -3.056   6.520   2.568  1.00  0.00     0.014 A 
ATOM     31  C   UNL     1      -1.038   8.393   2.115  1.00  0.00     0.010 A 
ATOM     32  C   UNL     1      -3.331   7.665   1.834  1.00  0.00     0.010 A 
ATOM     33  C   UNL     1      -2.324   8.612   1.595  1.00  0.00    -0.014 A 
BRANCH  33  34
ATOM     34  C   UNL     1      -2.651   9.814   0.788  1.00  0.00     0.031 A 
ATOM     35  C   UNL     1      -3.736  10.747   1.246  1.00  0.00     0.074 A 
ATOM     36  C   UNL     1      -2.050  10.005  -0.403  1.00  0.00     0.049 A 
ATOM     37  N   UNL     1      -4.271  11.767   0.625  1.00  0.00    -0.248 NA
ATOM     38  C   UNL     1      -4.331  10.469   2.564  1.00  0.00     0.031 C 
ATOM     39  C   UNL     1      -1.028   9.134  -0.988  1.00  0.00     0.029 A 
ATOM     40  N   UNL     1      -2.227  10.986  -1.347  1.00  0.00    -0.354 N 
ATOM     41  C   UNL     1      -5.277  12.230   1.461  1.00  0.00     0.074 A 
ATOM     42  C   UNL     1      -5.322  11.347   2.605  1.00  0.00     0.031 C 
ATOM     43  C   UNL     1      -0.649   9.634  -2.174  1.00  0.00     0.029 A 
ATOM     44  C   UNL     1      -1.433  10.832  -2.457  1.00  0.00     0.049 A 
ATOM     45  H   UNL     1      -2.863  11.730  -1.238  1.00  0.00     0.167 HD
ATOM     46  C   UNL     1      -6.074  13.313   1.303  1.00  0.00     0.037 A 
ATOM     47  C   UNL     1      -1.356  11.568  -3.582  1.00  0.00     0.037 A 
ATOM     48  C   UNL     1      -5.993  14.215   0.186  1.00  0.00     0.049 A 
ATOM     49  C   UNL     1      -2.253  12.765  -3.736  1.00  0.00     0.074 A 
ATOM     50  C   UNL     1      -6.684  15.394  -0.023  1.00  0.00     0.029 A 
ATOM     51  N   UNL     1      -5.166  14.033  -0.914  1.00  0.00    -0.354 N 
ATOM     52  N   UNL     1      -3.148  13.240  -2.903  1.00  0.00    -0.248 NA
ATOM     53  C   UNL     1      -2.135  13.525  -4.988  1.00  0.00     0.031 C 
ATOM     54  C   UNL     1      -6.308  15.905  -1.270  1.00  0.00     0.029 A 
ATOM     55  C   UNL     1      -5.353  15.064  -1.820  1.00  0.00     0.049 A 
ATOM     56  H   UNL     1      -4.539  13.283  -1.032  1.00  0.00     0.167 HD
ATOM     57  C   UNL     1      -3.690  14.357  -3.522  1.00  0.00     0.074 A 
ATOM     58  C   UNL     1      -3.009  14.503  -4.792  1.00  0.00     0.031 C 
ATOM     59  C   UNL     1      -4.669  15.184  -3.082  1.00  0.00     0.037 A 
BRANCH  46  60
ATOM     60  C   UNL     1      -7.092  13.585   2.371  1.00  0.00     0.064 A 
ATOM     61  C   UNL     1      -6.715  14.008   3.655  1.00  0.00     0.173 A 
ATOM     62  C   UNL     1      -8.461  13.440   2.103  1.00  0.00     0.173 A 
ATOM     63  F   UNL     1      -5.418  14.149   3.966  1.00  0.00    -0.203 F 
ATOM     64  C   UNL     1      -7.669  14.242   4.641  1.00  0.00     0.198 A 
ATOM     65  C   UNL     1      -9.414  13.705   3.083  1.00  0.00     0.198 A 
ATOM     66  F   UNL     1      -8.876  13.042   0.891  1.00  0.00    -0.203 F 
ATOM     67  F   UNL     1      -7.282  14.591   5.876  1.00  0.00    -0.200 F 
ATOM     68  C   UNL     1      -9.018  14.097   4.353  1.00  0.00     0.200 A 
ATOM     69  F   UNL     1     -10.718  13.574   2.801  1.00  0.00    -0.200 F 
ATOM     70  F   UNL     1      -9.935  14.325   5.303  1.00  0.00    -0.200 F 
ENDBRANCH  46  60
BRANCH  47  71
ATOM     71  C   UNL     1      -0.384  11.201  -4.644  1.00  0.00     0.064 A 
ATOM     72  C   UNL     1       0.746  11.995  -4.883  1.00  0.00     0.173 A 
ATOM     73  C   UNL     1      -0.555  10.055  -5.433  1.00  0.00     0.173 A 
ATOM     74  F   UNL     1       0.941  13.114  -4.171  1.00  0.00    -0.203 F 
ATOM     75  C   UNL     1       1.661  11.663  -5.880  1.00  0.00     0.198 A 
ATOM     76  C   UNL     1       0.373   9.710  -6.413  1.00  0.00     0.198 A 
ATOM     77  F   UNL     1      -1.621   9.263  -5.244  1.00  0.00    -0.203 F 
ATOM     78  F   UNL     1       2.712  12.461  -6.115  1.00  0.00    -0.200 F 
ATOM     79  C   UNL     1       1.478  10.518  -6.640  1.00  0.00     0.200 A 
ATOM     80  F   UNL     1       0.198   8.598  -7.140  1.00  0.00    -0.200 F 
ATOM     81  F   UNL     1       2.361  10.197  -7.596  1.00  0.00    -0.200 F 
ENDBRANCH  47  71
BRANCH  59  82
ATOM     82  C   UNL     1      -5.061  16.320  -3.978  1.00  0.00     0.064 A 
ATOM     83  C   UNL     1      -5.819  16.104  -5.138  1.00  0.00     0.173 A 
ATOM     84  C   UNL     1      -4.724  17.641  -3.647  1.00  0.00     0.173 A 
ATOM     85  F   UNL     1      -6.152  14.857  -5.504  1.00  0.00    -0.203 F 
ATOM     86  C   UNL     1      -6.213  17.169  -5.943  1.00  0.00     0.198 A 
ATOM     87  C   UNL     1      -5.142  18.706  -4.439  1.00  0.00     0.198 A 
ATOM     88  F   UNL     1      -4.005  17.899  -2.544  1.00  0.00    -0.203 F 
ATOM     89  F   UNL     1      -6.905  16.937  -7.066  1.00  0.00    -0.200 F 
ATOM     90  C   UNL     1      -5.882  18.469  -5.588  1.00  0.00     0.200 A 
ATOM     91  F   UNL     1      -4.833  19.962  -4.089  1.00  0.00    -0.200 F 
ATOM     92  F   UNL     1      -6.272  19.494  -6.358  1.00  0.00    -0.200 F 
ENDBRANCH  59  82
ENDBRANCH  33  34
ENDBRANCH  25  28
ENDBRANCH  23  24
ENDBRANCH  22  23
ENDBRANCH  21  22
ENDBRANCH   1  21
TORSDOF 17
