REMARK SMILES CC(C)n1ccc(C#CC(=O)NCCCCNC(=O)c2ccc(-c3c4nc(c(-c5c(F)c(F)c(F)c(F)c5F)c5ccc([nH]5)c(-c5c(F)c(F)c(F)c(F)c5F)c5nc(c(-c6c(F)c(F)c(F)c(F)c6F)c6ccc3[nH]6)C=C5)C=C4)cc2)n1
REMARK SMILES IDX 14 1 13 2 12 3 10 4 11 5 9 7 8 8 7 9 4 10 5 11 83 12 6 13
REMARK SMILES IDX 2 14 1 15 3 16 15 17 16 18 17 19 18 20 19 22 20 23 21 24
REMARK SMILES IDX 82 25 22 26 81 27 23 28 24 29 25 30 75 31 26 32 80 33 74 34
REMARK SMILES IDX 76 35 27 36 79 37 73 38 72 39 28 41 60 42 40 43 59 44 41 45
REMARK SMILES IDX 44 46 58 47 77 48 42 49 43 50 57 52 78 53 45 54 29 55 30 56
REMARK SMILES IDX 38 57 31 58 32 59 36 60 39 61 33 62 34 63 37 64 35 65 61 66
REMARK SMILES IDX 62 67 70 68 63 69 64 70 68 71 71 72 65 73 66 74 69 75 67 76
REMARK SMILES IDX 46 77 47 78 55 79 48 80 49 81 53 82 56 83 50 84 51 85 54 86
REMARK SMILES IDX 52 87
REMARK H PARENT 12 6 17 21 76 40 44 51
REMARK Flexibility Score: inf
ROOT
ATOM      1  C   UNL     1      -4.256   7.308  -0.594  1.00  0.00     0.023 C 
ENDROOT
BRANCH   1   2
ATOM      2  C   UNL     1      -4.776   6.106   0.201  1.00  0.00     0.117 C 
BRANCH   2   3
ATOM      3  N   UNL     1      -5.985   5.544  -0.370  1.00  0.00    -0.345 N 
ATOM      4  C   UNL     1      -6.138   4.312  -0.947  1.00  0.00     0.296 C 
ATOM      5  O   UNL     1      -7.223   3.960  -1.394  1.00  0.00    -0.260 OA
ATOM      6  H   UNL     1      -6.787   6.114  -0.340  1.00  0.00     0.164 HD
BRANCH   4   7
ATOM      7  C   UNL     1      -5.019   3.405  -1.006  1.00  0.00     0.002 C 
ATOM      8  C   UNL     1      -4.105   2.631  -1.021  1.00  0.00    -0.034 C 
BRANCH   8   9
ATOM      9  C   UNL     1      -3.044   1.681  -1.007  1.00  0.00     0.135 A 
ATOM     10  N   UNL     1      -1.059   0.969  -0.964  1.00  0.00    -0.269 N 
ATOM     11  C   UNL     1      -1.839  -0.156  -0.992  1.00  0.00     0.110 A 
ATOM     12  N   UNL     1      -1.781   2.112  -0.972  1.00  0.00    -0.164 NA
ATOM     13  C   UNL     1      -3.142   0.280  -1.011  1.00  0.00     0.059 A 
BRANCH  10  14
ATOM     14  C   UNL     1       0.400   1.033  -0.965  1.00  0.00     0.101 C 
ATOM     15  C   UNL     1       1.018   0.141   0.113  1.00  0.00     0.033 C 
ATOM     16  C   UNL     1       0.959   0.696  -2.346  1.00  0.00     0.033 C 
ENDBRANCH  10  14
ENDBRANCH   8   9
ENDBRANCH   4   7
ENDBRANCH   2   3
ENDBRANCH   1   2
BRANCH   1  17
ATOM     17  C   UNL     1      -5.187   8.528  -0.669  1.00  0.00     0.023 C 
BRANCH  17  18
ATOM     18  C   UNL     1      -5.561   9.129   0.678  1.00  0.00     0.116 C 
BRANCH  18  19
ATOM     19  N   UNL     1      -4.431   9.729   1.391  1.00  0.00    -0.352 N 
ATOM     20  C   UNL     1      -4.460  10.427   2.589  1.00  0.00     0.251 C 
ATOM     21  H   UNL     1      -3.547   9.624   0.971  1.00  0.00     0.163 HD
ATOM     22  O   UNL     1      -3.564  11.205   2.892  1.00  0.00    -0.269 OA
BRANCH  20  23
ATOM     23  C   UNL     1      -5.587  10.198   3.513  1.00  0.00     0.039 A 
ATOM     24  C   UNL     1      -6.153  11.220   4.282  1.00  0.00     0.014 A 
ATOM     25  C   UNL     1      -6.092   8.903   3.581  1.00  0.00     0.014 A 
ATOM     26  C   UNL     1      -7.271  10.929   5.066  1.00  0.00     0.010 A 
ATOM     27  C   UNL     1      -7.300   8.671   4.173  1.00  0.00     0.010 A 
ATOM     28  C   UNL     1      -7.845   9.649   4.990  1.00  0.00    -0.014 A 
BRANCH  28  29
ATOM     29  C   UNL     1      -9.116   9.321   5.623  1.00  0.00     0.031 A 
ATOM     30  C   UNL     1     -10.227  10.192   5.168  1.00  0.00     0.074 A 
ATOM     31  C   UNL     1      -9.298   8.187   6.340  1.00  0.00     0.049 A 
ATOM     32  N   UNL     1     -10.865  11.059   5.878  1.00  0.00    -0.248 NA
ATOM     33  C   UNL     1     -10.551  10.249   3.732  1.00  0.00     0.031 C 
ATOM     34  C   UNL     1      -8.324   7.124   6.619  1.00  0.00     0.029 A 
ATOM     35  N   UNL     1     -10.437   7.686   6.898  1.00  0.00    -0.354 N 
ATOM     36  C   UNL     1     -11.833  11.599   5.039  1.00  0.00     0.074 A 
ATOM     37  C   UNL     1     -11.447  11.239   3.701  1.00  0.00     0.031 C 
ATOM     38  C   UNL     1      -8.961   6.025   7.082  1.00  0.00     0.029 A 
ATOM     39  C   UNL     1     -10.363   6.342   7.275  1.00  0.00     0.049 A 
ATOM     40  H   UNL     1     -11.248   8.229   7.026  1.00  0.00     0.167 HD
ATOM     41  C   UNL     1     -13.015  12.030   5.559  1.00  0.00     0.037 A 
ATOM     42  C   UNL     1     -11.393   5.554   7.690  1.00  0.00     0.037 A 
ATOM     43  C   UNL     1     -12.905  12.193   6.991  1.00  0.00     0.049 A 
ATOM     44  C   UNL     1     -12.471   6.467   8.151  1.00  0.00     0.074 A 
ATOM     45  C   UNL     1     -12.098  12.947   7.822  1.00  0.00     0.029 A 
ATOM     46  N   UNL     1     -13.427  11.197   7.780  1.00  0.00    -0.354 N 
ATOM     47  N   UNL     1     -12.364   7.217   9.212  1.00  0.00    -0.248 NA
ATOM     48  C   UNL     1     -13.436   6.913   7.159  1.00  0.00     0.031 C 
ATOM     49  C   UNL     1     -11.796  12.088   8.921  1.00  0.00     0.029 A 
ATOM     50  C   UNL     1     -12.515  10.905   8.758  1.00  0.00     0.049 A 
ATOM     51  H   UNL     1     -14.305  10.768   7.662  1.00  0.00     0.167 HD
ATOM     52  C   UNL     1     -12.871   8.444   8.815  1.00  0.00     0.074 A 
ATOM     53  C   UNL     1     -13.581   8.178   7.563  1.00  0.00     0.031 C 
ATOM     54  C   UNL     1     -12.399   9.601   9.365  1.00  0.00     0.037 A 
BRANCH  41  55
ATOM     55  C   UNL     1     -14.360  11.873   4.881  1.00  0.00     0.064 A 
ATOM     56  C   UNL     1     -15.500  12.392   5.531  1.00  0.00     0.173 A 
ATOM     57  C   UNL     1     -14.625  10.977   3.823  1.00  0.00     0.173 A 
ATOM     58  F   UNL     1     -15.372  13.252   6.553  1.00  0.00    -0.203 F 
ATOM     59  C   UNL     1     -16.790  11.956   5.223  1.00  0.00     0.198 A 
ATOM     60  C   UNL     1     -15.919  10.585   3.484  1.00  0.00     0.198 A 
ATOM     61  F   UNL     1     -13.658  10.354   3.144  1.00  0.00    -0.203 F 
ATOM     62  F   UNL     1     -17.825  12.366   5.969  1.00  0.00    -0.200 F 
ATOM     63  C   UNL     1     -16.998  11.043   4.207  1.00  0.00     0.200 A 
ATOM     64  F   UNL     1     -16.096   9.686   2.505  1.00  0.00    -0.200 F 
ATOM     65  F   UNL     1     -18.224  10.568   3.957  1.00  0.00    -0.200 F 
ENDBRANCH  41  55
BRANCH  42  66
ATOM     66  C   UNL     1     -11.649   4.110   7.430  1.00  0.00     0.064 A 
ATOM     67  C   UNL     1     -12.703   3.432   8.075  1.00  0.00     0.173 A 
ATOM     68  C   UNL     1     -11.074   3.447   6.330  1.00  0.00     0.173 A 
ATOM     69  F   UNL     1     -13.337   3.998   9.113  1.00  0.00    -0.203 F 
ATOM     70  C   UNL     1     -13.181   2.198   7.615  1.00  0.00     0.198 A 
ATOM     71  C   UNL     1     -11.549   2.214   5.874  1.00  0.00     0.198 A 
ATOM     72  F   UNL     1     -10.103   4.025   5.609  1.00  0.00    -0.203 F 
ATOM     73  F   UNL     1     -14.235   1.622   8.211  1.00  0.00    -0.200 F 
ATOM     74  C   UNL     1     -12.614   1.598   6.504  1.00  0.00     0.200 A 
ATOM     75  F   UNL     1     -11.011   1.661   4.778  1.00  0.00    -0.200 F 
ATOM     76  F   UNL     1     -13.117   0.455   6.016  1.00  0.00    -0.200 F 
ENDBRANCH  42  66
BRANCH  54  77
ATOM     77  C   UNL     1     -11.526   9.495  10.584  1.00  0.00     0.064 A 
ATOM     78  C   UNL     1     -10.266   8.869  10.612  1.00  0.00     0.173 A 
ATOM     79  C   UNL     1     -11.927  10.181  11.737  1.00  0.00     0.173 A 
ATOM     80  F   UNL     1      -9.763   8.278   9.523  1.00  0.00    -0.203 F 
ATOM     81  C   UNL     1      -9.471   8.894  11.758  1.00  0.00     0.198 A 
ATOM     82  C   UNL     1     -11.116  10.236  12.866  1.00  0.00     0.198 A 
ATOM     83  F   UNL     1     -13.094  10.843  11.750  1.00  0.00    -0.203 F 
ATOM     84  F   UNL     1      -8.279   8.278  11.763  1.00  0.00    -0.200 F 
ATOM     85  C   UNL     1      -9.895   9.583  12.881  1.00  0.00     0.200 A 
ATOM     86  F   UNL     1     -11.509  10.948  13.931  1.00  0.00    -0.200 F 
ATOM     87  F   UNL     1      -9.116   9.640  13.970  1.00  0.00    -0.200 F 
ENDBRANCH  54  77
ENDBRANCH  28  29
ENDBRANCH  20  23
ENDBRANCH  18  19
ENDBRANCH  17  18
ENDBRANCH   1  17
TORSDOF 13
