REMARK SMILES O=C(NCCCCNC(=O)[C@@H]1CC=CC[C@@H]1C(=O)Nc1ccc(O)cc1)c1ccc(-c2c3nc(c(-c4c(F)c(F)c(F)c(F)c4F)c4ccc([nH]4)c(-c4c(F)c(F)c(F)c(F)c4F)c4nc(c(-c5c(F)c(F)c(F)c(F)c5F)c5ccc2[nH]5)C=C4)C=C3)cc1
REMARK SMILES IDX 6 1 5 2 4 3 3 4 1 5 2 6 27 8 28 9 89 10 29 11 88 12 30 13
REMARK SMILES IDX 31 14 32 15 82 16 33 17 87 18 81 19 83 20 34 21 86 22 80 23
REMARK SMILES IDX 79 24 35 26 67 27 47 28 66 29 48 30 51 31 65 32 84 33 49 34
REMARK SMILES IDX 50 35 64 37 85 38 52 39 36 40 37 41 45 42 38 43 39 44 43 45
REMARK SMILES IDX 46 46 40 47 41 48 44 49 42 50 68 51 69 52 77 53 70 54 71 55
REMARK SMILES IDX 75 56 78 57 72 58 73 59 76 60 74 61 53 62 54 63 62 64 55 65
REMARK SMILES IDX 56 66 60 67 63 68 57 69 58 70 61 71 59 72 7 73 8 74 9 75
REMARK SMILES IDX 10 77 11 78 12 79 16 80 13 81 15 82 14 83 17 84 18 85 19 86
REMARK SMILES IDX 20 88 21 89 26 90 22 91 25 92 23 93 24 94
REMARK H PARENT 3 7 83 25 51 36 8 76 19 87 24 95
REMARK Flexibility Score: inf
ROOT
ATOM      1  C   UNL     1       9.678   2.673   6.527  1.00  0.00     0.023 C 
ENDROOT
BRANCH   1   2
ATOM      2  C   UNL     1      10.705   3.159   7.542  1.00  0.00     0.023 C 
BRANCH   2   3
ATOM      3  C   UNL     1      10.394   2.793   8.985  1.00  0.00     0.116 C 
BRANCH   3   4
ATOM      4  N   UNL     1      10.274   1.359   9.196  1.00  0.00    -0.352 N 
ATOM      5  O   UNL     1      10.745  -0.622  10.181  1.00  0.00    -0.269 OA
ATOM      6  C   UNL     1      10.833   0.597  10.194  1.00  0.00     0.251 C 
ATOM      7  H   UNL     1       9.724   0.872   8.540  1.00  0.00     0.163 HD
BRANCH   6   8
ATOM      8  C   UNL     1      11.568   1.282  11.275  1.00  0.00     0.039 A 
ATOM      9  C   UNL     1      10.992   2.373  11.934  1.00  0.00     0.014 A 
ATOM     10  C   UNL     1      12.851   0.844  11.607  1.00  0.00     0.014 A 
ATOM     11  C   UNL     1      11.745   3.098  12.847  1.00  0.00     0.010 A 
ATOM     12  C   UNL     1      13.577   1.525  12.585  1.00  0.00     0.010 A 
ATOM     13  C   UNL     1      13.032   2.663  13.201  1.00  0.00    -0.014 A 
BRANCH  13  14
ATOM     14  C   UNL     1      13.739   3.334  14.316  1.00  0.00     0.031 A 
ATOM     15  C   UNL     1      15.004   4.104  14.091  1.00  0.00     0.074 A 
ATOM     16  C   UNL     1      13.214   3.215  15.551  1.00  0.00     0.049 A 
ATOM     17  N   UNL     1      15.762   4.710  14.969  1.00  0.00    -0.248 NA
ATOM     18  C   UNL     1      15.492   4.206  12.706  1.00  0.00     0.031 C 
ATOM     19  C   UNL     1      11.997   2.466  15.876  1.00  0.00     0.029 A 
ATOM     20  N   UNL     1      13.630   3.712  16.757  1.00  0.00    -0.354 N 
ATOM     21  C   UNL     1      16.825   5.244  14.254  1.00  0.00     0.074 A 
ATOM     22  C   UNL     1      16.622   4.885  12.866  1.00  0.00     0.031 C 
ATOM     23  C   UNL     1      11.754   2.568  17.190  1.00  0.00     0.029 A 
ATOM     24  C   UNL     1      12.831   3.332  17.807  1.00  0.00     0.049 A 
ATOM     25  H   UNL     1      14.424   4.285  16.862  1.00  0.00     0.167 HD
ATOM     26  C   UNL     1      17.868   5.968  14.724  1.00  0.00     0.037 A 
ATOM     27  C   UNL     1      12.969   3.541  19.128  1.00  0.00     0.037 A 
ATOM     28  C   UNL     1      18.035   6.343  16.105  1.00  0.00     0.049 A 
ATOM     29  C   UNL     1      14.152   4.325  19.614  1.00  0.00     0.074 A 
ATOM     30  C   UNL     1      19.003   7.160  16.664  1.00  0.00     0.029 A 
ATOM     31  N   UNL     1      17.222   5.918  17.144  1.00  0.00    -0.354 N 
ATOM     32  N   UNL     1      15.112   4.884  18.920  1.00  0.00    -0.248 NA
ATOM     33  C   UNL     1      14.278   4.498  21.067  1.00  0.00     0.031 C 
ATOM     34  C   UNL     1      18.808   7.184  18.048  1.00  0.00     0.029 A 
ATOM     35  C   UNL     1      17.694   6.417  18.348  1.00  0.00     0.049 A 
ATOM     36  H   UNL     1      16.428   5.345  17.043  1.00  0.00     0.167 HD
ATOM     37  C   UNL     1      15.956   5.474  19.847  1.00  0.00     0.074 A 
ATOM     38  C   UNL     1      15.378   5.232  21.153  1.00  0.00     0.031 C 
ATOM     39  C   UNL     1      17.112   6.148  19.637  1.00  0.00     0.037 A 
BRANCH  26  40
ATOM     40  C   UNL     1      18.928   6.400  13.756  1.00  0.00     0.064 A 
ATOM     41  C   UNL     1      18.722   7.457  12.859  1.00  0.00     0.173 A 
ATOM     42  C   UNL     1      20.204   5.817  13.804  1.00  0.00     0.173 A 
ATOM     43  F   UNL     1      17.519   8.043  12.772  1.00  0.00    -0.203 F 
ATOM     44  C   UNL     1      19.754   7.912  12.041  1.00  0.00     0.198 A 
ATOM     45  C   UNL     1      21.238   6.287  12.999  1.00  0.00     0.198 A 
ATOM     46  F   UNL     1      20.454   4.807  14.651  1.00  0.00    -0.203 F 
ATOM     47  F   UNL     1      19.532   8.915  11.180  1.00  0.00    -0.200 F 
ATOM     48  C   UNL     1      21.013   7.335  12.119  1.00  0.00     0.200 A 
ATOM     49  F   UNL     1      22.457   5.736  13.085  1.00  0.00    -0.200 F 
ATOM     50  F   UNL     1      22.010   7.788  11.347  1.00  0.00    -0.200 F 
ENDBRANCH  26  40
BRANCH  27  51
ATOM     51  C   UNL     1      11.985   2.958  20.074  1.00  0.00     0.064 A 
ATOM     52  C   UNL     1      11.111   3.772  20.804  1.00  0.00     0.173 A 
ATOM     53  C   UNL     1      11.896   1.569  20.259  1.00  0.00     0.173 A 
ATOM     54  F   UNL     1      11.172   5.106  20.673  1.00  0.00    -0.203 F 
ATOM     55  C   UNL     1      10.195   3.221  21.698  1.00  0.00     0.198 A 
ATOM     56  C   UNL     1      10.960   1.018  21.129  1.00  0.00     0.198 A 
ATOM     57  F   UNL     1      12.708   0.747  19.579  1.00  0.00    -0.203 F 
ATOM     58  F   UNL     1       9.400   4.024  22.417  1.00  0.00    -0.200 F 
ATOM     59  C   UNL     1      10.116   1.845  21.855  1.00  0.00     0.200 A 
ATOM     60  F   UNL     1      10.876  -0.312  21.264  1.00  0.00    -0.200 F 
ATOM     61  F   UNL     1       9.232   1.316  22.711  1.00  0.00    -0.200 F 
ENDBRANCH  27  51
BRANCH  39  62
ATOM     62  C   UNL     1      17.827   6.659  20.850  1.00  0.00     0.064 A 
ATOM     63  C   UNL     1      18.525   5.788  21.700  1.00  0.00     0.173 A 
ATOM     64  C   UNL     1      17.840   8.028  21.150  1.00  0.00     0.173 A 
ATOM     65  F   UNL     1      18.522   4.467  21.463  1.00  0.00    -0.203 F 
ATOM     66  C   UNL     1      19.195   6.270  22.820  1.00  0.00     0.198 A 
ATOM     67  C   UNL     1      18.534   8.509  22.256  1.00  0.00     0.198 A 
ATOM     68  F   UNL     1      17.189   8.899  20.365  1.00  0.00    -0.203 F 
ATOM     69  F   UNL     1      19.820   5.416  23.643  1.00  0.00    -0.200 F 
ATOM     70  C   UNL     1      19.205   7.629  23.093  1.00  0.00     0.200 A 
ATOM     71  F   UNL     1      18.551   9.824  22.515  1.00  0.00    -0.200 F 
ATOM     72  F   UNL     1      19.856   8.092  24.169  1.00  0.00    -0.200 F 
ENDBRANCH  39  62
ENDBRANCH  13  14
ENDBRANCH   6   8
ENDBRANCH   3   4
ENDBRANCH   2   3
ENDBRANCH   1   2
BRANCH   1  73
ATOM     73  C   UNL     1       8.230   2.973   6.898  1.00  0.00     0.116 C 
BRANCH  73  74
ATOM     74  N   UNL     1       7.941   4.398   6.944  1.00  0.00    -0.356 N 
ATOM     75  C   UNL     1       7.127   5.130   6.120  1.00  0.00     0.224 C 
ATOM     76  H   UNL     1       8.388   4.902   7.662  1.00  0.00     0.163 HD
ATOM     77  O   UNL     1       7.001   6.338   6.304  1.00  0.00    -0.275 OA
BRANCH  75  78
ATOM     78  C   UNL     1       6.440   4.392   4.993  1.00  0.00     0.095 C 
ATOM     79  C   UNL     1       6.077   5.287   3.810  1.00  0.00     0.041 C 
ATOM     80  C   UNL     1       5.236   3.545   5.467  1.00  0.00     0.095 C 
ATOM     81  C   UNL     1       5.446   4.455   2.725  1.00  0.00    -0.030 C 
ATOM     82  C   UNL     1       4.820   2.619   4.323  1.00  0.00     0.041 C 
ATOM     83  C   UNL     1       4.922   3.238   2.953  1.00  0.00    -0.030 C 
BRANCH  80  84
ATOM     84  C   UNL     1       4.202   4.351   6.284  1.00  0.00     0.228 C 
ATOM     85  O   UNL     1       4.330   4.363   7.519  1.00  0.00    -0.274 OA
ATOM     86  N   UNL     1       3.271   5.199   5.771  1.00  0.00    -0.326 N 
ATOM     87  H   UNL     1       2.968   5.892   6.401  1.00  0.00     0.169 HD
BRANCH  86  88
ATOM     88  C   UNL     1       2.667   5.266   4.516  1.00  0.00     0.041 A 
ATOM     89  C   UNL     1       2.113   4.148   3.898  1.00  0.00     0.030 A 
ATOM     90  C   UNL     1       2.577   6.512   3.893  1.00  0.00     0.030 A 
ATOM     91  C   UNL     1       1.657   4.226   2.581  1.00  0.00     0.048 A 
ATOM     92  C   UNL     1       2.125   6.596   2.576  1.00  0.00     0.048 A 
ATOM     93  C   UNL     1       1.715   5.444   1.915  1.00  0.00     0.115 A 
BRANCH  93  94
ATOM     94  O   UNL     1       1.386   5.545   0.597  1.00  0.00    -0.508 OA
ATOM     95  H   UNL     1       1.105   4.786   0.125  1.00  0.00     0.293 HD
ENDBRANCH  93  94
ENDBRANCH  86  88
ENDBRANCH  80  84
ENDBRANCH  75  78
ENDBRANCH  73  74
ENDBRANCH   1  73
TORSDOF 14
