REMARK SMILES COC(=O)C[C@@H](NC(=O)c1ccccc1C(=O)NCCCCNC(=O)c1ccc(-c2c3nc(c(-c4c(F)c(F)c(F)c(F)c4F)c4ccc([nH]4)c(-c4c(F)c(F)c(F)c(F)c4F)c4nc(c(-c5c(F)c(F)c(F)c(F)c5F)c5ccc2[nH]5)C=C4)C=C3)cc1)c1cccc(C)c1C
REMARK SMILES IDX 19 1 18 2 16 3 17 4 15 6 10 7 11 8 12 9 14 10 13 11 8 12
REMARK SMILES IDX 7 13 9 15 6 16 5 17 3 18 4 19 2 20 1 21 89 22 90 23 95 24
REMARK SMILES IDX 91 25 93 26 96 27 92 28 94 29 20 30 21 31 22 32 23 33 24 34
REMARK SMILES IDX 25 36 26 37 27 38 88 39 28 40 87 41 29 42 30 43 31 44 81 45
REMARK SMILES IDX 32 46 86 47 80 48 82 49 33 50 85 51 79 52 78 53 34 55 66 56
REMARK SMILES IDX 46 57 65 58 47 59 50 60 64 61 83 62 48 63 49 64 63 66 84 67
REMARK SMILES IDX 51 68 35 69 36 70 44 71 37 72 38 73 42 74 45 75 39 76 40 77
REMARK SMILES IDX 43 78 41 79 67 80 68 81 76 82 69 83 70 84 74 85 77 86 71 87
REMARK SMILES IDX 72 88 75 89 73 90 52 91 53 92 61 93 54 94 55 95 59 96 62 97
REMARK SMILES IDX 56 98 57 99 60 100 58 101
REMARK H PARENT 18 5 7 14 23 35 82 54 50 65
REMARK Flexibility Score: inf
ROOT
ATOM      1  C   UNL     1       0.351  -5.381   0.826  1.00  0.00     0.116 C 
ENDROOT
BRANCH   1   2
ATOM      2  N   UNL     1       1.235  -5.665  -0.285  1.00  0.00    -0.352 N 
ATOM      3  C   UNL     1       1.049  -6.090  -1.557  1.00  0.00     0.252 C 
ATOM      4  O   UNL     1       2.073  -6.369  -2.175  1.00  0.00    -0.269 OA
ATOM      5  H   UNL     1       2.183  -5.516  -0.066  1.00  0.00     0.163 HD
BRANCH   3   6
ATOM      6  C   UNL     1      -0.259  -6.333  -2.178  1.00  0.00     0.052 A 
ATOM      7  C   UNL     1      -1.255  -5.378  -2.335  1.00  0.00     0.052 A 
ATOM      8  C   UNL     1      -2.486  -5.716  -2.926  1.00  0.00     0.014 A 
ATOM      9  C   UNL     1      -2.673  -6.984  -3.469  1.00  0.00     0.001 A 
ATOM     10  C   UNL     1      -0.441  -7.591  -2.770  1.00  0.00     0.014 A 
ATOM     11  C   UNL     1      -1.636  -7.911  -3.420  1.00  0.00     0.001 A 
BRANCH   7  12
ATOM     12  C   UNL     1      -1.102  -3.988  -1.936  1.00  0.00     0.252 C 
ATOM     13  N   UNL     1      -0.305  -3.124  -2.617  1.00  0.00    -0.345 N 
ATOM     14  H   UNL     1      -0.501  -2.192  -2.365  1.00  0.00     0.164 HD
ATOM     15  O   UNL     1      -1.800  -3.562  -1.017  1.00  0.00    -0.269 OA
BRANCH  13  16
ATOM     16  C   UNL     1       0.781  -3.181  -3.636  1.00  0.00     0.124 C 
BRANCH  16  17
ATOM     17  C   UNL     1       0.948  -1.751  -4.208  1.00  0.00     0.152 C 
BRANCH  17  18
ATOM     18  C   UNL     1       1.424  -0.751  -3.173  1.00  0.00     0.307 C 
ATOM     19  O   UNL     1       2.410  -0.040  -3.301  1.00  0.00    -0.252 OA
BRANCH  18  20
ATOM     20  O   UNL     1       0.567  -0.708  -2.113  1.00  0.00    -0.469 OA
ATOM     21  C   UNL     1       0.914   0.168  -1.037  1.00  0.00     0.282 C 
ENDBRANCH  18  20
ENDBRANCH  17  18
ENDBRANCH  16  17
BRANCH  16  22
ATOM     22  C   UNL     1       0.545  -4.184  -4.772  1.00  0.00    -0.022 A 
ATOM     23  C   UNL     1      -0.628  -4.052  -5.541  1.00  0.00     0.006 A 
ATOM     24  C   UNL     1       1.429  -5.255  -5.090  1.00  0.00    -0.043 A 
ATOM     25  C   UNL     1      -0.965  -4.982  -6.522  1.00  0.00     0.001 A 
ATOM     26  C   UNL     1       0.979  -6.298  -5.944  1.00  0.00    -0.048 A 
ATOM     27  C   UNL     1       2.880  -5.297  -4.662  1.00  0.00     0.045 C 
ATOM     28  C   UNL     1      -0.192  -6.123  -6.688  1.00  0.00     0.004 A 
ATOM     29  C   UNL     1       1.717  -7.607  -6.087  1.00  0.00     0.044 C 
ENDBRANCH  16  22
ENDBRANCH  13  16
ENDBRANCH   7  12
ENDBRANCH   3   6
ENDBRANCH   1   2
BRANCH   1  30
ATOM     30  C   UNL     1       1.162  -5.269   2.127  1.00  0.00     0.023 C 
BRANCH  30  31
ATOM     31  C   UNL     1       2.404  -4.359   2.053  1.00  0.00     0.023 C 
BRANCH  31  32
ATOM     32  C   UNL     1       2.180  -3.010   1.373  1.00  0.00     0.116 C 
BRANCH  32  33
ATOM     33  N   UNL     1       1.173  -2.222   2.061  1.00  0.00    -0.352 N 
ATOM     34  C   UNL     1       1.326  -1.291   3.054  1.00  0.00     0.251 C 
ATOM     35  H   UNL     1       0.245  -2.380   1.771  1.00  0.00     0.163 HD
ATOM     36  O   UNL     1       0.358  -0.934   3.722  1.00  0.00    -0.269 OA
BRANCH  34  37
ATOM     37  C   UNL     1       2.655  -0.712   3.331  1.00  0.00     0.039 A 
ATOM     38  C   UNL     1       3.082  -0.590   4.655  1.00  0.00     0.014 A 
ATOM     39  C   UNL     1       3.458  -0.241   2.289  1.00  0.00     0.014 A 
ATOM     40  C   UNL     1       4.339  -0.048   4.930  1.00  0.00     0.010 A 
ATOM     41  C   UNL     1       4.738   0.237   2.558  1.00  0.00     0.010 A 
ATOM     42  C   UNL     1       5.189   0.341   3.881  1.00  0.00    -0.014 A 
BRANCH  42  43
ATOM     43  C   UNL     1       6.558   0.849   4.149  1.00  0.00     0.031 A 
ATOM     44  C   UNL     1       6.921   2.267   3.805  1.00  0.00     0.074 A 
ATOM     45  C   UNL     1       7.487   0.009   4.643  1.00  0.00     0.049 A 
ATOM     46  N   UNL     1       8.077   2.873   3.907  1.00  0.00    -0.248 NA
ATOM     47  C   UNL     1       5.849   3.109   3.252  1.00  0.00     0.031 C 
ATOM     48  C   UNL     1       7.264  -1.401   4.967  1.00  0.00     0.029 A 
ATOM     49  N   UNL     1       8.809   0.213   4.946  1.00  0.00    -0.354 N 
ATOM     50  C   UNL     1       7.871   4.162   3.434  1.00  0.00     0.074 A 
ATOM     51  C   UNL     1       6.498   4.233   2.984  1.00  0.00     0.031 C 
ATOM     52  C   UNL     1       8.403  -1.929   5.441  1.00  0.00     0.029 A 
ATOM     53  C   UNL     1       9.445  -0.908   5.420  1.00  0.00     0.049 A 
ATOM     54  H   UNL     1       9.260   1.082   4.835  1.00  0.00     0.167 HD
ATOM     55  C   UNL     1       8.740   5.201   3.406  1.00  0.00     0.037 A 
ATOM     56  C   UNL     1      10.728  -1.092   5.787  1.00  0.00     0.037 A 
ATOM     57  C   UNL     1      10.105   5.125   3.859  1.00  0.00     0.049 A 
ATOM     58  C   UNL     1      11.679   0.073   5.718  1.00  0.00     0.074 A 
ATOM     59  C   UNL     1      11.061   6.125   3.898  1.00  0.00     0.029 A 
ATOM     60  N   UNL     1      10.708   3.976   4.351  1.00  0.00    -0.354 N 
ATOM     61  N   UNL     1      11.454   1.306   5.333  1.00  0.00    -0.248 NA
ATOM     62  C   UNL     1      13.063  -0.178   6.144  1.00  0.00     0.031 C 
ATOM     63  C   UNL     1      12.253   5.572   4.376  1.00  0.00     0.029 A 
ATOM     64  C   UNL     1      12.027   4.240   4.684  1.00  0.00     0.049 A 
ATOM     65  H   UNL     1      10.265   3.103   4.449  1.00  0.00     0.167 HD
ATOM     66  C   UNL     1      12.653   1.984   5.505  1.00  0.00     0.074 A 
ATOM     67  C   UNL     1      13.599   1.030   6.044  1.00  0.00     0.031 C 
ATOM     68  C   UNL     1      12.947   3.281   5.239  1.00  0.00     0.037 A 
BRANCH  55  69
ATOM     69  C   UNL     1       8.236   6.516   2.883  1.00  0.00     0.064 A 
ATOM     70  C   UNL     1       7.294   7.272   3.599  1.00  0.00     0.173 A 
ATOM     71  C   UNL     1       8.726   7.049   1.682  1.00  0.00     0.173 A 
ATOM     72  F   UNL     1       6.786   6.805   4.750  1.00  0.00    -0.203 F 
ATOM     73  C   UNL     1       6.843   8.499   3.118  1.00  0.00     0.198 A 
ATOM     74  C   UNL     1       8.295   8.290   1.220  1.00  0.00     0.198 A 
ATOM     75  F   UNL     1       9.632   6.372   0.961  1.00  0.00    -0.203 F 
ATOM     76  F   UNL     1       5.909   9.180   3.797  1.00  0.00    -0.200 F 
ATOM     77  C   UNL     1       7.349   9.010   1.934  1.00  0.00     0.200 A 
ATOM     78  F   UNL     1       8.797   8.791   0.082  1.00  0.00    -0.200 F 
ATOM     79  F   UNL     1       6.922  10.196   1.478  1.00  0.00    -0.200 F 
ENDBRANCH  55  69
BRANCH  56  80
ATOM     80  C   UNL     1      11.187  -2.420   6.274  1.00  0.00     0.064 A 
ATOM     81  C   UNL     1      11.580  -2.601   7.607  1.00  0.00     0.173 A 
ATOM     82  C   UNL     1      11.271  -3.525   5.415  1.00  0.00     0.173 A 
ATOM     83  F   UNL     1      11.535  -1.569   8.464  1.00  0.00    -0.203 F 
ATOM     84  C   UNL     1      12.072  -3.825   8.054  1.00  0.00     0.198 A 
ATOM     85  C   UNL     1      11.732  -4.758   5.871  1.00  0.00     0.198 A 
ATOM     86  F   UNL     1      10.900  -3.409   4.131  1.00  0.00    -0.203 F 
ATOM     87  F   UNL     1      12.498  -3.952   9.318  1.00  0.00    -0.200 F 
ATOM     88  C   UNL     1      12.145  -4.904   7.187  1.00  0.00     0.200 A 
ATOM     89  F   UNL     1      11.786  -5.803   5.033  1.00  0.00    -0.200 F 
ATOM     90  F   UNL     1      12.622  -6.080   7.615  1.00  0.00    -0.200 F 
ENDBRANCH  56  80
BRANCH  68  91
ATOM     91  C   UNL     1      14.332   3.754   5.575  1.00  0.00     0.064 A 
ATOM     92  C   UNL     1      15.451   3.348   4.834  1.00  0.00     0.173 A 
ATOM     93  C   UNL     1      14.534   4.652   6.633  1.00  0.00     0.173 A 
ATOM     94  F   UNL     1      15.312   2.477   3.823  1.00  0.00    -0.203 F 
ATOM     95  C   UNL     1      16.727   3.801   5.160  1.00  0.00     0.198 A 
ATOM     96  C   UNL     1      15.806   5.129   6.935  1.00  0.00     0.198 A 
ATOM     97  F   UNL     1      13.496   5.077   7.369  1.00  0.00    -0.203 F 
ATOM     98  F   UNL     1      17.788   3.358   4.472  1.00  0.00    -0.200 F 
ATOM     99  C   UNL     1      16.902   4.697   6.204  1.00  0.00     0.200 A 
ATOM    100  F   UNL     1      15.972   6.006   7.935  1.00  0.00    -0.200 F 
ATOM    101  F   UNL     1      18.130   5.137   6.511  1.00  0.00    -0.200 F 
ENDBRANCH  68  91
ENDBRANCH  42  43
ENDBRANCH  34  37
ENDBRANCH  32  33
ENDBRANCH  31  32
ENDBRANCH  30  31
ENDBRANCH   1  30
TORSDOF 17
