REMARK SMILES C[C@@H]1[C@H](C(=O)NCCCCNC(=O)c2ccc(-c3c4nc(c(-c5c(F)c(F)c(F)c(F)c5F)c5ccc([nH]5)c(-c5c(F)c(F)c(F)c(F)c5F)c5nc(c(-c6c(F)c(F)c(F)c(F)c6F)c6ccc3[nH]6)C=C5)C=C4)cc2)CCN1C(=O)C1CC1
REMARK SMILES IDX 8 1 7 2 6 3 4 4 5 5 3 7 1 8 2 9 79 10 77 11 78 12 80 13
REMARK SMILES IDX 81 14 82 15 83 16 84 17 9 18 10 19 11 20 12 21 13 23 14 24
REMARK SMILES IDX 15 25 76 26 16 27 75 28 17 29 18 30 19 31 69 32 20 33 74 34
REMARK SMILES IDX 68 35 70 36 21 37 73 38 67 39 66 40 22 42 54 43 34 44 53 45
REMARK SMILES IDX 35 46 38 47 52 48 71 49 36 50 37 51 51 53 72 54 39 55 23 56
REMARK SMILES IDX 24 57 32 58 25 59 26 60 30 61 33 62 27 63 28 64 31 65 29 66
REMARK SMILES IDX 55 67 56 68 64 69 57 70 58 71 62 72 65 73 59 74 60 75 63 76
REMARK SMILES IDX 61 77 40 78 41 79 49 80 42 81 43 82 47 83 50 84 44 85 45 86
REMARK SMILES IDX 48 87 46 88
REMARK H PARENT 6 6 11 22 70 41 38 52
REMARK Flexibility Score: inf
ROOT
ATOM      1  C   UNL     1       2.758   1.259   2.526  1.00  0.00     0.023 C 
ENDROOT
BRANCH   1   2
ATOM      2  C   UNL     1       1.310   1.647   2.206  1.00  0.00     0.116 C 
BRANCH   2   3
ATOM      3  N   UNL     1       1.199   2.509   1.040  1.00  0.00    -0.356 N 
ATOM      4  C   UNL     1       0.648   2.332  -0.193  1.00  0.00     0.225 C 
ATOM      5  O   UNL     1       0.767   3.275  -0.983  1.00  0.00    -0.275 OA
ATOM      6  H   UNL     1       1.602   3.399   1.167  1.00  0.00     0.163 HD
BRANCH   4   7
ATOM      7  C   UNL     1      -0.075   1.064  -0.648  1.00  0.00     0.102 C 
ATOM      8  C   UNL     1       2.115  -0.226  -0.266  1.00  0.00     0.032 C 
ATOM      9  C   UNL     1       0.762  -0.205  -0.951  1.00  0.00     0.094 C 
ATOM     10  N   UNL     1      -0.096  -1.326  -0.538  1.00  0.00    -0.339 N 
ATOM     11  C   UNL     1      -1.230   0.636   0.247  1.00  0.00     0.037 C 
ATOM     12  C   UNL     1      -1.349  -0.857   0.034  1.00  0.00     0.120 C 
BRANCH  10  13
ATOM     13  C   UNL     1       0.021  -2.702  -0.705  1.00  0.00     0.225 C 
ATOM     14  O   UNL     1      -0.806  -3.453  -0.186  1.00  0.00    -0.275 OA
BRANCH  13  15
ATOM     15  C   UNL     1       1.069  -3.384  -1.516  1.00  0.00     0.079 C 
ATOM     16  C   UNL     1       2.284  -2.896  -2.239  1.00  0.00     0.014 C 
ATOM     17  C   UNL     1       2.441  -3.572  -0.904  1.00  0.00     0.014 C 
ENDBRANCH  13  15
ENDBRANCH  10  13
ENDBRANCH   4   7
ENDBRANCH   2   3
ENDBRANCH   1   2
BRANCH   1  18
ATOM     18  C   UNL     1       3.636   2.362   3.086  1.00  0.00     0.023 C 
BRANCH  18  19
ATOM     19  C   UNL     1       3.175   2.913   4.418  1.00  0.00     0.116 C 
BRANCH  19  20
ATOM     20  N   UNL     1       3.027   1.893   5.448  1.00  0.00    -0.352 N 
ATOM     21  C   UNL     1       3.493   1.900   6.742  1.00  0.00     0.251 C 
ATOM     22  H   UNL     1       2.526   1.088   5.181  1.00  0.00     0.163 HD
ATOM     23  O   UNL     1       3.383   0.914   7.456  1.00  0.00    -0.269 OA
BRANCH  21  24
ATOM     24  C   UNL     1       4.164   3.115   7.241  1.00  0.00     0.039 A 
ATOM     25  C   UNL     1       5.396   2.998   7.886  1.00  0.00     0.014 A 
ATOM     26  C   UNL     1       3.604   4.370   6.992  1.00  0.00     0.014 A 
ATOM     27  C   UNL     1       6.106   4.152   8.215  1.00  0.00     0.010 A 
ATOM     28  C   UNL     1       4.360   5.509   7.217  1.00  0.00     0.010 A 
ATOM     29  C   UNL     1       5.610   5.413   7.847  1.00  0.00    -0.014 A 
BRANCH  29  30
ATOM     30  C   UNL     1       6.346   6.661   8.152  1.00  0.00     0.031 A 
ATOM     31  C   UNL     1       5.708   7.684   9.050  1.00  0.00     0.074 A 
ATOM     32  C   UNL     1       7.528   6.911   7.560  1.00  0.00     0.049 A 
ATOM     33  N   UNL     1       6.109   8.892   9.350  1.00  0.00    -0.248 NA
ATOM     34  C   UNL     1       4.416   7.315   9.655  1.00  0.00     0.031 C 
ATOM     35  C   UNL     1       8.214   6.021   6.621  1.00  0.00     0.029 A 
ATOM     36  N   UNL     1       8.358   7.999   7.653  1.00  0.00    -0.354 N 
ATOM     37  C   UNL     1       5.106   9.433  10.142  1.00  0.00     0.074 A 
ATOM     38  C   UNL     1       4.049   8.451  10.224  1.00  0.00     0.031 C 
ATOM     39  C   UNL     1       9.374   6.586   6.248  1.00  0.00     0.029 A 
ATOM     40  C   UNL     1       9.498   7.889   6.895  1.00  0.00     0.049 A 
ATOM     41  H   UNL     1       8.156   8.784   8.211  1.00  0.00     0.167 HD
ATOM     42  C   UNL     1       5.082  10.630  10.772  1.00  0.00     0.037 A 
ATOM     43  C   UNL     1      10.525   8.746   6.746  1.00  0.00     0.037 A 
ATOM     44  C   UNL     1       6.163  11.575  10.734  1.00  0.00     0.049 A 
ATOM     45  C   UNL     1      10.500  10.049   7.500  1.00  0.00     0.074 A 
ATOM     46  C   UNL     1       6.276  12.788  11.389  1.00  0.00     0.029 A 
ATOM     47  N   UNL     1       7.330  11.401  10.004  1.00  0.00    -0.354 N 
ATOM     48  N   UNL     1       9.574  10.527   8.295  1.00  0.00    -0.248 NA
ATOM     49  C   UNL     1      11.669  10.925   7.344  1.00  0.00     0.031 C 
ATOM     50  C   UNL     1       7.503  13.360  11.035  1.00  0.00     0.029 A 
ATOM     51  C   UNL     1       8.170  12.486  10.191  1.00  0.00     0.049 A 
ATOM     52  H   UNL     1       7.532  10.621   9.438  1.00  0.00     0.167 HD
ATOM     53  C   UNL     1      10.059  11.742   8.759  1.00  0.00     0.074 A 
ATOM     54  C   UNL     1      11.367  11.922   8.163  1.00  0.00     0.031 C 
ATOM     55  C   UNL     1       9.476  12.629   9.601  1.00  0.00     0.037 A 
BRANCH  42  56
ATOM     56  C   UNL     1       3.854  10.966  11.566  1.00  0.00     0.064 A 
ATOM     57  C   UNL     1       3.536  10.286  12.752  1.00  0.00     0.173 A 
ATOM     58  C   UNL     1       2.983  11.979  11.138  1.00  0.00     0.173 A 
ATOM     59  F   UNL     1       4.326   9.296  13.195  1.00  0.00    -0.203 F 
ATOM     60  C   UNL     1       2.373  10.581  13.459  1.00  0.00     0.198 A 
ATOM     61  C   UNL     1       1.838  12.294  11.866  1.00  0.00     0.198 A 
ATOM     62  F   UNL     1       3.240  12.661  10.012  1.00  0.00    -0.203 F 
ATOM     63  F   UNL     1       2.059   9.874  14.554  1.00  0.00    -0.200 F 
ATOM     64  C   UNL     1       1.529  11.588  13.019  1.00  0.00     0.200 A 
ATOM     65  F   UNL     1       1.027  13.274  11.444  1.00  0.00    -0.200 F 
ATOM     66  F   UNL     1       0.410  11.871  13.700  1.00  0.00    -0.200 F 
ENDBRANCH  42  56
BRANCH  43  67
ATOM     67  C   UNL     1      11.683   8.377   5.894  1.00  0.00     0.064 A 
ATOM     68  C   UNL     1      12.921   8.056   6.470  1.00  0.00     0.173 A 
ATOM     69  C   UNL     1      11.583   8.331   4.496  1.00  0.00     0.173 A 
ATOM     70  F   UNL     1      13.070   8.103   7.802  1.00  0.00    -0.203 F 
ATOM     71  C   UNL     1      14.019   7.722   5.681  1.00  0.00     0.198 A 
ATOM     72  C   UNL     1      12.675   7.973   3.708  1.00  0.00     0.198 A 
ATOM     73  F   UNL     1      10.419   8.621   3.897  1.00  0.00    -0.203 F 
ATOM     74  F   UNL     1      15.200   7.459   6.256  1.00  0.00    -0.200 F 
ATOM     75  C   UNL     1      13.894   7.676   4.300  1.00  0.00     0.200 A 
ATOM     76  F   UNL     1      12.548   7.917   2.376  1.00  0.00    -0.200 F 
ATOM     77  F   UNL     1      14.949   7.352   3.541  1.00  0.00    -0.200 F 
ENDBRANCH  43  67
BRANCH  55  78
ATOM     78  C   UNL     1      10.267  13.849   9.966  1.00  0.00     0.064 A 
ATOM     79  C   UNL     1      10.453  14.902   9.060  1.00  0.00     0.173 A 
ATOM     80  C   UNL     1      10.802  13.984  11.256  1.00  0.00     0.173 A 
ATOM     81  F   UNL     1       9.971  14.811   7.811  1.00  0.00    -0.203 F 
ATOM     82  C   UNL     1      11.167  16.039   9.426  1.00  0.00     0.198 A 
ATOM     83  C   UNL     1      11.492  15.133  11.626  1.00  0.00     0.198 A 
ATOM     84  F   UNL     1      10.642  13.005  12.160  1.00  0.00    -0.203 F 
ATOM     85  F   UNL     1      11.370  17.017   8.532  1.00  0.00    -0.200 F 
ATOM     86  C   UNL     1      11.679  16.157  10.710  1.00  0.00     0.200 A 
ATOM     87  F   UNL     1      11.976  15.251  12.871  1.00  0.00    -0.200 F 
ATOM     88  F   UNL     1      12.360  17.256  11.062  1.00  0.00    -0.200 F 
ENDBRANCH  55  78
ENDBRANCH  29  30
ENDBRANCH  21  24
ENDBRANCH  19  20
ENDBRANCH  18  19
ENDBRANCH   1  18
TORSDOF 13
