REMARK SMILES CC[C@@H]1CCC[N@H+]([C@@H]2CC[C@]([NH2+]C3CC3)(C(=O)NCCCCNC(=O)c3ccc(-c4c5nc(c(-c6c(F)c(F)c(F)c(F)c6F)c6ccc([nH]6)c(-c6c(F)c(F)c(F)c(F)c6F)c6nc(c(-c7c(F)c(F)c(F)c(F)c7F)c7ccc4[nH]7)C=C6)C=C5)cc3)C2)CC1
REMARK SMILES IDX 19 1 18 2 16 3 17 4 11 6 8 7 9 8 89 9 10 10 7 11 90 13 91 14
REMARK SMILES IDX 3 15 2 17 1 18 6 19 5 20 4 21 12 23 13 26 14 27 15 28 20 29
REMARK SMILES IDX 21 30 22 31 23 32 24 33 25 35 26 36 27 37 88 38 28 39 87 40
REMARK SMILES IDX 29 41 30 42 31 43 81 44 32 45 86 46 80 47 82 48 33 49 85 50
REMARK SMILES IDX 79 51 78 52 34 54 66 55 46 56 65 57 47 58 50 59 64 60 83 61
REMARK SMILES IDX 48 62 49 63 63 65 84 66 51 67 35 68 36 69 44 70 37 71 38 72
REMARK SMILES IDX 42 73 45 74 39 75 40 76 43 77 41 78 67 79 68 80 76 81 69 82
REMARK SMILES IDX 70 83 74 84 77 85 71 86 72 87 75 88 73 89 52 90 53 91 61 92
REMARK SMILES IDX 54 93 55 94 59 95 62 96 56 97 57 98 60 99 58 100
REMARK H PARENT 18 5 7 12 12 24 12 25 23 34 82 53 50 64
REMARK Flexibility Score: 90.00
ROOT
ATOM      1  C   UNL     1       2.114  -5.173   9.006  1.00  0.00     0.116 C 
ENDROOT
BRANCH   1   2
ATOM      2  N   UNL     1       2.846  -4.080   8.396  1.00  0.00    -0.351 N 
ATOM      3  C   UNL     1       3.059  -3.787   7.073  1.00  0.00     0.281 C 
ATOM      4  O   UNL     1       3.670  -2.744   6.829  1.00  0.00    -0.268 OA
ATOM      5  H   UNL     1       3.255  -3.449   9.031  1.00  0.00     0.163 HD
BRANCH   3   6
ATOM      6  C   UNL     1       2.562  -4.774   5.968  1.00  0.00     0.181 C 
ATOM      7  C   UNL     1       1.551  -4.680   3.762  1.00  0.00     0.191 C 
ATOM      8  C   UNL     1       0.395  -4.631   4.758  1.00  0.00     0.072 C 
ATOM      9  C   UNL     1       2.729  -4.130   4.571  1.00  0.00     0.144 C 
ATOM     10  C   UNL     1       1.026  -4.977   6.103  1.00  0.00     0.085 C 
BRANCH   7  11
ATOM     11  N   UNL     1       1.299  -4.056   2.459  1.00  0.00    -0.332 N 
ATOM     12  H   UNL     1       2.132  -4.187   1.886  1.00  0.00     0.348 HD
BRANCH  11  13
ATOM     13  C   UNL     1       1.213  -2.598   2.510  1.00  0.00     0.262 C 
BRANCH  13  14
ATOM     14  C   UNL     1       0.353  -1.877   1.473  1.00  0.00     0.065 C 
BRANCH  14  15
ATOM     15  C   UNL     1       0.773  -2.151   0.024  1.00  0.00    -0.006 CG0
ATOM     16  G   UNL     1       0.118  -3.441  -0.501  1.00  0.00     0.000 G0
BRANCH  15  17
ATOM     17  C   UNL     1       0.373  -0.988  -0.910  1.00  0.00     0.000 C 
ATOM     18  C   UNL     1       1.019   0.346  -0.555  1.00  0.00     0.004 C 
ENDBRANCH  15  17
ENDBRANCH  14  15
ENDBRANCH  13  14
ENDBRANCH  11  13
BRANCH  11  19
ATOM     19  C   UNL     1       0.251  -4.753   1.716  1.00  0.00     0.262 C 
BRANCH  19  20
ATOM     20  C   UNL     1       0.521  -4.725   0.212  1.00  0.00     0.062 C 
BRANCH  20  21
ATOM     21  C   UNL     1       0.118  -3.441  -0.501  1.00  0.00     0.009 CG0
ATOM     22  G   UNL     1       0.773  -2.151   0.024  1.00  0.00     0.000 G0
ENDBRANCH  20  21
ENDBRANCH  19  20
ENDBRANCH  11  19
ENDBRANCH   7  11
BRANCH   6  23
ATOM     23  N   UNL     1       3.394  -5.998   6.094  1.00  0.00    -0.331 N 
ATOM     24  H   UNL     1       3.356  -6.290   7.071  1.00  0.00     0.347 HD
ATOM     25  H   UNL     1       4.311  -5.715   5.746  1.00  0.00     0.347 HD
BRANCH  23  26
ATOM     26  C   UNL     1       3.047  -7.162   5.282  1.00  0.00     0.183 C 
ATOM     27  C   UNL     1       3.736  -7.381   3.963  1.00  0.00     0.071 C 
ATOM     28  C   UNL     1       4.075  -8.252   5.133  1.00  0.00     0.071 C 
ENDBRANCH  23  26
ENDBRANCH   6  23
ENDBRANCH   3   6
ENDBRANCH   1   2
BRANCH   1  29
ATOM     29  C   UNL     1       2.910  -5.848  10.113  1.00  0.00     0.023 C 
BRANCH  29  30
ATOM     30  C   UNL     1       3.157  -4.972  11.338  1.00  0.00     0.023 C 
BRANCH  30  31
ATOM     31  C   UNL     1       1.907  -4.340  11.938  1.00  0.00     0.116 C 
BRANCH  31  32
ATOM     32  N   UNL     1       0.898  -5.321  12.311  1.00  0.00    -0.352 N 
ATOM     33  C   UNL     1       0.253  -5.491  13.511  1.00  0.00     0.251 C 
ATOM     34  H   UNL     1       0.641  -5.952  11.601  1.00  0.00     0.163 HD
ATOM     35  O   UNL     1      -0.467  -6.468  13.696  1.00  0.00    -0.269 OA
BRANCH  33  36
ATOM     36  C   UNL     1       0.461  -4.509  14.593  1.00  0.00     0.039 A 
ATOM     37  C   UNL     1       0.756  -4.971  15.877  1.00  0.00     0.014 A 
ATOM     38  C   UNL     1       0.403  -3.137  14.331  1.00  0.00     0.014 A 
ATOM     39  C   UNL     1       1.072  -4.056  16.881  1.00  0.00     0.010 A 
ATOM     40  C   UNL     1       0.801  -2.232  15.309  1.00  0.00     0.010 A 
ATOM     41  C   UNL     1       1.142  -2.682  16.593  1.00  0.00    -0.014 A 
BRANCH  41  42
ATOM     42  C   UNL     1       1.589  -1.708  17.619  1.00  0.00     0.031 A 
ATOM     43  C   UNL     1       0.661  -0.628  18.098  1.00  0.00     0.074 A 
ATOM     44  C   UNL     1       2.858  -1.756  18.070  1.00  0.00     0.049 A 
ATOM     45  N   UNL     1       0.886   0.338  18.953  1.00  0.00    -0.248 NA
ATOM     46  C   UNL     1      -0.690  -0.611  17.517  1.00  0.00     0.031 C 
ATOM     47  C   UNL     1       3.873  -2.717  17.634  1.00  0.00     0.029 A 
ATOM     48  N   UNL     1       3.515  -0.974  18.987  1.00  0.00    -0.354 N 
ATOM     49  C   UNL     1      -0.287   1.080  19.001  1.00  0.00     0.074 A 
ATOM     50  C   UNL     1      -1.200   0.490  18.047  1.00  0.00     0.031 C 
ATOM     51  C   UNL     1       5.014  -2.485  18.301  1.00  0.00     0.029 A 
ATOM     52  C   UNL     1       4.825  -1.336  19.181  1.00  0.00     0.049 A 
ATOM     53  H   UNL     1       3.087  -0.224  19.460  1.00  0.00     0.167 HD
ATOM     54  C   UNL     1      -0.582   2.142  19.788  1.00  0.00     0.037 A 
ATOM     55  C   UNL     1       5.771  -0.797  19.974  1.00  0.00     0.037 A 
ATOM     56  C   UNL     1       0.325   2.712  20.751  1.00  0.00     0.049 A 
ATOM     57  C   UNL     1       5.417   0.382  20.839  1.00  0.00     0.074 A 
ATOM     58  C   UNL     1       0.095   3.739  21.649  1.00  0.00     0.029 A 
ATOM     59  N   UNL     1       1.640   2.308  20.933  1.00  0.00    -0.354 N 
ATOM     60  N   UNL     1       4.277   1.020  20.943  1.00  0.00    -0.248 NA
ATOM     61  C   UNL     1       6.481   0.910  21.705  1.00  0.00     0.031 C 
ATOM     62  C   UNL     1       1.288   3.998  22.332  1.00  0.00     0.029 A 
ATOM     63  C   UNL     1       2.244   3.089  21.906  1.00  0.00     0.049 A 
ATOM     64  H   UNL     1       2.079   1.576  20.443  1.00  0.00     0.167 HD
ATOM     65  C   UNL     1       4.476   2.007  21.898  1.00  0.00     0.074 A 
ATOM     66  C   UNL     1       5.843   1.869  22.360  1.00  0.00     0.031 C 
ATOM     67  C   UNL     1       3.607   2.944  22.352  1.00  0.00     0.037 A 
BRANCH  54  68
ATOM     68  C   UNL     1      -1.944   2.760  19.638  1.00  0.00     0.064 A 
ATOM     69  C   UNL     1      -3.110   2.083  20.028  1.00  0.00     0.173 A 
ATOM     70  C   UNL     1      -2.082   4.059  19.125  1.00  0.00     0.173 A 
ATOM     71  F   UNL     1      -3.037   0.836  20.515  1.00  0.00    -0.203 F 
ATOM     72  C   UNL     1      -4.364   2.670  19.876  1.00  0.00     0.198 A 
ATOM     73  C   UNL     1      -3.335   4.655  19.007  1.00  0.00     0.198 A 
ATOM     74  F   UNL     1      -1.000   4.754  18.742  1.00  0.00    -0.203 F 
ATOM     75  F   UNL     1      -5.467   1.981  20.202  1.00  0.00    -0.200 F 
ATOM     76  C   UNL     1      -4.475   3.957  19.373  1.00  0.00     0.200 A 
ATOM     77  F   UNL     1      -3.439   5.905  18.535  1.00  0.00    -0.200 F 
ATOM     78  F   UNL     1      -5.682   4.522  19.235  1.00  0.00    -0.200 F 
ENDBRANCH  54  68
BRANCH  55  79
ATOM     79  C   UNL     1       7.136  -1.384  20.001  1.00  0.00     0.064 A 
ATOM     80  C   UNL     1       7.609  -2.061  21.134  1.00  0.00     0.173 A 
ATOM     81  C   UNL     1       7.994  -1.287  18.895  1.00  0.00     0.173 A 
ATOM     82  F   UNL     1       6.835  -2.164  22.224  1.00  0.00    -0.203 F 
ATOM     83  C   UNL     1       8.893  -2.601  21.166  1.00  0.00     0.198 A 
ATOM     84  C   UNL     1       9.266  -1.854  18.917  1.00  0.00     0.198 A 
ATOM     85  F   UNL     1       7.587  -0.655  17.784  1.00  0.00    -0.203 F 
ATOM     86  F   UNL     1       9.336  -3.204  22.278  1.00  0.00    -0.200 F 
ATOM     87  C   UNL     1       9.718  -2.503  20.056  1.00  0.00     0.200 A 
ATOM     88  F   UNL     1      10.053  -1.772  17.836  1.00  0.00    -0.200 F 
ATOM     89  F   UNL     1      10.950  -3.030  20.085  1.00  0.00    -0.200 F 
ENDBRANCH  55  79
BRANCH  67  90
ATOM     90  C   UNL     1       4.099   3.878  23.421  1.00  0.00     0.064 A 
ATOM     91  C   UNL     1       5.055   4.869  23.153  1.00  0.00     0.173 A 
ATOM     92  C   UNL     1       3.583   3.800  24.724  1.00  0.00     0.173 A 
ATOM     93  F   UNL     1       5.590   4.976  21.927  1.00  0.00    -0.203 F 
ATOM     94  C   UNL     1       5.498   5.727  24.156  1.00  0.00     0.198 A 
ATOM     95  C   UNL     1       4.003   4.682  25.716  1.00  0.00     0.198 A 
ATOM     96  F   UNL     1       2.662   2.876  25.034  1.00  0.00    -0.203 F 
ATOM     97  F   UNL     1       6.452   6.630  23.889  1.00  0.00    -0.200 F 
ATOM     98  C   UNL     1       4.966   5.638  25.434  1.00  0.00     0.200 A 
ATOM     99  F   UNL     1       3.476   4.605  26.946  1.00  0.00    -0.200 F 
ATOM    100  F   UNL     1       5.389   6.470  26.396  1.00  0.00    -0.200 F 
ENDBRANCH  67  90
ENDBRANCH  41  42
ENDBRANCH  33  36
ENDBRANCH  31  32
ENDBRANCH  30  31
ENDBRANCH  29  30
ENDBRANCH   1  29
TORSDOF 15
