REMARK SMILES O=C(NCCCCNC(=O)c1nn(Cc2ccc(O)cc2)c2ccccc12)c1ccc(-c2c3nc(c(-c4c(F)c(F)c(F)c(F)c4F)c4ccc([nH]4)c(-c4c(F)c(F)c(F)c(F)c4F)c4nc(c(-c5c(F)c(F)c(F)c(F)c5F)c5ccc2[nH]5)C=C4)C=C3)cc1
REMARK SMILES IDX 6 1 5 2 4 3 3 4 1 5 2 6 28 8 29 9 90 10 30 11 89 12 31 13
REMARK SMILES IDX 32 14 33 15 83 16 34 17 88 18 82 19 84 20 35 21 87 22 81 23
REMARK SMILES IDX 80 24 36 26 68 27 48 28 67 29 49 30 52 31 66 32 85 33 50 34
REMARK SMILES IDX 51 35 65 37 86 38 53 39 37 40 38 41 46 42 39 43 40 44 44 45
REMARK SMILES IDX 47 46 41 47 42 48 45 49 43 50 69 51 70 52 78 53 71 54 72 55
REMARK SMILES IDX 76 56 79 57 73 58 74 59 77 60 75 61 54 62 55 63 63 64 56 65
REMARK SMILES IDX 57 66 61 67 64 68 58 69 59 70 62 71 60 72 7 73 8 74 9 75
REMARK SMILES IDX 10 77 11 78 12 79 27 80 13 81 22 82 26 83 23 84 25 85 24 86
REMARK SMILES IDX 14 87 15 88 16 89 21 90 17 91 20 92 18 93 19 94
REMARK H PARENT 3 7 84 25 52 36 8 76 19 95
REMARK Flexibility Score: inf
ROOT
ATOM      1  C   UNL     1       4.451   4.162   0.504  1.00  0.00     0.023 C 
ENDROOT
BRANCH   1   2
ATOM      2  C   UNL     1       4.886   3.116  -0.529  1.00  0.00     0.023 C 
BRANCH   2   3
ATOM      3  C   UNL     1       4.371   1.712  -0.262  1.00  0.00     0.116 C 
BRANCH   3   4
ATOM      4  N   UNL     1       2.905   1.586  -0.306  1.00  0.00    -0.352 N 
ATOM      5  O   UNL     1       0.989   0.362  -0.538  1.00  0.00    -0.269 OA
ATOM      6  C   UNL     1       2.129   0.442  -0.117  1.00  0.00     0.251 C 
ATOM      7  H   UNL     1       2.409   2.416  -0.492  1.00  0.00     0.163 HD
BRANCH   6   8
ATOM      8  C   UNL     1       2.721  -0.670   0.650  1.00  0.00     0.039 A 
ATOM      9  C   UNL     1       2.511  -2.026   0.388  1.00  0.00     0.014 A 
ATOM     10  C   UNL     1       3.592  -0.285   1.649  1.00  0.00     0.014 A 
ATOM     11  C   UNL     1       3.195  -2.951   1.180  1.00  0.00     0.010 A 
ATOM     12  C   UNL     1       4.564  -1.154   2.009  1.00  0.00     0.010 A 
ATOM     13  C   UNL     1       4.205  -2.477   2.028  1.00  0.00    -0.014 A 
BRANCH  13  14
ATOM     14  C   UNL     1       4.988  -3.295   2.936  1.00  0.00     0.031 A 
ATOM     15  C   UNL     1       5.740  -4.351   2.241  1.00  0.00     0.074 A 
ATOM     16  C   UNL     1       5.180  -2.965   4.238  1.00  0.00     0.049 A 
ATOM     17  N   UNL     1       5.462  -5.608   2.224  1.00  0.00    -0.248 NA
ATOM     18  C   UNL     1       6.791  -3.950   1.294  1.00  0.00     0.031 C 
ATOM     19  C   UNL     1       4.740  -1.761   4.966  1.00  0.00     0.029 A 
ATOM     20  N   UNL     1       5.886  -3.631   5.193  1.00  0.00    -0.354 N 
ATOM     21  C   UNL     1       6.450  -6.192   1.445  1.00  0.00     0.074 A 
ATOM     22  C   UNL     1       7.083  -5.121   0.724  1.00  0.00     0.031 C 
ATOM     23  C   UNL     1       5.355  -1.694   6.171  1.00  0.00     0.029 A 
ATOM     24  C   UNL     1       6.092  -2.924   6.378  1.00  0.00     0.049 A 
ATOM     25  H   UNL     1       6.226  -4.545   5.057  1.00  0.00     0.167 HD
ATOM     26  C   UNL     1       6.846  -7.468   1.698  1.00  0.00     0.037 A 
ATOM     27  C   UNL     1       6.811  -3.344   7.451  1.00  0.00     0.037 A 
ATOM     28  C   UNL     1       5.900  -8.128   2.567  1.00  0.00     0.049 A 
ATOM     29  C   UNL     1       6.895  -4.819   7.343  1.00  0.00     0.074 A 
ATOM     30  C   UNL     1       4.577  -8.506   2.466  1.00  0.00     0.029 A 
ATOM     31  N   UNL     1       6.191  -8.087   3.908  1.00  0.00    -0.354 N 
ATOM     32  N   UNL     1       5.867  -5.612   7.463  1.00  0.00    -0.248 NA
ATOM     33  C   UNL     1       8.049  -5.385   6.665  1.00  0.00     0.031 C 
ATOM     34  C   UNL     1       4.022  -8.295   3.765  1.00  0.00     0.029 A 
ATOM     35  C   UNL     1       5.040  -7.870   4.620  1.00  0.00     0.049 A 
ATOM     36  H   UNL     1       7.088  -8.196   4.298  1.00  0.00     0.167 HD
ATOM     37  C   UNL     1       6.075  -6.599   6.511  1.00  0.00     0.074 A 
ATOM     38  C   UNL     1       7.484  -6.478   6.144  1.00  0.00     0.031 C 
ATOM     39  C   UNL     1       5.013  -7.209   5.909  1.00  0.00     0.037 A 
BRANCH  26  40
ATOM     40  C   UNL     1       8.263  -7.965   1.538  1.00  0.00     0.064 A 
ATOM     41  C   UNL     1       8.524  -9.338   1.712  1.00  0.00     0.173 A 
ATOM     42  C   UNL     1       9.403  -7.130   1.512  1.00  0.00     0.173 A 
ATOM     43  F   UNL     1       7.516 -10.220   1.785  1.00  0.00    -0.203 F 
ATOM     44  C   UNL     1       9.820  -9.826   1.905  1.00  0.00     0.198 A 
ATOM     45  C   UNL     1      10.697  -7.627   1.649  1.00  0.00     0.198 A 
ATOM     46  F   UNL     1       9.316  -5.797   1.472  1.00  0.00    -0.203 F 
ATOM     47  F   UNL     1      10.007 -11.122   2.187  1.00  0.00    -0.200 F 
ATOM     48  C   UNL     1      10.905  -8.970   1.875  1.00  0.00     0.200 A 
ATOM     49  F   UNL     1      11.732  -6.775   1.643  1.00  0.00    -0.200 F 
ATOM     50  F   UNL     1      12.141  -9.425   2.113  1.00  0.00    -0.200 F 
ENDBRANCH  26  40
BRANCH  27  51
ATOM     51  C   UNL     1       7.692  -2.581   8.372  1.00  0.00     0.064 A 
ATOM     52  C   UNL     1       8.163  -3.163   9.564  1.00  0.00     0.173 A 
ATOM     53  C   UNL     1       8.352  -1.414   7.945  1.00  0.00     0.173 A 
ATOM     54  F   UNL     1       7.610  -4.294  10.027  1.00  0.00    -0.203 F 
ATOM     55  C   UNL     1       9.267  -2.644  10.252  1.00  0.00     0.198 A 
ATOM     56  C   UNL     1       9.453  -0.897   8.634  1.00  0.00     0.198 A 
ATOM     57  F   UNL     1       8.010  -0.817   6.795  1.00  0.00    -0.203 F 
ATOM     58  F   UNL     1       9.737  -3.276  11.337  1.00  0.00    -0.200 F 
ATOM     59  C   UNL     1       9.923  -1.523   9.775  1.00  0.00     0.200 A 
ATOM     60  F   UNL     1      10.103   0.168   8.144  1.00  0.00    -0.200 F 
ATOM     61  F   UNL     1      11.029  -1.073  10.386  1.00  0.00    -0.200 F 
ENDBRANCH  27  51
BRANCH  39  62
ATOM     62  C   UNL     1       3.660  -7.024   6.547  1.00  0.00     0.064 A 
ATOM     63  C   UNL     1       2.964  -5.803   6.608  1.00  0.00     0.173 A 
ATOM     64  C   UNL     1       2.989  -8.166   7.002  1.00  0.00     0.173 A 
ATOM     65  F   UNL     1       3.501  -4.677   6.125  1.00  0.00    -0.203 F 
ATOM     66  C   UNL     1       1.669  -5.731   7.124  1.00  0.00     0.198 A 
ATOM     67  C   UNL     1       1.685  -8.098   7.483  1.00  0.00     0.198 A 
ATOM     68  F   UNL     1       3.587  -9.366   6.930  1.00  0.00    -0.203 F 
ATOM     69  F   UNL     1       1.030  -4.553   7.176  1.00  0.00    -0.200 F 
ATOM     70  C   UNL     1       1.028  -6.881   7.551  1.00  0.00     0.200 A 
ATOM     71  F   UNL     1       1.054  -9.221   7.854  1.00  0.00    -0.200 F 
ATOM     72  F   UNL     1      -0.232  -6.821   8.005  1.00  0.00    -0.200 F 
ENDBRANCH  39  62
ENDBRANCH  13  14
ENDBRANCH   6   8
ENDBRANCH   3   4
ENDBRANCH   2   3
ENDBRANCH   1   2
BRANCH   1  73
ATOM     73  C   UNL     1       4.851   3.899   1.957  1.00  0.00     0.116 C 
BRANCH  73  74
ATOM     74  N   UNL     1       6.289   3.923   2.168  1.00  0.00    -0.351 N 
ATOM     75  C   UNL     1       7.017   4.776   2.980  1.00  0.00     0.272 C 
ATOM     76  H   UNL     1       6.809   3.249   1.672  1.00  0.00     0.163 HD
ATOM     77  O   UNL     1       8.242   4.728   2.936  1.00  0.00    -0.267 OA
BRANCH  75  78
ATOM     78  C   UNL     1       6.274   5.668   3.878  1.00  0.00     0.158 A 
ATOM     79  N   UNL     1       6.359   7.008   3.790  1.00  0.00    -0.166 NA
ATOM     80  C   UNL     1       5.344   5.271   4.883  1.00  0.00     0.033 A 
ATOM     81  N   UNL     1       5.448   7.460   4.684  1.00  0.00    -0.260 N 
ATOM     82  C   UNL     1       4.865   6.457   5.430  1.00  0.00     0.069 A 
ATOM     83  C   UNL     1       4.838   4.040   5.353  1.00  0.00     0.013 A 
ATOM     84  C   UNL     1       3.939   6.460   6.483  1.00  0.00     0.028 A 
ATOM     85  C   UNL     1       3.817   4.042   6.306  1.00  0.00     0.001 A 
ATOM     86  C   UNL     1       3.381   5.237   6.866  1.00  0.00     0.002 A 
BRANCH  81  87
ATOM     87  C   UNL     1       5.177   8.897   4.758  1.00  0.00     0.180 C 
BRANCH  87  88
ATOM     88  C   UNL     1       3.899   9.311   4.049  1.00  0.00    -0.026 A 
ATOM     89  C   UNL     1       2.636   8.944   4.540  1.00  0.00     0.009 A 
ATOM     90  C   UNL     1       3.941  10.114   2.898  1.00  0.00     0.009 A 
ATOM     91  C   UNL     1       1.460   9.320   3.892  1.00  0.00     0.046 A 
ATOM     92  C   UNL     1       2.760  10.513   2.254  1.00  0.00     0.046 A 
ATOM     93  C   UNL     1       1.530  10.099   2.751  1.00  0.00     0.115 A 
BRANCH  93  94
ATOM     94  O   UNL     1       0.355  10.439   2.152  1.00  0.00    -0.508 OA
ATOM     95  H   UNL     1      -0.458  10.144   2.512  1.00  0.00     0.293 HD
ENDBRANCH  93  94
ENDBRANCH  87  88
ENDBRANCH  81  87
ENDBRANCH  75  78
ENDBRANCH  73  74
ENDBRANCH   1  73
TORSDOF 14
