REMARK SMILES O=C(NCCCCNC(=O)[C@H]1CCCC[C@H]1C(=O)N1CCN(S(=O)(=O)c2ccc(F)cc2)CC1)c1ccc(-c2c3nc(c(-c4c(F)c(F)c(F)c(F)c4F)c4ccc([nH]4)c(-c4c(F)c(F)c(F)c(F)c4F)c4nc(c(-c5c(F)c(F)c(F)c(F)c5F)c5ccc2[nH]5)C=C4)C=C3)cc1
REMARK SMILES IDX 6 1 5 2 4 3 3 4 1 5 2 6 35 8 36 9 97 10 37 11 96 12 38 13
REMARK SMILES IDX 39 14 40 15 90 16 41 17 95 18 89 19 91 20 42 21 94 22 88 23
REMARK SMILES IDX 87 24 43 26 75 27 55 28 74 29 56 30 59 31 73 32 92 33 57 34
REMARK SMILES IDX 58 35 72 37 93 38 60 39 44 40 45 41 53 42 46 43 47 44 51 45
REMARK SMILES IDX 54 46 48 47 49 48 52 49 50 50 76 51 77 52 85 53 78 54 79 55
REMARK SMILES IDX 83 56 86 57 80 58 81 59 84 60 82 61 61 62 62 63 70 64 63 65
REMARK SMILES IDX 64 66 68 67 71 68 65 69 66 70 69 71 67 72 7 73 8 74 9 75
REMARK SMILES IDX 10 77 11 78 12 79 16 80 13 81 15 82 14 83 17 84 18 85 19 86
REMARK SMILES IDX 20 87 34 88 21 89 33 90 22 91 23 92 24 93 25 94 26 95 27 96
REMARK SMILES IDX 32 97 28 98 31 99 29 100 30 101
REMARK H PARENT 3 7 91 25 59 36 8 76
REMARK Flexibility Score: inf
ROOT
ATOM      1  C   UNL     1       3.772  -9.808   4.406  1.00  0.00     0.023 C 
ENDROOT
BRANCH   1   2
ATOM      2  C   UNL     1       2.338 -10.226   4.086  1.00  0.00     0.023 C 
BRANCH   2   3
ATOM      3  C   UNL     1       2.028 -10.509   2.615  1.00  0.00     0.116 C 
BRANCH   3   4
ATOM      4  N   UNL     1       2.986 -11.384   1.954  1.00  0.00    -0.352 N 
ATOM      5  O   UNL     1       3.629 -12.931   0.421  1.00  0.00    -0.269 OA
ATOM      6  C   UNL     1       2.746 -12.231   0.897  1.00  0.00     0.251 C 
ATOM      7  H   UNL     1       3.906 -11.368   2.302  1.00  0.00     0.163 HD
BRANCH   6   8
ATOM      8  C   UNL     1       1.372 -12.308   0.379  1.00  0.00     0.039 A 
ATOM      9  C   UNL     1       0.786 -11.190  -0.221  1.00  0.00     0.014 A 
ATOM     10  C   UNL     1       0.644 -13.478   0.601  1.00  0.00     0.014 A 
ATOM     11  C   UNL     1      -0.575 -11.211  -0.511  1.00  0.00     0.010 A 
ATOM     12  C   UNL     1      -0.710 -13.507   0.276  1.00  0.00     0.010 A 
ATOM     13  C   UNL     1      -1.335 -12.362  -0.249  1.00  0.00    -0.014 A 
BRANCH  13  14
ATOM     14  C   UNL     1      -2.790 -12.384  -0.518  1.00  0.00     0.031 A 
ATOM     15  C   UNL     1      -3.771 -12.433   0.618  1.00  0.00     0.074 A 
ATOM     16  C   UNL     1      -3.222 -12.396  -1.791  1.00  0.00     0.049 A 
ATOM     17  N   UNL     1      -5.072 -12.568   0.582  1.00  0.00    -0.248 NA
ATOM     18  C   UNL     1      -3.216 -12.318   1.975  1.00  0.00     0.031 C 
ATOM     19  C   UNL     1      -2.359 -12.333  -2.969  1.00  0.00     0.029 A 
ATOM     20  N   UNL     1      -4.491 -12.479  -2.303  1.00  0.00    -0.354 N 
ATOM     21  C   UNL     1      -5.489 -12.578   1.905  1.00  0.00     0.074 A 
ATOM     22  C   UNL     1      -4.302 -12.450   2.724  1.00  0.00     0.031 C 
ATOM     23  C   UNL     1      -3.123 -12.376  -4.071  1.00  0.00     0.029 A 
ATOM     24  C   UNL     1      -4.521 -12.524  -3.674  1.00  0.00     0.049 A 
ATOM     25  H   UNL     1      -5.300 -12.503  -1.744  1.00  0.00     0.167 HD
ATOM     26  C   UNL     1      -6.750 -12.682   2.386  1.00  0.00     0.037 A 
ATOM     27  C   UNL     1      -5.555 -12.697  -4.518  1.00  0.00     0.037 A 
ATOM     28  C   UNL     1      -7.924 -12.794   1.560  1.00  0.00     0.049 A 
ATOM     29  C   UNL     1      -6.939 -12.861  -3.961  1.00  0.00     0.074 A 
ATOM     30  C   UNL     1      -9.250 -12.863   1.952  1.00  0.00     0.029 A 
ATOM     31  N   UNL     1      -7.912 -12.859   0.174  1.00  0.00    -0.354 N 
ATOM     32  N   UNL     1      -7.328 -12.856  -2.709  1.00  0.00    -0.248 NA
ATOM     33  C   UNL     1      -8.027 -13.060  -4.928  1.00  0.00     0.031 C 
ATOM     34  C   UNL     1     -10.036 -13.019   0.806  1.00  0.00     0.029 A 
ATOM     35  C   UNL     1      -9.206 -12.994  -0.304  1.00  0.00     0.049 A 
ATOM     36  H   UNL     1      -7.104 -12.816  -0.387  1.00  0.00     0.167 HD
ATOM     37  C   UNL     1      -8.704 -13.031  -2.735  1.00  0.00     0.074 A 
ATOM     38  C   UNL     1      -9.085 -13.137  -4.129  1.00  0.00     0.031 C 
ATOM     39  C   UNL     1      -9.569 -13.093  -1.695  1.00  0.00     0.037 A 
BRANCH  26  40
ATOM     40  C   UNL     1      -6.935 -12.700   3.876  1.00  0.00     0.064 A 
ATOM     41  C   UNL     1      -7.351 -13.873   4.524  1.00  0.00     0.173 A 
ATOM     42  C   UNL     1      -6.765 -11.546   4.654  1.00  0.00     0.173 A 
ATOM     43  F   UNL     1      -7.534 -15.003   3.825  1.00  0.00    -0.203 F 
ATOM     44  C   UNL     1      -7.597 -13.887   5.894  1.00  0.00     0.198 A 
ATOM     45  C   UNL     1      -6.987 -11.570   6.029  1.00  0.00     0.198 A 
ATOM     46  F   UNL     1      -6.359 -10.401   4.085  1.00  0.00    -0.203 F 
ATOM     47  F   UNL     1      -8.017 -15.014   6.487  1.00  0.00    -0.200 F 
ATOM     48  C   UNL     1      -7.410 -12.738   6.646  1.00  0.00     0.200 A 
ATOM     49  F   UNL     1      -6.783 -10.464   6.758  1.00  0.00    -0.200 F 
ATOM     50  F   UNL     1      -7.634 -12.756   7.968  1.00  0.00    -0.200 F 
ENDBRANCH  26  40
BRANCH  27  51
ATOM     51  C   UNL     1      -5.291 -12.716  -5.977  1.00  0.00     0.064 A 
ATOM     52  C   UNL     1      -4.613 -13.788  -6.578  1.00  0.00     0.173 A 
ATOM     53  C   UNL     1      -5.632 -11.621  -6.780  1.00  0.00     0.173 A 
ATOM     54  F   UNL     1      -4.260 -14.854  -5.846  1.00  0.00    -0.203 F 
ATOM     55  C   UNL     1      -4.257 -13.747  -7.924  1.00  0.00     0.198 A 
ATOM     56  C   UNL     1      -5.295 -11.592  -8.131  1.00  0.00     0.198 A 
ATOM     57  F   UNL     1      -6.294 -10.583  -6.249  1.00  0.00    -0.203 F 
ATOM     58  F   UNL     1      -3.569 -14.761  -8.464  1.00  0.00    -0.200 F 
ATOM     59  C   UNL     1      -4.598 -12.648  -8.699  1.00  0.00     0.200 A 
ATOM     60  F   UNL     1      -5.640 -10.537  -8.882  1.00  0.00    -0.200 F 
ATOM     61  F   UNL     1      -4.251 -12.606  -9.992  1.00  0.00    -0.200 F 
ENDBRANCH  27  51
BRANCH  39  62
ATOM     62  C   UNL     1     -11.026 -13.257  -2.008  1.00  0.00     0.064 A 
ATOM     63  C   UNL     1     -11.914 -12.186  -1.820  1.00  0.00     0.173 A 
ATOM     64  C   UNL     1     -11.557 -14.495  -2.391  1.00  0.00     0.173 A 
ATOM     65  F   UNL     1     -11.452 -10.983  -1.446  1.00  0.00    -0.203 F 
ATOM     66  C   UNL     1     -13.285 -12.357  -1.981  1.00  0.00     0.198 A 
ATOM     67  C   UNL     1     -12.928 -14.657  -2.573  1.00  0.00     0.198 A 
ATOM     68  F   UNL     1     -10.746 -15.544  -2.594  1.00  0.00    -0.203 F 
ATOM     69  F   UNL     1     -14.118 -11.332  -1.756  1.00  0.00    -0.200 F 
ATOM     70  C   UNL     1     -13.791 -13.593  -2.356  1.00  0.00     0.200 A 
ATOM     71  F   UNL     1     -13.416 -15.846  -2.953  1.00  0.00    -0.200 F 
ATOM     72  F   UNL     1     -15.113 -13.758  -2.507  1.00  0.00    -0.200 F 
ENDBRANCH  39  62
ENDBRANCH  13  14
ENDBRANCH   6   8
ENDBRANCH   3   4
ENDBRANCH   2   3
ENDBRANCH   1   2
BRANCH   1  73
ATOM     73  C   UNL     1       4.267  -8.607   3.622  1.00  0.00     0.116 C 
BRANCH  73  74
ATOM     74  N   UNL     1       3.951  -7.337   4.226  1.00  0.00    -0.356 N 
ATOM     75  C   UNL     1       4.562  -6.136   4.097  1.00  0.00     0.223 C 
ATOM     76  H   UNL     1       3.170  -7.344   4.826  1.00  0.00     0.163 HD
ATOM     77  O   UNL     1       3.830  -5.148   4.254  1.00  0.00    -0.275 OA
BRANCH  75  78
ATOM     78  C   UNL     1       6.061  -5.902   3.881  1.00  0.00     0.091 C 
ATOM     79  C   UNL     1       6.678  -5.554   5.247  1.00  0.00     0.014 C 
ATOM     80  C   UNL     1       6.974  -6.815   3.055  1.00  0.00     0.091 C 
ATOM     81  C   UNL     1       6.867  -6.798   6.086  1.00  0.00     0.001 C 
ATOM     82  C   UNL     1       7.678  -7.931   3.917  1.00  0.00     0.014 C 
ATOM     83  C   UNL     1       7.868  -7.720   5.421  1.00  0.00     0.001 C 
BRANCH  80  84
ATOM     84  C   UNL     1       6.510  -7.450   1.704  1.00  0.00     0.226 C 
ATOM     85  O   UNL     1       7.071  -8.508   1.372  1.00  0.00    -0.275 OA
ATOM     86  N   UNL     1       5.578  -6.920   0.833  1.00  0.00    -0.340 N 
ATOM     87  C   UNL     1       5.213  -7.694  -0.368  1.00  0.00     0.136 C 
ATOM     88  C   UNL     1       4.766  -5.711   0.914  1.00  0.00     0.136 C 
ATOM     89  C   UNL     1       3.743  -8.138  -0.312  1.00  0.00     0.124 C 
ATOM     90  C   UNL     1       3.274  -6.064   1.038  1.00  0.00     0.124 C 
ATOM     91  N   UNL     1       2.776  -7.021  -0.004  1.00  0.00    -0.194 NA
BRANCH  91  92
ATOM     92  S   UNL     1       1.976  -6.377  -1.356  1.00  0.00     0.243 S 
ATOM     93  O   UNL     1       2.886  -5.454  -1.993  1.00  0.00    -0.207 OA
ATOM     94  O   UNL     1       1.400  -7.492  -2.082  1.00  0.00    -0.207 OA
BRANCH  92  95
ATOM     95  C   UNL     1       0.619  -5.440  -0.669  1.00  0.00     0.082 A 
ATOM     96  C   UNL     1       0.822  -4.099  -0.314  1.00  0.00     0.025 A 
ATOM     97  C   UNL     1      -0.656  -6.012  -0.566  1.00  0.00     0.025 A 
ATOM     98  C   UNL     1      -0.231  -3.355   0.220  1.00  0.00     0.040 A 
ATOM     99  C   UNL     1      -1.714  -5.249  -0.062  1.00  0.00     0.040 A 
ATOM    100  C   UNL     1      -1.488  -3.935   0.339  1.00  0.00     0.123 A 
ATOM    101  F   UNL     1      -2.500  -3.212   0.836  1.00  0.00    -0.207 F 
ENDBRANCH  92  95
ENDBRANCH  91  92
ENDBRANCH  80  84
ENDBRANCH  75  78
ENDBRANCH  73  74
ENDBRANCH   1  73
TORSDOF 14
