REMARK SMILES O=C(NCCCCNC(=O)c1ncccc1-c1cc(Cl)cc(Cl)c1)c1ccc(-c2c3nc(c(-c4c(F)c(F)c(F)c(F)c4F)c4ccc([nH]4)c(-c4c(F)c(F)c(F)c(F)c4F)c4nc(c(-c5c(F)c(F)c(F)c(F)c5F)c5ccc2[nH]5)C=C4)C=C3)cc1
REMARK SMILES IDX 5 1 4 2 3 3 1 4 2 5 25 7 26 8 87 9 27 10 86 11 28 12 29 13
REMARK SMILES IDX 30 14 80 15 31 16 85 17 79 18 81 19 32 20 84 21 78 22 77 23
REMARK SMILES IDX 33 25 65 26 45 27 64 28 46 29 49 30 63 31 82 32 47 33 48 34
REMARK SMILES IDX 62 36 83 37 50 38 34 39 35 40 43 41 36 42 37 43 41 44 44 45
REMARK SMILES IDX 38 46 39 47 42 48 40 49 66 50 67 51 75 52 68 53 69 54 73 55
REMARK SMILES IDX 76 56 70 57 71 58 74 59 72 60 51 61 52 62 60 63 53 64 54 65
REMARK SMILES IDX 58 66 61 67 55 68 56 69 59 70 57 71 6 72 7 73 8 74 9 75
REMARK SMILES IDX 10 77 11 78 12 79 16 80 13 81 15 82 14 83 17 84 18 85 24 86
REMARK SMILES IDX 19 87 22 88 20 89 21 90 23 91
REMARK H PARENT 3 6 81 24 49 35 8 76
REMARK Flexibility Score: inf
ROOT
ATOM      1  C   UNL     1       5.118   2.602  -0.126  1.00  0.00     0.023 C 
ENDROOT
BRANCH   1   2
ATOM      2  C   UNL     1       4.738   1.241   0.445  1.00  0.00     0.116 C 
BRANCH   2   3
ATOM      3  N   UNL     1       3.300   1.024   0.487  1.00  0.00    -0.352 N 
ATOM      4  O   UNL     1       1.320   0.132  -0.137  1.00  0.00    -0.269 OA
ATOM      5  C   UNL     1       2.546   0.076  -0.162  1.00  0.00     0.251 C 
ATOM      6  H   UNL     1       2.795   1.645   1.061  1.00  0.00     0.163 HD
BRANCH   5   7
ATOM      7  C   UNL     1       3.218  -1.006  -0.911  1.00  0.00     0.039 A 
ATOM      8  C   UNL     1       4.276  -1.715  -0.337  1.00  0.00     0.014 A 
ATOM      9  C   UNL     1       2.776  -1.324  -2.199  1.00  0.00     0.014 A 
ATOM     10  C   UNL     1       4.975  -2.648  -1.093  1.00  0.00     0.010 A 
ATOM     11  C   UNL     1       3.426  -2.323  -2.929  1.00  0.00     0.010 A 
ATOM     12  C   UNL     1       4.542  -2.980  -2.388  1.00  0.00    -0.014 A 
BRANCH  12  13
ATOM     13  C   UNL     1       5.197  -4.101  -3.104  1.00  0.00     0.031 A 
ATOM     14  C   UNL     1       5.977  -3.880  -4.368  1.00  0.00     0.074 A 
ATOM     15  C   UNL     1       5.072  -5.340  -2.588  1.00  0.00     0.049 A 
ATOM     16  N   UNL     1       6.590  -4.760  -5.119  1.00  0.00    -0.248 NA
ATOM     17  C   UNL     1       6.080  -2.497  -4.860  1.00  0.00     0.031 C 
ATOM     18  C   UNL     1       4.317  -5.671  -1.376  1.00  0.00     0.029 A 
ATOM     19  N   UNL     1       5.571  -6.546  -3.006  1.00  0.00    -0.354 N 
ATOM     20  C   UNL     1       7.133  -4.047  -6.179  1.00  0.00     0.074 A 
ATOM     21  C   UNL     1       6.768  -2.659  -5.984  1.00  0.00     0.031 C 
ATOM     22  C   UNL     1       4.423  -6.985  -1.135  1.00  0.00     0.029 A 
ATOM     23  C   UNL     1       5.196  -7.599  -2.208  1.00  0.00     0.049 A 
ATOM     24  H   UNL     1       6.144  -6.648  -3.801  1.00  0.00     0.167 HD
ATOM     25  C   UNL     1       7.870  -4.516  -7.214  1.00  0.00     0.037 A 
ATOM     26  C   UNL     1       5.417  -8.919  -2.342  1.00  0.00     0.037 A 
ATOM     27  C   UNL     1       8.251  -5.896  -7.381  1.00  0.00     0.049 A 
ATOM     28  C   UNL     1       6.215  -9.405  -3.517  1.00  0.00     0.074 A 
ATOM     29  C   UNL     1       9.072  -6.452  -8.347  1.00  0.00     0.029 A 
ATOM     30  N   UNL     1       7.828  -6.938  -6.569  1.00  0.00    -0.354 N 
ATOM     31  N   UNL     1       6.781  -8.710  -4.473  1.00  0.00    -0.248 NA
ATOM     32  C   UNL     1       6.397 -10.857  -3.637  1.00  0.00     0.031 C 
ATOM     33  C   UNL     1       9.099  -7.837  -8.155  1.00  0.00     0.029 A 
ATOM     34  C   UNL     1       8.335  -8.139  -7.040  1.00  0.00     0.049 A 
ATOM     35  H   UNL     1       7.253  -6.839  -5.776  1.00  0.00     0.167 HD
ATOM     36  C   UNL     1       7.389  -9.637  -5.306  1.00  0.00     0.074 A 
ATOM     37  C   UNL     1       7.150 -10.942  -4.724  1.00  0.00     0.031 C 
ATOM     38  C   UNL     1       8.074  -9.428  -6.456  1.00  0.00     0.037 A 
BRANCH  25  39
ATOM     39  C   UNL     1       8.315  -3.547  -8.270  1.00  0.00     0.064 A 
ATOM     40  C   UNL     1       9.362  -2.642  -8.047  1.00  0.00     0.173 A 
ATOM     41  C   UNL     1       7.759  -3.605  -9.558  1.00  0.00     0.173 A 
ATOM     42  F   UNL     1       9.924  -2.545  -6.833  1.00  0.00    -0.203 F 
ATOM     43  C   UNL     1       9.835  -1.829  -9.075  1.00  0.00     0.198 A 
ATOM     44  C   UNL     1       8.248  -2.806 -10.588  1.00  0.00     0.198 A 
ATOM     45  F   UNL     1       6.761  -4.461  -9.825  1.00  0.00    -0.203 F 
ATOM     46  F   UNL     1      10.828  -0.960  -8.837  1.00  0.00    -0.200 F 
ATOM     47  C   UNL     1       9.286  -1.919 -10.346  1.00  0.00     0.200 A 
ATOM     48  F   UNL     1       7.726  -2.905 -11.818  1.00  0.00    -0.200 F 
ATOM     49  F   UNL     1       9.758  -1.152 -11.338  1.00  0.00    -0.200 F 
ENDBRANCH  25  39
BRANCH  26  50
ATOM     50  C   UNL     1       4.835  -9.870  -1.361  1.00  0.00     0.064 A 
ATOM     51  C   UNL     1       5.651 -10.613  -0.498  1.00  0.00     0.173 A 
ATOM     52  C   UNL     1       3.447 -10.061  -1.274  1.00  0.00     0.173 A 
ATOM     53  F   UNL     1       6.984 -10.480  -0.558  1.00  0.00    -0.203 F 
ATOM     54  C   UNL     1       5.102 -11.526   0.400  1.00  0.00     0.198 A 
ATOM     55  C   UNL     1       2.898 -10.948  -0.353  1.00  0.00     0.198 A 
ATOM     56  F   UNL     1       2.622  -9.371  -2.075  1.00  0.00    -0.203 F 
ATOM     57  F   UNL     1       5.907 -12.261   1.179  1.00  0.00    -0.200 F 
ATOM     58  C   UNL     1       3.727 -11.688   0.476  1.00  0.00     0.200 A 
ATOM     59  F   UNL     1       1.568 -11.089  -0.272  1.00  0.00    -0.200 F 
ATOM     60  F   UNL     1       3.200 -12.564   1.342  1.00  0.00    -0.200 F 
ENDBRANCH  26  50
BRANCH  38  61
ATOM     61  C   UNL     1       8.607 -10.641  -7.157  1.00  0.00     0.064 A 
ATOM     62  C   UNL     1       7.753 -11.520  -7.840  1.00  0.00     0.173 A 
ATOM     63  C   UNL     1       9.983 -10.914  -7.170  1.00  0.00     0.173 A 
ATOM     64  F   UNL     1       6.428 -11.311  -7.838  1.00  0.00    -0.203 F 
ATOM     65  C   UNL     1       8.257 -12.642  -8.491  1.00  0.00     0.198 A 
ATOM     66  C   UNL     1      10.485 -12.021  -7.846  1.00  0.00     0.198 A 
ATOM     67  F   UNL     1      10.840 -10.101  -6.534  1.00  0.00    -0.203 F 
ATOM     68  F   UNL     1       7.418 -13.495  -9.096  1.00  0.00    -0.200 F 
ATOM     69  C   UNL     1       9.621 -12.888  -8.500  1.00  0.00     0.200 A 
ATOM     70  F   UNL     1      11.805 -12.252  -7.863  1.00  0.00    -0.200 F 
ATOM     71  F   UNL     1      10.105 -13.966  -9.132  1.00  0.00    -0.200 F 
ENDBRANCH  38  61
ENDBRANCH  12  13
ENDBRANCH   5   7
ENDBRANCH   2   3
ENDBRANCH   1   2
BRANCH   1  72
ATOM     72  C   UNL     1       4.656   3.810   0.686  1.00  0.00     0.023 C 
BRANCH  72  73
ATOM     73  C   UNL     1       4.991   3.758   2.169  1.00  0.00     0.116 C 
BRANCH  73  74
ATOM     74  N   UNL     1       6.409   3.640   2.448  1.00  0.00    -0.351 N 
ATOM     75  C   UNL     1       7.085   4.154   3.536  1.00  0.00     0.270 C 
ATOM     76  H   UNL     1       6.946   3.142   1.792  1.00  0.00     0.163 HD
ATOM     77  O   UNL     1       8.270   3.888   3.713  1.00  0.00    -0.267 OA
BRANCH  75  78
ATOM     78  C   UNL     1       6.346   5.018   4.501  1.00  0.00     0.135 A 
ATOM     79  N   UNL     1       6.559   6.352   4.322  1.00  0.00    -0.250 NA
ATOM     80  C   UNL     1       5.436   4.463   5.417  1.00  0.00     0.013 A 
ATOM     81  C   UNL     1       5.842   7.188   5.094  1.00  0.00     0.112 A 
ATOM     82  C   UNL     1       4.705   5.386   6.180  1.00  0.00     0.013 A 
ATOM     83  C   UNL     1       4.907   6.758   6.019  1.00  0.00     0.021 A 
BRANCH  80  84
ATOM     84  C   UNL     1       5.185   3.016   5.534  1.00  0.00    -0.013 A 
ATOM     85  C   UNL     1       3.909   2.493   5.258  1.00  0.00     0.029 A 
ATOM     86  C   UNL     1       6.218   2.114   5.836  1.00  0.00     0.029 A 
ATOM     87  C   UNL     1       3.696   1.113   5.222  1.00  0.00     0.043 A 
ATOM     88  C   UNL     1       5.987   0.736   5.817  1.00  0.00     0.043 A 
ATOM     89  Cl  UNL     1       2.149   0.507   4.776  1.00  0.00    -0.084 Cl
ATOM     90  C   UNL     1       4.731   0.229   5.498  1.00  0.00     0.041 A 
ATOM     91  Cl  UNL     1       7.277  -0.350   6.157  1.00  0.00    -0.084 Cl
ENDBRANCH  80  84
ENDBRANCH  75  78
ENDBRANCH  73  74
ENDBRANCH  72  73
ENDBRANCH   1  72
TORSDOF 12
