REMARK SMILES O=C(NCCCCNC(=O)c1[nH]ncc1C[N@H+]1CCC[C@H](C(=O)c2ccc3ccccc3c2)C1)c1ccc(-c2c3nc(c(-c4c(F)c(F)c(F)c(F)c4F)c4ccc([nH]4)c(-c4c(F)c(F)c(F)c(F)c4F)c4nc(c(-c5c(F)c(F)c(F)c(F)c5F)c5ccc2[nH]5)C=C4)C=C3)cc1
REMARK SMILES IDX 6 1 5 2 4 3 3 4 1 5 2 6 35 8 36 9 97 10 37 11 96 12 38 13
REMARK SMILES IDX 39 14 40 15 90 16 41 17 95 18 89 19 91 20 42 21 94 22 88 23
REMARK SMILES IDX 87 24 43 26 75 27 55 28 74 29 56 30 59 31 73 32 92 33 57 34
REMARK SMILES IDX 58 35 72 37 93 38 60 39 44 40 45 41 53 42 46 43 47 44 51 45
REMARK SMILES IDX 54 46 48 47 49 48 52 49 50 50 76 51 77 52 85 53 78 54 79 55
REMARK SMILES IDX 83 56 86 57 80 58 81 59 84 60 82 61 61 62 62 63 70 64 63 65
REMARK SMILES IDX 64 66 68 67 71 68 65 69 66 70 69 71 67 72 7 73 8 74 9 75
REMARK SMILES IDX 10 77 11 78 12 79 15 80 13 81 14 83 16 84 17 85 18 86 34 87
REMARK SMILES IDX 19 89 21 90 20 91 22 92 23 93 24 94 25 95 33 96 26 97 32 98
REMARK SMILES IDX 27 99 31 100 28 101 30 102 29 103
REMARK H PARENT 3 7 91 25 59 36 8 76 12 82 17 88
REMARK Flexibility Score: inf
ROOT
ATOM      1  C   UNL     1       4.276  -3.050  -2.456  1.00  0.00     0.023 C 
ENDROOT
BRANCH   1   2
ATOM      2  C   UNL     1       4.804  -2.450  -1.153  1.00  0.00     0.023 C 
BRANCH   2   3
ATOM      3  C   UNL     1       4.589  -0.951  -0.974  1.00  0.00     0.116 C 
BRANCH   3   4
ATOM      4  N   UNL     1       3.186  -0.567  -0.983  1.00  0.00    -0.352 N 
ATOM      5  O   UNL     1       1.247   0.271  -0.195  1.00  0.00    -0.269 OA
ATOM      6  C   UNL     1       2.456   0.122  -0.044  1.00  0.00     0.251 C 
ATOM      7  H   UNL     1       2.683  -0.843  -1.783  1.00  0.00     0.163 HD
BRANCH   6   8
ATOM      8  C   UNL     1       3.114   0.659   1.167  1.00  0.00     0.039 A 
ATOM      9  C   UNL     1       4.306   1.379   1.079  1.00  0.00     0.014 A 
ATOM     10  C   UNL     1       2.519   0.437   2.413  1.00  0.00     0.014 A 
ATOM     11  C   UNL     1       4.979   1.744   2.242  1.00  0.00     0.010 A 
ATOM     12  C   UNL     1       3.162   0.865   3.579  1.00  0.00     0.010 A 
ATOM     13  C   UNL     1       4.420   1.481   3.504  1.00  0.00    -0.014 A 
BRANCH  13  14
ATOM     14  C   UNL     1       5.171   1.869   4.724  1.00  0.00     0.031 A 
ATOM     15  C   UNL     1       5.762   0.828   5.632  1.00  0.00     0.074 A 
ATOM     16  C   UNL     1       5.373   3.175   4.979  1.00  0.00     0.049 A 
ATOM     17  N   UNL     1       6.524   0.989   6.686  1.00  0.00    -0.248 NA
ATOM     18  C   UNL     1       5.455  -0.578   5.326  1.00  0.00     0.031 C 
ATOM     19  C   UNL     1       4.837   4.280   4.183  1.00  0.00     0.029 A 
ATOM     20  N   UNL     1       6.111   3.794   5.955  1.00  0.00    -0.354 N 
ATOM     21  C   UNL     1       6.765  -0.285   7.181  1.00  0.00     0.074 A 
ATOM     22  C   UNL     1       6.061  -1.212   6.322  1.00  0.00     0.031 C 
ATOM     23  C   UNL     1       5.315   5.438   4.663  1.00  0.00     0.029 A 
ATOM     24  C   UNL     1       6.163   5.158   5.818  1.00  0.00     0.049 A 
ATOM     25  H   UNL     1       6.560   3.306   6.684  1.00  0.00     0.167 HD
ATOM     26  C   UNL     1       7.512  -0.649   8.251  1.00  0.00     0.037 A 
ATOM     27  C   UNL     1       6.833   6.080   6.532  1.00  0.00     0.037 A 
ATOM     28  C   UNL     1       8.249   0.264   9.084  1.00  0.00     0.049 A 
ATOM     29  C   UNL     1       7.681   5.647   7.691  1.00  0.00     0.074 A 
ATOM     30  C   UNL     1       9.074  -0.020  10.159  1.00  0.00     0.029 A 
ATOM     31  N   UNL     1       8.253   1.642   8.930  1.00  0.00    -0.354 N 
ATOM     32  N   UNL     1       7.923   4.437   8.129  1.00  0.00    -0.248 NA
ATOM     33  C   UNL     1       8.344   6.711   8.458  1.00  0.00     0.031 C 
ATOM     34  C   UNL     1       9.561   1.190  10.669  1.00  0.00     0.029 A 
ATOM     35  C   UNL     1       9.056   2.223   9.898  1.00  0.00     0.049 A 
ATOM     36  H   UNL     1       7.758   2.134   8.236  1.00  0.00     0.167 HD
ATOM     37  C   UNL     1       8.765   4.590   9.220  1.00  0.00     0.074 A 
ATOM     38  C   UNL     1       9.010   6.010   9.366  1.00  0.00     0.031 C 
ATOM     39  C   UNL     1       9.283   3.637  10.031  1.00  0.00     0.037 A 
BRANCH  26  40
ATOM     40  C   UNL     1       7.567  -2.106   8.592  1.00  0.00     0.064 A 
ATOM     41  C   UNL     1       8.380  -2.996   7.876  1.00  0.00     0.173 A 
ATOM     42  C   UNL     1       6.831  -2.608   9.676  1.00  0.00     0.173 A 
ATOM     43  F   UNL     1       9.090  -2.563   6.824  1.00  0.00    -0.203 F 
ATOM     44  C   UNL     1       8.445  -4.342   8.227  1.00  0.00     0.198 A 
ATOM     45  C   UNL     1       6.911  -3.951  10.033  1.00  0.00     0.198 A 
ATOM     46  F   UNL     1       6.041  -1.794  10.390  1.00  0.00    -0.203 F 
ATOM     47  F   UNL     1       9.208  -5.182   7.514  1.00  0.00    -0.200 F 
ATOM     48  C   UNL     1       7.716  -4.817   9.307  1.00  0.00     0.200 A 
ATOM     49  F   UNL     1       6.209  -4.408  11.079  1.00  0.00    -0.200 F 
ATOM     50  F   UNL     1       7.783  -6.112   9.645  1.00  0.00    -0.200 F 
ENDBRANCH  26  40
BRANCH  27  51
ATOM     51  C   UNL     1       6.754   7.506   6.136  1.00  0.00     0.064 A 
ATOM     52  C   UNL     1       7.825   8.123   5.478  1.00  0.00     0.173 A 
ATOM     53  C   UNL     1       5.601   8.266   6.375  1.00  0.00     0.173 A 
ATOM     54  F   UNL     1       8.953   7.436   5.245  1.00  0.00    -0.203 F 
ATOM     55  C   UNL     1       7.747   9.453   5.073  1.00  0.00     0.198 A 
ATOM     56  C   UNL     1       5.517   9.590   5.954  1.00  0.00     0.198 A 
ATOM     57  F   UNL     1       4.551   7.713   6.999  1.00  0.00    -0.203 F 
ATOM     58  F   UNL     1       8.791  10.027   4.460  1.00  0.00    -0.200 F 
ATOM     59  C   UNL     1       6.591  10.183   5.305  1.00  0.00     0.200 A 
ATOM     60  F   UNL     1       4.396  10.290   6.171  1.00  0.00    -0.200 F 
ATOM     61  F   UNL     1       6.512  11.460   4.906  1.00  0.00    -0.200 F 
ENDBRANCH  27  51
BRANCH  39  62
ATOM     62  C   UNL     1      10.162   4.105  11.148  1.00  0.00     0.064 A 
ATOM     63  C   UNL     1       9.616   4.645  12.321  1.00  0.00     0.173 A 
ATOM     64  C   UNL     1      11.556   3.991  11.056  1.00  0.00     0.173 A 
ATOM     65  F   UNL     1       8.288   4.786  12.443  1.00  0.00    -0.203 F 
ATOM     66  C   UNL     1      10.438   5.070  13.360  1.00  0.00     0.198 A 
ATOM     67  C   UNL     1      12.375   4.404  12.103  1.00  0.00     0.198 A 
ATOM     68  F   UNL     1      12.121   3.480   9.952  1.00  0.00    -0.203 F 
ATOM     69  F   UNL     1       9.899   5.613  14.460  1.00  0.00    -0.200 F 
ATOM     70  C   UNL     1      11.816   4.947  13.252  1.00  0.00     0.200 A 
ATOM     71  F   UNL     1      13.705   4.283  11.999  1.00  0.00    -0.200 F 
ATOM     72  F   UNL     1      12.607   5.360  14.252  1.00  0.00    -0.200 F 
ENDBRANCH  39  62
ENDBRANCH  13  14
ENDBRANCH   6   8
ENDBRANCH   3   4
ENDBRANCH   2   3
ENDBRANCH   1   2
BRANCH   1  73
ATOM     73  C   UNL     1       4.675  -2.314  -3.733  1.00  0.00     0.116 C 
BRANCH  73  74
ATOM     74  N   UNL     1       6.115  -2.213  -3.901  1.00  0.00    -0.351 N 
ATOM     75  C   UNL     1       6.884  -2.553  -4.981  1.00  0.00     0.269 C 
ATOM     76  H   UNL     1       6.607  -1.850  -3.129  1.00  0.00     0.163 HD
ATOM     77  O   UNL     1       8.111  -2.571  -4.843  1.00  0.00    -0.268 OA
BRANCH  75  78
ATOM     78  C   UNL     1       6.247  -2.936  -6.205  1.00  0.00     0.131 A 
ATOM     79  N   UNL     1       6.606  -4.070  -6.878  1.00  0.00    -0.272 N 
ATOM     80  C   UNL     1       5.283  -2.321  -6.999  1.00  0.00     0.057 A 
ATOM     81  N   UNL     1       5.829  -4.339  -7.938  1.00  0.00    -0.183 NA
ATOM     82  H   UNL     1       7.364  -4.638  -6.609  1.00  0.00     0.190 HD
ATOM     83  C   UNL     1       5.033  -3.272  -8.017  1.00  0.00     0.145 A 
BRANCH  80  84
ATOM     84  C   UNL     1       4.651  -0.982  -6.803  1.00  0.00     0.303 C 
BRANCH  84  85
ATOM     85  N   UNL     1       4.922  -0.012  -7.867  1.00  0.00    -0.330 N 
ATOM     86  C   UNL     1       6.328   0.083  -8.262  1.00  0.00     0.262 C 
ATOM     87  C   UNL     1       4.024  -0.108  -9.015  1.00  0.00     0.274 C 
ATOM     88  H   UNL     1       4.704   0.880  -7.423  1.00  0.00     0.348 HD
ATOM     89  C   UNL     1       6.566   1.337  -9.098  1.00  0.00     0.062 C 
ATOM     90  C   UNL     1       4.142   1.116  -9.930  1.00  0.00     0.116 C 
ATOM     91  C   UNL     1       5.594   1.468 -10.271  1.00  0.00     0.023 C 
BRANCH  90  92
ATOM     92  C   UNL     1       3.288   2.291  -9.446  1.00  0.00     0.171 C 
ATOM     93  O   UNL     1       2.333   2.712 -10.097  1.00  0.00    -0.294 OA
BRANCH  92  94
ATOM     94  C   UNL     1       3.561   2.928  -8.142  1.00  0.00     0.019 A 
ATOM     95  C   UNL     1       4.535   3.917  -8.040  1.00  0.00     0.012 A 
ATOM     96  C   UNL     1       2.784   2.575  -7.035  1.00  0.00     0.020 A 
ATOM     97  C   UNL     1       4.797   4.498  -6.799  1.00  0.00     0.009 A 
ATOM     98  C   UNL     1       3.030   3.163  -5.784  1.00  0.00    -0.018 A 
ATOM     99  C   UNL     1       4.062   4.125  -5.661  1.00  0.00    -0.018 A 
ATOM    100  C   UNL     1       2.275   2.820  -4.650  1.00  0.00     0.009 A 
ATOM    101  C   UNL     1       4.321   4.698  -4.406  1.00  0.00     0.009 A 
ATOM    102  C   UNL     1       2.542   3.405  -3.410  1.00  0.00     0.001 A 
ATOM    103  C   UNL     1       3.566   4.338  -3.288  1.00  0.00     0.001 A 
ENDBRANCH  92  94
ENDBRANCH  90  92
ENDBRANCH  84  85
ENDBRANCH  80  84
ENDBRANCH  75  78
ENDBRANCH  73  74
ENDBRANCH   1  73
TORSDOF 15
