REMARK SMILES CC(C)(C)OC(=O)N1CCC[C@@]1(Cc1ccc(C(C)(C)C)cc1)C(=O)NCCCCNC(=O)c1ccc(-c2c3nc(c(-c4c(F)c(F)c(F)c(F)c4F)c4ccc([nH]4)c(-c4c(F)c(F)c(F)c(F)c4F)c4nc(c(-c5c(F)c(F)c(F)c(F)c5F)c5ccc2[nH]5)C=C4)C=C3)cc1
REMARK SMILES IDX 28 1 27 2 26 3 24 4 25 5 12 7 8 8 9 9 10 10 11 11 6 12 7 13
REMARK SMILES IDX 5 14 2 15 1 16 3 17 4 18 13 19 14 20 15 21 23 22 16 23 22 24
REMARK SMILES IDX 17 25 18 26 19 27 20 28 21 29 29 30 30 31 31 32 32 33 33 35
REMARK SMILES IDX 34 36 35 37 96 38 36 39 95 40 37 41 38 42 39 43 89 44 40 45
REMARK SMILES IDX 94 46 88 47 90 48 41 49 93 50 87 51 86 52 42 54 74 55 54 56
REMARK SMILES IDX 73 57 55 58 58 59 72 60 91 61 56 62 57 63 71 65 92 66 59 67
REMARK SMILES IDX 43 68 44 69 52 70 45 71 46 72 50 73 53 74 47 75 48 76 51 77
REMARK SMILES IDX 49 78 75 79 76 80 84 81 77 82 78 83 82 84 85 85 79 86 80 87
REMARK SMILES IDX 83 88 81 89 60 90 61 91 69 92 62 93 63 94 67 95 70 96 64 97
REMARK SMILES IDX 65 98 68 99 66 100
REMARK H PARENT 26 6 31 34 90 53 58 64
REMARK Flexibility Score: inf
ROOT
ATOM      1  C   UNL     1       0.312  10.475  -0.420  1.00  0.00     0.023 C 
ENDROOT
BRANCH   1   2
ATOM      2  C   UNL     1      -0.482   9.173  -0.435  1.00  0.00     0.116 C 
BRANCH   2   3
ATOM      3  N   UNL     1      -0.069   8.257  -1.484  1.00  0.00    -0.354 N 
ATOM      4  C   UNL     1       0.243   6.924  -1.469  1.00  0.00     0.246 C 
ATOM      5  O   UNL     1       0.528   6.450  -2.575  1.00  0.00    -0.272 OA
ATOM      6  H   UNL     1      -0.001   8.674  -2.374  1.00  0.00     0.163 HD
BRANCH   4   7
ATOM      7  C   UNL     1       0.280   6.063  -0.154  1.00  0.00     0.129 C 
ATOM      8  N   UNL     1       1.069   4.808  -0.408  1.00  0.00    -0.293 N 
ATOM      9  C   UNL     1       2.364   4.826   0.233  1.00  0.00     0.124 C 
ATOM     10  C   UNL     1       2.157   5.730   1.422  1.00  0.00     0.025 C 
ATOM     11  C   UNL     1       1.180   6.778   0.900  1.00  0.00     0.041 C 
BRANCH   8  12
ATOM     12  C   UNL     1       0.561   3.724  -1.098  1.00  0.00     0.411 C 
ATOM     13  O   UNL     1      -0.406   3.767  -1.836  1.00  0.00    -0.224 OA
BRANCH  12  14
ATOM     14  O   UNL     1       1.183   2.574  -0.722  1.00  0.00    -0.444 OA
BRANCH  14  15
ATOM     15  C   UNL     1       0.654   1.277  -1.106  1.00  0.00     0.106 C 
ATOM     16  C   UNL     1       1.348   0.280  -0.164  1.00  0.00     0.056 C 
ATOM     17  C   UNL     1       1.052   0.977  -2.550  1.00  0.00     0.056 C 
ATOM     18  C   UNL     1      -0.862   1.139  -0.891  1.00  0.00     0.056 C 
ENDBRANCH  14  15
ENDBRANCH  12  14
ENDBRANCH   8  12
BRANCH   7  19
ATOM     19  C   UNL     1      -1.115   5.638   0.410  1.00  0.00     0.074 C 
BRANCH  19  20
ATOM     20  C   UNL     1      -2.152   6.677   0.740  1.00  0.00    -0.045 A 
ATOM     21  C   UNL     1      -2.257   7.213   2.023  1.00  0.00     0.004 A 
ATOM     22  C   UNL     1      -3.053   7.103  -0.242  1.00  0.00     0.004 A 
ATOM     23  C   UNL     1      -3.171   8.237   2.287  1.00  0.00     0.004 A 
ATOM     24  C   UNL     1      -3.966   8.127   0.025  1.00  0.00     0.004 A 
ATOM     25  C   UNL     1      -4.000   8.760   1.278  1.00  0.00    -0.043 A 
BRANCH  25  26
ATOM     26  C   UNL     1      -4.879   9.995   1.547  1.00  0.00    -0.013 C 
ATOM     27  C   UNL     1      -6.150   9.573   2.300  1.00  0.00     0.016 C 
ATOM     28  C   UNL     1      -4.112  11.029   2.405  1.00  0.00     0.016 C 
ATOM     29  C   UNL     1      -5.306  10.710   0.245  1.00  0.00     0.016 C 
ENDBRANCH  25  26
ENDBRANCH  19  20
ENDBRANCH   7  19
ENDBRANCH   4   7
ENDBRANCH   2   3
ENDBRANCH   1   2
BRANCH   1  30
ATOM     30  C   UNL     1      -0.032  11.462  -1.541  1.00  0.00     0.023 C 
BRANCH  30  31
ATOM     31  C   UNL     1      -1.500  11.877  -1.651  1.00  0.00     0.116 C 
BRANCH  31  32
ATOM     32  N   UNL     1      -2.047  12.453  -0.433  1.00  0.00    -0.352 N 
ATOM     33  C   UNL     1      -3.049  13.383  -0.271  1.00  0.00     0.251 C 
ATOM     34  H   UNL     1      -1.639  12.129   0.402  1.00  0.00     0.163 HD
ATOM     35  O   UNL     1      -3.336  13.783   0.854  1.00  0.00    -0.269 OA
BRANCH  33  36
ATOM     36  C   UNL     1      -3.737  13.964  -1.445  1.00  0.00     0.039 A 
ATOM     37  C   UNL     1      -3.936  15.348  -1.458  1.00  0.00     0.014 A 
ATOM     38  C   UNL     1      -4.119  13.192  -2.546  1.00  0.00     0.014 A 
ATOM     39  C   UNL     1      -4.362  15.975  -2.627  1.00  0.00     0.010 A 
ATOM     40  C   UNL     1      -4.490  13.819  -3.732  1.00  0.00     0.010 A 
ATOM     41  C   UNL     1      -4.553  15.218  -3.793  1.00  0.00    -0.014 A 
BRANCH  41  42
ATOM     42  C   UNL     1      -4.625  15.889  -5.112  1.00  0.00     0.031 A 
ATOM     43  C   UNL     1      -5.879  15.880  -5.924  1.00  0.00     0.074 A 
ATOM     44  C   UNL     1      -3.492  16.434  -5.598  1.00  0.00     0.049 A 
ATOM     45  N   UNL     1      -6.098  16.408  -7.101  1.00  0.00    -0.248 NA
ATOM     46  C   UNL     1      -7.032  15.171  -5.353  1.00  0.00     0.031 C 
ATOM     47  C   UNL     1      -2.195  16.428  -4.914  1.00  0.00     0.029 A 
ATOM     48  N   UNL     1      -3.239  17.086  -6.777  1.00  0.00    -0.354 N 
ATOM     49  C   UNL     1      -7.414  16.104  -7.411  1.00  0.00     0.074 A 
ATOM     50  C   UNL     1      -7.931  15.303  -6.320  1.00  0.00     0.031 C 
ATOM     51  C   UNL     1      -1.292  17.065  -5.674  1.00  0.00     0.029 A 
ATOM     52  C   UNL     1      -1.935  17.495  -6.909  1.00  0.00     0.049 A 
ATOM     53  H   UNL     1      -3.927  17.246  -7.463  1.00  0.00     0.167 HD
ATOM     54  C   UNL     1      -8.125  16.477  -8.502  1.00  0.00     0.037 A 
ATOM     55  C   UNL     1      -1.324  18.143  -7.918  1.00  0.00     0.037 A 
ATOM     56  C   UNL     1      -7.591  17.267  -9.582  1.00  0.00     0.049 A 
ATOM     57  C   UNL     1      -2.136  18.537  -9.118  1.00  0.00     0.074 A 
ATOM     58  C   UNL     1      -8.242  17.750 -10.704  1.00  0.00     0.029 A 
ATOM     59  N   UNL     1      -6.268  17.677  -9.681  1.00  0.00    -0.354 N 
ATOM     60  N   UNL     1      -3.408  18.330  -9.357  1.00  0.00    -0.248 NA
ATOM     61  C   UNL     1      -1.432  19.260 -10.184  1.00  0.00     0.031 C 
ATOM     62  C   UNL     1      -7.303  18.412 -11.504  1.00  0.00     0.029 A 
ATOM     63  C   UNL     1      -6.077  18.383 -10.859  1.00  0.00     0.049 A 
ATOM     64  H   UNL     1      -5.569  17.494  -9.012  1.00  0.00     0.167 HD
ATOM     65  C   UNL     1      -3.663  18.911 -10.590  1.00  0.00     0.074 A 
ATOM     66  C   UNL     1      -2.417  19.498 -11.039  1.00  0.00     0.031 C 
ATOM     67  C   UNL     1      -4.825  18.954 -11.288  1.00  0.00     0.037 A 
BRANCH  54  68
ATOM     68  C   UNL     1      -9.557  16.037  -8.579  1.00  0.00     0.064 A 
ATOM     69  C   UNL     1     -10.537  16.582  -7.733  1.00  0.00     0.173 A 
ATOM     70  C   UNL     1      -9.965  15.089  -9.528  1.00  0.00     0.173 A 
ATOM     71  F   UNL     1     -10.197  17.485  -6.801  1.00  0.00    -0.203 F 
ATOM     72  C   UNL     1     -11.865  16.174  -7.818  1.00  0.00     0.198 A 
ATOM     73  C   UNL     1     -11.300  14.703  -9.629  1.00  0.00     0.198 A 
ATOM     74  F   UNL     1      -9.071  14.541 -10.365  1.00  0.00    -0.203 F 
ATOM     75  F   UNL     1     -12.774  16.676  -6.971  1.00  0.00    -0.200 F 
ATOM     76  C   UNL     1     -12.247  15.240  -8.769  1.00  0.00     0.200 A 
ATOM     77  F   UNL     1     -11.669  13.808 -10.555  1.00  0.00    -0.200 F 
ATOM     78  F   UNL     1     -13.527  14.851  -8.853  1.00  0.00    -0.200 F 
ENDBRANCH  54  68
BRANCH  55  79
ATOM     79  C   UNL     1       0.118  18.481  -7.816  1.00  0.00     0.064 A 
ATOM     80  C   UNL     1       0.535  19.809  -7.650  1.00  0.00     0.173 A 
ATOM     81  C   UNL     1       1.107  17.488  -7.865  1.00  0.00     0.173 A 
ATOM     82  F   UNL     1      -0.372  20.796  -7.612  1.00  0.00    -0.203 F 
ATOM     83  C   UNL     1       1.887  20.132  -7.555  1.00  0.00     0.198 A 
ATOM     84  C   UNL     1       2.457  17.809  -7.743  1.00  0.00     0.198 A 
ATOM     85  F   UNL     1       0.760  16.201  -8.011  1.00  0.00    -0.203 F 
ATOM     86  F   UNL     1       2.260  21.414  -7.436  1.00  0.00    -0.200 F 
ATOM     87  C   UNL     1       2.847  19.132  -7.596  1.00  0.00     0.200 A 
ATOM     88  F   UNL     1       3.380  16.838  -7.766  1.00  0.00    -0.200 F 
ATOM     89  F   UNL     1       4.146  19.443  -7.497  1.00  0.00    -0.200 F 
ENDBRANCH  55  79
BRANCH  67  90
ATOM     90  C   UNL     1      -4.798  19.672 -12.604  1.00  0.00     0.064 A 
ATOM     91  C   UNL     1      -4.164  19.120 -13.726  1.00  0.00     0.173 A 
ATOM     92  C   UNL     1      -5.441  20.910 -12.752  1.00  0.00     0.173 A 
ATOM     93  F   UNL     1      -3.518  17.948 -13.629  1.00  0.00    -0.203 F 
ATOM     94  C   UNL     1      -4.155  19.794 -14.945  1.00  0.00     0.198 A 
ATOM     95  C   UNL     1      -5.455  21.567 -13.979  1.00  0.00     0.198 A 
ATOM     96  F   UNL     1      -6.065  21.477 -11.708  1.00  0.00    -0.203 F 
ATOM     97  F   UNL     1      -3.503  19.270 -15.992  1.00  0.00    -0.200 F 
ATOM     98  C   UNL     1      -4.807  21.012 -15.072  1.00  0.00     0.200 A 
ATOM     99  F   UNL     1      -6.094  22.738 -14.103  1.00  0.00    -0.200 F 
ATOM    100  F   UNL     1      -4.803  21.655 -16.247  1.00  0.00    -0.200 F 
ENDBRANCH  67  90
ENDBRANCH  41  42
ENDBRANCH  33  36
ENDBRANCH  31  32
ENDBRANCH  30  31
ENDBRANCH   1  30
TORSDOF 17
