REMARK SMILES Cn1cc(S(=O)(=O)N2CCC(C(=O)NCCCCNC(=O)c3ccc(-c4c5nc(c(-c6c(F)c(F)c(F)c(F)c6F)c6ccc([nH]6)c(-c6c(F)c(F)c(F)c(F)c6F)c6nc(c(-c7c(F)c(F)c(F)c(F)c7F)c7ccc4[nH]7)C=C6)C=C5)cc3)CC2)cc1C(=O)N1CCCCC1
REMARK SMILES IDX 16 1 15 2 14 3 12 4 13 5 11 7 8 8 9 9 86 10 10 11 85 12 5 13
REMARK SMILES IDX 6 14 7 15 4 16 1 17 2 18 3 19 88 20 87 21 89 22 90 23 91 24
REMARK SMILES IDX 92 25 96 26 93 27 95 28 94 29 17 30 18 31 19 32 20 33 21 35
REMARK SMILES IDX 22 36 23 37 84 38 24 39 83 40 25 41 26 42 27 43 77 44 28 45
REMARK SMILES IDX 82 46 76 47 78 48 29 49 81 50 75 51 74 52 30 54 62 55 42 56
REMARK SMILES IDX 61 57 43 58 46 59 60 60 79 61 44 62 45 63 59 65 80 66 47 67
REMARK SMILES IDX 31 68 32 69 40 70 33 71 34 72 38 73 41 74 35 75 36 76 39 77
REMARK SMILES IDX 37 78 63 79 64 80 72 81 65 82 66 83 70 84 73 85 67 86 68 87
REMARK SMILES IDX 71 88 69 89 48 90 49 91 57 92 50 93 51 94 55 95 58 96 52 97
REMARK SMILES IDX 53 98 56 99 54 100
REMARK H PARENT 14 6 19 34 78 53 46 64
REMARK Flexibility Score: inf
ROOT
ATOM      1  C   UNL     1      -8.852   0.328  -1.697  1.00  0.00     0.023 C 
ENDROOT
BRANCH   1   2
ATOM      2  C   UNL     1      -8.360  -0.174  -0.342  1.00  0.00     0.116 C 
BRANCH   2   3
ATOM      3  N   UNL     1      -8.255  -1.622  -0.309  1.00  0.00    -0.356 N 
ATOM      4  C   UNL     1      -7.169  -2.437  -0.239  1.00  0.00     0.223 C 
ATOM      5  O   UNL     1      -7.366  -3.655  -0.242  1.00  0.00    -0.275 OA
ATOM      6  H   UNL     1      -9.118  -2.095  -0.344  1.00  0.00     0.163 HD
BRANCH   4   7
ATOM      7  C   UNL     1      -5.755  -1.890  -0.131  1.00  0.00     0.081 C 
ATOM      8  N   UNL     1      -3.921   0.309   0.095  1.00  0.00    -0.198 NA
ATOM      9  C   UNL     1      -3.979  -0.436  -1.188  1.00  0.00     0.103 C 
ATOM     10  C   UNL     1      -4.168  -0.524   1.292  1.00  0.00     0.103 C 
ATOM     11  C   UNL     1      -5.348  -1.072  -1.358  1.00  0.00     0.030 C 
ATOM     12  C   UNL     1      -5.540  -1.171   1.204  1.00  0.00     0.030 C 
BRANCH   8  13
ATOM     13  S   UNL     1      -2.635   1.426   0.233  1.00  0.00     0.244 S 
ATOM     14  O   UNL     1      -2.671   2.022   1.551  1.00  0.00    -0.207 OA
ATOM     15  O   UNL     1      -2.610   2.234  -0.967  1.00  0.00    -0.207 OA
BRANCH  13  16
ATOM     16  C   UNL     1      -1.115   0.595   0.193  1.00  0.00     0.101 A 
ATOM     17  C   UNL     1       2.424   0.495  -0.502  1.00  0.00     0.150 C 
ATOM     18  N   UNL     1       1.057   0.203  -0.127  1.00  0.00    -0.345 N 
ATOM     19  C   UNL     1       0.122   1.192   0.077  1.00  0.00     0.107 A 
ATOM     20  C   UNL     1       0.446  -1.037  -0.096  1.00  0.00     0.108 A 
ATOM     21  C   UNL     1      -0.896  -0.798   0.170  1.00  0.00     0.055 A 
BRANCH  20  22
ATOM     22  C   UNL     1       0.981  -2.329  -0.493  1.00  0.00     0.270 C 
ATOM     23  O   UNL     1       0.309  -3.075  -1.206  1.00  0.00    -0.267 OA
ATOM     24  N   UNL     1       2.262  -2.689  -0.099  1.00  0.00    -0.337 N 
ATOM     25  C   UNL     1       2.991  -3.652  -0.918  1.00  0.00     0.120 C 
ATOM     26  C   UNL     1       2.905  -2.270   1.144  1.00  0.00     0.120 C 
ATOM     27  C   UNL     1       3.415  -4.874  -0.115  1.00  0.00     0.022 C 
ATOM     28  C   UNL     1       3.353  -3.478   1.969  1.00  0.00     0.022 C 
ATOM     29  C   UNL     1       4.184  -4.451   1.133  1.00  0.00     0.004 C 
ENDBRANCH  20  22
ENDBRANCH  13  16
ENDBRANCH   8  13
ENDBRANCH   4   7
ENDBRANCH   2   3
ENDBRANCH   1   2
BRANCH   1  30
ATOM     30  C   UNL     1     -10.299  -0.038  -2.025  1.00  0.00     0.023 C 
BRANCH  30  31
ATOM     31  C   UNL     1     -11.319   0.330  -0.956  1.00  0.00     0.116 C 
BRANCH  31  32
ATOM     32  N   UNL     1     -11.282   1.735  -0.580  1.00  0.00    -0.352 N 
ATOM     33  C   UNL     1     -12.330   2.566  -0.268  1.00  0.00     0.251 C 
ATOM     34  H   UNL     1     -10.387   2.144  -0.545  1.00  0.00     0.163 HD
ATOM     35  O   UNL     1     -12.142   3.758  -0.053  1.00  0.00    -0.269 OA
BRANCH  33  36
ATOM     36  C   UNL     1     -13.699   2.016  -0.237  1.00  0.00     0.039 A 
ATOM     37  C   UNL     1     -14.697   2.663  -0.970  1.00  0.00     0.014 A 
ATOM     38  C   UNL     1     -13.983   0.847   0.474  1.00  0.00     0.014 A 
ATOM     39  C   UNL     1     -15.968   2.095  -1.050  1.00  0.00     0.010 A 
ATOM     40  C   UNL     1     -15.232   0.251   0.344  1.00  0.00     0.010 A 
ATOM     41  C   UNL     1     -16.232   0.867  -0.424  1.00  0.00    -0.014 A 
BRANCH  41  42
ATOM     42  C   UNL     1     -17.549   0.203  -0.564  1.00  0.00     0.031 A 
ATOM     43  C   UNL     1     -18.441   0.046   0.632  1.00  0.00     0.074 A 
ATOM     44  C   UNL     1     -17.903  -0.327  -1.750  1.00  0.00     0.049 A 
ATOM     45  N   UNL     1     -19.586  -0.579   0.734  1.00  0.00    -0.248 NA
ATOM     46  C   UNL     1     -17.968   0.648   1.888  1.00  0.00     0.031 C 
ATOM     47  C   UNL     1     -17.097  -0.284  -2.971  1.00  0.00     0.029 A 
ATOM     48  N   UNL     1     -19.029  -1.018  -2.119  1.00  0.00    -0.354 N 
ATOM     49  C   UNL     1     -19.957  -0.468   2.067  1.00  0.00     0.074 A 
ATOM     50  C   UNL     1     -18.899   0.252   2.744  1.00  0.00     0.031 C 
ATOM     51  C   UNL     1     -17.762  -0.905  -3.958  1.00  0.00     0.029 A 
ATOM     52  C   UNL     1     -19.026  -1.413  -3.433  1.00  0.00     0.049 A 
ATOM     53  H   UNL     1     -19.770  -1.212  -1.499  1.00  0.00     0.167 HD
ATOM     54  C   UNL     1     -21.087  -0.911   2.667  1.00  0.00     0.037 A 
ATOM     55  C   UNL     1     -19.941  -2.109  -4.133  1.00  0.00     0.037 A 
ATOM     56  C   UNL     1     -22.155  -1.589   1.983  1.00  0.00     0.049 A 
ATOM     57  C   UNL     1     -21.201  -2.562  -3.452  1.00  0.00     0.074 A 
ATOM     58  C   UNL     1     -23.373  -2.010   2.487  1.00  0.00     0.029 A 
ATOM     59  N   UNL     1     -22.132  -1.941   0.642  1.00  0.00    -0.354 N 
ATOM     60  N   UNL     1     -21.570  -2.398  -2.205  1.00  0.00    -0.248 NA
ATOM     61  C   UNL     1     -22.174  -3.292  -4.276  1.00  0.00     0.031 C 
ATOM     62  C   UNL     1     -24.077  -2.642   1.455  1.00  0.00     0.029 A 
ATOM     63  C   UNL     1     -23.309  -2.586   0.303  1.00  0.00     0.049 A 
ATOM     64  H   UNL     1     -21.388  -1.759   0.023  1.00  0.00     0.167 HD
ATOM     65  C   UNL     1     -22.823  -2.984  -2.098  1.00  0.00     0.074 A 
ATOM     66  C   UNL     1     -23.157  -3.499  -3.410  1.00  0.00     0.031 C 
ATOM     67  C   UNL     1     -23.624  -3.086  -1.011  1.00  0.00     0.037 A 
BRANCH  54  68
ATOM     68  C   UNL     1     -21.222  -0.667   4.139  1.00  0.00     0.064 A 
ATOM     69  C   UNL     1     -21.471   0.615   4.651  1.00  0.00     0.173 A 
ATOM     70  C   UNL     1     -21.116  -1.730   5.048  1.00  0.00     0.173 A 
ATOM     71  F   UNL     1     -21.565   1.665   3.821  1.00  0.00    -0.203 F 
ATOM     72  C   UNL     1     -21.581   0.829   6.022  1.00  0.00     0.198 A 
ATOM     73  C   UNL     1     -21.252  -1.516   6.417  1.00  0.00     0.198 A 
ATOM     74  F   UNL     1     -20.880  -2.975   4.609  1.00  0.00    -0.203 F 
ATOM     75  F   UNL     1     -21.772   2.070   6.491  1.00  0.00    -0.200 F 
ATOM     76  C   UNL     1     -21.476  -0.236   6.903  1.00  0.00     0.200 A 
ATOM     77  F   UNL     1     -21.157  -2.547   7.268  1.00  0.00    -0.200 F 
ATOM     78  F   UNL     1     -21.582  -0.028   8.223  1.00  0.00    -0.200 F 
ENDBRANCH  54  68
BRANCH  55  79
ATOM     79  C   UNL     1     -19.711  -2.386  -5.572  1.00  0.00     0.064 A 
ATOM     80  C   UNL     1     -20.424  -1.688  -6.556  1.00  0.00     0.173 A 
ATOM     81  C   UNL     1     -18.770  -3.336  -5.994  1.00  0.00     0.173 A 
ATOM     82  F   UNL     1     -21.348  -0.784  -6.197  1.00  0.00    -0.203 F 
ATOM     83  C   UNL     1     -20.213  -1.938  -7.910  1.00  0.00     0.198 A 
ATOM     84  C   UNL     1     -18.546  -3.571  -7.348  1.00  0.00     0.198 A 
ATOM     85  F   UNL     1     -18.060  -4.025  -5.088  1.00  0.00    -0.203 F 
ATOM     86  F   UNL     1     -20.930  -1.279  -8.830  1.00  0.00    -0.200 F 
ATOM     87  C   UNL     1     -19.271  -2.876  -8.305  1.00  0.00     0.200 A 
ATOM     88  F   UNL     1     -17.628  -4.471  -7.728  1.00  0.00    -0.200 F 
ATOM     89  F   UNL     1     -19.065  -3.113  -9.608  1.00  0.00    -0.200 F 
ENDBRANCH  55  79
BRANCH  67  90
ATOM     90  C   UNL     1     -24.950  -3.757  -1.200  1.00  0.00     0.064 A 
ATOM     91  C   UNL     1     -25.054  -5.150  -1.312  1.00  0.00     0.173 A 
ATOM     92  C   UNL     1     -26.131  -3.001  -1.230  1.00  0.00     0.173 A 
ATOM     93  F   UNL     1     -23.949  -5.912  -1.306  1.00  0.00    -0.203 F 
ATOM     94  C   UNL     1     -26.294  -5.763  -1.463  1.00  0.00     0.198 A 
ATOM     95  C   UNL     1     -27.371  -3.619  -1.359  1.00  0.00     0.198 A 
ATOM     96  F   UNL     1     -26.081  -1.665  -1.123  1.00  0.00    -0.203 F 
ATOM     97  F   UNL     1     -26.370  -7.094  -1.603  1.00  0.00    -0.200 F 
ATOM     98  C   UNL     1     -27.451  -4.998  -1.480  1.00  0.00     0.200 A 
ATOM     99  F   UNL     1     -28.489  -2.879  -1.369  1.00  0.00    -0.200 F 
ATOM    100  F   UNL     1     -28.645  -5.590  -1.621  1.00  0.00    -0.200 F 
ENDBRANCH  67  90
ENDBRANCH  41  42
ENDBRANCH  33  36
ENDBRANCH  31  32
ENDBRANCH  30  31
ENDBRANCH   1  30
TORSDOF 14
