REMARK SMILES Cn1c(=O)[nH]c(=O)c2c1nc(NC1CCCC1)n2CC(=O)NCCCCNC(=O)c1ccc(-c2c3nc(c(-c4c(F)c(F)c(F)c(F)c4F)c4ccc([nH]4)c(-c4c(F)c(F)c(F)c(F)c4F)c4nc(c(-c5c(F)c(F)c(F)c(F)c5F)c5ccc2[nH]5)C=C4)C=C3)cc1
REMARK SMILES IDX 24 1 23 2 22 3 20 4 21 5 19 7 18 8 1 9 2 10 3 11 9 12 4 13
REMARK SMILES IDX 5 14 8 15 10 16 6 17 11 19 7 20 12 21 13 23 14 24 17 25
REMARK SMILES IDX 15 26 16 27 25 28 26 29 27 30 28 31 29 33 30 34 31 35 92 36
REMARK SMILES IDX 32 37 91 38 33 39 34 40 35 41 85 42 36 43 90 44 84 45 86 46
REMARK SMILES IDX 37 47 89 48 83 49 82 50 38 52 70 53 50 54 69 55 51 56 54 57
REMARK SMILES IDX 68 58 87 59 52 60 53 61 67 63 88 64 55 65 39 66 40 67 48 68
REMARK SMILES IDX 41 69 42 70 46 71 49 72 43 73 44 74 47 75 45 76 71 77 72 78
REMARK SMILES IDX 80 79 73 80 74 81 78 82 81 83 75 84 76 85 79 86 77 87 56 88
REMARK SMILES IDX 57 89 65 90 58 91 59 92 63 93 66 94 60 95 61 96 64 97 62 98
REMARK H PARENT 22 6 5 18 12 22 27 32 86 51 54 62
REMARK Flexibility Score: inf
ROOT
ATOM      1  C   UNL     1       3.659   3.631   2.607  1.00  0.00     0.023 C 
ENDROOT
BRANCH   1   2
ATOM      2  C   UNL     1       2.963   4.944   2.992  1.00  0.00     0.116 C 
BRANCH   2   3
ATOM      3  N   UNL     1       3.285   6.029   2.085  1.00  0.00    -0.355 N 
ATOM      4  C   UNL     1       2.556   6.525   1.041  1.00  0.00     0.240 C 
ATOM      5  O   UNL     1       3.069   7.395   0.331  1.00  0.00    -0.273 OA
ATOM      6  H   UNL     1       4.151   6.470   2.243  1.00  0.00     0.163 HD
BRANCH   4   7
ATOM      7  C   UNL     1       1.142   6.046   0.774  1.00  0.00     0.226 C 
BRANCH   7   8
ATOM      8  N   UNL     1       1.085   4.661   0.351  1.00  0.00    -0.295 N 
ATOM      9  C   UNL     1       0.953   0.081   0.052  1.00  0.00     0.157 C 
ATOM     10  N   UNL     1       0.452   1.252   0.746  1.00  0.00    -0.279 N 
ATOM     11  C   UNL     1      -0.338   1.129   1.880  1.00  0.00     0.329 A 
ATOM     12  C   UNL     1       0.802   2.513   0.318  1.00  0.00     0.170 A 
ATOM     13  O   UNL     1      -0.675   0.053   2.373  1.00  0.00    -0.248 OA
ATOM     14  N   UNL     1      -0.748   2.301   2.490  1.00  0.00    -0.272 N 
ATOM     15  C   UNL     1       0.414   3.641   0.981  1.00  0.00     0.154 A 
ATOM     16  N   UNL     1       1.604   2.796  -0.733  1.00  0.00    -0.194 NA
ATOM     17  C   UNL     1      -0.422   3.587   2.128  1.00  0.00     0.279 A 
ATOM     18  H   UNL     1      -1.339   2.204   3.272  1.00  0.00     0.175 HD
ATOM     19  C   UNL     1       1.782   4.100  -0.706  1.00  0.00     0.206 A 
ATOM     20  O   UNL     1      -0.796   4.561   2.779  1.00  0.00    -0.267 OA
BRANCH  19  21
ATOM     21  N   UNL     1       2.561   4.832  -1.530  1.00  0.00    -0.353 N 
ATOM     22  H   UNL     1       2.646   5.799  -1.368  1.00  0.00     0.163 HD
BRANCH  21  23
ATOM     23  C   UNL     1       3.281   4.240  -2.649  1.00  0.00     0.082 C 
ATOM     24  C   UNL     1       4.264   3.142  -2.255  1.00  0.00     0.025 C 
ATOM     25  C   UNL     1       2.362   3.607  -3.692  1.00  0.00     0.025 C 
ATOM     26  C   UNL     1       4.465   2.346  -3.536  1.00  0.00     0.002 C 
ATOM     27  C   UNL     1       3.176   2.491  -4.340  1.00  0.00     0.002 C 
ENDBRANCH  21  23
ENDBRANCH  19  21
ENDBRANCH   7   8
ENDBRANCH   4   7
ENDBRANCH   2   3
ENDBRANCH   1   2
BRANCH   1  28
ATOM     28  C   UNL     1       5.182   3.600   2.795  1.00  0.00     0.023 C 
BRANCH  28  29
ATOM     29  C   UNL     1       5.642   3.803   4.228  1.00  0.00     0.116 C 
BRANCH  29  30
ATOM     30  N   UNL     1       5.201   2.742   5.138  1.00  0.00    -0.352 N 
ATOM     31  C   UNL     1       5.418   2.664   6.504  1.00  0.00     0.251 C 
ATOM     32  H   UNL     1       4.694   2.002   4.733  1.00  0.00     0.163 HD
ATOM     33  O   UNL     1       5.366   1.600   7.106  1.00  0.00    -0.269 OA
BRANCH  31  34
ATOM     34  C   UNL     1       5.691   3.915   7.227  1.00  0.00     0.039 A 
ATOM     35  C   UNL     1       6.677   4.017   8.212  1.00  0.00     0.014 A 
ATOM     36  C   UNL     1       4.950   5.025   6.835  1.00  0.00     0.014 A 
ATOM     37  C   UNL     1       6.949   5.273   8.749  1.00  0.00     0.010 A 
ATOM     38  C   UNL     1       5.368   6.272   7.195  1.00  0.00     0.010 A 
ATOM     39  C   UNL     1       6.294   6.396   8.220  1.00  0.00    -0.014 A 
BRANCH  39  40
ATOM     40  C   UNL     1       6.596   7.746   8.665  1.00  0.00     0.031 A 
ATOM     41  C   UNL     1       8.022   8.139   8.533  1.00  0.00     0.074 A 
ATOM     42  C   UNL     1       5.619   8.632   8.958  1.00  0.00     0.049 A 
ATOM     43  N   UNL     1       8.846   8.410   9.488  1.00  0.00    -0.248 NA
ATOM     44  C   UNL     1       8.648   8.095   7.201  1.00  0.00     0.031 C 
ATOM     45  C   UNL     1       4.163   8.477   8.844  1.00  0.00     0.029 A 
ATOM     46  N   UNL     1       5.745   9.930   9.335  1.00  0.00    -0.354 N 
ATOM     47  C   UNL     1      10.049   8.755   8.879  1.00  0.00     0.074 A 
ATOM     48  C   UNL     1       9.920   8.381   7.494  1.00  0.00     0.031 C 
ATOM     49  C   UNL     1       3.568   9.688   8.905  1.00  0.00     0.029 A 
ATOM     50  C   UNL     1       4.575  10.676   9.235  1.00  0.00     0.049 A 
ATOM     51  H   UNL     1       6.595  10.313   9.652  1.00  0.00     0.167 HD
ATOM     52  C   UNL     1      10.962   9.527   9.531  1.00  0.00     0.037 A 
ATOM     53  C   UNL     1       4.480  12.023   9.364  1.00  0.00     0.037 A 
ATOM     54  C   UNL     1      10.678   9.577  10.944  1.00  0.00     0.049 A 
ATOM     55  C   UNL     1       5.678  12.462  10.134  1.00  0.00     0.074 A 
ATOM     56  C   UNL     1      10.592   8.622  11.939  1.00  0.00     0.029 A 
ATOM     57  N   UNL     1      10.023  10.683  11.432  1.00  0.00    -0.354 N 
ATOM     58  N   UNL     1       5.888  12.123  11.380  1.00  0.00    -0.248 NA
ATOM     59  C   UNL     1       6.869  12.809   9.370  1.00  0.00     0.031 C 
ATOM     60  C   UNL     1       9.464   9.013  12.719  1.00  0.00     0.029 A 
ATOM     61  C   UNL     1       8.991  10.225  12.213  1.00  0.00     0.049 A 
ATOM     62  H   UNL     1      10.250  11.624  11.256  1.00  0.00     0.167 HD
ATOM     63  C   UNL     1       7.238  11.807  11.440  1.00  0.00     0.074 A 
ATOM     64  C   UNL     1       7.801  12.294  10.179  1.00  0.00     0.031 C 
ATOM     65  C   UNL     1       7.726  10.910  12.348  1.00  0.00     0.037 A 
BRANCH  52  66
ATOM     66  C   UNL     1      11.882  10.521   8.871  1.00  0.00     0.064 A 
ATOM     67  C   UNL     1      12.865  11.163   9.652  1.00  0.00     0.173 A 
ATOM     68  C   UNL     1      11.644  11.092   7.603  1.00  0.00     0.173 A 
ATOM     69  F   UNL     1      13.165  10.712  10.880  1.00  0.00    -0.203 F 
ATOM     70  C   UNL     1      13.492  12.338   9.232  1.00  0.00     0.198 A 
ATOM     71  C   UNL     1      12.311  12.234   7.165  1.00  0.00     0.198 A 
ATOM     72  F   UNL     1      10.684  10.643   6.787  1.00  0.00    -0.203 F 
ATOM     73  F   UNL     1      14.318  12.986  10.064  1.00  0.00    -0.200 F 
ATOM     74  C   UNL     1      13.207  12.878   7.991  1.00  0.00     0.200 A 
ATOM     75  F   UNL     1      12.008  12.752   5.966  1.00  0.00    -0.200 F 
ATOM     76  F   UNL     1      13.755  14.039   7.611  1.00  0.00    -0.200 F 
ENDBRANCH  52  66
BRANCH  53  77
ATOM     77  C   UNL     1       3.651  12.938   8.536  1.00  0.00     0.064 A 
ATOM     78  C   UNL     1       3.437  14.275   8.908  1.00  0.00     0.173 A 
ATOM     79  C   UNL     1       3.258  12.589   7.226  1.00  0.00     0.173 A 
ATOM     80  F   UNL     1       3.829  14.709  10.114  1.00  0.00    -0.203 F 
ATOM     81  C   UNL     1       2.874  15.204   8.022  1.00  0.00     0.198 A 
ATOM     82  C   UNL     1       2.692  13.514   6.347  1.00  0.00     0.198 A 
ATOM     83  F   UNL     1       3.499  11.364   6.737  1.00  0.00    -0.203 F 
ATOM     84  F   UNL     1       2.732  16.484   8.396  1.00  0.00    -0.200 F 
ATOM     85  C   UNL     1       2.509  14.825   6.741  1.00  0.00     0.200 A 
ATOM     86  F   UNL     1       2.382  13.139   5.098  1.00  0.00    -0.200 F 
ATOM     87  F   UNL     1       2.020  15.725   5.876  1.00  0.00    -0.200 F 
ENDBRANCH  53  77
BRANCH  65  88
ATOM     88  C   UNL     1       6.816  10.397  13.432  1.00  0.00     0.064 A 
ATOM     89  C   UNL     1       5.676   9.610  13.190  1.00  0.00     0.173 A 
ATOM     90  C   UNL     1       7.248  10.505  14.761  1.00  0.00     0.173 A 
ATOM     91  F   UNL     1       5.249   9.378  11.944  1.00  0.00    -0.203 F 
ATOM     92  C   UNL     1       4.999   8.972  14.230  1.00  0.00     0.198 A 
ATOM     93  C   UNL     1       6.592   9.841  15.793  1.00  0.00     0.198 A 
ATOM     94  F   UNL     1       8.362  11.198  15.048  1.00  0.00    -0.203 F 
ATOM     95  F   UNL     1       3.924   8.213  13.968  1.00  0.00    -0.200 F 
ATOM     96  C   UNL     1       5.467   9.077  15.529  1.00  0.00     0.200 A 
ATOM     97  F   UNL     1       7.080   9.902  17.039  1.00  0.00    -0.200 F 
ATOM     98  F   UNL     1       4.855   8.414  16.521  1.00  0.00    -0.200 F 
ENDBRANCH  65  88
ENDBRANCH  39  40
ENDBRANCH  31  34
ENDBRANCH  29  30
ENDBRANCH  28  29
ENDBRANCH   1  28
TORSDOF 14
