REMARK SMILES CCC(CC)(CC(=O)Nc1cccc(OC)c1)C(=O)NCCCCNC(=O)c1ccc(-c2c3nc(c(-c4c(F)c(F)c(F)c(F)c4F)c4ccc([nH]4)c(-c4c(F)c(F)c(F)c(F)c4F)c4nc(c(-c5c(F)c(F)c(F)c(F)c5F)c5ccc2[nH]5)C=C4)C=C3)cc1
REMARK SMILES IDX 21 1 20 2 18 3 19 4 3 6 2 7 1 8 4 9 5 10 6 11 7 12 8 13 9 14
REMARK SMILES IDX 10 16 11 17 17 18 12 19 14 20 13 21 15 22 16 23 22 24 23 25
REMARK SMILES IDX 24 26 25 27 26 28 27 30 28 31 29 32 90 33 30 34 89 35 31 36
REMARK SMILES IDX 32 37 33 38 83 39 34 40 88 41 82 42 84 43 35 44 87 45 81 46
REMARK SMILES IDX 80 47 36 49 68 50 48 51 67 52 49 53 52 54 66 55 85 56 50 57
REMARK SMILES IDX 51 58 65 60 86 61 53 62 37 63 38 64 46 65 39 66 40 67 44 68
REMARK SMILES IDX 47 69 41 70 42 71 45 72 43 73 69 74 70 75 78 76 71 77 72 78
REMARK SMILES IDX 76 79 79 80 73 81 74 82 77 83 75 84 54 85 55 86 63 87 56 88
REMARK SMILES IDX 57 89 61 90 64 91 58 92 59 93 62 94 60 95
REMARK H PARENT 20 5 9 15 25 29 84 48 52 59
REMARK Flexibility Score: inf
ROOT
ATOM      1  C   UNL     1       2.427  -5.100   2.236  1.00  0.00     0.116 C 
ENDROOT
BRANCH   1   2
ATOM      2  N   UNL     1       3.218  -4.016   1.698  1.00  0.00    -0.356 N 
ATOM      3  C   UNL     1       2.903  -3.126   0.732  1.00  0.00     0.226 C 
ATOM      4  O   UNL     1       3.826  -2.824  -0.029  1.00  0.00    -0.274 OA
ATOM      5  H   UNL     1       4.114  -3.912   2.093  1.00  0.00     0.163 HD
BRANCH   3   6
ATOM      6  C   UNL     1       1.517  -2.468   0.651  1.00  0.00     0.057 C 
BRANCH   6   7
ATOM      7  C   UNL     1       1.780  -1.065   0.061  1.00  0.00     0.014 C 
ATOM      8  C   UNL     1       2.795  -0.124   0.700  1.00  0.00     0.005 C 
ENDBRANCH   6   7
BRANCH   6   9
ATOM      9  C   UNL     1       0.856  -2.262   2.070  1.00  0.00     0.014 C 
ATOM     10  C   UNL     1      -0.671  -2.295   2.130  1.00  0.00     0.005 C 
ENDBRANCH   6   9
BRANCH   6  11
ATOM     11  C   UNL     1       0.568  -3.252  -0.310  1.00  0.00     0.117 C 
BRANCH  11  12
ATOM     12  C   UNL     1       0.913  -3.362  -1.797  1.00  0.00     0.225 C 
ATOM     13  O   UNL     1       1.777  -4.162  -2.168  1.00  0.00    -0.275 OA
ATOM     14  N   UNL     1       0.117  -2.769  -2.755  1.00  0.00    -0.326 N 
ATOM     15  H   UNL     1       0.217  -3.165  -3.651  1.00  0.00     0.169 HD
BRANCH  14  16
ATOM     16  C   UNL     1      -0.811  -1.707  -2.704  1.00  0.00     0.044 A 
ATOM     17  C   UNL     1      -1.961  -1.778  -3.489  1.00  0.00     0.026 A 
ATOM     18  C   UNL     1      -0.573  -0.515  -2.022  1.00  0.00     0.072 A 
ATOM     19  C   UNL     1      -2.896  -0.732  -3.477  1.00  0.00     0.006 A 
ATOM     20  C   UNL     1      -1.529   0.499  -1.931  1.00  0.00     0.120 A 
ATOM     21  C   UNL     1      -2.691   0.392  -2.677  1.00  0.00     0.046 A 
BRANCH  20  22
ATOM     22  O   UNL     1      -1.357   1.661  -1.229  1.00  0.00    -0.497 OA
ATOM     23  C   UNL     1      -0.807   1.495   0.077  1.00  0.00     0.278 C 
ENDBRANCH  20  22
ENDBRANCH  14  16
ENDBRANCH  11  12
ENDBRANCH   6  11
ENDBRANCH   3   6
ENDBRANCH   1   2
BRANCH   1  24
ATOM     24  C   UNL     1       2.881  -6.423   1.626  1.00  0.00     0.023 C 
BRANCH  24  25
ATOM     25  C   UNL     1       4.387  -6.691   1.729  1.00  0.00     0.023 C 
BRANCH  25  26
ATOM     26  C   UNL     1       5.005  -6.435   3.098  1.00  0.00     0.116 C 
BRANCH  26  27
ATOM     27  N   UNL     1       4.341  -7.163   4.165  1.00  0.00    -0.352 N 
ATOM     28  C   UNL     1       4.908  -7.862   5.199  1.00  0.00     0.251 C 
ATOM     29  H   UNL     1       3.357  -7.154   4.143  1.00  0.00     0.163 HD
ATOM     30  O   UNL     1       4.215  -8.514   5.974  1.00  0.00    -0.269 OA
BRANCH  28  31
ATOM     31  C   UNL     1       6.374  -7.853   5.337  1.00  0.00     0.039 A 
ATOM     32  C   UNL     1       7.048  -9.073   5.383  1.00  0.00     0.014 A 
ATOM     33  C   UNL     1       7.077  -6.644   5.346  1.00  0.00     0.014 A 
ATOM     34  C   UNL     1       8.441  -9.084   5.381  1.00  0.00     0.010 A 
ATOM     35  C   UNL     1       8.464  -6.660   5.264  1.00  0.00     0.010 A 
ATOM     36  C   UNL     1       9.159  -7.880   5.287  1.00  0.00    -0.014 A 
BRANCH  36  37
ATOM     37  C   UNL     1      10.640  -7.881   5.221  1.00  0.00     0.031 A 
ATOM     38  C   UNL     1      11.438  -7.252   6.327  1.00  0.00     0.074 A 
ATOM     39  C   UNL     1      11.259  -8.404   4.145  1.00  0.00     0.049 A 
ATOM     40  N   UNL     1      12.735  -7.110   6.435  1.00  0.00    -0.248 NA
ATOM     41  C   UNL     1      10.676  -6.680   7.448  1.00  0.00     0.031 C 
ATOM     42  C   UNL     1      10.587  -8.994   2.987  1.00  0.00     0.029 A 
ATOM     43  N   UNL     1      12.594  -8.515   3.848  1.00  0.00    -0.354 N 
ATOM     44  C   UNL     1      12.940  -6.428   7.626  1.00  0.00     0.074 A 
ATOM     45  C   UNL     1      11.635  -6.125   8.172  1.00  0.00     0.031 C 
ATOM     46  C   UNL     1      11.512  -9.427   2.115  1.00  0.00     0.029 A 
ATOM     47  C   UNL     1      12.839  -9.112   2.635  1.00  0.00     0.049 A 
ATOM     48  H   UNL     1      13.308  -8.198   4.446  1.00  0.00     0.167 HD
ATOM     49  C   UNL     1      14.111  -6.109   8.225  1.00  0.00     0.037 A 
ATOM     50  C   UNL     1      14.005  -9.368   2.011  1.00  0.00     0.037 A 
ATOM     51  C   UNL     1      15.405  -6.428   7.682  1.00  0.00     0.049 A 
ATOM     52  C   UNL     1      15.294  -8.993   2.693  1.00  0.00     0.074 A 
ATOM     53  C   UNL     1      16.653  -6.195   8.232  1.00  0.00     0.029 A 
ATOM     54  N   UNL     1      15.616  -7.048   6.458  1.00  0.00    -0.354 N 
ATOM     55  N   UNL     1      15.479  -8.413   3.854  1.00  0.00    -0.248 NA
ATOM     56  C   UNL     1      16.537  -9.318   1.981  1.00  0.00     0.031 C 
ATOM     57  C   UNL     1      17.620  -6.628   7.318  1.00  0.00     0.029 A 
ATOM     58  C   UNL     1      16.974  -7.184   6.225  1.00  0.00     0.049 A 
ATOM     59  H   UNL     1      14.904  -7.346   5.846  1.00  0.00     0.167 HD
ATOM     60  C   UNL     1      16.854  -8.328   4.025  1.00  0.00     0.074 A 
ATOM     61  C   UNL     1      17.456  -8.932   2.854  1.00  0.00     0.031 C 
ATOM     62  C   UNL     1      17.555  -7.796   5.056  1.00  0.00     0.037 A 
BRANCH  49  63
ATOM     63  C   UNL     1      14.042  -5.380   9.536  1.00  0.00     0.064 A 
ATOM     64  C   UNL     1      13.556  -5.999  10.698  1.00  0.00     0.173 A 
ATOM     65  C   UNL     1      14.488  -4.054   9.640  1.00  0.00     0.173 A 
ATOM     66  F   UNL     1      13.105  -7.262  10.652  1.00  0.00    -0.203 F 
ATOM     67  C   UNL     1      13.487  -5.308  11.905  1.00  0.00     0.198 A 
ATOM     68  C   UNL     1      14.449  -3.377  10.856  1.00  0.00     0.198 A 
ATOM     69  F   UNL     1      14.966  -3.414   8.562  1.00  0.00    -0.203 F 
ATOM     70  F   UNL     1      12.965  -5.903  12.987  1.00  0.00    -0.200 F 
ATOM     71  C   UNL     1      13.940  -4.001  11.985  1.00  0.00     0.200 A 
ATOM     72  F   UNL     1      14.900  -2.117  10.935  1.00  0.00    -0.200 F 
ATOM     73  F   UNL     1      13.879  -3.339  13.148  1.00  0.00    -0.200 F 
ENDBRANCH  49  63
BRANCH  50  74
ATOM     74  C   UNL     1      14.006 -10.030   0.681  1.00  0.00     0.064 A 
ATOM     75  C   UNL     1      14.488 -11.337   0.525  1.00  0.00     0.173 A 
ATOM     76  C   UNL     1      13.529  -9.372  -0.462  1.00  0.00     0.173 A 
ATOM     77  F   UNL     1      14.973 -12.002   1.584  1.00  0.00    -0.203 F 
ATOM     78  C   UNL     1      14.514 -11.952  -0.725  1.00  0.00     0.198 A 
ATOM     79  C   UNL     1      13.527  -9.998  -1.707  1.00  0.00     0.198 A 
ATOM     80  F   UNL     1      13.052  -8.122  -0.367  1.00  0.00    -0.203 F 
ATOM     81  F   UNL     1      15.024 -13.184  -0.853  1.00  0.00    -0.200 F 
ATOM     82  C   UNL     1      14.027 -11.284  -1.839  1.00  0.00     0.200 A 
ATOM     83  F   UNL     1      13.041  -9.355  -2.777  1.00  0.00    -0.200 F 
ATOM     84  F   UNL     1      14.048 -11.877  -3.040  1.00  0.00    -0.200 F 
ENDBRANCH  50  74
BRANCH  62  85
ATOM     85  C   UNL     1      19.053  -7.876   4.984  1.00  0.00     0.064 A 
ATOM     86  C   UNL     1      19.791  -7.101   4.078  1.00  0.00     0.173 A 
ATOM     87  C   UNL     1      19.760  -8.710   5.864  1.00  0.00     0.173 A 
ATOM     88  F   UNL     1      19.162  -6.298   3.207  1.00  0.00    -0.203 F 
ATOM     89  C   UNL     1      21.181  -7.178   4.037  1.00  0.00     0.198 A 
ATOM     90  C   UNL     1      21.151  -8.759   5.843  1.00  0.00     0.198 A 
ATOM     91  F   UNL     1      19.102  -9.467   6.755  1.00  0.00    -0.203 F 
ATOM     92  F   UNL     1      21.863  -6.466   3.130  1.00  0.00    -0.200 F 
ATOM     93  C   UNL     1      21.859  -8.000   4.925  1.00  0.00     0.200 A 
ATOM     94  F   UNL     1      21.805  -9.542   6.712  1.00  0.00    -0.200 F 
ATOM     95  F   UNL     1      23.197  -8.065   4.890  1.00  0.00    -0.200 F 
ENDBRANCH  62  85
ENDBRANCH  36  37
ENDBRANCH  28  31
ENDBRANCH  26  27
ENDBRANCH  25  26
ENDBRANCH  24  25
ENDBRANCH   1  24
TORSDOF 17
