REMARK SMILES O=C(NCCCCNC(=O)c1cnc(Nc2ccccc2)nc1)c1ccc(-c2c3nc(c(-c4c(F)c(F)c(F)c(F)c4F)c4ccc([nH]4)c(-c4c(F)c(F)c(F)c(F)c4F)c4nc(c(-c5c(F)c(F)c(F)c(F)c5F)c5ccc2[nH]5)C=C4)C=C3)cc1
REMARK SMILES IDX 5 1 4 2 3 3 1 4 2 5 24 7 25 8 86 9 26 10 85 11 27 12 28 13
REMARK SMILES IDX 29 14 79 15 30 16 84 17 78 18 80 19 31 20 83 21 77 22 76 23
REMARK SMILES IDX 32 25 64 26 44 27 63 28 45 29 48 30 62 31 81 32 46 33 47 34
REMARK SMILES IDX 61 36 82 37 49 38 33 39 34 40 42 41 35 42 36 43 40 44 43 45
REMARK SMILES IDX 37 46 38 47 41 48 39 49 65 50 66 51 74 52 67 53 68 54 72 55
REMARK SMILES IDX 75 56 69 57 70 58 73 59 71 60 50 61 51 62 59 63 52 64 53 65
REMARK SMILES IDX 57 66 60 67 54 68 55 69 58 70 56 71 6 72 7 73 8 74 9 75
REMARK SMILES IDX 10 77 11 78 12 79 23 80 13 81 22 82 14 83 15 84 16 86 17 87
REMARK SMILES IDX 21 88 18 89 20 90 19 91
REMARK H PARENT 3 6 80 24 48 35 8 76 15 85
REMARK Flexibility Score: inf
ROOT
ATOM      1  C   UNL     1       4.758   0.324  -2.807  1.00  0.00     0.023 C 
ENDROOT
BRANCH   1   2
ATOM      2  C   UNL     1       4.458   0.621  -1.345  1.00  0.00     0.116 C 
BRANCH   2   3
ATOM      3  N   UNL     1       3.034   0.672  -1.045  1.00  0.00    -0.352 N 
ATOM      4  O   UNL     1       1.107   0.064  -0.029  1.00  0.00    -0.269 OA
ATOM      5  C   UNL     1       2.331  -0.001  -0.070  1.00  0.00     0.251 C 
ATOM      6  H   UNL     1       2.501   1.269  -1.618  1.00  0.00     0.163 HD
BRANCH   5   7
ATOM      7  C   UNL     1       3.062  -0.834   0.910  1.00  0.00     0.039 A 
ATOM      8  C   UNL     1       4.223  -0.352   1.514  1.00  0.00     0.014 A 
ATOM      9  C   UNL     1       2.602  -2.122   1.201  1.00  0.00     0.014 A 
ATOM     10  C   UNL     1       5.017  -1.213   2.257  1.00  0.00     0.010 A 
ATOM     11  C   UNL     1       3.350  -2.954   2.041  1.00  0.00     0.010 A 
ATOM     12  C   UNL     1       4.585  -2.521   2.545  1.00  0.00    -0.014 A 
BRANCH  12  13
ATOM     13  C   UNL     1       5.433  -3.366   3.426  1.00  0.00     0.031 A 
ATOM     14  C   UNL     1       6.078  -4.629   2.929  1.00  0.00     0.074 A 
ATOM     15  C   UNL     1       5.679  -2.926   4.676  1.00  0.00     0.049 A 
ATOM     16  N   UNL     1       6.918  -5.422   3.550  1.00  0.00    -0.248 NA
ATOM     17  C   UNL     1       5.737  -5.071   1.569  1.00  0.00     0.031 C 
ATOM     18  C   UNL     1       5.085  -1.728   5.275  1.00  0.00     0.029 A 
ATOM     19  N   UNL     1       6.517  -3.403   5.651  1.00  0.00    -0.354 N 
ATOM     20  C   UNL     1       7.197  -6.455   2.665  1.00  0.00     0.074 A 
ATOM     21  C   UNL     1       6.414  -6.208   1.472  1.00  0.00     0.031 C 
ATOM     22  C   UNL     1       5.628  -1.524   6.482  1.00  0.00     0.029 A 
ATOM     23  C   UNL     1       6.557  -2.610   6.771  1.00  0.00     0.049 A 
ATOM     24  H   UNL     1       7.038  -4.233   5.557  1.00  0.00     0.167 HD
ATOM     25  C   UNL     1       8.037  -7.505   2.831  1.00  0.00     0.037 A 
ATOM     26  C   UNL     1       7.257  -2.743   7.912  1.00  0.00     0.037 A 
ATOM     27  C   UNL     1       8.822  -7.741   4.018  1.00  0.00     0.049 A 
ATOM     28  C   UNL     1       8.189  -3.909   8.059  1.00  0.00     0.074 A 
ATOM     29  C   UNL     1       9.707  -8.774   4.279  1.00  0.00     0.029 A 
ATOM     30  N   UNL     1       8.819  -6.928   5.142  1.00  0.00    -0.354 N 
ATOM     31  N   UNL     1       8.454  -4.867   7.205  1.00  0.00    -0.248 NA
ATOM     32  C   UNL     1       8.917  -4.015   9.329  1.00  0.00     0.031 C 
ATOM     33  C   UNL     1      10.212  -8.605   5.573  1.00  0.00     0.029 A 
ATOM     34  C   UNL     1       9.677  -7.443   6.103  1.00  0.00     0.049 A 
ATOM     35  H   UNL     1       8.286  -6.106   5.243  1.00  0.00     0.167 HD
ATOM     36  C   UNL     1       9.377  -5.690   7.832  1.00  0.00     0.074 A 
ATOM     37  C   UNL     1       9.657  -5.094   9.123  1.00  0.00     0.031 C 
ATOM     38  C   UNL     1       9.932  -6.843   7.386  1.00  0.00     0.037 A 
BRANCH  25  39
ATOM     39  C   UNL     1       8.157  -8.492   1.705  1.00  0.00     0.064 A 
ATOM     40  C   UNL     1       8.841  -8.175   0.522  1.00  0.00     0.173 A 
ATOM     41  C   UNL     1       7.643  -9.792   1.837  1.00  0.00     0.173 A 
ATOM     42  F   UNL     1       9.342  -6.944   0.341  1.00  0.00    -0.203 F 
ATOM     43  C   UNL     1       8.994  -9.118  -0.493  1.00  0.00     0.198 A 
ATOM     44  C   UNL     1       7.820 -10.739   0.831  1.00  0.00     0.198 A 
ATOM     45  F   UNL     1       6.987 -10.149   2.950  1.00  0.00    -0.203 F 
ATOM     46  F   UNL     1       9.624  -8.783  -1.627  1.00  0.00    -0.200 F 
ATOM     47  C   UNL     1       8.491 -10.401  -0.334  1.00  0.00     0.200 A 
ATOM     48  F   UNL     1       7.344 -11.982   0.992  1.00  0.00    -0.200 F 
ATOM     49  F   UNL     1       8.652 -11.310  -1.305  1.00  0.00    -0.200 F 
ENDBRANCH  25  39
BRANCH  26  50
ATOM     50  C   UNL     1       7.090  -1.744   8.999  1.00  0.00     0.064 A 
ATOM     51  C   UNL     1       8.129  -0.873   9.352  1.00  0.00     0.173 A 
ATOM     52  C   UNL     1       5.878  -1.634   9.697  1.00  0.00     0.173 A 
ATOM     53  F   UNL     1       9.312  -0.952   8.725  1.00  0.00    -0.203 F 
ATOM     54  C   UNL     1       7.968   0.059  10.375  1.00  0.00     0.198 A 
ATOM     55  C   UNL     1       5.707  -0.680  10.696  1.00  0.00     0.198 A 
ATOM     56  F   UNL     1       4.851  -2.439   9.390  1.00  0.00    -0.203 F 
ATOM     57  F   UNL     1       8.991   0.850  10.724  1.00  0.00    -0.200 F 
ATOM     58  C   UNL     1       6.755   0.160  11.041  1.00  0.00     0.200 A 
ATOM     59  F   UNL     1       4.527  -0.573  11.321  1.00  0.00    -0.200 F 
ATOM     60  F   UNL     1       6.597   1.063  12.018  1.00  0.00    -0.200 F 
ENDBRANCH  26  50
BRANCH  38  61
ATOM     61  C   UNL     1      10.897  -7.525   8.310  1.00  0.00     0.064 A 
ATOM     62  C   UNL     1      10.459  -8.174   9.475  1.00  0.00     0.173 A 
ATOM     63  C   UNL     1      12.271  -7.529   8.031  1.00  0.00     0.173 A 
ATOM     64  F   UNL     1       9.156  -8.181   9.793  1.00  0.00    -0.203 F 
ATOM     65  C   UNL     1      11.367  -8.770  10.345  1.00  0.00     0.198 A 
ATOM     66  C   UNL     1      13.173  -8.152   8.889  1.00  0.00     0.198 A 
ATOM     67  F   UNL     1      12.739  -6.927   6.927  1.00  0.00    -0.203 F 
ATOM     68  F   UNL     1      10.932  -9.331  11.482  1.00  0.00    -0.200 F 
ATOM     69  C   UNL     1      12.722  -8.761  10.050  1.00  0.00     0.200 A 
ATOM     70  F   UNL     1      14.481  -8.151   8.599  1.00  0.00    -0.200 F 
ATOM     71  F   UNL     1      13.595  -9.331  10.892  1.00  0.00    -0.200 F 
ENDBRANCH  38  61
ENDBRANCH  12  13
ENDBRANCH   5   7
ENDBRANCH   2   3
ENDBRANCH   1   2
BRANCH   1  72
ATOM     72  C   UNL     1       4.316   1.403  -3.791  1.00  0.00     0.023 C 
BRANCH  72  73
ATOM     73  C   UNL     1       4.832   2.808  -3.489  1.00  0.00     0.116 C 
BRANCH  73  74
ATOM     74  N   UNL     1       6.289   2.881  -3.488  1.00  0.00    -0.352 N 
ATOM     75  C   UNL     1       7.105   3.708  -4.221  1.00  0.00     0.254 C 
ATOM     76  H   UNL     1       6.748   2.255  -2.882  1.00  0.00     0.163 HD
ATOM     77  O   UNL     1       8.322   3.560  -4.227  1.00  0.00    -0.269 OA
BRANCH  75  78
ATOM     78  C   UNL     1       6.500   4.767  -5.018  1.00  0.00     0.076 A 
ATOM     79  C   UNL     1       5.712   5.738  -4.458  1.00  0.00     0.130 A 
ATOM     80  C   UNL     1       6.626   4.807  -6.383  1.00  0.00     0.130 A 
ATOM     81  N   UNL     1       5.011   6.620  -5.192  1.00  0.00    -0.221 NA
ATOM     82  N   UNL     1       5.933   5.672  -7.158  1.00  0.00    -0.221 NA
ATOM     83  C   UNL     1       5.114   6.539  -6.532  1.00  0.00     0.227 A 
BRANCH  83  84
ATOM     84  N   UNL     1       4.257   7.269  -7.348  1.00  0.00    -0.324 N 
ATOM     85  H   UNL     1       4.397   7.143  -8.314  1.00  0.00     0.170 HD
BRANCH  84  86
ATOM     86  C   UNL     1       3.228   8.154  -7.011  1.00  0.00     0.041 A 
ATOM     87  C   UNL     1       2.043   8.145  -7.760  1.00  0.00     0.026 A 
ATOM     88  C   UNL     1       3.283   8.976  -5.878  1.00  0.00     0.026 A 
ATOM     89  C   UNL     1       0.949   8.931  -7.386  1.00  0.00     0.002 A 
ATOM     90  C   UNL     1       2.198   9.774  -5.509  1.00  0.00     0.002 A 
ATOM     91  C   UNL     1       1.027   9.746  -6.261  1.00  0.00     0.000 A 
ENDBRANCH  84  86
ENDBRANCH  83  84
ENDBRANCH  75  78
ENDBRANCH  73  74
ENDBRANCH  72  73
ENDBRANCH   1  72
TORSDOF 13
