REMARK SMILES Cc1ncc(CC(=O)N2CCc3c(c(C(=O)NCCCCNC(=O)c4ccc(-c5c6nc(c(-c7c(F)c(F)c(F)c(F)c7F)c7ccc([nH]7)c(-c7c(F)c(F)c(F)c(F)c7F)c7nc(c(-c8c(F)c(F)c(F)c(F)c8F)c8ccc5[nH]8)C=C7)C=C6)cc4)nn3CC3CC3)C2)c(=O)[nH]1
REMARK SMILES IDX 19 1 18 2 17 3 15 4 16 5 14 7 9 8 10 9 94 10 11 11 13 12
REMARK SMILES IDX 12 13 89 14 88 15 7 16 8 17 6 18 5 19 1 20 2 21 3 22 97 23
REMARK SMILES IDX 4 24 95 25 96 27 90 28 91 29 92 30 93 31 20 32 21 33 22 34
REMARK SMILES IDX 23 35 24 37 25 38 26 39 87 40 27 41 86 42 28 43 29 44 30 45
REMARK SMILES IDX 80 46 31 47 85 48 79 49 81 50 32 51 84 52 78 53 77 54 33 56
REMARK SMILES IDX 65 57 45 58 64 59 46 60 49 61 63 62 82 63 47 64 48 65 62 67
REMARK SMILES IDX 83 68 50 69 34 70 35 71 43 72 36 73 37 74 41 75 44 76 38 77
REMARK SMILES IDX 39 78 42 79 40 80 66 81 67 82 75 83 68 84 69 85 73 86 76 87
REMARK SMILES IDX 70 88 71 89 74 90 72 91 51 92 52 93 60 94 53 95 54 96 58 97
REMARK SMILES IDX 61 98 55 99 56 100 59 101 57 102
REMARK H PARENT 17 6 97 26 22 36 81 55 49 66
REMARK Flexibility Score: inf
ROOT
ATOM      1  C   UNL     1       1.222   6.492   9.117  1.00  0.00     0.023 C 
ENDROOT
BRANCH   1   2
ATOM      2  C   UNL     1       1.632   6.916   7.699  1.00  0.00     0.116 C 
BRANCH   2   3
ATOM      3  N   UNL     1       2.803   6.205   7.200  1.00  0.00    -0.351 N 
ATOM      4  C   UNL     1       2.951   5.246   6.211  1.00  0.00     0.272 C 
ATOM      5  O   UNL     1       4.093   4.825   6.009  1.00  0.00    -0.267 OA
ATOM      6  H   UNL     1       3.644   6.452   7.648  1.00  0.00     0.163 HD
BRANCH   4   7
ATOM      7  C   UNL     1       1.800   4.716   5.452  1.00  0.00     0.155 A 
ATOM      8  N   UNL     1       2.345   2.014   2.818  1.00  0.00    -0.338 N 
ATOM      9  C   UNL     1       1.066   1.349   3.117  1.00  0.00     0.126 C 
ATOM     10  C   UNL     1       2.918   2.797   3.944  1.00  0.00     0.159 C 
ATOM     11  C   UNL     1      -0.056   2.382   3.303  1.00  0.00     0.078 C 
ATOM     12  C   UNL     1       1.805   3.643   4.506  1.00  0.00     0.026 A 
ATOM     13  C   UNL     1       0.470   3.444   4.195  1.00  0.00     0.046 A 
ATOM     14  N   UNL     1      -0.234   4.399   4.846  1.00  0.00    -0.268 N 
ATOM     15  N   UNL     1       0.552   5.207   5.572  1.00  0.00    -0.167 NA
BRANCH   8  16
ATOM     16  C   UNL     1       3.040   1.971   1.621  1.00  0.00     0.227 C 
ATOM     17  O   UNL     1       4.266   2.133   1.608  1.00  0.00    -0.275 OA
BRANCH  16  18
ATOM     18  C   UNL     1       2.287   2.022   0.273  1.00  0.00     0.143 C 
BRANCH  18  19
ATOM     19  C   UNL     1       1.081   1.178   0.042  1.00  0.00     0.045 A 
ATOM     20  C   UNL     1      -2.348  -1.292  -0.098  1.00  0.00     0.087 C 
ATOM     21  C   UNL     1      -1.157  -0.380  -0.118  1.00  0.00     0.105 A 
ATOM     22  N   UNL     1      -1.304   0.904  -0.172  1.00  0.00    -0.243 NA
ATOM     23  N   UNL     1       0.062  -0.993  -0.050  1.00  0.00    -0.311 N 
ATOM     24  C   UNL     1      -0.162   1.657  -0.117  1.00  0.00     0.123 A 
ATOM     25  C   UNL     1       1.232  -0.291   0.006  1.00  0.00     0.254 A 
ATOM     26  H   UNL     1       0.098  -1.976  -0.040  1.00  0.00     0.171 HD
ATOM     27  O   UNL     1       2.322  -0.843   0.066  1.00  0.00    -0.269 OA
ENDBRANCH  18  19
ENDBRANCH  16  18
ENDBRANCH   8  16
BRANCH  14  28
ATOM     28  C   UNL     1      -1.672   4.631   4.828  1.00  0.00     0.148 C 
BRANCH  28  29
ATOM     29  C   UNL     1      -2.406   4.156   6.054  1.00  0.00     0.011 C 
ATOM     30  C   UNL     1      -1.743   3.633   7.313  1.00  0.00     0.006 C 
ATOM     31  C   UNL     1      -2.368   4.998   7.310  1.00  0.00     0.006 C 
ENDBRANCH  28  29
ENDBRANCH  14  28
ENDBRANCH   4   7
ENDBRANCH   2   3
ENDBRANCH   1   2
BRANCH   1  32
ATOM     32  C   UNL     1       2.123   6.979  10.262  1.00  0.00     0.023 C 
BRANCH  32  33
ATOM     33  C   UNL     1       2.224   8.492  10.398  1.00  0.00     0.116 C 
BRANCH  33  34
ATOM     34  N   UNL     1       0.960   9.165  10.743  1.00  0.00    -0.352 N 
ATOM     35  C   UNL     1       0.727  10.533  10.901  1.00  0.00     0.251 C 
ATOM     36  H   UNL     1       0.181   8.578  10.879  1.00  0.00     0.163 HD
ATOM     37  O   UNL     1      -0.227  10.961  11.523  1.00  0.00    -0.269 OA
BRANCH  35  38
ATOM     38  C   UNL     1       1.671  11.460  10.248  1.00  0.00     0.039 A 
ATOM     39  C   UNL     1       2.152  12.644  10.817  1.00  0.00     0.014 A 
ATOM     40  C   UNL     1       2.142  11.025   9.024  1.00  0.00     0.014 A 
ATOM     41  C   UNL     1       3.158  13.337  10.140  1.00  0.00     0.010 A 
ATOM     42  C   UNL     1       3.350  11.474   8.606  1.00  0.00     0.010 A 
ATOM     43  C   UNL     1       3.746  12.729   9.024  1.00  0.00    -0.014 A 
BRANCH  43  44
ATOM     44  C   UNL     1       4.804  13.312   8.222  1.00  0.00     0.031 A 
ATOM     45  C   UNL     1       6.066  13.576   8.947  1.00  0.00     0.074 A 
ATOM     46  C   UNL     1       4.726  13.299   6.869  1.00  0.00     0.049 A 
ATOM     47  N   UNL     1       6.611  14.723   9.172  1.00  0.00    -0.248 NA
ATOM     48  C   UNL     1       6.738  12.452   9.617  1.00  0.00     0.031 C 
ATOM     49  C   UNL     1       3.670  12.752   5.999  1.00  0.00     0.029 A 
ATOM     50  N   UNL     1       5.676  13.665   5.970  1.00  0.00    -0.354 N 
ATOM     51  C   UNL     1       7.801  14.455   9.840  1.00  0.00     0.074 A 
ATOM     52  C   UNL     1       7.730  13.078  10.254  1.00  0.00     0.031 C 
ATOM     53  C   UNL     1       4.142  12.601   4.743  1.00  0.00     0.029 A 
ATOM     54  C   UNL     1       5.460  13.194   4.677  1.00  0.00     0.049 A 
ATOM     55  H   UNL     1       6.453  14.219   6.213  1.00  0.00     0.167 HD
ATOM     56  C   UNL     1       8.848  15.324   9.776  1.00  0.00     0.037 A 
ATOM     57  C   UNL     1       6.359  13.250   3.663  1.00  0.00     0.037 A 
ATOM     58  C   UNL     1       8.431  16.605   9.259  1.00  0.00     0.049 A 
ATOM     59  C   UNL     1       7.335  14.320   4.023  1.00  0.00     0.074 A 
ATOM     60  C   UNL     1       7.490  17.539   9.653  1.00  0.00     0.029 A 
ATOM     61  N   UNL     1       8.695  16.888   7.938  1.00  0.00    -0.354 N 
ATOM     62  N   UNL     1       7.004  15.583   4.117  1.00  0.00    -0.248 NA
ATOM     63  C   UNL     1       8.504  13.922   4.797  1.00  0.00     0.031 C 
ATOM     64  C   UNL     1       6.860  17.952   8.440  1.00  0.00     0.029 A 
ATOM     65  C   UNL     1       7.516  17.323   7.382  1.00  0.00     0.049 A 
ATOM     66  H   UNL     1       9.561  16.796   7.480  1.00  0.00     0.167 HD
ATOM     67  C   UNL     1       7.646  16.037   5.262  1.00  0.00     0.074 A 
ATOM     68  C   UNL     1       8.595  14.978   5.611  1.00  0.00     0.031 C 
ATOM     69  C   UNL     1       7.144  17.066   6.009  1.00  0.00     0.037 A 
BRANCH  56  70
ATOM     70  C   UNL     1      10.298  14.919   9.821  1.00  0.00     0.064 A 
ATOM     71  C   UNL     1      11.281  15.920   9.938  1.00  0.00     0.173 A 
ATOM     72  C   UNL     1      10.768  13.640   9.455  1.00  0.00     0.173 A 
ATOM     73  F   UNL     1      10.941  17.175  10.268  1.00  0.00    -0.203 F 
ATOM     74  C   UNL     1      12.620  15.677   9.625  1.00  0.00     0.198 A 
ATOM     75  C   UNL     1      12.114  13.388   9.198  1.00  0.00     0.198 A 
ATOM     76  F   UNL     1       9.941  12.616   9.215  1.00  0.00    -0.203 F 
ATOM     77  F   UNL     1      13.497  16.690   9.622  1.00  0.00    -0.200 F 
ATOM     78  C   UNL     1      13.034  14.412   9.248  1.00  0.00     0.200 A 
ATOM     79  F   UNL     1      12.492  12.159   8.818  1.00  0.00    -0.200 F 
ATOM     80  F   UNL     1      14.304  14.191   8.884  1.00  0.00    -0.200 F 
ENDBRANCH  56  70
BRANCH  57  81
ATOM     81  C   UNL     1       6.615  12.200   2.643  1.00  0.00     0.064 A 
ATOM     82  C   UNL     1       7.362  12.464   1.484  1.00  0.00     0.173 A 
ATOM     83  C   UNL     1       6.336  10.842   2.904  1.00  0.00     0.173 A 
ATOM     84  F   UNL     1       7.718  13.721   1.184  1.00  0.00    -0.203 F 
ATOM     85  C   UNL     1       7.806  11.433   0.644  1.00  0.00     0.198 A 
ATOM     86  C   UNL     1       6.773   9.816   2.064  1.00  0.00     0.198 A 
ATOM     87  F   UNL     1       5.707  10.472   4.029  1.00  0.00    -0.203 F 
ATOM     88  F   UNL     1       8.558  11.719  -0.429  1.00  0.00    -0.200 F 
ATOM     89  C   UNL     1       7.517  10.110   0.938  1.00  0.00     0.200 A 
ATOM     90  F   UNL     1       6.515   8.540   2.384  1.00  0.00    -0.200 F 
ATOM     91  F   UNL     1       7.984   9.121   0.163  1.00  0.00    -0.200 F 
ENDBRANCH  57  81
BRANCH  69  92
ATOM     92  C   UNL     1       5.961  17.836   5.479  1.00  0.00     0.064 A 
ATOM     93  C   UNL     1       4.697  17.267   5.238  1.00  0.00     0.173 A 
ATOM     94  C   UNL     1       6.055  19.231   5.395  1.00  0.00     0.173 A 
ATOM     95  F   UNL     1       4.488  15.959   5.404  1.00  0.00    -0.203 F 
ATOM     96  C   UNL     1       3.596  18.050   4.890  1.00  0.00     0.198 A 
ATOM     97  C   UNL     1       4.947  20.015   5.082  1.00  0.00     0.198 A 
ATOM     98  F   UNL     1       7.215  19.843   5.677  1.00  0.00    -0.203 F 
ATOM     99  F   UNL     1       2.406  17.474   4.667  1.00  0.00    -0.200 F 
ATOM    100  C   UNL     1       3.721  19.425   4.820  1.00  0.00     0.200 A 
ATOM    101  F   UNL     1       5.060  21.351   5.068  1.00  0.00    -0.200 F 
ATOM    102  F   UNL     1       2.655  20.184   4.530  1.00  0.00    -0.200 F 
ENDBRANCH  69  92
ENDBRANCH  43  44
ENDBRANCH  35  38
ENDBRANCH  33  34
ENDBRANCH  32  33
ENDBRANCH   1  32
TORSDOF 16
