REMARK SMILES Cc1c[nH]c(C[N@@H+](C)[C@@H](C(=O)NCCCCNC(=O)c2ccc(-c3c4nc(c(-c5c(F)c(F)c(F)c(F)c5F)c5ccc([nH]5)c(-c5c(F)c(F)c(F)c(F)c5F)c5nc(c(-c6c(F)c(F)c(F)c(F)c6F)c6ccc3[nH]6)C=C5)C=C4)cc2)c2ccc(NC(=O)N3CCCC3)cc2)n1
REMARK SMILES IDX 14 1 13 2 12 3 10 4 11 5 9 7 7 8 8 9 6 11 5 12 1 13 2 14
REMARK SMILES IDX 3 15 97 16 4 17 83 19 84 20 96 21 85 22 95 23 86 24 87 25
REMARK SMILES IDX 88 26 89 28 90 29 91 30 94 31 92 32 93 33 15 34 16 35 17 36
REMARK SMILES IDX 18 37 19 39 20 40 21 41 82 42 22 43 81 44 23 45 24 46 25 47
REMARK SMILES IDX 75 48 26 49 80 50 74 51 76 52 27 53 79 54 73 55 72 56 28 58
REMARK SMILES IDX 60 59 40 60 59 61 41 62 44 63 58 64 77 65 42 66 43 67 57 69
REMARK SMILES IDX 78 70 45 71 29 72 30 73 38 74 31 75 32 76 36 77 39 78 33 79
REMARK SMILES IDX 34 80 37 81 35 82 61 83 62 84 70 85 63 86 64 87 68 88 71 89
REMARK SMILES IDX 65 90 66 91 69 92 67 93 46 94 47 95 55 96 48 97 49 98 53 99
REMARK SMILES IDX 56 100 50 101 51 102 54 103 52 104
REMARK H PARENT 12 6 7 10 4 18 87 27 17 38 76 57 44 68
REMARK Flexibility Score: inf
ROOT
ATOM      1  C   UNL     1      -5.839   3.625   1.337  1.00  0.00     0.023 C 
ENDROOT
BRANCH   1   2
ATOM      2  C   UNL     1      -5.196   3.104   2.623  1.00  0.00     0.116 C 
BRANCH   2   3
ATOM      3  N   UNL     1      -4.918   1.691   2.494  1.00  0.00    -0.351 N 
ATOM      4  C   UNL     1      -3.751   1.095   2.101  1.00  0.00     0.283 C 
ATOM      5  O   UNL     1      -3.848  -0.050   1.643  1.00  0.00    -0.268 OA
ATOM      6  H   UNL     1      -5.661   1.083   2.716  1.00  0.00     0.163 HD
BRANCH   4   7
ATOM      7  C   UNL     1      -2.386   1.845   2.260  1.00  0.00     0.305 C 
BRANCH   7   8
ATOM      8  N   UNL     1      -1.985   2.508   0.993  1.00  0.00    -0.317 N 
ATOM      9  C   UNL     1      -2.313   3.910   0.858  1.00  0.00     0.334 C 
ATOM     10  H   UNL     1      -0.978   2.491   1.156  1.00  0.00     0.349 HD
BRANCH   8  11
ATOM     11  C   UNL     1      -2.115   1.756  -0.260  1.00  0.00     0.339 C 
BRANCH  11  12
ATOM     12  C   UNL     1      -0.970   0.823  -0.500  1.00  0.00     0.161 A 
ATOM     13  C   UNL     1       2.462  -0.059  -0.753  1.00  0.00     0.068 C 
ATOM     14  C   UNL     1       0.984  -0.041  -0.750  1.00  0.00     0.056 A 
ATOM     15  C   UNL     1       0.098  -1.094  -0.799  1.00  0.00     0.107 A 
ATOM     16  N   UNL     1       0.303   1.146  -0.638  1.00  0.00    -0.233 NA
ATOM     17  N   UNL     1      -1.135  -0.536  -0.603  1.00  0.00    -0.344 N 
ATOM     18  H   UNL     1      -1.990  -1.022  -0.546  1.00  0.00     0.167 HD
ENDBRANCH  11  12
ENDBRANCH   8  11
ENDBRANCH   7   8
BRANCH   7  19
ATOM     19  C   UNL     1      -1.275   0.928   2.799  1.00  0.00     0.019 A 
ATOM     20  C   UNL     1      -1.552  -0.247   3.509  1.00  0.00     0.012 A 
ATOM     21  C   UNL     1       0.075   1.240   2.572  1.00  0.00     0.012 A 
ATOM     22  C   UNL     1      -0.550  -1.195   3.721  1.00  0.00     0.027 A 
ATOM     23  C   UNL     1       1.072   0.281   2.765  1.00  0.00     0.027 A 
ATOM     24  C   UNL     1       0.728  -0.991   3.207  1.00  0.00     0.042 A 
BRANCH  24  25
ATOM     25  N   UNL     1       1.679  -2.017   3.078  1.00  0.00    -0.308 N 
ATOM     26  C   UNL     1       1.542  -3.371   3.135  1.00  0.00     0.321 C 
ATOM     27  H   UNL     1       2.599  -1.704   2.918  1.00  0.00     0.171 HD
ATOM     28  O   UNL     1       2.527  -4.047   3.441  1.00  0.00    -0.248 OA
ATOM     29  N   UNL     1       0.342  -3.954   2.843  1.00  0.00    -0.325 N 
ATOM     30  C   UNL     1      -0.576  -3.607   1.774  1.00  0.00     0.121 C 
ATOM     31  C   UNL     1       0.013  -5.268   3.346  1.00  0.00     0.121 C 
ATOM     32  C   UNL     1      -1.887  -4.210   2.240  1.00  0.00     0.023 C 
ATOM     33  C   UNL     1      -1.463  -5.469   3.000  1.00  0.00     0.023 C 
ENDBRANCH  24  25
ENDBRANCH   7  19
ENDBRANCH   4   7
ENDBRANCH   2   3
ENDBRANCH   1   2
BRANCH   1  34
ATOM     34  C   UNL     1      -7.275   3.162   1.110  1.00  0.00     0.023 C 
BRANCH  34  35
ATOM     35  C   UNL     1      -8.252   3.559   2.204  1.00  0.00     0.116 C 
BRANCH  35  36
ATOM     36  N   UNL     1      -8.308   4.995   2.426  1.00  0.00    -0.352 N 
ATOM     37  C   UNL     1      -9.414   5.795   2.614  1.00  0.00     0.251 C 
ATOM     38  H   UNL     1      -7.439   5.458   2.445  1.00  0.00     0.163 HD
ATOM     39  O   UNL     1      -9.307   7.006   2.667  1.00  0.00    -0.269 OA
BRANCH  37  40
ATOM     40  C   UNL     1     -10.741   5.152   2.709  1.00  0.00     0.039 A 
ATOM     41  C   UNL     1     -11.784   5.638   1.920  1.00  0.00     0.014 A 
ATOM     42  C   UNL     1     -10.928   4.036   3.529  1.00  0.00     0.014 A 
ATOM     43  C   UNL     1     -13.002   4.957   1.898  1.00  0.00     0.010 A 
ATOM     44  C   UNL     1     -12.107   3.309   3.436  1.00  0.00     0.010 A 
ATOM     45  C   UNL     1     -13.157   3.765   2.625  1.00  0.00    -0.014 A 
BRANCH  45  46
ATOM     46  C   UNL     1     -14.415   2.982   2.566  1.00  0.00     0.031 A 
ATOM     47  C   UNL     1     -15.231   2.786   3.812  1.00  0.00     0.074 A 
ATOM     48  C   UNL     1     -14.777   2.384   1.415  1.00  0.00     0.049 A 
ATOM     49  N   UNL     1     -16.311   2.071   3.992  1.00  0.00    -0.248 NA
ATOM     50  C   UNL     1     -14.744   3.455   5.029  1.00  0.00     0.031 C 
ATOM     51  C   UNL     1     -14.035   2.451   0.155  1.00  0.00     0.029 A 
ATOM     52  N   UNL     1     -15.858   1.592   1.121  1.00  0.00    -0.354 N 
ATOM     53  C   UNL     1     -16.617   2.185   5.341  1.00  0.00     0.074 A 
ATOM     54  C   UNL     1     -15.576   2.986   5.946  1.00  0.00     0.031 C 
ATOM     55  C   UNL     1     -14.697   1.756  -0.783  1.00  0.00     0.029 A 
ATOM     56  C   UNL     1     -15.890   1.165  -0.184  1.00  0.00     0.049 A 
ATOM     57  H   UNL     1     -16.546   1.353   1.783  1.00  0.00     0.167 HD
ATOM     58  C   UNL     1     -17.686   1.691   6.010  1.00  0.00     0.037 A 
ATOM     59  C   UNL     1     -16.782   0.384  -0.821  1.00  0.00     0.037 A 
ATOM     60  C   UNL     1     -18.737   0.928   5.393  1.00  0.00     0.049 A 
ATOM     61  C   UNL     1     -17.969  -0.142  -0.061  1.00  0.00     0.074 A 
ATOM     62  C   UNL     1     -19.902   0.445   5.962  1.00  0.00     0.029 A 
ATOM     63  N   UNL     1     -18.749   0.537   4.062  1.00  0.00    -0.354 N 
ATOM     64  N   UNL     1     -18.290   0.035   1.198  1.00  0.00    -0.248 NA
ATOM     65  C   UNL     1     -18.922  -0.970  -0.812  1.00  0.00     0.031 C 
ATOM     66  C   UNL     1     -20.598  -0.276   4.986  1.00  0.00     0.029 A 
ATOM     67  C   UNL     1     -19.891  -0.201   3.796  1.00  0.00     0.049 A 
ATOM     68  H   UNL     1     -18.049   0.752   3.404  1.00  0.00     0.167 HD
ATOM     69  C   UNL     1     -19.491  -0.634   1.384  1.00  0.00     0.074 A 
ATOM     70  C   UNL     1     -19.849  -1.210   0.104  1.00  0.00     0.031 C 
ATOM     71  C   UNL     1     -20.232  -0.761   2.513  1.00  0.00     0.037 A 
BRANCH  58  72
ATOM     72  C   UNL     1     -17.766   1.970   7.483  1.00  0.00     0.064 A 
ATOM     73  C   UNL     1     -17.993   3.264   7.977  1.00  0.00     0.173 A 
ATOM     74  C   UNL     1     -17.624   0.929   8.413  1.00  0.00     0.173 A 
ATOM     75  F   UNL     1     -18.122   4.297   7.131  1.00  0.00    -0.203 F 
ATOM     76  C   UNL     1     -18.033   3.512   9.347  1.00  0.00     0.198 A 
ATOM     77  C   UNL     1     -17.698   1.176   9.781  1.00  0.00     0.198 A 
ATOM     78  F   UNL     1     -17.409  -0.327   7.995  1.00  0.00    -0.203 F 
ATOM     79  F   UNL     1     -18.186   4.766   9.794  1.00  0.00    -0.200 F 
ATOM     80  C   UNL     1     -17.891   2.468  10.247  1.00  0.00     0.200 A 
ATOM     81  F   UNL     1     -17.572   0.164  10.651  1.00  0.00    -0.200 F 
ATOM     82  F   UNL     1     -17.930   2.708  11.565  1.00  0.00    -0.200 F 
ENDBRANCH  58  72
BRANCH  59  83
ATOM     83  C   UNL     1     -16.607   0.087  -2.267  1.00  0.00     0.064 A 
ATOM     84  C   UNL     1     -17.464   0.652  -3.222  1.00  0.00     0.173 A 
ATOM     85  C   UNL     1     -15.581  -0.751  -2.725  1.00  0.00     0.173 A 
ATOM     86  F   UNL     1     -18.471   1.446  -2.830  1.00  0.00    -0.203 F 
ATOM     87  C   UNL     1     -17.311   0.377  -4.579  1.00  0.00     0.198 A 
ATOM     88  C   UNL     1     -15.413  -1.005  -4.085  1.00  0.00     0.198 A 
ATOM     89  F   UNL     1     -14.730  -1.311  -1.852  1.00  0.00    -0.203 F 
ATOM     90  F   UNL     1     -18.167   0.901  -5.467  1.00  0.00    -0.200 F 
ATOM     91  C   UNL     1     -16.282  -0.446  -5.010  1.00  0.00     0.200 A 
ATOM     92  F   UNL     1     -14.409  -1.789  -4.499  1.00  0.00    -0.200 F 
ATOM     93  F   UNL     1     -16.131  -0.704  -6.316  1.00  0.00    -0.200 F 
ENDBRANCH  59  83
BRANCH  71  94
ATOM     94  C   UNL     1     -21.518  -1.526   2.407  1.00  0.00     0.064 A 
ATOM     95  C   UNL     1     -21.535  -2.921   2.264  1.00  0.00     0.173 A 
ATOM     96  C   UNL     1     -22.749  -0.858   2.495  1.00  0.00     0.173 A 
ATOM     97  F   UNL     1     -20.384  -3.602   2.160  1.00  0.00    -0.203 F 
ATOM     98  C   UNL     1     -22.738  -3.617   2.189  1.00  0.00     0.198 A 
ATOM     99  C   UNL     1     -23.950  -1.560   2.450  1.00  0.00     0.198 A 
ATOM    100  F   UNL     1     -22.786   0.475   2.640  1.00  0.00    -0.203 F 
ATOM    101  F   UNL     1     -22.731  -4.944   2.007  1.00  0.00    -0.200 F 
ATOM    102  C   UNL     1     -23.943  -2.938   2.291  1.00  0.00     0.200 A 
ATOM    103  F   UNL     1     -25.113  -0.904   2.562  1.00  0.00    -0.200 F 
ATOM    104  F   UNL     1     -25.100  -3.611   2.227  1.00  0.00    -0.200 F 
ENDBRANCH  71  94
ENDBRANCH  45  46
ENDBRANCH  37  40
ENDBRANCH  35  36
ENDBRANCH  34  35
ENDBRANCH   1  34
TORSDOF 16
