REMARK SMILES Nc1cc(C(=O)NCCCCNC(=O)c2ccc(-c3c4nc(c(-c5c(F)c(F)c(F)c(F)c5F)c5ccc([nH]5)c(-c5c(F)c(F)c(F)c(F)c5F)c5nc(c(-c6c(F)c(F)c(F)c(F)c6F)c6ccc3[nH]6)C=C5)C=C4)cc2)ccc1N1CC2(CCOCC2)C1
REMARK SMILES IDX 10 1 9 2 8 3 7 4 5 5 6 6 4 8 2 9 3 10 80 11 79 12 78 13 1 14
REMARK SMILES IDX 81 17 82 18 89 19 83 20 84 21 88 22 85 23 87 24 86 25 11 26
REMARK SMILES IDX 12 27 13 28 14 30 15 31 16 32 77 33 17 34 76 35 18 36 19 37
REMARK SMILES IDX 20 38 70 39 21 40 75 41 69 42 71 43 22 44 74 45 68 46 67 47
REMARK SMILES IDX 23 49 55 50 35 51 54 52 36 53 39 54 53 55 72 56 37 57 38 58
REMARK SMILES IDX 52 60 73 61 40 62 24 63 25 64 33 65 26 66 27 67 31 68 34 69
REMARK SMILES IDX 28 70 29 71 32 72 30 73 56 74 57 75 65 76 58 77 59 78 63 79
REMARK SMILES IDX 66 80 60 81 61 82 64 83 62 84 41 85 42 86 50 87 43 88 44 89
REMARK SMILES IDX 48 90 51 91 45 92 46 93 49 94 47 95
REMARK H PARENT 7 7 1 15 1 16 12 29 71 48 39 59
REMARK Flexibility Score: inf
ROOT
ATOM      1  C   UNL     1      -5.908  -2.105  -1.502  1.00  0.00     0.023 C 
ENDROOT
BRANCH   1   2
ATOM      2  C   UNL     1      -4.901  -1.068  -0.989  1.00  0.00     0.023 C 
BRANCH   2   3
ATOM      3  C   UNL     1      -4.237  -1.450   0.335  1.00  0.00     0.116 C 
BRANCH   3   4
ATOM      4  N   UNL     1      -3.188  -2.418   0.108  1.00  0.00    -0.352 N 
ATOM      5  C   UNL     1      -1.853  -2.300  -0.172  1.00  0.00     0.251 C 
ATOM      6  O   UNL     1      -1.248  -3.356  -0.366  1.00  0.00    -0.269 OA
ATOM      7  H   UNL     1      -3.496  -3.351   0.167  1.00  0.00     0.163 HD
BRANCH   5   8
ATOM      8  C   UNL     1      -1.095  -1.010  -0.210  1.00  0.00     0.041 A 
ATOM      9  C   UNL     1       1.142  -0.008  -0.130  1.00  0.00     0.056 A 
ATOM     10  C   UNL     1       0.302  -1.128  -0.141  1.00  0.00     0.041 A 
ATOM     11  C   UNL     1       0.575   1.283  -0.121  1.00  0.00     0.060 A 
ATOM     12  C   UNL     1      -0.813   1.408  -0.215  1.00  0.00     0.029 A 
ATOM     13  C   UNL     1      -1.635   0.274  -0.300  1.00  0.00     0.016 A 
BRANCH   9  14
ATOM     14  N   UNL     1       2.510  -0.203   0.060  1.00  0.00    -0.397 N 
ATOM     15  H   UNL     1       2.883  -1.114   0.050  1.00  0.00     0.156 HD
ATOM     16  H   UNL     1       3.102   0.570   0.204  1.00  0.00     0.156 HD
ENDBRANCH   9  14
BRANCH  11  17
ATOM     17  N   UNL     1       1.390   2.413   0.016  1.00  0.00    -0.369 N 
ATOM     18  C   UNL     1       2.338   2.989  -0.879  1.00  0.00     0.125 C 
ATOM     19  C   UNL     1       1.270   3.591   0.810  1.00  0.00     0.125 C 
ATOM     20  C   UNL     1       2.685   3.958   0.285  1.00  0.00     0.010 C 
ATOM     21  C   UNL     1       2.916   5.420  -0.080  1.00  0.00     0.039 C 
ATOM     22  C   UNL     1       3.826   3.460   1.193  1.00  0.00     0.039 C 
ATOM     23  C   UNL     1       4.299   5.555  -0.712  1.00  0.00     0.161 C 
ATOM     24  C   UNL     1       5.153   3.692   0.482  1.00  0.00     0.161 C 
ATOM     25  O   UNL     1       5.311   5.080   0.181  1.00  0.00    -0.381 OA
ENDBRANCH  11  17
ENDBRANCH   5   8
ENDBRANCH   3   4
ENDBRANCH   2   3
ENDBRANCH   1   2
BRANCH   1  26
ATOM     26  C   UNL     1      -7.096  -2.359  -0.579  1.00  0.00     0.116 C 
BRANCH  26  27
ATOM     27  N   UNL     1      -7.828  -1.150  -0.236  1.00  0.00    -0.352 N 
ATOM     28  C   UNL     1      -9.158  -1.017   0.085  1.00  0.00     0.251 C 
ATOM     29  H   UNL     1      -7.302  -0.318  -0.233  1.00  0.00     0.163 HD
ATOM     30  O   UNL     1      -9.651   0.088   0.257  1.00  0.00    -0.269 OA
BRANCH  28  31
ATOM     31  C   UNL     1      -9.997  -2.229   0.172  1.00  0.00     0.039 A 
ATOM     32  C   UNL     1     -11.191  -2.269  -0.551  1.00  0.00     0.014 A 
ATOM     33  C   UNL     1      -9.585  -3.329   0.928  1.00  0.00     0.014 A 
ATOM     34  C   UNL     1     -11.943  -3.443  -0.570  1.00  0.00     0.010 A 
ATOM     35  C   UNL     1     -10.302  -4.518   0.856  1.00  0.00     0.010 A 
ATOM     36  C   UNL     1     -11.485  -4.587   0.104  1.00  0.00    -0.014 A 
BRANCH  36  37
ATOM     37  C   UNL     1     -12.224  -5.869   0.025  1.00  0.00     0.031 A 
ATOM     38  C   UNL     1     -12.853  -6.452   1.258  1.00  0.00     0.074 A 
ATOM     39  C   UNL     1     -12.265  -6.541  -1.141  1.00  0.00     0.049 A 
ATOM     40  N   UNL     1     -13.479  -7.592   1.408  1.00  0.00    -0.248 NA
ATOM     41  C   UNL     1     -12.737  -5.663   2.494  1.00  0.00     0.031 C 
ATOM     42  C   UNL     1     -11.645  -6.101  -2.392  1.00  0.00     0.029 A 
ATOM     43  N   UNL     1     -12.844  -7.742  -1.462  1.00  0.00    -0.354 N 
ATOM     44  C   UNL     1     -13.816  -7.662   2.752  1.00  0.00     0.074 A 
ATOM     45  C   UNL     1     -13.281  -6.476   3.386  1.00  0.00     0.031 C 
ATOM     46  C   UNL     1     -11.894  -7.009  -3.349  1.00  0.00     0.029 A 
ATOM     47  C   UNL     1     -12.661  -8.109  -2.772  1.00  0.00     0.049 A 
ATOM     48  H   UNL     1     -13.344  -8.290  -0.814  1.00  0.00     0.167 HD
ATOM     49  C   UNL     1     -14.528  -8.618   3.395  1.00  0.00     0.037 A 
ATOM     50  C   UNL     1     -13.064  -9.212  -3.431  1.00  0.00     0.037 A 
ATOM     51  C   UNL     1     -15.082  -9.781   2.753  1.00  0.00     0.049 A 
ATOM     52  C   UNL     1     -13.860 -10.255  -2.696  1.00  0.00     0.074 A 
ATOM     53  C   UNL     1     -15.875 -10.774   3.301  1.00  0.00     0.029 A 
ATOM     54  N   UNL     1     -14.897 -10.107   1.418  1.00  0.00    -0.354 N 
ATOM     55  N   UNL     1     -14.237 -10.276  -1.441  1.00  0.00    -0.248 NA
ATOM     56  C   UNL     1     -14.292 -11.426  -3.472  1.00  0.00     0.031 C 
ATOM     57  C   UNL     1     -16.137 -11.722   2.307  1.00  0.00     0.029 A 
ATOM     58  C   UNL     1     -15.545 -11.297   1.128  1.00  0.00     0.049 A 
ATOM     59  H   UNL     1     -14.381  -9.573   0.771  1.00  0.00     0.167 HD
ATOM     60  C   UNL     1     -14.970 -11.443  -1.282  1.00  0.00     0.074 A 
ATOM     61  C   UNL     1     -14.998 -12.098  -2.574  1.00  0.00     0.031 C 
ATOM     62  C   UNL     1     -15.566 -11.930  -0.166  1.00  0.00     0.037 A 
BRANCH  49  63
ATOM     63  C   UNL     1     -14.752  -8.440   4.868  1.00  0.00     0.064 A 
ATOM     64  C   UNL     1     -15.602  -7.441   5.366  1.00  0.00     0.173 A 
ATOM     65  C   UNL     1     -14.132  -9.294   5.792  1.00  0.00     0.173 A 
ATOM     66  F   UNL     1     -16.209  -6.590   4.525  1.00  0.00    -0.203 F 
ATOM     67  C   UNL     1     -15.798  -7.284   6.735  1.00  0.00     0.198 A 
ATOM     68  C   UNL     1     -14.354  -9.153   7.159  1.00  0.00     0.198 A 
ATOM     69  F   UNL     1     -13.314 -10.269   5.369  1.00  0.00    -0.203 F 
ATOM     70  F   UNL     1     -16.574  -6.289   7.189  1.00  0.00    -0.200 F 
ATOM     71  C   UNL     1     -15.180  -8.143   7.630  1.00  0.00     0.200 A 
ATOM     72  F   UNL     1     -13.765  -9.992   8.022  1.00  0.00    -0.200 F 
ATOM     73  F   UNL     1     -15.373  -7.994   8.948  1.00  0.00    -0.200 F 
ENDBRANCH  49  63
BRANCH  50  74
ATOM     74  C   UNL     1     -12.748  -9.370  -4.874  1.00  0.00     0.064 A 
ATOM     75  C   UNL     1     -13.756  -9.276  -5.843  1.00  0.00     0.173 A 
ATOM     76  C   UNL     1     -11.439  -9.616  -5.314  1.00  0.00     0.173 A 
ATOM     77  F   UNL     1     -15.026  -9.061  -5.469  1.00  0.00    -0.203 F 
ATOM     78  C   UNL     1     -13.471  -9.440  -7.197  1.00  0.00     0.198 A 
ATOM     79  C   UNL     1     -11.151  -9.754  -6.670  1.00  0.00     0.198 A 
ATOM     80  F   UNL     1     -10.438  -9.709  -4.426  1.00  0.00    -0.203 F 
ATOM     81  F   UNL     1     -14.460  -9.387  -8.099  1.00  0.00    -0.200 F 
ATOM     82  C   UNL     1     -12.168  -9.674  -7.610  1.00  0.00     0.200 A 
ATOM     83  F   UNL     1      -9.889  -9.967  -7.066  1.00  0.00    -0.200 F 
ATOM     84  F   UNL     1     -11.893  -9.828  -8.912  1.00  0.00    -0.200 F 
ENDBRANCH  50  74
BRANCH  62  85
ATOM     85  C   UNL     1     -16.324 -13.218  -0.300  1.00  0.00     0.064 A 
ATOM     86  C   UNL     1     -15.664 -14.446  -0.452  1.00  0.00     0.173 A 
ATOM     87  C   UNL     1     -17.725 -13.227  -0.234  1.00  0.00     0.173 A 
ATOM     88  F   UNL     1     -14.326 -14.487  -0.537  1.00  0.00    -0.203 F 
ATOM     89  C   UNL     1     -16.382 -15.634  -0.557  1.00  0.00     0.198 A 
ATOM     90  C   UNL     1     -18.438 -14.420  -0.310  1.00  0.00     0.198 A 
ATOM     91  F   UNL     1     -18.403 -12.079  -0.083  1.00  0.00    -0.203 F 
ATOM     92  F   UNL     1     -15.733 -16.792  -0.747  1.00  0.00    -0.200 F 
ATOM     93  C   UNL     1     -17.767 -15.621  -0.478  1.00  0.00     0.200 A 
ATOM     94  F   UNL     1     -19.775 -14.407  -0.221  1.00  0.00    -0.200 F 
ATOM     95  F   UNL     1     -18.455 -16.767  -0.571  1.00  0.00    -0.200 F 
ENDBRANCH  62  85
ENDBRANCH  36  37
ENDBRANCH  28  31
ENDBRANCH  26  27
ENDBRANCH   1  26
TORSDOF 13
