REMARK SMILES CC(C)(C)N(CC(=O)NCCCCNC(=O)c1ccc(-c2c3nc(c(-c4c(F)c(F)c(F)c(F)c4F)c4ccc([nH]4)c(-c4c(F)c(F)c(F)c(F)c4F)c4nc(c(-c5c(F)c(F)c(F)c(F)c5F)c5ccc2[nH]5)C=C4)C=C3)cc1)c1cccc(C#N)n1
REMARK SMILES IDX 11 1 10 2 9 3 7 4 8 5 6 7 5 8 2 9 1 10 3 11 4 12 80 13 81 14
REMARK SMILES IDX 87 15 82 16 84 17 83 18 85 19 86 20 12 21 13 22 14 23 15 24
REMARK SMILES IDX 16 26 17 27 18 28 79 29 19 30 78 31 20 32 21 33 22 34 72 35
REMARK SMILES IDX 23 36 77 37 71 38 73 39 24 40 76 41 70 42 69 43 25 45 57 46
REMARK SMILES IDX 37 47 56 48 38 49 41 50 55 51 74 52 39 53 40 54 54 56 75 57
REMARK SMILES IDX 42 58 26 59 27 60 35 61 28 62 29 63 33 64 36 65 30 66 31 67
REMARK SMILES IDX 34 68 32 69 58 70 59 71 67 72 60 73 61 74 65 75 68 76 62 77
REMARK SMILES IDX 63 78 66 79 64 80 43 81 44 82 52 83 45 84 46 85 50 86 53 87
REMARK SMILES IDX 47 88 48 89 51 90 49 91
REMARK H PARENT 9 6 14 25 73 44 41 55
REMARK Flexibility Score: inf
ROOT
ATOM      1  C   UNL     1       3.696  -1.541   2.756  1.00  0.00     0.023 C 
ENDROOT
BRANCH   1   2
ATOM      2  C   UNL     1       3.808  -1.287   1.257  1.00  0.00     0.116 C 
BRANCH   2   3
ATOM      3  N   UNL     1       3.960  -2.497   0.496  1.00  0.00    -0.355 N 
ATOM      4  C   UNL     1       3.050  -3.086  -0.339  1.00  0.00     0.239 C 
ATOM      5  O   UNL     1       3.423  -4.089  -0.959  1.00  0.00    -0.273 OA
ATOM      6  H   UNL     1       4.826  -2.958   0.586  1.00  0.00     0.163 HD
BRANCH   4   7
ATOM      7  C   UNL     1       1.671  -2.442  -0.619  1.00  0.00     0.218 C 
BRANCH   7   8
ATOM      8  N   UNL     1       0.745  -2.224   0.535  1.00  0.00    -0.342 N 
BRANCH   8   9
ATOM      9  C   UNL     1       0.130  -0.878   0.824  1.00  0.00     0.034 C 
ATOM     10  C   UNL     1       0.637   0.246  -0.119  1.00  0.00     0.034 C 
ATOM     11  C   UNL     1       0.453  -0.458   2.275  1.00  0.00     0.034 C 
ATOM     12  C   UNL     1      -1.400  -0.840   0.653  1.00  0.00     0.034 C 
ENDBRANCH   8   9
BRANCH   8  13
ATOM     13  C   UNL     1       0.409  -3.419   1.179  1.00  0.00     0.130 A 
ATOM     14  C   UNL     1      -0.891  -3.768   1.539  1.00  0.00     0.047 A 
ATOM     15  N   UNL     1       1.394  -4.313   1.406  1.00  0.00    -0.220 NA
ATOM     16  C   UNL     1      -1.179  -4.994   2.147  1.00  0.00     0.007 A 
ATOM     17  C   UNL     1       1.111  -5.517   1.970  1.00  0.00     0.142 A 
ATOM     18  C   UNL     1      -0.157  -5.894   2.370  1.00  0.00     0.040 A 
BRANCH  17  19
ATOM     19  C   UNL     1       2.215  -6.424   2.130  1.00  0.00     0.120 C 
ATOM     20  N   UNL     1       3.061  -7.202   2.297  1.00  0.00    -0.191 NA
ENDBRANCH  17  19
ENDBRANCH   8  13
ENDBRANCH   7   8
ENDBRANCH   4   7
ENDBRANCH   2   3
ENDBRANCH   1   2
BRANCH   1  21
ATOM     21  C   UNL     1       5.020  -1.870   3.430  1.00  0.00     0.023 C 
BRANCH  21  22
ATOM     22  C   UNL     1       6.094  -0.806   3.246  1.00  0.00     0.116 C 
BRANCH  22  23
ATOM     23  N   UNL     1       5.699   0.511   3.735  1.00  0.00    -0.352 N 
ATOM     24  C   UNL     1       6.397   1.370   4.551  1.00  0.00     0.251 C 
ATOM     25  H   UNL     1       4.815   0.828   3.441  1.00  0.00     0.163 HD
ATOM     26  O   UNL     1       5.874   2.390   4.985  1.00  0.00    -0.269 OA
BRANCH  24  27
ATOM     27  C   UNL     1       7.780   1.020   4.932  1.00  0.00     0.039 A 
ATOM     28  C   UNL     1       8.146   1.072   6.277  1.00  0.00     0.014 A 
ATOM     29  C   UNL     1       8.680   0.563   3.967  1.00  0.00     0.014 A 
ATOM     30  C   UNL     1       9.394   0.583   6.663  1.00  0.00     0.010 A 
ATOM     31  C   UNL     1       9.874  -0.023   4.367  1.00  0.00     0.010 A 
ATOM     32  C   UNL     1      10.246  -0.017   5.719  1.00  0.00    -0.014 A 
BRANCH  32  33
ATOM     33  C   UNL     1      11.527  -0.646   6.132  1.00  0.00     0.031 A 
ATOM     34  C   UNL     1      12.829  -0.138   5.575  1.00  0.00     0.074 A 
ATOM     35  C   UNL     1      11.511  -1.710   6.960  1.00  0.00     0.049 A 
ATOM     36  N   UNL     1      14.043  -0.584   5.776  1.00  0.00    -0.248 NA
ATOM     37  C   UNL     1      12.760   1.004   4.648  1.00  0.00     0.031 C 
ATOM     38  C   UNL     1      10.308  -2.333   7.516  1.00  0.00     0.029 A 
ATOM     39  N   UNL     1      12.538  -2.465   7.471  1.00  0.00    -0.354 N 
ATOM     40  C   UNL     1      14.871   0.207   4.992  1.00  0.00     0.074 A 
ATOM     41  C   UNL     1      14.023   1.128   4.270  1.00  0.00     0.031 C 
ATOM     42  C   UNL     1      10.666  -3.354   8.310  1.00  0.00     0.029 A 
ATOM     43  C   UNL     1      12.118  -3.495   8.279  1.00  0.00     0.049 A 
ATOM     44  H   UNL     1      13.487  -2.286   7.277  1.00  0.00     0.167 HD
ATOM     45  C   UNL     1      16.221   0.181   4.901  1.00  0.00     0.037 A 
ATOM     46  C   UNL     1      12.822  -4.457   8.906  1.00  0.00     0.037 A 
ATOM     47  C   UNL     1      17.062  -0.719   5.644  1.00  0.00     0.049 A 
ATOM     48  C   UNL     1      14.324  -4.462   8.777  1.00  0.00     0.074 A 
ATOM     49  C   UNL     1      18.444  -0.767   5.683  1.00  0.00     0.029 A 
ATOM     50  N   UNL     1      16.602  -1.737   6.466  1.00  0.00    -0.354 N 
ATOM     51  N   UNL     1      15.102  -3.643   8.111  1.00  0.00    -0.248 NA
ATOM     52  C   UNL     1      15.048  -5.520   9.496  1.00  0.00     0.031 C 
ATOM     53  C   UNL     1      18.820  -1.865   6.461  1.00  0.00     0.029 A 
ATOM     54  C   UNL     1      17.675  -2.446   6.981  1.00  0.00     0.049 A 
ATOM     55  H   UNL     1      15.654  -1.927   6.655  1.00  0.00     0.167 HD
ATOM     56  C   UNL     1      16.402  -4.067   8.356  1.00  0.00     0.074 A 
ATOM     57  C   UNL     1      16.309  -5.199   9.252  1.00  0.00     0.031 C 
ATOM     58  C   UNL     1      17.568  -3.566   7.880  1.00  0.00     0.037 A 
BRANCH  45  59
ATOM     59  C   UNL     1      16.887   1.144   3.961  1.00  0.00     0.064 A 
ATOM     60  C   UNL     1      16.920   2.524   4.211  1.00  0.00     0.173 A 
ATOM     61  C   UNL     1      17.577   0.665   2.836  1.00  0.00     0.173 A 
ATOM     62  F   UNL     1      16.267   3.036   5.265  1.00  0.00    -0.203 F 
ATOM     63  C   UNL     1      17.607   3.389   3.363  1.00  0.00     0.198 A 
ATOM     64  C   UNL     1      18.291   1.528   2.010  1.00  0.00     0.198 A 
ATOM     65  F   UNL     1      17.580  -0.646   2.552  1.00  0.00    -0.203 F 
ATOM     66  F   UNL     1      17.595   4.708   3.601  1.00  0.00    -0.200 F 
ATOM     67  C   UNL     1      18.302   2.890   2.272  1.00  0.00     0.200 A 
ATOM     68  F   UNL     1      18.977   1.041   0.968  1.00  0.00    -0.200 F 
ATOM     69  F   UNL     1      18.984   3.721   1.472  1.00  0.00    -0.200 F 
ENDBRANCH  45  59
BRANCH  46  70
ATOM     70  C   UNL     1      12.126  -5.508   9.700  1.00  0.00     0.064 A 
ATOM     71  C   UNL     1      12.322  -5.628  11.083  1.00  0.00     0.173 A 
ATOM     72  C   UNL     1      11.292  -6.451   9.080  1.00  0.00     0.173 A 
ATOM     73  F   UNL     1      13.123  -4.763  11.724  1.00  0.00    -0.203 F 
ATOM     74  C   UNL     1      11.750  -6.674  11.806  1.00  0.00     0.198 A 
ATOM     75  C   UNL     1      10.686  -7.471   9.810  1.00  0.00     0.198 A 
ATOM     76  F   UNL     1      11.063  -6.382   7.760  1.00  0.00    -0.203 F 
ATOM     77  F   UNL     1      12.020  -6.809  13.111  1.00  0.00    -0.200 F 
ATOM     78  C   UNL     1      10.930  -7.593  11.169  1.00  0.00     0.200 A 
ATOM     79  F   UNL     1       9.879  -8.345   9.194  1.00  0.00    -0.200 F 
ATOM     80  F   UNL     1      10.387  -8.603  11.862  1.00  0.00    -0.200 F 
ENDBRANCH  46  70
BRANCH  58  81
ATOM     81  C   UNL     1      18.843  -4.205   8.356  1.00  0.00     0.064 A 
ATOM     82  C   UNL     1      19.205  -5.508   7.986  1.00  0.00     0.173 A 
ATOM     83  C   UNL     1      19.734  -3.484   9.168  1.00  0.00     0.173 A 
ATOM     84  F   UNL     1      18.386  -6.246   7.220  1.00  0.00    -0.203 F 
ATOM     85  C   UNL     1      20.391  -6.079   8.441  1.00  0.00     0.198 A 
ATOM     86  C   UNL     1      20.938  -4.042   9.585  1.00  0.00     0.198 A 
ATOM     87  F   UNL     1      19.444  -2.229   9.543  1.00  0.00    -0.203 F 
ATOM     88  F   UNL     1      20.684  -7.348   8.126  1.00  0.00    -0.200 F 
ATOM     89  C   UNL     1      21.260  -5.343   9.232  1.00  0.00     0.200 A 
ATOM     90  F   UNL     1      21.786  -3.320  10.330  1.00  0.00    -0.200 F 
ATOM     91  F   UNL     1      22.405  -5.891   9.660  1.00  0.00    -0.200 F 
ENDBRANCH  58  81
ENDBRANCH  32  33
ENDBRANCH  24  27
ENDBRANCH  22  23
ENDBRANCH  21  22
ENDBRANCH   1  21
TORSDOF 15
