REMARK SMILES CC(=O)C1=C(NCCCCNC(=O)c2ccc(-c3c4nc(c(-c5c(F)c(F)c(F)c(F)c5F)c5ccc([nH]5)c(-c5c(F)c(F)c(F)c(F)c5F)c5nc(c(-c6c(F)c(F)c(F)c(F)c6F)c6ccc3[nH]6)C=C5)C=C4)cc2)C(=O)N(c2cccc(C(=O)[O-])c2)[C@@H]1c1ccc([N+](=O)[O-])cc1
REMARK SMILES IDX 8 1 7 2 6 3 5 5 4 6 89 7 77 8 79 9 78 10 2 11 1 12 3 13
REMARK SMILES IDX 90 14 91 15 98 16 92 17 97 18 93 19 94 20 95 21 96 22 80 23
REMARK SMILES IDX 81 24 88 25 82 26 84 27 83 28 85 29 86 30 87 31 9 32 10 33
REMARK SMILES IDX 11 34 12 35 13 37 14 38 15 39 76 40 16 41 75 42 17 43 18 44
REMARK SMILES IDX 19 45 69 46 20 47 74 48 68 49 70 50 21 51 73 52 67 53 66 54
REMARK SMILES IDX 22 56 54 57 34 58 53 59 35 60 38 61 52 62 71 63 36 64 37 65
REMARK SMILES IDX 51 67 72 68 39 69 23 70 24 71 32 72 25 73 26 74 30 75 33 76
REMARK SMILES IDX 27 77 28 78 31 79 29 80 55 81 56 82 64 83 57 84 58 85 62 86
REMARK SMILES IDX 65 87 59 88 60 89 63 90 61 91 40 92 41 93 49 94 42 95 43 96
REMARK SMILES IDX 47 97 50 98 44 99 45 100 48 101 46 102
REMARK H PARENT 6 4 11 36 70 55 38 66
REMARK Flexibility Score: inf
ROOT
ATOM      1  C   UNL     1      -3.271  -1.115  -1.828  1.00  0.00     0.023 C 
ENDROOT
BRANCH   1   2
ATOM      2  C   UNL     1      -2.065  -1.979  -1.479  1.00  0.00     0.113 C 
BRANCH   2   3
ATOM      3  N   UNL     1      -1.222  -2.172  -2.639  1.00  0.00    -0.380 N 
ATOM      4  H   UNL     1      -1.689  -2.416  -3.471  1.00  0.00     0.160 HD
BRANCH   3   5
ATOM      5  C   UNL     1       0.141  -2.061  -2.730  1.00  0.00     0.110 C 
ATOM      6  C   UNL     1       1.121  -1.631  -1.928  1.00  0.00     0.051 C 
ATOM      7  C   UNL     1       2.489  -1.710  -2.526  1.00  0.00     0.157 C 
ATOM      8  C   UNL     1       0.843  -2.488  -3.992  1.00  0.00     0.275 C 
ATOM      9  N   UNL     1       2.211  -2.417  -3.762  1.00  0.00    -0.295 N 
ATOM     10  O   UNL     1       0.246  -2.862  -4.990  1.00  0.00    -0.267 OA
BRANCH   6  11
ATOM     11  C   UNL     1       0.920  -1.143  -0.552  1.00  0.00     0.160 C 
ATOM     12  C   UNL     1       1.250   0.291  -0.261  1.00  0.00     0.093 C 
ATOM     13  O   UNL     1       0.541  -1.911   0.330  1.00  0.00    -0.295 OA
ENDBRANCH   6  11
BRANCH   7  14
ATOM     14  C   UNL     1       3.588  -2.269  -1.636  1.00  0.00    -0.020 A 
ATOM     15  C   UNL     1       3.335  -3.164  -0.581  1.00  0.00     0.013 A 
ATOM     16  C   UNL     1       4.921  -1.868  -1.864  1.00  0.00     0.013 A 
ATOM     17  C   UNL     1       4.362  -3.594   0.261  1.00  0.00     0.086 A 
ATOM     18  C   UNL     1       5.965  -2.347  -1.069  1.00  0.00     0.086 A 
ATOM     19  C   UNL     1       5.675  -3.192   0.005  1.00  0.00     0.269 A 
BRANCH  19  20
ATOM     20  N   UNL     1       6.757  -3.666   0.869  1.00  0.00     0.062 N 
ATOM     21  O   UNL     1       6.453  -4.071   2.000  1.00  0.00    -0.258 OA
ATOM     22  O   UNL     1       7.909  -3.629   0.415  1.00  0.00    -0.258 OA
ENDBRANCH  19  20
ENDBRANCH   7  14
BRANCH   9  23
ATOM     23  C   UNL     1       3.181  -2.677  -4.753  1.00  0.00     0.046 A 
ATOM     24  C   UNL     1       3.093  -2.100  -6.024  1.00  0.00     0.026 A 
ATOM     25  C   UNL     1       4.245  -3.537  -4.470  1.00  0.00     0.036 A 
ATOM     26  C   UNL     1       4.100  -2.321  -6.971  1.00  0.00     0.003 A 
ATOM     27  C   UNL     1       5.257  -3.761  -5.410  1.00  0.00    -0.001 A 
ATOM     28  C   UNL     1       5.186  -3.142  -6.662  1.00  0.00     0.010 A 
BRANCH  27  29
ATOM     29  C   UNL     1       6.412  -4.637  -5.105  1.00  0.00     0.072 C 
ATOM     30  O   UNL     1       7.311  -4.928  -5.875  1.00  0.00    -0.545 OA
ATOM     31  O   UNL     1       6.403  -5.084  -3.837  1.00  0.00    -0.545 OA
ENDBRANCH  27  29
ENDBRANCH   9  23
ENDBRANCH   3   5
ENDBRANCH   2   3
ENDBRANCH   1   2
BRANCH   1  32
ATOM     32  C   UNL     1      -4.296  -1.786  -2.733  1.00  0.00     0.023 C 
BRANCH  32  33
ATOM     33  C   UNL     1      -4.830  -3.114  -2.212  1.00  0.00     0.116 C 
BRANCH  33  34
ATOM     34  N   UNL     1      -5.480  -2.996  -0.912  1.00  0.00    -0.352 N 
ATOM     35  C   UNL     1      -6.753  -3.366  -0.547  1.00  0.00     0.251 C 
ATOM     36  H   UNL     1      -4.932  -2.598  -0.198  1.00  0.00     0.163 HD
ATOM     37  O   UNL     1      -7.208  -3.068   0.550  1.00  0.00    -0.269 OA
BRANCH  35  38
ATOM     38  C   UNL     1      -7.581  -4.105  -1.520  1.00  0.00     0.039 A 
ATOM     39  C   UNL     1      -8.865  -3.643  -1.814  1.00  0.00     0.014 A 
ATOM     40  C   UNL     1      -7.047  -5.205  -2.194  1.00  0.00     0.014 A 
ATOM     41  C   UNL     1      -9.583  -4.234  -2.856  1.00  0.00     0.010 A 
ATOM     42  C   UNL     1      -7.723  -5.728  -3.288  1.00  0.00     0.010 A 
ATOM     43  C   UNL     1      -8.996  -5.246  -3.632  1.00  0.00    -0.014 A 
BRANCH  43  44
ATOM     44  C   UNL     1      -9.686  -5.835  -4.808  1.00  0.00     0.031 A 
ATOM     45  C   UNL     1     -10.001  -7.303  -4.821  1.00  0.00     0.074 A 
ATOM     46  C   UNL     1      -9.935  -5.077  -5.895  1.00  0.00     0.049 A 
ATOM     47  N   UNL     1     -10.455  -8.047  -5.797  1.00  0.00    -0.248 NA
ATOM     48  C   UNL     1      -9.738  -8.042  -3.575  1.00  0.00     0.031 C 
ATOM     49  C   UNL     1      -9.645  -3.648  -6.018  1.00  0.00     0.029 A 
ATOM     50  N   UNL     1     -10.471  -5.412  -7.115  1.00  0.00    -0.354 N 
ATOM     51  C   UNL     1     -10.511  -9.338  -5.290  1.00  0.00     0.074 A 
ATOM     52  C   UNL     1      -9.989  -9.289  -3.942  1.00  0.00     0.031 C 
ATOM     53  C   UNL     1     -10.017  -3.227  -7.237  1.00  0.00     0.029 A 
ATOM     54  C   UNL     1     -10.522  -4.364  -8.001  1.00  0.00     0.049 A 
ATOM     55  H   UNL     1     -10.788  -6.319  -7.333  1.00  0.00     0.167 HD
ATOM     56  C   UNL     1     -10.980 -10.459  -5.887  1.00  0.00     0.037 A 
ATOM     57  C   UNL     1     -10.910  -4.330  -9.291  1.00  0.00     0.037 A 
ATOM     58  C   UNL     1     -11.515 -10.496  -7.221  1.00  0.00     0.049 A 
ATOM     59  C   UNL     1     -11.392  -5.598  -9.946  1.00  0.00     0.074 A 
ATOM     60  C   UNL     1     -12.060 -11.570  -7.901  1.00  0.00     0.029 A 
ATOM     61  N   UNL     1     -11.568  -9.408  -8.080  1.00  0.00    -0.354 N 
ATOM     62  N   UNL     1     -11.496  -6.803  -9.440  1.00  0.00    -0.248 NA
ATOM     63  C   UNL     1     -11.812  -5.504 -11.352  1.00  0.00     0.031 C 
ATOM     64  C   UNL     1     -12.387 -11.148  -9.192  1.00  0.00     0.029 A 
ATOM     65  C   UNL     1     -12.113  -9.793  -9.294  1.00  0.00     0.049 A 
ATOM     66  H   UNL     1     -11.263  -8.498  -7.860  1.00  0.00     0.167 HD
ATOM     67  C   UNL     1     -12.030  -7.597 -10.446  1.00  0.00     0.074 A 
ATOM     68  C   UNL     1     -12.230  -6.739 -11.594  1.00  0.00     0.031 C 
ATOM     69  C   UNL     1     -12.331  -8.918 -10.419  1.00  0.00     0.037 A 
BRANCH  56  70
ATOM     70  C   UNL     1     -10.930 -11.738  -5.101  1.00  0.00     0.064 A 
ATOM     71  C   UNL     1     -11.732 -11.938  -3.966  1.00  0.00     0.173 A 
ATOM     72  C   UNL     1     -10.093 -12.789  -5.505  1.00  0.00     0.173 A 
ATOM     73  F   UNL     1     -12.542 -10.962  -3.530  1.00  0.00    -0.203 F 
ATOM     74  C   UNL     1     -11.672 -13.129  -3.247  1.00  0.00     0.198 A 
ATOM     75  C   UNL     1     -10.063 -13.992  -4.804  1.00  0.00     0.198 A 
ATOM     76  F   UNL     1      -9.310 -12.655  -6.586  1.00  0.00    -0.203 F 
ATOM     77  F   UNL     1     -12.404 -13.274  -2.134  1.00  0.00    -0.200 F 
ATOM     78  C   UNL     1     -10.844 -14.157  -3.671  1.00  0.00     0.200 A 
ATOM     79  F   UNL     1      -9.276 -14.991  -5.226  1.00  0.00    -0.200 F 
ATOM     80  F   UNL     1     -10.794 -15.306  -2.982  1.00  0.00    -0.200 F 
ENDBRANCH  56  70
BRANCH  57  81
ATOM     81  C   UNL     1     -10.867  -3.050 -10.050  1.00  0.00     0.064 A 
ATOM     82  C   UNL     1     -12.048  -2.422 -10.471  1.00  0.00     0.173 A 
ATOM     83  C   UNL     1      -9.650  -2.435 -10.380  1.00  0.00     0.173 A 
ATOM     84  F   UNL     1     -13.236  -2.981 -10.198  1.00  0.00    -0.203 F 
ATOM     85  C   UNL     1     -12.013  -1.244 -11.213  1.00  0.00     0.198 A 
ATOM     86  C   UNL     1      -9.618  -1.238 -11.094  1.00  0.00     0.198 A 
ATOM     87  F   UNL     1      -8.491  -2.989  -9.997  1.00  0.00    -0.203 F 
ATOM     88  F   UNL     1     -13.156  -0.694 -11.647  1.00  0.00    -0.200 F 
ATOM     89  C   UNL     1     -10.798  -0.649 -11.519  1.00  0.00     0.200 A 
ATOM     90  F   UNL     1      -8.442  -0.658 -11.372  1.00  0.00    -0.200 F 
ATOM     91  F   UNL     1     -10.765   0.486 -12.230  1.00  0.00    -0.200 F 
ENDBRANCH  57  81
BRANCH  69  92
ATOM     92  C   UNL     1     -12.969  -9.518 -11.638  1.00  0.00     0.064 A 
ATOM     93  C   UNL     1     -12.247  -9.747 -12.817  1.00  0.00     0.173 A 
ATOM     94  C   UNL     1     -14.304  -9.951 -11.590  1.00  0.00     0.173 A 
ATOM     95  F   UNL     1     -10.973  -9.339 -12.920  1.00  0.00    -0.203 F 
ATOM     96  C   UNL     1     -12.841 -10.379 -13.907  1.00  0.00     0.198 A 
ATOM     97  C   UNL     1     -14.884 -10.611 -12.668  1.00  0.00     0.198 A 
ATOM     98  F   UNL     1     -15.037  -9.761 -10.481  1.00  0.00    -0.203 F 
ATOM     99  F   UNL     1     -12.143 -10.559 -15.037  1.00  0.00    -0.200 F 
ATOM    100  C   UNL     1     -14.154 -10.821 -13.827  1.00  0.00     0.200 A 
ATOM    101  F   UNL     1     -16.146 -11.054 -12.581  1.00  0.00    -0.200 F 
ATOM    102  F   UNL     1     -14.715 -11.451 -14.868  1.00  0.00    -0.200 F 
ENDBRANCH  69  92
ENDBRANCH  43  44
ENDBRANCH  35  38
ENDBRANCH  33  34
ENDBRANCH  32  33
ENDBRANCH   1  32
TORSDOF 16
