REMARK SMILES C[C@@H]1Oc2c(C(=O)NCCCCNC(=O)c3ccc(-c4c5nc(c(-c6c(F)c(F)c(F)c(F)c6F)c6ccc([nH]6)c(-c6c(F)c(F)c(F)c(F)c6F)c6nc(c(-c7c(F)c(F)c(F)c(F)c7F)c7ccc4[nH]7)C=C6)C=C5)cc3)cccc2[C@@H]1C
REMARK SMILES IDX 11 1 10 2 9 3 8 4 6 5 7 6 5 8 1 9 2 10 3 11 83 12 4 13 82 14
REMARK SMILES IDX 84 15 81 16 79 17 80 18 12 19 13 20 14 21 15 23 16 24 17 25
REMARK SMILES IDX 78 26 18 27 77 28 19 29 20 30 21 31 71 32 22 33 76 34 70 35
REMARK SMILES IDX 72 36 23 37 75 38 69 39 68 40 24 42 56 43 36 44 55 45 37 46
REMARK SMILES IDX 40 47 54 48 73 49 38 50 39 51 53 53 74 54 41 55 25 56 26 57
REMARK SMILES IDX 34 58 27 59 28 60 32 61 35 62 29 63 30 64 33 65 31 66 57 67
REMARK SMILES IDX 58 68 66 69 59 70 60 71 64 72 67 73 61 74 62 75 65 76 63 77
REMARK SMILES IDX 42 78 43 79 51 80 44 81 45 82 49 83 52 84 46 85 47 86 50 87
REMARK SMILES IDX 48 88
REMARK H PARENT 8 7 13 22 72 41 40 52
REMARK Flexibility Score: inf
ROOT
ATOM      1  C   UNL     1      -5.142   6.584   3.540  1.00  0.00     0.023 C 
ENDROOT
BRANCH   1   2
ATOM      2  C   UNL     1      -3.631   6.455   3.331  1.00  0.00     0.023 C 
BRANCH   2   3
ATOM      3  C   UNL     1      -3.032   5.142   3.846  1.00  0.00     0.116 C 
BRANCH   3   4
ATOM      4  N   UNL     1      -3.253   4.073   2.897  1.00  0.00    -0.352 N 
ATOM      5  C   UNL     1      -2.529   3.587   1.834  1.00  0.00     0.255 C 
ATOM      6  O   UNL     1      -3.069   2.674   1.208  1.00  0.00    -0.269 OA
ATOM      7  H   UNL     1      -4.101   3.592   3.042  1.00  0.00     0.163 HD
BRANCH   5   8
ATOM      8  C   UNL     1      -1.174   4.090   1.438  1.00  0.00     0.082 A 
ATOM      9  C   UNL     1       0.110   0.801  -1.751  1.00  0.00     0.053 C 
ATOM     10  C   UNL     1       0.529   1.557  -0.497  1.00  0.00     0.177 C 
ATOM     11  O   UNL     1      -0.669   2.057   0.144  1.00  0.00    -0.489 OA
ATOM     12  C   UNL     1       1.512   2.727  -0.711  1.00  0.00     0.060 C 
ATOM     13  C   UNL     1      -0.346   3.293   0.644  1.00  0.00     0.136 A 
ATOM     14  C   UNL     1       0.914   3.717   0.227  1.00  0.00     0.001 A 
ATOM     15  C   UNL     1       1.586   3.300  -2.124  1.00  0.00     0.017 C 
ATOM     16  C   UNL     1       1.424   4.946   0.608  1.00  0.00     0.008 A 
ATOM     17  C   UNL     1      -0.671   5.360   1.762  1.00  0.00     0.018 A 
ATOM     18  C   UNL     1       0.618   5.774   1.377  1.00  0.00     0.001 A 
ENDBRANCH   5   8
ENDBRANCH   3   4
ENDBRANCH   2   3
ENDBRANCH   1   2
BRANCH   1  19
ATOM     19  C   UNL     1      -5.572   6.697   4.998  1.00  0.00     0.116 C 
BRANCH  19  20
ATOM     20  N   UNL     1      -5.026   7.860   5.682  1.00  0.00    -0.352 N 
ATOM     21  C   UNL     1      -5.552   8.541   6.758  1.00  0.00     0.251 C 
ATOM     22  H   UNL     1      -4.172   8.203   5.331  1.00  0.00     0.163 HD
ATOM     23  O   UNL     1      -5.020   9.558   7.177  1.00  0.00    -0.269 OA
BRANCH  21  24
ATOM     24  C   UNL     1      -6.812   8.054   7.358  1.00  0.00     0.039 A 
ATOM     25  C   UNL     1      -6.965   6.707   7.689  1.00  0.00     0.014 A 
ATOM     26  C   UNL     1      -7.875   8.947   7.512  1.00  0.00     0.014 A 
ATOM     27  C   UNL     1      -8.227   6.219   8.001  1.00  0.00     0.010 A 
ATOM     28  C   UNL     1      -9.127   8.467   7.903  1.00  0.00     0.010 A 
ATOM     29  C   UNL     1      -9.325   7.090   8.091  1.00  0.00    -0.014 A 
BRANCH  29  30
ATOM     30  C   UNL     1     -10.675   6.530   8.346  1.00  0.00     0.031 A 
ATOM     31  C   UNL     1     -11.742   6.591   7.287  1.00  0.00     0.074 A 
ATOM     32  C   UNL     1     -10.917   5.901   9.510  1.00  0.00     0.049 A 
ATOM     33  N   UNL     1     -12.966   6.125   7.319  1.00  0.00    -0.248 NA
ATOM     34  C   UNL     1     -11.393   7.265   6.027  1.00  0.00     0.031 C 
ATOM     35  C   UNL     1      -9.957   5.764  10.605  1.00  0.00     0.029 A 
ATOM     36  N   UNL     1     -12.029   5.232   9.954  1.00  0.00    -0.354 N 
ATOM     37  C   UNL     1     -13.536   6.467   6.101  1.00  0.00     0.074 A 
ATOM     38  C   UNL     1     -12.536   7.202   5.357  1.00  0.00     0.031 C 
ATOM     39  C   UNL     1     -10.499   5.007  11.570  1.00  0.00     0.029 A 
ATOM     40  C   UNL     1     -11.863   4.654  11.187  1.00  0.00     0.049 A 
ATOM     41  H   UNL     1     -12.866   5.173   9.438  1.00  0.00     0.167 HD
ATOM     42  C   UNL     1     -14.778   6.183   5.640  1.00  0.00     0.037 A 
ATOM     43  C   UNL     1     -12.714   3.924  11.931  1.00  0.00     0.037 A 
ATOM     44  C   UNL     1     -15.760   5.422   6.367  1.00  0.00     0.049 A 
ATOM     45  C   UNL     1     -14.094   3.647  11.410  1.00  0.00     0.074 A 
ATOM     46  C   UNL     1     -17.033   5.052   5.968  1.00  0.00     0.029 A 
ATOM     47  N   UNL     1     -15.577   4.911   7.644  1.00  0.00    -0.354 N 
ATOM     48  N   UNL     1     -14.622   3.979  10.258  1.00  0.00    -0.248 NA
ATOM     49  C   UNL     1     -15.001   2.909  12.299  1.00  0.00     0.031 C 
ATOM     50  C   UNL     1     -17.634   4.350   7.019  1.00  0.00     0.029 A 
ATOM     51  C   UNL     1     -16.722   4.249   8.057  1.00  0.00     0.049 A 
ATOM     52  H   UNL     1     -14.755   5.005   8.178  1.00  0.00     0.167 HD
ATOM     53  C   UNL     1     -15.921   3.493  10.280  1.00  0.00     0.074 A 
ATOM     54  C   UNL     1     -16.095   2.822  11.553  1.00  0.00     0.031 C 
ATOM     55  C   UNL     1     -16.884   3.602   9.333  1.00  0.00     0.037 A 
BRANCH  42  56
ATOM     56  C   UNL     1     -15.155   6.707   4.286  1.00  0.00     0.064 A 
ATOM     57  C   UNL     1     -14.642   6.144   3.109  1.00  0.00     0.173 A 
ATOM     58  C   UNL     1     -16.083   7.752   4.164  1.00  0.00     0.173 A 
ATOM     59  F   UNL     1     -13.742   5.150   3.173  1.00  0.00    -0.203 F 
ATOM     60  C   UNL     1     -15.028   6.621   1.859  1.00  0.00     0.198 A 
ATOM     61  C   UNL     1     -16.486   8.211   2.913  1.00  0.00     0.198 A 
ATOM     62  F   UNL     1     -16.608   8.322   5.259  1.00  0.00    -0.203 F 
ATOM     63  F   UNL     1     -14.498   6.092   0.748  1.00  0.00    -0.200 F 
ATOM     64  C   UNL     1     -15.955   7.649   1.762  1.00  0.00     0.200 A 
ATOM     65  F   UNL     1     -17.389   9.197   2.820  1.00  0.00    -0.200 F 
ATOM     66  F   UNL     1     -16.332   8.101   0.558  1.00  0.00    -0.200 F 
ENDBRANCH  42  56
BRANCH  43  67
ATOM     67  C   UNL     1     -12.262   3.402  13.244  1.00  0.00     0.064 A 
ATOM     68  C   UNL     1     -11.983   2.041  13.416  1.00  0.00     0.173 A 
ATOM     69  C   UNL     1     -12.039   4.262  14.329  1.00  0.00     0.173 A 
ATOM     70  F   UNL     1     -12.198   1.180  12.411  1.00  0.00    -0.203 F 
ATOM     71  C   UNL     1     -11.489   1.559  14.626  1.00  0.00     0.198 A 
ATOM     72  C   UNL     1     -11.524   3.782  15.530  1.00  0.00     0.198 A 
ATOM     73  F   UNL     1     -12.288   5.574  14.208  1.00  0.00    -0.203 F 
ATOM     74  F   UNL     1     -11.242   0.250  14.773  1.00  0.00    -0.200 F 
ATOM     75  C   UNL     1     -11.249   2.431  15.678  1.00  0.00     0.200 A 
ATOM     76  F   UNL     1     -11.278   4.631  16.538  1.00  0.00    -0.200 F 
ATOM     77  F   UNL     1     -10.753   1.970  16.834  1.00  0.00    -0.200 F 
ENDBRANCH  43  67
BRANCH  55  78
ATOM     78  C   UNL     1     -18.219   2.992   9.638  1.00  0.00     0.064 A 
ATOM     79  C   UNL     1     -19.112   3.608  10.526  1.00  0.00     0.173 A 
ATOM     80  C   UNL     1     -18.634   1.818   8.993  1.00  0.00     0.173 A 
ATOM     81  F   UNL     1     -18.754   4.725  11.177  1.00  0.00    -0.203 F 
ATOM     82  C   UNL     1     -20.371   3.064  10.765  1.00  0.00     0.198 A 
ATOM     83  C   UNL     1     -19.901   1.288   9.218  1.00  0.00     0.198 A 
ATOM     84  F   UNL     1     -17.816   1.195   8.131  1.00  0.00    -0.203 F 
ATOM     85  F   UNL     1     -21.198   3.652  11.640  1.00  0.00    -0.200 F 
ATOM     86  C   UNL     1     -20.767   1.910  10.105  1.00  0.00     0.200 A 
ATOM     87  F   UNL     1     -20.287   0.179   8.572  1.00  0.00    -0.200 F 
ATOM     88  F   UNL     1     -21.983   1.393  10.329  1.00  0.00    -0.200 F 
ENDBRANCH  55  78
ENDBRANCH  29  30
ENDBRANCH  21  24
ENDBRANCH  19  20
ENDBRANCH   1  19
TORSDOF 11
