REMARK SMILES NS(=O)(=O)c1ccc(C#Cc2cc(Cl)cc3c2O[C@H](C(F)(F)F)C(C(=O)NCCCCNC(=O)c2ccc(-c4c5nc(c(-c6c(F)c(F)c(F)c(F)c6F)c6ccc([nH]6)c(-c6c(F)c(F)c(F)c(F)c6F)c6nc(c(-c7c(F)c(F)c(F)c(F)c7F)c7ccc4[nH]7)C=C6)C=C5)cc2)=C3)cc1
REMARK SMILES IDX 28 1 27 2 25 3 26 4 24 6 11 7 12 8 17 9 13 10 16 11 18 12
REMARK SMILES IDX 14 13 15 14 98 15 19 16 10 17 9 18 8 19 5 20 6 21 100 22
REMARK SMILES IDX 7 23 99 24 2 25 3 26 4 27 1 28 20 31 21 32 22 33 23 34 29 35
REMARK SMILES IDX 30 36 31 37 32 38 33 39 34 41 35 42 36 43 97 44 37 45 96 46
REMARK SMILES IDX 38 47 39 48 40 49 90 50 41 51 95 52 89 53 91 54 42 55 94 56
REMARK SMILES IDX 88 57 87 58 43 60 75 61 55 62 74 63 56 64 59 65 73 66 92 67
REMARK SMILES IDX 57 68 58 69 72 71 93 72 60 73 44 74 45 75 53 76 46 77 47 78
REMARK SMILES IDX 51 79 54 80 48 81 49 82 52 83 50 84 76 85 77 86 85 87 78 88
REMARK SMILES IDX 79 89 83 90 86 91 80 92 81 93 84 94 82 95 61 96 62 97 70 98
REMARK SMILES IDX 63 99 64 100 68 101 71 102 65 103 66 104 69 105 67 106
REMARK H PARENT 27 5 1 29 1 30 32 40 91 59 59 70
REMARK Flexibility Score: inf
ROOT
ATOM      1  C   UNL     1       1.006  11.935   0.079  1.00  0.00     0.116 C 
ENDROOT
BRANCH   1   2
ATOM      2  N   UNL     1       1.153  12.900  -0.999  1.00  0.00    -0.352 N 
ATOM      3  C   UNL     1       1.250  12.864  -2.352  1.00  0.00     0.251 C 
ATOM      4  O   UNL     1       1.315  13.960  -2.914  1.00  0.00    -0.270 OA
ATOM      5  H   UNL     1       1.191  13.822  -0.657  1.00  0.00     0.163 HD
BRANCH   3   6
ATOM      6  C   UNL     1       1.288  11.612  -3.163  1.00  0.00     0.067 C 
ATOM      7  C   UNL     1       1.714   8.095  -5.417  1.00  0.00     0.069 A 
ATOM      8  C   UNL     1       1.835   8.166  -6.802  1.00  0.00     0.041 A 
ATOM      9  C   UNL     1       1.603   9.277  -4.675  1.00  0.00     0.143 A 
ATOM     10  C   UNL     1       1.849   9.415  -7.427  1.00  0.00     0.043 A 
ATOM     11  C   UNL     1       1.621  10.530  -5.295  1.00  0.00     0.020 A 
ATOM     12  O   UNL     1       1.526   9.139  -3.320  1.00  0.00    -0.474 OA
ATOM     13  Cl  UNL     1       2.006   9.503  -9.139  1.00  0.00    -0.084 Cl
ATOM     14  C   UNL     1       1.744  10.595  -6.684  1.00  0.00     0.032 A 
ATOM     15  C   UNL     1       1.559  11.738  -4.475  1.00  0.00     0.025 C 
ATOM     16  C   UNL     1       1.019  10.261  -2.575  1.00  0.00     0.314 C 
BRANCH   7  17
ATOM     17  C   UNL     1       1.680   6.826  -4.748  1.00  0.00    -0.058 C 
ATOM     18  C   UNL     1       1.607   5.786  -4.145  1.00  0.00    -0.062 C 
BRANCH  18  19
ATOM     19  C   UNL     1       1.464   4.527  -3.481  1.00  0.00     0.025 A 
ATOM     20  C   UNL     1       1.002   2.022  -2.341  1.00  0.00     0.082 A 
ATOM     21  C   UNL     1       0.605   3.176  -1.657  1.00  0.00     0.023 A 
ATOM     22  C   UNL     1       1.666   2.115  -3.568  1.00  0.00     0.023 A 
ATOM     23  C   UNL     1       0.842   4.432  -2.231  1.00  0.00     0.018 A 
ATOM     24  C   UNL     1       1.896   3.369  -4.134  1.00  0.00     0.018 A 
BRANCH  20  25
ATOM     25  S   UNL     1       0.582   0.425  -1.706  1.00  0.00     0.238 S 
ATOM     26  O   UNL     1       1.266  -0.589  -2.475  1.00  0.00    -0.207 OA
ATOM     27  O   UNL     1      -0.841   0.387  -1.465  1.00  0.00    -0.207 OA
BRANCH  25  28
ATOM     28  N   UNL     1       1.315   0.399  -0.197  1.00  0.00    -0.225 NA
ATOM     29  H   UNL     1       1.128  -0.495   0.257  1.00  0.00     0.137 HD
ATOM     30  H   UNL     1       0.941   1.156   0.376  1.00  0.00     0.137 HD
ENDBRANCH  25  28
ENDBRANCH  20  25
ENDBRANCH  18  19
ENDBRANCH   7  17
BRANCH  16  31
ATOM     31  C   UNL     1      -0.475  10.039  -2.267  1.00  0.00     0.429 C 
ATOM     32  F   UNL     1      -0.630   9.008  -1.399  1.00  0.00    -0.167 F 
ATOM     33  F   UNL     1      -1.055  11.116  -1.684  1.00  0.00    -0.167 F 
ATOM     34  F   UNL     1      -1.198   9.757  -3.373  1.00  0.00    -0.167 F 
ENDBRANCH  16  31
ENDBRANCH   3   6
ENDBRANCH   1   2
BRANCH   1  35
ATOM     35  C   UNL     1       2.245  11.864   0.962  1.00  0.00     0.023 C 
BRANCH  35  36
ATOM     36  C   UNL     1       2.242  12.905   2.073  1.00  0.00     0.023 C 
BRANCH  36  37
ATOM     37  C   UNL     1       0.998  12.889   2.952  1.00  0.00     0.116 C 
BRANCH  37  38
ATOM     38  N   UNL     1       0.717  11.593   3.562  1.00  0.00    -0.352 N 
ATOM     39  C   UNL     1       0.334  11.331   4.859  1.00  0.00     0.251 C 
ATOM     40  H   UNL     1       0.812  10.810   2.974  1.00  0.00     0.163 HD
ATOM     41  O   UNL     1       0.236  10.182   5.272  1.00  0.00    -0.269 OA
BRANCH  39  42
ATOM     42  C   UNL     1       0.101  12.478   5.758  1.00  0.00     0.039 A 
ATOM     43  C   UNL     1      -0.672  13.551   5.315  1.00  0.00     0.014 A 
ATOM     44  C   UNL     1       0.782  12.543   6.974  1.00  0.00     0.014 A 
ATOM     45  C   UNL     1      -0.568  14.770   5.967  1.00  0.00     0.010 A 
ATOM     46  C   UNL     1       0.776  13.738   7.697  1.00  0.00     0.010 A 
ATOM     47  C   UNL     1       0.162  14.883   7.163  1.00  0.00    -0.014 A 
BRANCH  47  48
ATOM     48  C   UNL     1       0.283  16.214   7.815  1.00  0.00     0.031 A 
ATOM     49  C   UNL     1       1.629  16.862   8.015  1.00  0.00     0.074 A 
ATOM     50  C   UNL     1      -0.839  16.871   8.168  1.00  0.00     0.049 A 
ATOM     51  N   UNL     1       1.912  18.027   8.545  1.00  0.00    -0.248 NA
ATOM     52  C   UNL     1       2.814  16.110   7.571  1.00  0.00     0.031 C 
ATOM     53  C   UNL     1      -2.200  16.354   8.009  1.00  0.00     0.029 A 
ATOM     54  N   UNL     1      -1.021  18.121   8.703  1.00  0.00    -0.354 N 
ATOM     55  C   UNL     1       3.296  18.137   8.512  1.00  0.00     0.074 A 
ATOM     56  C   UNL     1       3.804  16.905   7.952  1.00  0.00     0.031 C 
ATOM     57  C   UNL     1      -3.075  17.298   8.376  1.00  0.00     0.029 A 
ATOM     58  C   UNL     1      -2.342  18.455   8.876  1.00  0.00     0.049 A 
ATOM     59  H   UNL     1      -0.277  18.720   8.940  1.00  0.00     0.167 HD
ATOM     60  C   UNL     1       4.070  19.182   8.894  1.00  0.00     0.037 A 
ATOM     61  C   UNL     1      -2.905  19.561   9.398  1.00  0.00     0.037 A 
ATOM     62  C   UNL     1       3.557  20.416   9.429  1.00  0.00     0.049 A 
ATOM     63  C   UNL     1      -2.018  20.673   9.880  1.00  0.00     0.074 A 
ATOM     64  C   UNL     1       4.261  21.541   9.821  1.00  0.00     0.029 A 
ATOM     65  N   UNL     1       2.214  20.688   9.649  1.00  0.00    -0.354 N 
ATOM     66  N   UNL     1      -0.713  20.775   9.814  1.00  0.00    -0.248 NA
ATOM     67  C   UNL     1      -2.680  21.820  10.515  1.00  0.00     0.031 C 
ATOM     68  C   UNL     1       3.353  22.468  10.338  1.00  0.00     0.029 A 
ATOM     69  C   UNL     1       2.075  21.950  10.206  1.00  0.00     0.049 A 
ATOM     70  H   UNL     1       1.472  20.076   9.441  1.00  0.00     0.167 HD
ATOM     71  C   UNL     1      -0.398  22.002  10.382  1.00  0.00     0.074 A 
ATOM     72  C   UNL     1      -1.651  22.619  10.765  1.00  0.00     0.031 C 
ATOM     73  C   UNL     1       0.821  22.559  10.575  1.00  0.00     0.037 A 
BRANCH  60  74
ATOM     74  C   UNL     1       5.561  19.050   8.751  1.00  0.00     0.064 A 
ATOM     75  C   UNL     1       6.182  19.040   7.493  1.00  0.00     0.173 A 
ATOM     76  C   UNL     1       6.386  19.024   9.887  1.00  0.00     0.173 A 
ATOM     77  F   UNL     1       5.442  19.056   6.374  1.00  0.00    -0.203 F 
ATOM     78  C   UNL     1       7.569  18.993   7.378  1.00  0.00     0.198 A 
ATOM     79  C   UNL     1       7.774  19.011   9.768  1.00  0.00     0.198 A 
ATOM     80  F   UNL     1       5.847  19.043  11.116  1.00  0.00    -0.203 F 
ATOM     81  F   UNL     1       8.137  18.947   6.164  1.00  0.00    -0.200 F 
ATOM     82  C   UNL     1       8.364  18.991   8.514  1.00  0.00     0.200 A 
ATOM     83  F   UNL     1       8.540  19.030  10.868  1.00  0.00    -0.200 F 
ATOM     84  F   UNL     1       9.699  18.968   8.400  1.00  0.00    -0.200 F 
ENDBRANCH  60  74
BRANCH  61  85
ATOM     85  C   UNL     1      -4.386  19.658   9.484  1.00  0.00     0.064 A 
ATOM     86  C   UNL     1      -5.091  20.596   8.718  1.00  0.00     0.173 A 
ATOM     87  C   UNL     1      -5.129  18.798  10.308  1.00  0.00     0.173 A 
ATOM     88  F   UNL     1      -4.426  21.451   7.929  1.00  0.00    -0.203 F 
ATOM     89  C   UNL     1      -6.481  20.674   8.779  1.00  0.00     0.198 A 
ATOM     90  C   UNL     1      -6.520  18.853  10.340  1.00  0.00     0.198 A 
ATOM     91  F   UNL     1      -4.503  17.878  11.057  1.00  0.00    -0.203 F 
ATOM     92  F   UNL     1      -7.127  21.605   8.064  1.00  0.00    -0.200 F 
ATOM     93  C   UNL     1      -7.194  19.797   9.581  1.00  0.00     0.200 A 
ATOM     94  F   UNL     1      -7.205  17.987  11.099  1.00  0.00    -0.200 F 
ATOM     95  F   UNL     1      -8.532  19.861   9.624  1.00  0.00    -0.200 F 
ENDBRANCH  61  85
BRANCH  73  96
ATOM     96  C   UNL     1       0.879  23.914  11.219  1.00  0.00     0.064 A 
ATOM     97  C   UNL     1       0.602  24.088  12.582  1.00  0.00     0.173 A 
ATOM     98  C   UNL     1       1.320  25.031  10.490  1.00  0.00     0.173 A 
ATOM     99  F   UNL     1       0.164  23.056  13.318  1.00  0.00    -0.203 F 
ATOM    100  C   UNL     1       0.758  25.330  13.191  1.00  0.00     0.198 A 
ATOM    101  C   UNL     1       1.509  26.262  11.110  1.00  0.00     0.198 A 
ATOM    102  F   UNL     1       1.607  24.916   9.184  1.00  0.00    -0.203 F 
ATOM    103  F   UNL     1       0.461  25.479  14.489  1.00  0.00    -0.200 F 
ATOM    104  C   UNL     1       1.226  26.411  12.459  1.00  0.00     0.200 A 
ATOM    105  F   UNL     1       1.981  27.300  10.406  1.00  0.00    -0.200 F 
ATOM    106  F   UNL     1       1.406  27.598  13.056  1.00  0.00    -0.200 F 
ENDBRANCH  73  96
ENDBRANCH  47  48
ENDBRANCH  39  42
ENDBRANCH  37  38
ENDBRANCH  36  37
ENDBRANCH  35  36
ENDBRANCH   1  35
TORSDOF 16
