REMARK SMILES C[C@@H]1C[C@@H]1NC(=O)Cn1cccc1C(=O)NCCCCNC(=O)c1ccc(-c2c3nc(c(-c4c(F)c(F)c(F)c(F)c4F)c4ccc([nH]4)c(-c4c(F)c(F)c(F)c(F)c4F)c4nc(c(-c5c(F)c(F)c(F)c(F)c5F)c5ccc2[nH]5)C=C4)C=C3)cc1
REMARK SMILES IDX 18 1 17 2 16 3 14 4 15 5 13 7 9 8 10 9 11 10 12 11 8 12 6 13
REMARK SMILES IDX 5 14 7 16 4 17 1 18 2 19 3 20 19 21 20 22 21 23 22 24 23 26
REMARK SMILES IDX 24 27 25 28 86 29 26 30 85 31 27 32 28 33 29 34 79 35 30 36
REMARK SMILES IDX 84 37 78 38 80 39 31 40 83 41 77 42 76 43 32 45 64 46 44 47
REMARK SMILES IDX 63 48 45 49 48 50 62 51 81 52 46 53 47 54 61 56 82 57 49 58
REMARK SMILES IDX 33 59 34 60 42 61 35 62 36 63 40 64 43 65 37 66 38 67 41 68
REMARK SMILES IDX 39 69 65 70 66 71 74 72 67 73 68 74 72 75 75 76 69 77 70 78
REMARK SMILES IDX 73 79 71 80 50 81 51 82 59 83 52 84 53 85 57 86 60 87 54 88
REMARK SMILES IDX 55 89 58 90 56 91
REMARK H PARENT 16 6 5 15 21 25 80 44 48 55
REMARK Flexibility Score: inf
ROOT
ATOM      1  C   UNL     1       3.045   1.344  -4.394  1.00  0.00     0.023 C 
ENDROOT
BRANCH   1   2
ATOM      2  C   UNL     1       1.849   1.382  -3.448  1.00  0.00     0.116 C 
BRANCH   2   3
ATOM      3  N   UNL     1       0.578   1.390  -4.130  1.00  0.00    -0.351 N 
ATOM      4  C   UNL     1      -0.467   0.557  -4.403  1.00  0.00     0.267 C 
ATOM      5  O   UNL     1      -1.428   1.196  -4.859  1.00  0.00    -0.268 OA
ATOM      6  H   UNL     1       0.413   2.277  -4.524  1.00  0.00     0.163 HD
BRANCH   4   7
ATOM      7  C   UNL     1      -0.572  -0.896  -4.261  1.00  0.00     0.107 A 
ATOM      8  N   UNL     1       0.268  -1.933  -3.857  1.00  0.00    -0.334 N 
ATOM      9  C   UNL     1      -0.328  -3.152  -4.107  1.00  0.00     0.087 A 
ATOM     10  C   UNL     1      -1.612  -2.936  -4.527  1.00  0.00     0.020 A 
ATOM     11  C   UNL     1      -1.765  -1.544  -4.615  1.00  0.00     0.033 A 
BRANCH   8  12
ATOM     12  C   UNL     1       1.560  -1.807  -3.208  1.00  0.00     0.222 C 
BRANCH  12  13
ATOM     13  C   UNL     1       2.130  -3.016  -2.506  1.00  0.00     0.240 C 
ATOM     14  N   UNL     1       1.637  -3.340  -1.263  1.00  0.00    -0.352 N 
ATOM     15  H   UNL     1       2.195  -3.932  -0.709  1.00  0.00     0.163 HD
ATOM     16  O   UNL     1       3.068  -3.662  -2.976  1.00  0.00    -0.273 OA
BRANCH  14  17
ATOM     17  C   UNL     1       0.403  -2.908  -0.689  1.00  0.00     0.085 C 
ATOM     18  C   UNL     1       1.112  -0.468   0.114  1.00  0.00     0.010 C 
ATOM     19  C   UNL     1       0.126  -1.573  -0.038  1.00  0.00     0.010 C 
ATOM     20  C   UNL     1       0.287  -2.801   0.810  1.00  0.00     0.030 C 
ENDBRANCH  14  17
ENDBRANCH  12  13
ENDBRANCH   8  12
ENDBRANCH   4   7
ENDBRANCH   2   3
ENDBRANCH   1   2
BRANCH   1  21
ATOM     21  C   UNL     1       3.723   2.710  -4.574  1.00  0.00     0.023 C 
BRANCH  21  22
ATOM     22  C   UNL     1       4.298   3.313  -3.287  1.00  0.00     0.116 C 
BRANCH  22  23
ATOM     23  N   UNL     1       5.330   2.473  -2.705  1.00  0.00    -0.352 N 
ATOM     24  C   UNL     1       6.023   2.656  -1.533  1.00  0.00     0.251 C 
ATOM     25  H   UNL     1       5.564   1.666  -3.218  1.00  0.00     0.163 HD
ATOM     26  O   UNL     1       7.108   2.114  -1.372  1.00  0.00    -0.269 OA
BRANCH  24  27
ATOM     27  C   UNL     1       5.478   3.511  -0.461  1.00  0.00     0.039 A 
ATOM     28  C   UNL     1       6.339   4.421   0.164  1.00  0.00     0.014 A 
ATOM     29  C   UNL     1       4.160   3.356  -0.013  1.00  0.00     0.014 A 
ATOM     30  C   UNL     1       5.863   5.222   1.195  1.00  0.00     0.010 A 
ATOM     31  C   UNL     1       3.675   4.166   1.009  1.00  0.00     0.010 A 
ATOM     32  C   UNL     1       4.524   5.114   1.597  1.00  0.00    -0.014 A 
BRANCH  32  33
ATOM     33  C   UNL     1       3.981   6.151   2.506  1.00  0.00     0.031 A 
ATOM     34  C   UNL     1       3.693   7.471   1.736  1.00  0.00     0.074 A 
ATOM     35  C   UNL     1       3.850   5.796   3.822  1.00  0.00     0.049 A 
ATOM     36  N   UNL     1       3.633   8.704   2.147  1.00  0.00    -0.248 NA
ATOM     37  C   UNL     1       3.482   7.404   0.260  1.00  0.00     0.031 C 
ATOM     38  C   UNL     1       4.101   4.439   4.362  1.00  0.00     0.029 A 
ATOM     39  N   UNL     1       3.493   6.473   4.972  1.00  0.00    -0.354 N 
ATOM     40  C   UNL     1       3.187   9.502   1.061  1.00  0.00     0.074 A 
ATOM     41  C   UNL     1       3.224   8.664  -0.096  1.00  0.00     0.031 C 
ATOM     42  C   UNL     1       3.975   4.415   5.707  1.00  0.00     0.029 A 
ATOM     43  C   UNL     1       3.634   5.738   6.187  1.00  0.00     0.049 A 
ATOM     44  H   UNL     1       3.163   7.401   4.955  1.00  0.00     0.167 HD
ATOM     45  C   UNL     1       2.682  10.765   1.211  1.00  0.00     0.037 A 
ATOM     46  C   UNL     1       3.535   6.184   7.481  1.00  0.00     0.037 A 
ATOM     47  C   UNL     1       2.776  11.159   2.573  1.00  0.00     0.049 A 
ATOM     48  C   UNL     1       3.077   7.570   7.350  1.00  0.00     0.074 A 
ATOM     49  C   UNL     1       3.826  11.572   3.345  1.00  0.00     0.029 A 
ATOM     50  N   UNL     1       1.719  10.835   3.383  1.00  0.00    -0.354 N 
ATOM     51  N   UNL     1       1.866   7.910   7.029  1.00  0.00    -0.248 NA
ATOM     52  C   UNL     1       4.056   8.654   7.483  1.00  0.00     0.031 C 
ATOM     53  C   UNL     1       3.530  11.029   4.612  1.00  0.00     0.029 A 
ATOM     54  C   UNL     1       2.235  10.497   4.606  1.00  0.00     0.049 A 
ATOM     55  H   UNL     1       0.766  10.845   3.132  1.00  0.00     0.167 HD
ATOM     56  C   UNL     1       2.035   9.202   6.599  1.00  0.00     0.074 A 
ATOM     57  C   UNL     1       3.264   9.681   7.189  1.00  0.00     0.031 C 
ATOM     58  C   UNL     1       1.471   9.594   5.430  1.00  0.00     0.037 A 
BRANCH  45  59
ATOM     59  C   UNL     1       1.862  11.666   0.318  1.00  0.00     0.064 A 
ATOM     60  C   UNL     1       1.737  13.035   0.683  1.00  0.00     0.173 A 
ATOM     61  C   UNL     1       0.917  11.191  -0.599  1.00  0.00     0.173 A 
ATOM     62  F   UNL     1       2.632  13.613   1.500  1.00  0.00    -0.203 F 
ATOM     63  C   UNL     1       0.645  13.811   0.299  1.00  0.00     0.198 A 
ATOM     64  C   UNL     1      -0.150  11.993  -1.026  1.00  0.00     0.198 A 
ATOM     65  F   UNL     1       0.940   9.921  -1.022  1.00  0.00    -0.203 F 
ATOM     66  F   UNL     1       0.489  15.043   0.804  1.00  0.00    -0.200 F 
ATOM     67  C   UNL     1      -0.313  13.280  -0.538  1.00  0.00     0.200 A 
ATOM     68  F   UNL     1      -1.071  11.481  -1.855  1.00  0.00    -0.200 F 
ATOM     69  F   UNL     1      -1.406  13.990  -0.848  1.00  0.00    -0.200 F 
ENDBRANCH  45  59
BRANCH  46  70
ATOM     70  C   UNL     1       3.825   5.718   8.897  1.00  0.00     0.064 A 
ATOM     71  C   UNL     1       4.168   4.420   9.291  1.00  0.00     0.173 A 
ATOM     72  C   UNL     1       3.845   6.667   9.966  1.00  0.00     0.173 A 
ATOM     73  F   UNL     1       4.066   3.393   8.442  1.00  0.00    -0.203 F 
ATOM     74  C   UNL     1       4.619   4.130  10.597  1.00  0.00     0.198 A 
ATOM     75  C   UNL     1       4.341   6.394  11.241  1.00  0.00     0.198 A 
ATOM     76  F   UNL     1       3.382   7.915   9.812  1.00  0.00    -0.203 F 
ATOM     77  F   UNL     1       4.947   2.871  10.923  1.00  0.00    -0.200 F 
ATOM     78  C   UNL     1       4.751   5.123  11.553  1.00  0.00     0.200 A 
ATOM     79  F   UNL     1       4.436   7.383  12.143  1.00  0.00    -0.200 F 
ATOM     80  F   UNL     1       5.253   4.858  12.767  1.00  0.00    -0.200 F 
ENDBRANCH  46  70
BRANCH  58  81
ATOM     81  C   UNL     1       0.317   8.710   4.980  1.00  0.00     0.064 A 
ATOM     82  C   UNL     1      -0.833   8.602   5.777  1.00  0.00     0.173 A 
ATOM     83  C   UNL     1       0.366   7.856   3.864  1.00  0.00     0.173 A 
ATOM     84  F   UNL     1      -0.976   9.393   6.851  1.00  0.00    -0.203 F 
ATOM     85  C   UNL     1      -1.846   7.680   5.491  1.00  0.00     0.198 A 
ATOM     86  C   UNL     1      -0.643   6.937   3.570  1.00  0.00     0.198 A 
ATOM     87  F   UNL     1       1.395   7.897   3.023  1.00  0.00    -0.203 F 
ATOM     88  F   UNL     1      -2.922   7.604   6.285  1.00  0.00    -0.200 F 
ATOM     89  C   UNL     1      -1.748   6.844   4.391  1.00  0.00     0.200 A 
ATOM     90  F   UNL     1      -0.540   6.149   2.488  1.00  0.00    -0.200 F 
ATOM     91  F   UNL     1      -2.722   5.965   4.113  1.00  0.00    -0.200 F 
ENDBRANCH  58  81
ENDBRANCH  32  33
ENDBRANCH  24  27
ENDBRANCH  22  23
ENDBRANCH  21  22
ENDBRANCH   1  21
TORSDOF 14
