REMARK SMILES CCOC(=O)c1c(S(=O)(=O)N2CCC[C@@H](C(=O)NCCCCNC(=O)c3ccc(-c4c5nc(c(-c6c(F)c(F)c(F)c(F)c6F)c6ccc([nH]6)c(-c6c(F)c(F)c(F)c(F)c6F)c6nc(c(-c7c(F)c(F)c(F)c(F)c7F)c7ccc4[nH]7)C=C6)C=C5)cc3)C2)c(C)n(C)c1C
REMARK SMILES IDX 19 1 18 2 16 3 17 4 15 6 11 7 12 8 89 9 13 10 14 11 8 12
REMARK SMILES IDX 9 13 10 14 7 15 6 16 94 17 90 18 92 19 95 20 91 21 93 22
REMARK SMILES IDX 4 23 5 24 3 25 2 26 1 27 20 28 21 29 22 30 23 31 24 32 25 34
REMARK SMILES IDX 26 35 27 36 88 37 28 38 87 39 29 40 30 41 31 42 81 43 32 44
REMARK SMILES IDX 86 45 80 46 82 47 33 48 85 49 79 50 78 51 34 53 66 54 46 55
REMARK SMILES IDX 65 56 47 57 50 58 64 59 83 60 48 61 49 62 63 64 84 65 51 66
REMARK SMILES IDX 35 67 36 68 44 69 37 70 38 71 42 72 45 73 39 74 40 75 43 76
REMARK SMILES IDX 41 77 67 78 68 79 76 80 69 81 70 82 74 83 77 84 71 85 72 86
REMARK SMILES IDX 75 87 73 88 52 89 53 90 61 91 54 92 55 93 59 94 62 95 56 96
REMARK SMILES IDX 57 97 60 98 58 99
REMARK H PARENT 18 5 23 33 82 52 50 63
REMARK Flexibility Score: inf
ROOT
ATOM      1  C   UNL     1       0.826   3.423   0.783  1.00  0.00     0.116 C 
ENDROOT
BRANCH   1   2
ATOM      2  N   UNL     1       0.978   2.695  -0.483  1.00  0.00    -0.356 N 
ATOM      3  C   UNL     1       1.925   1.924  -1.090  1.00  0.00     0.224 C 
ATOM      4  O   UNL     1       1.556   1.393  -2.147  1.00  0.00    -0.275 OA
ATOM      5  H   UNL     1       0.177   2.789  -1.048  1.00  0.00     0.163 HD
BRANCH   3   6
ATOM      6  C   UNL     1       3.371   1.706  -0.612  1.00  0.00     0.093 C 
ATOM      7  N   UNL     1       4.859   1.813   1.434  1.00  0.00    -0.197 NA
ATOM      8  C   UNL     1       5.465   0.500   1.167  1.00  0.00     0.102 C 
ATOM      9  C   UNL     1       3.593   2.170   0.794  1.00  0.00     0.116 C 
ATOM     10  C   UNL     1       5.219   0.022  -0.260  1.00  0.00     0.018 C 
ATOM     11  C   UNL     1       3.787   0.233  -0.741  1.00  0.00     0.016 C 
BRANCH   7  12
ATOM     12  S   UNL     1       4.993   2.412   3.014  1.00  0.00     0.245 S 
ATOM     13  O   UNL     1       4.597   3.809   2.953  1.00  0.00    -0.207 OA
ATOM     14  O   UNL     1       6.280   2.023   3.544  1.00  0.00    -0.207 OA
BRANCH  12  15
ATOM     15  C   UNL     1       3.854   1.769   4.185  1.00  0.00     0.118 A 
ATOM     16  C   UNL     1       2.825   0.772   4.077  1.00  0.00     0.101 A 
ATOM     17  C   UNL     1       2.282   0.625   5.358  1.00  0.00     0.030 A 
ATOM     18  C   UNL     1       3.792   2.284   5.483  1.00  0.00     0.035 A 
ATOM     19  N   UNL     1       2.871   1.548   6.190  1.00  0.00    -0.350 N 
ATOM     20  C   UNL     1       1.273  -0.365   5.850  1.00  0.00     0.065 C 
ATOM     21  C   UNL     1       4.559   3.426   6.073  1.00  0.00     0.066 C 
ATOM     22  C   UNL     1       2.598   1.714   7.605  1.00  0.00     0.149 C 
BRANCH  16  23
ATOM     23  C   UNL     1       2.357  -0.058   2.973  1.00  0.00     0.341 C 
ATOM     24  O   UNL     1       3.054  -0.861   2.379  1.00  0.00    -0.246 OA
BRANCH  23  25
ATOM     25  O   UNL     1       1.010   0.097   2.762  1.00  0.00    -0.462 OA
BRANCH  25  26
ATOM     26  C   UNL     1       0.351  -0.966   2.050  1.00  0.00     0.230 C 
ATOM     27  C   UNL     1       0.053  -0.571   0.620  1.00  0.00     0.049 C 
ENDBRANCH  25  26
ENDBRANCH  23  25
ENDBRANCH  16  23
ENDBRANCH  12  15
ENDBRANCH   7  12
ENDBRANCH   3   6
ENDBRANCH   1   2
BRANCH   1  28
ATOM     28  C   UNL     1       0.712   4.936   0.593  1.00  0.00     0.023 C 
BRANCH  28  29
ATOM     29  C   UNL     1      -0.725   5.443   0.421  1.00  0.00     0.023 C 
BRANCH  29  30
ATOM     30  C   UNL     1      -1.605   5.292   1.663  1.00  0.00     0.116 C 
BRANCH  30  31
ATOM     31  N   UNL     1      -1.122   6.055   2.808  1.00  0.00    -0.352 N 
ATOM     32  C   UNL     1      -1.577   6.003   4.109  1.00  0.00     0.251 C 
ATOM     33  H   UNL     1      -0.383   6.682   2.632  1.00  0.00     0.163 HD
ATOM     34  O   UNL     1      -1.369   6.921   4.893  1.00  0.00    -0.269 OA
BRANCH  32  35
ATOM     35  C   UNL     1      -2.338   4.822   4.547  1.00  0.00     0.039 A 
ATOM     36  C   UNL     1      -3.554   4.981   5.216  1.00  0.00     0.014 A 
ATOM     37  C   UNL     1      -1.843   3.551   4.250  1.00  0.00     0.014 A 
ATOM     38  C   UNL     1      -4.319   3.853   5.499  1.00  0.00     0.010 A 
ATOM     39  C   UNL     1      -2.638   2.441   4.460  1.00  0.00     0.010 A 
ATOM     40  C   UNL     1      -3.875   2.584   5.091  1.00  0.00    -0.014 A 
BRANCH  40  41
ATOM     41  C   UNL     1      -4.777   1.439   5.220  1.00  0.00     0.031 A 
ATOM     42  C   UNL     1      -6.116   1.589   4.577  1.00  0.00     0.074 A 
ATOM     43  C   UNL     1      -4.413   0.235   5.707  1.00  0.00     0.049 A 
ATOM     44  N   UNL     1      -7.276   1.587   5.148  1.00  0.00    -0.248 NA
ATOM     45  C   UNL     1      -6.168   1.834   3.128  1.00  0.00     0.031 C 
ATOM     46  C   UNL     1      -3.078  -0.227   6.090  1.00  0.00     0.029 A 
ATOM     47  N   UNL     1      -5.182  -0.881   5.868  1.00  0.00    -0.354 N 
ATOM     48  C   UNL     1      -8.221   1.684   4.127  1.00  0.00     0.074 A 
ATOM     49  C   UNL     1      -7.482   1.950   2.919  1.00  0.00     0.031 C 
ATOM     50  C   UNL     1      -3.091  -1.571   6.230  1.00  0.00     0.029 A 
ATOM     51  C   UNL     1      -4.460  -2.039   6.110  1.00  0.00     0.049 A 
ATOM     52  H   UNL     1      -6.165  -0.865   5.816  1.00  0.00     0.167 HD
ATOM     53  C   UNL     1      -9.527   1.351   4.330  1.00  0.00     0.037 A 
ATOM     54  C   UNL     1      -4.948  -3.300   6.183  1.00  0.00     0.037 A 
ATOM     55  C   UNL     1      -9.837   1.275   5.734  1.00  0.00     0.049 A 
ATOM     56  C   UNL     1      -6.400  -3.205   6.465  1.00  0.00     0.074 A 
ATOM     57  C   UNL     1      -9.814   2.164   6.790  1.00  0.00     0.029 A 
ATOM     58  N   UNL     1      -9.932   0.030   6.302  1.00  0.00    -0.354 N 
ATOM     59  N   UNL     1      -6.899  -2.794   7.596  1.00  0.00    -0.248 NA
ATOM     60  C   UNL     1      -7.323  -3.208   5.340  1.00  0.00     0.031 C 
ATOM     61  C   UNL     1      -9.398   1.390   7.914  1.00  0.00     0.029 A 
ATOM     62  C   UNL     1      -9.242   0.072   7.484  1.00  0.00     0.049 A 
ATOM     63  H   UNL     1     -10.407  -0.748   5.930  1.00  0.00     0.167 HD
ATOM     64  C   UNL     1      -8.033  -2.083   7.238  1.00  0.00     0.074 A 
ATOM     65  C   UNL     1      -8.312  -2.481   5.863  1.00  0.00     0.031 C 
ATOM     66  C   UNL     1      -8.467  -1.033   7.995  1.00  0.00     0.037 A 
BRANCH  53  67
ATOM     67  C   UNL     1     -10.451   0.758   3.292  1.00  0.00     0.064 A 
ATOM     68  C   UNL     1     -11.820   0.598   3.597  1.00  0.00     0.173 A 
ATOM     69  C   UNL     1      -9.997   0.057   2.156  1.00  0.00     0.173 A 
ATOM     70  F   UNL     1     -12.360   1.208   4.664  1.00  0.00    -0.203 F 
ATOM     71  C   UNL     1     -12.643  -0.271   2.875  1.00  0.00     0.198 A 
ATOM     72  C   UNL     1     -10.835  -0.767   1.405  1.00  0.00     0.198 A 
ATOM     73  F   UNL     1      -8.707   0.047   1.798  1.00  0.00    -0.203 F 
ATOM     74  F   UNL     1     -13.899  -0.496   3.287  1.00  0.00    -0.200 F 
ATOM     75  C   UNL     1     -12.147  -0.960   1.784  1.00  0.00     0.200 A 
ATOM     76  F   UNL     1     -10.332  -1.441   0.361  1.00  0.00    -0.200 F 
ATOM     77  F   UNL     1     -12.912  -1.845   1.133  1.00  0.00    -0.200 F 
ENDBRANCH  53  67
BRANCH  54  78
ATOM     78  C   UNL     1      -4.295  -4.574   5.814  1.00  0.00     0.064 A 
ATOM     79  C   UNL     1      -4.801  -5.804   6.264  1.00  0.00     0.173 A 
ATOM     80  C   UNL     1      -3.333  -4.627   4.787  1.00  0.00     0.173 A 
ATOM     81  F   UNL     1      -5.745  -5.838   7.215  1.00  0.00    -0.203 F 
ATOM     82  C   UNL     1      -4.397  -7.014   5.693  1.00  0.00     0.198 A 
ATOM     83  C   UNL     1      -2.924  -5.837   4.224  1.00  0.00     0.198 A 
ATOM     84  F   UNL     1      -2.841  -3.503   4.244  1.00  0.00    -0.203 F 
ATOM     85  F   UNL     1      -4.953  -8.164   6.101  1.00  0.00    -0.200 F 
ATOM     86  C   UNL     1      -3.469  -7.029   4.665  1.00  0.00     0.200 A 
ATOM     87  F   UNL     1      -2.049  -5.833   3.208  1.00  0.00    -0.200 F 
ATOM     88  F   UNL     1      -3.131  -8.182   4.072  1.00  0.00    -0.200 F 
ENDBRANCH  54  78
BRANCH  66  89
ATOM     89  C   UNL     1      -7.899  -0.882   9.377  1.00  0.00     0.064 A 
ATOM     90  C   UNL     1      -6.538  -0.668   9.656  1.00  0.00     0.173 A 
ATOM     91  C   UNL     1      -8.795  -0.828  10.454  1.00  0.00     0.173 A 
ATOM     92  F   UNL     1      -5.631  -0.600   8.673  1.00  0.00    -0.203 F 
ATOM     93  C   UNL     1      -6.093  -0.464  10.961  1.00  0.00     0.198 A 
ATOM     94  C   UNL     1      -8.353  -0.583  11.750  1.00  0.00     0.198 A 
ATOM     95  F   UNL     1     -10.113  -0.970  10.241  1.00  0.00    -0.203 F 
ATOM     96  F   UNL     1      -4.787  -0.284  11.205  1.00  0.00    -0.200 F 
ATOM     97  C   UNL     1      -7.002  -0.415  12.006  1.00  0.00     0.200 A 
ATOM     98  F   UNL     1      -9.241  -0.487  12.749  1.00  0.00    -0.200 F 
ATOM     99  F   UNL     1      -6.578  -0.181  13.255  1.00  0.00    -0.200 F 
ENDBRANCH  66  89
ENDBRANCH  40  41
ENDBRANCH  32  35
ENDBRANCH  30  31
ENDBRANCH  29  30
ENDBRANCH  28  29
ENDBRANCH   1  28
TORSDOF 16
