REMARK SMILES O=C(NCCCCNC(=O)[C@@H](Cc1ccc(O)cc1)Nc1c2ccccc2nc2ccccc12)c1ccc(-c2c3nc(c(-c4c(F)c(F)c(F)c(F)c4F)c4ccc([nH]4)c(-c4c(F)c(F)c(F)c(F)c4F)c4nc(c(-c5c(F)c(F)c(F)c(F)c5F)c5ccc2[nH]5)C=C4)C=C3)cc1
REMARK SMILES IDX 6 1 5 2 4 3 3 4 1 5 2 6 35 8 36 9 97 10 37 11 96 12 38 13
REMARK SMILES IDX 39 14 40 15 90 16 41 17 95 18 89 19 91 20 42 21 94 22 88 23
REMARK SMILES IDX 87 24 43 26 75 27 55 28 74 29 56 30 59 31 73 32 92 33 57 34
REMARK SMILES IDX 58 35 72 37 93 38 60 39 44 40 45 41 53 42 46 43 47 44 51 45
REMARK SMILES IDX 54 46 48 47 49 48 52 49 50 50 76 51 77 52 85 53 78 54 79 55
REMARK SMILES IDX 83 56 86 57 80 58 81 59 84 60 82 61 61 62 62 63 70 64 63 65
REMARK SMILES IDX 64 66 68 67 71 68 65 69 66 70 69 71 67 72 7 73 8 74 9 75
REMARK SMILES IDX 10 77 11 78 12 79 13 80 14 81 19 82 15 83 18 84 16 85 17 86
REMARK SMILES IDX 20 88 21 90 22 91 34 92 23 93 27 94 29 95 33 96 24 97 26 98
REMARK SMILES IDX 28 99 30 100 32 101 25 102 31 103
REMARK H PARENT 3 7 91 25 59 36 8 76 17 87 20 89
REMARK Flexibility Score: inf
ROOT
ATOM      1  C   UNL     1       5.535  -3.115  -1.308  1.00  0.00     0.023 C 
ENDROOT
BRANCH   1   2
ATOM      2  C   UNL     1       5.776  -2.237  -0.090  1.00  0.00     0.023 C 
BRANCH   2   3
ATOM      3  C   UNL     1       5.112  -0.869  -0.156  1.00  0.00     0.116 C 
BRANCH   3   4
ATOM      4  N   UNL     1       3.675  -0.887  -0.416  1.00  0.00    -0.352 N 
ATOM      5  O   UNL     1       1.545  -0.114  -0.303  1.00  0.00    -0.269 OA
ATOM      6  C   UNL     1       2.725   0.029  -0.012  1.00  0.00     0.251 C 
ATOM      7  H   UNL     1       3.343  -1.647  -0.945  1.00  0.00     0.163 HD
BRANCH   6   8
ATOM      8  C   UNL     1       3.168   1.153   0.843  1.00  0.00     0.039 A 
ATOM      9  C   UNL     1       4.266   1.921   0.460  1.00  0.00     0.014 A 
ATOM     10  C   UNL     1       2.592   1.317   2.105  1.00  0.00     0.014 A 
ATOM     11  C   UNL     1       4.928   2.678   1.417  1.00  0.00     0.010 A 
ATOM     12  C   UNL     1       3.203   2.166   3.035  1.00  0.00     0.010 A 
ATOM     13  C   UNL     1       4.421   2.790   2.725  1.00  0.00    -0.014 A 
BRANCH  13  14
ATOM     14  C   UNL     1       5.223   3.523   3.742  1.00  0.00     0.031 A 
ATOM     15  C   UNL     1       5.795   2.814   4.944  1.00  0.00     0.074 A 
ATOM     16  C   UNL     1       5.529   4.816   3.523  1.00  0.00     0.049 A 
ATOM     17  N   UNL     1       6.582   3.285   5.881  1.00  0.00    -0.248 NA
ATOM     18  C   UNL     1       5.434   1.400   5.129  1.00  0.00     0.031 C 
ATOM     19  C   UNL     1       5.040   5.615   2.398  1.00  0.00     0.029 A 
ATOM     20  N   UNL     1       6.362   5.670   4.200  1.00  0.00    -0.354 N 
ATOM     21  C   UNL     1       6.768   2.246   6.785  1.00  0.00     0.074 A 
ATOM     22  C   UNL     1       6.013   1.116   6.288  1.00  0.00     0.031 C 
ATOM     23  C   UNL     1       5.649   6.809   2.410  1.00  0.00     0.029 A 
ATOM     24  C   UNL     1       6.525   6.882   3.575  1.00  0.00     0.049 A 
ATOM     25  H   UNL     1       6.801   5.436   5.049  1.00  0.00     0.167 HD
ATOM     26  C   UNL     1       7.503   2.234   7.923  1.00  0.00     0.037 A 
ATOM     27  C   UNL     1       7.298   7.934   3.898  1.00  0.00     0.037 A 
ATOM     28  C   UNL     1       8.306   3.334   8.389  1.00  0.00     0.049 A 
ATOM     29  C   UNL     1       8.147   7.874   5.133  1.00  0.00     0.074 A 
ATOM     30  C   UNL     1       9.108   3.402   9.517  1.00  0.00     0.029 A 
ATOM     31  N   UNL     1       8.424   4.554   7.742  1.00  0.00    -0.354 N 
ATOM     32  N   UNL     1       8.302   6.887   5.980  1.00  0.00    -0.248 NA
ATOM     33  C   UNL     1       8.920   9.079   5.462  1.00  0.00     0.031 C 
ATOM     34  C   UNL     1       9.694   4.673   9.563  1.00  0.00     0.029 A 
ATOM     35  C   UNL     1       9.280   5.383   8.449  1.00  0.00     0.049 A 
ATOM     36  H   UNL     1       7.967   4.795   6.904  1.00  0.00     0.167 HD
ATOM     37  C   UNL     1       9.187   7.349   6.943  1.00  0.00     0.074 A 
ATOM     38  C   UNL     1       9.559   8.696   6.559  1.00  0.00     0.031 C 
ATOM     39  C   UNL     1       9.639   6.719   8.053  1.00  0.00     0.037 A 
BRANCH  26  40
ATOM     40  C   UNL     1       7.462   0.994   8.768  1.00  0.00     0.064 A 
ATOM     41  C   UNL     1       8.169  -0.164   8.416  1.00  0.00     0.173 A 
ATOM     42  C   UNL     1       6.749   0.989   9.976  1.00  0.00     0.173 A 
ATOM     43  F   UNL     1       8.855  -0.212   7.264  1.00  0.00    -0.203 F 
ATOM     44  C   UNL     1       8.153  -1.288   9.238  1.00  0.00     0.198 A 
ATOM     45  C   UNL     1       6.752  -0.129  10.806  1.00  0.00     0.198 A 
ATOM     46  F   UNL     1       6.061   2.075  10.359  1.00  0.00    -0.203 F 
ATOM     47  F   UNL     1       8.812  -2.396   8.870  1.00  0.00    -0.200 F 
ATOM     48  C   UNL     1       7.451  -1.268  10.435  1.00  0.00     0.200 A 
ATOM     49  F   UNL     1       6.080  -0.104  11.965  1.00  0.00    -0.200 F 
ATOM     50  F   UNL     1       7.444  -2.348  11.228  1.00  0.00    -0.200 F 
ENDBRANCH  26  40
BRANCH  27  51
ATOM     51  C   UNL     1       7.314   9.126   3.015  1.00  0.00     0.064 A 
ATOM     52  C   UNL     1       8.432   9.413   2.220  1.00  0.00     0.173 A 
ATOM     53  C   UNL     1       6.205   9.978   2.921  1.00  0.00     0.173 A 
ATOM     54  F   UNL     1       9.522   8.634   2.291  1.00  0.00    -0.203 F 
ATOM     55  C   UNL     1       8.441  10.513   1.366  1.00  0.00     0.198 A 
ATOM     56  C   UNL     1       6.206  11.063   2.048  1.00  0.00     0.198 A 
ATOM     57  F   UNL     1       5.111   9.739   3.659  1.00  0.00    -0.203 F 
ATOM     58  F   UNL     1       9.531  10.781   0.634  1.00  0.00    -0.200 F 
ATOM     59  C   UNL     1       7.325  11.331   1.274  1.00  0.00     0.200 A 
ATOM     60  F   UNL     1       5.120  11.841   1.951  1.00  0.00    -0.200 F 
ATOM     61  F   UNL     1       7.328  12.380   0.441  1.00  0.00    -0.200 F 
ENDBRANCH  27  51
BRANCH  39  62
ATOM     62  C   UNL     1      10.592   7.479   8.923  1.00  0.00     0.064 A 
ATOM     63  C   UNL     1      10.143   8.502   9.770  1.00  0.00     0.173 A 
ATOM     64  C   UNL     1      11.960   7.172   8.922  1.00  0.00     0.173 A 
ATOM     65  F   UNL     1       8.845   8.840   9.791  1.00  0.00    -0.203 F 
ATOM     66  C   UNL     1      11.036   9.208  10.571  1.00  0.00     0.198 A 
ATOM     67  C   UNL     1      12.847   7.868   9.738  1.00  0.00     0.198 A 
ATOM     68  F   UNL     1      12.434   6.200   8.129  1.00  0.00    -0.203 F 
ATOM     69  F   UNL     1      10.593  10.209  11.344  1.00  0.00    -0.200 F 
ATOM     70  C   UNL     1      12.386   8.888  10.557  1.00  0.00     0.200 A 
ATOM     71  F   UNL     1      14.150   7.556   9.727  1.00  0.00    -0.200 F 
ATOM     72  F   UNL     1      13.245   9.572  11.326  1.00  0.00    -0.200 F 
ENDBRANCH  39  62
ENDBRANCH  13  14
ENDBRANCH   6   8
ENDBRANCH   3   4
ENDBRANCH   2   3
ENDBRANCH   1   2
BRANCH   1  73
ATOM     73  C   UNL     1       6.086  -2.594  -2.632  1.00  0.00     0.116 C 
BRANCH  73  74
ATOM     74  N   UNL     1       7.285  -3.309  -3.002  1.00  0.00    -0.354 N 
ATOM     75  C   UNL     1       7.473  -4.461  -3.699  1.00  0.00     0.242 C 
ATOM     76  H   UNL     1       8.118  -2.885  -2.694  1.00  0.00     0.163 HD
ATOM     77  O   UNL     1       8.622  -4.924  -3.649  1.00  0.00    -0.273 OA
BRANCH  75  78
ATOM     78  C   UNL     1       6.380  -5.194  -4.527  1.00  0.00     0.173 C 
BRANCH  78  79
ATOM     79  C   UNL     1       5.311  -5.951  -3.693  1.00  0.00     0.070 C 
BRANCH  79  80
ATOM     80  C   UNL     1       4.054  -5.323  -3.120  1.00  0.00    -0.045 A 
ATOM     81  C   UNL     1       3.269  -4.372  -3.788  1.00  0.00     0.007 A 
ATOM     82  C   UNL     1       3.592  -5.790  -1.872  1.00  0.00     0.007 A 
ATOM     83  C   UNL     1       2.156  -3.788  -3.166  1.00  0.00     0.046 A 
ATOM     84  C   UNL     1       2.465  -5.233  -1.262  1.00  0.00     0.046 A 
ATOM     85  C   UNL     1       1.780  -4.207  -1.895  1.00  0.00     0.115 A 
BRANCH  85  86
ATOM     86  O   UNL     1       0.749  -3.627  -1.222  1.00  0.00    -0.508 OA
ATOM     87  H   UNL     1       0.263  -2.930  -1.618  1.00  0.00     0.293 HD
ENDBRANCH  85  86
ENDBRANCH  79  80
ENDBRANCH  78  79
BRANCH  78  88
ATOM     88  N   UNL     1       5.835  -4.354  -5.601  1.00  0.00    -0.372 N 
ATOM     89  H   UNL     1       5.320  -3.569  -5.306  1.00  0.00     0.161 HD
BRANCH  88  90
ATOM     90  C   UNL     1       5.949  -4.518  -6.992  1.00  0.00     0.054 A 
ATOM     91  C   UNL     1       6.057  -5.791  -7.664  1.00  0.00     0.024 A 
ATOM     92  C   UNL     1       5.951  -3.321  -7.800  1.00  0.00     0.024 A 
ATOM     93  C   UNL     1       6.001  -7.091  -7.082  1.00  0.00     0.012 A 
ATOM     94  C   UNL     1       6.198  -5.768  -9.069  1.00  0.00     0.073 A 
ATOM     95  C   UNL     1       6.056  -3.474  -9.197  1.00  0.00     0.073 A 
ATOM     96  C   UNL     1       5.863  -1.983  -7.312  1.00  0.00     0.012 A 
ATOM     97  C   UNL     1       6.151  -8.271  -7.817  1.00  0.00     0.001 A 
ATOM     98  C   UNL     1       6.339  -6.947  -9.790  1.00  0.00     0.029 A 
ATOM     99  N   UNL     1       6.189  -4.654  -9.798  1.00  0.00    -0.248 NA
ATOM    100  C   UNL     1       6.027  -2.364 -10.029  1.00  0.00     0.029 A 
ATOM    101  C   UNL     1       5.842  -0.876  -8.165  1.00  0.00     0.001 A 
ATOM    102  C   UNL     1       6.332  -8.198  -9.182  1.00  0.00     0.002 A 
ATOM    103  C   UNL     1       5.915  -1.068  -9.533  1.00  0.00     0.002 A 
ENDBRANCH  88  90
ENDBRANCH  78  88
ENDBRANCH  75  78
ENDBRANCH  73  74
ENDBRANCH   1  73
TORSDOF 16
