REMARK SMILES C[C@@H](C(=O)NCCCCNC(=O)c1ccc(-c2c3nc(c(-c4c(F)c(F)c(F)c(F)c4F)c4ccc([nH]4)c(-c4c(F)c(F)c(F)c(F)c4F)c4nc(c(-c5c(F)c(F)c(F)c(F)c5F)c5ccc2[nH]5)C=C4)C=C3)cc1)c1ccc(C[C@H]2CCC[C@H]2O)cc1-c1ccc(O)cc1
REMARK SMILES IDX 6 1 5 2 3 3 4 4 2 6 1 7 76 8 77 9 88 10 78 11 87 12 79 13
REMARK SMILES IDX 89 14 90 15 95 16 91 17 94 18 92 19 93 20 80 22 81 23 82 24
REMARK SMILES IDX 85 25 83 26 84 27 86 28 7 30 8 31 9 32 10 33 11 34 12 36
REMARK SMILES IDX 13 37 14 38 75 39 15 40 74 41 16 42 17 43 18 44 68 45 19 46
REMARK SMILES IDX 73 47 67 48 69 49 20 50 72 51 66 52 65 53 21 55 53 56 33 57
REMARK SMILES IDX 52 58 34 59 37 60 51 61 70 62 35 63 36 64 50 66 71 67 38 68
REMARK SMILES IDX 22 69 23 70 31 71 24 72 25 73 29 74 32 75 26 76 27 77 30 78
REMARK SMILES IDX 28 79 54 80 55 81 63 82 56 83 57 84 61 85 64 86 58 87 59 88
REMARK SMILES IDX 62 89 60 90 39 91 40 92 48 93 41 94 42 95 46 96 49 97 43 98
REMARK SMILES IDX 44 99 47 100 45 101
REMARK H PARENT 5 5 93 21 86 29 10 35 69 54 37 65
REMARK Flexibility Score: inf
ROOT
ATOM      1  C   UNL     1       3.494  -0.878   1.667  1.00  0.00     0.116 C 
ENDROOT
BRANCH   1   2
ATOM      2  N   UNL     1       2.389  -0.501   2.518  1.00  0.00    -0.356 N 
ATOM      3  C   UNL     1       1.063  -0.389   2.216  1.00  0.00     0.227 C 
ATOM      4  O   UNL     1       0.334   0.039   3.114  1.00  0.00    -0.274 OA
ATOM      5  H   UNL     1       2.627  -0.295   3.451  1.00  0.00     0.163 HD
BRANCH   3   6
ATOM      6  C   UNL     1       0.541  -0.830   0.830  1.00  0.00     0.106 C 
ATOM      7  C   UNL     1       1.022   0.102  -0.291  1.00  0.00     0.023 C 
BRANCH   6   8
ATOM      8  C   UNL     1      -0.987  -0.938   0.849  1.00  0.00    -0.028 A 
ATOM      9  C   UNL     1      -1.742   0.232   0.647  1.00  0.00     0.005 A 
ATOM     10  C   UNL     1      -1.665  -2.152   1.120  1.00  0.00    -0.014 A 
ATOM     11  C   UNL     1      -3.126   0.222   0.730  1.00  0.00     0.004 A 
ATOM     12  C   UNL     1      -3.067  -2.112   1.290  1.00  0.00     0.012 A 
ATOM     13  C   UNL     1      -3.798  -0.923   1.140  1.00  0.00    -0.047 A 
BRANCH  10  14
ATOM     14  C   UNL     1      -0.981  -3.459   1.160  1.00  0.00    -0.018 A 
ATOM     15  C   UNL     1      -1.201  -4.385   0.124  1.00  0.00     0.012 A 
ATOM     16  C   UNL     1      -0.080  -3.809   2.180  1.00  0.00     0.012 A 
ATOM     17  C   UNL     1      -0.521  -5.604   0.087  1.00  0.00     0.047 A 
ATOM     18  C   UNL     1       0.614  -5.026   2.138  1.00  0.00     0.047 A 
ATOM     19  C   UNL     1       0.391  -5.909   1.087  1.00  0.00     0.115 A 
BRANCH  19  20
ATOM     20  O   UNL     1       1.057  -7.095   0.994  1.00  0.00    -0.508 OA
ATOM     21  H   UNL     1       0.888  -7.672   0.275  1.00  0.00     0.293 HD
ENDBRANCH  19  20
ENDBRANCH  10  14
BRANCH  13  22
ATOM     22  C   UNL     1      -5.273  -0.850   1.441  1.00  0.00     0.041 C 
BRANCH  22  23
ATOM     23  C   UNL     1      -5.684  -0.279   2.813  1.00  0.00     0.022 C 
ATOM     24  C   UNL     1      -5.099  -1.006   4.036  1.00  0.00     0.007 C 
ATOM     25  C   UNL     1      -5.466   1.216   3.112  1.00  0.00     0.117 C 
ATOM     26  C   UNL     1      -5.023   0.039   5.154  1.00  0.00     0.003 C 
ATOM     27  C   UNL     1      -5.714   1.289   4.614  1.00  0.00     0.032 C 
BRANCH  25  28
ATOM     28  O   UNL     1      -4.162   1.711   2.866  1.00  0.00    -0.393 OA
ATOM     29  H   UNL     1      -3.523   1.224   3.410  1.00  0.00     0.210 HD
ENDBRANCH  25  28
ENDBRANCH  22  23
ENDBRANCH  13  22
ENDBRANCH   6   8
ENDBRANCH   3   6
ENDBRANCH   1   2
BRANCH   1  30
ATOM     30  C   UNL     1       4.257   0.358   1.188  1.00  0.00     0.023 C 
BRANCH  30  31
ATOM     31  C   UNL     1       5.024   1.096   2.287  1.00  0.00     0.023 C 
BRANCH  31  32
ATOM     32  C   UNL     1       6.023   0.242   3.057  1.00  0.00     0.116 C 
BRANCH  32  33
ATOM     33  N   UNL     1       7.005  -0.393   2.193  1.00  0.00    -0.352 N 
ATOM     34  C   UNL     1       8.357  -0.537   2.378  1.00  0.00     0.251 C 
ATOM     35  H   UNL     1       6.650  -0.773   1.357  1.00  0.00     0.163 HD
ATOM     36  O   UNL     1       9.058  -0.974   1.473  1.00  0.00    -0.269 OA
BRANCH  34  37
ATOM     37  C   UNL     1       8.970  -0.139   3.663  1.00  0.00     0.039 A 
ATOM     38  C   UNL     1      10.175   0.567   3.640  1.00  0.00     0.014 A 
ATOM     39  C   UNL     1       8.367  -0.463   4.881  1.00  0.00     0.014 A 
ATOM     40  C   UNL     1      10.752   0.985   4.840  1.00  0.00     0.010 A 
ATOM     41  C   UNL     1       8.897   0.029   6.069  1.00  0.00     0.010 A 
ATOM     42  C   UNL     1      10.105   0.742   6.063  1.00  0.00    -0.014 A 
BRANCH  42  43
ATOM     43  C   UNL     1      10.696   1.203   7.344  1.00  0.00     0.031 A 
ATOM     44  C   UNL     1      11.123   0.202   8.382  1.00  0.00     0.074 A 
ATOM     45  C   UNL     1      10.811   2.522   7.589  1.00  0.00     0.049 A 
ATOM     46  N   UNL     1      11.647   0.405   9.565  1.00  0.00    -0.248 NA
ATOM     47  C   UNL     1      10.906  -1.218   8.062  1.00  0.00     0.031 C 
ATOM     48  C   UNL     1      10.388   3.591   6.682  1.00  0.00     0.029 A 
ATOM     49  N   UNL     1      11.320   3.190   8.674  1.00  0.00    -0.354 N 
ATOM     50  C   UNL     1      11.806  -0.854  10.130  1.00  0.00     0.074 A 
ATOM     51  C   UNL     1      11.265  -1.810   9.190  1.00  0.00     0.031 C 
ATOM     52  C   UNL     1      10.692   4.778   7.230  1.00  0.00     0.029 A 
ATOM     53  C   UNL     1      11.294   4.556   8.541  1.00  0.00     0.049 A 
ATOM     54  H   UNL     1      11.671   2.732   9.473  1.00  0.00     0.167 HD
ATOM     55  C   UNL     1      12.376  -1.184  11.313  1.00  0.00     0.037 A 
ATOM     56  C   UNL     1      11.713   5.520   9.383  1.00  0.00     0.037 A 
ATOM     57  C   UNL     1      12.934  -0.229  12.234  1.00  0.00     0.049 A 
ATOM     58  C   UNL     1      12.332   5.126  10.698  1.00  0.00     0.074 A 
ATOM     59  C   UNL     1      13.593  -0.463  13.428  1.00  0.00     0.029 A 
ATOM     60  N   UNL     1      12.889   1.148  12.066  1.00  0.00    -0.354 N 
ATOM     61  N   UNL     1      12.555   3.929  11.185  1.00  0.00    -0.248 NA
ATOM     62  C   UNL     1      12.767   6.221  11.575  1.00  0.00     0.031 C 
ATOM     63  C   UNL     1      13.892   0.773  14.012  1.00  0.00     0.029 A 
ATOM     64  C   UNL     1      13.481   1.777  13.150  1.00  0.00     0.049 A 
ATOM     65  H   UNL     1      12.494   1.610  11.291  1.00  0.00     0.167 HD
ATOM     66  C   UNL     1      13.189   4.125  12.405  1.00  0.00     0.074 A 
ATOM     67  C   UNL     1      13.328   5.557  12.575  1.00  0.00     0.031 C 
ATOM     68  C   UNL     1      13.621   3.204  13.301  1.00  0.00     0.037 A 
BRANCH  55  69
ATOM     69  C   UNL     1      12.416  -2.642  11.681  1.00  0.00     0.064 A 
ATOM     70  C   UNL     1      13.204  -3.564  10.974  1.00  0.00     0.173 A 
ATOM     71  C   UNL     1      11.672  -3.120  12.771  1.00  0.00     0.173 A 
ATOM     72  F   UNL     1      13.928  -3.164   9.917  1.00  0.00    -0.203 F 
ATOM     73  C   UNL     1      13.213  -4.914  11.318  1.00  0.00     0.198 A 
ATOM     74  C   UNL     1      11.712  -4.463  13.134  1.00  0.00     0.198 A 
ATOM     75  F   UNL     1      10.906  -2.283  13.486  1.00  0.00    -0.203 F 
ATOM     76  F   UNL     1      13.923  -5.785  10.587  1.00  0.00    -0.200 F 
ATOM     77  C   UNL     1      12.473  -5.361  12.402  1.00  0.00     0.200 A 
ATOM     78  F   UNL     1      11.008  -4.891  14.192  1.00  0.00    -0.200 F 
ATOM     79  F   UNL     1      12.486  -6.659  12.734  1.00  0.00    -0.200 F 
ENDBRANCH  55  69
BRANCH  56  80
ATOM     80  C   UNL     1      11.601   6.951   8.994  1.00  0.00     0.064 A 
ATOM     81  C   UNL     1      12.747   7.718   8.740  1.00  0.00     0.173 A 
ATOM     82  C   UNL     1      10.355   7.586   8.880  1.00  0.00     0.173 A 
ATOM     83  F   UNL     1      13.963   7.162   8.855  1.00  0.00    -0.203 F 
ATOM     84  C   UNL     1      12.654   9.069   8.414  1.00  0.00     0.198 A 
ATOM     85  C   UNL     1      10.262   8.929   8.523  1.00  0.00     0.198 A 
ATOM     86  F   UNL     1       9.227   6.897   9.107  1.00  0.00    -0.203 F 
ATOM     87  F   UNL     1      13.769   9.789   8.229  1.00  0.00    -0.200 F 
ATOM     88  C   UNL     1      11.411   9.672   8.300  1.00  0.00     0.200 A 
ATOM     89  F   UNL     1       9.058   9.505   8.398  1.00  0.00    -0.200 F 
ATOM     90  F   UNL     1      11.322  10.971   7.984  1.00  0.00    -0.200 F 
ENDBRANCH  56  80
BRANCH  68  91
ATOM     91  C   UNL     1      14.330   3.713  14.525  1.00  0.00     0.064 A 
ATOM     92  C   UNL     1      13.659   4.423  15.531  1.00  0.00     0.173 A 
ATOM     93  C   UNL     1      15.701   3.466  14.701  1.00  0.00     0.173 A 
ATOM     94  F   UNL     1      12.351   4.699  15.407  1.00  0.00    -0.203 F 
ATOM     95  C   UNL     1      14.340   4.898  16.649  1.00  0.00     0.198 A 
ATOM     96  C   UNL     1      16.370   3.909  15.838  1.00  0.00     0.198 A 
ATOM     97  F   UNL     1      16.390   2.784  13.774  1.00  0.00    -0.203 F 
ATOM     98  F   UNL     1      13.691   5.628  17.566  1.00  0.00    -0.200 F 
ATOM     99  C   UNL     1      15.693   4.635  16.805  1.00  0.00     0.200 A 
ATOM    100  F   UNL     1      17.673   3.637  15.994  1.00  0.00    -0.200 F 
ATOM    101  F   UNL     1      16.346   5.089  17.883  1.00  0.00    -0.200 F 
ENDBRANCH  68  91
ENDBRANCH  42  43
ENDBRANCH  34  37
ENDBRANCH  32  33
ENDBRANCH  31  32
ENDBRANCH  30  31
ENDBRANCH   1  30
TORSDOF 17
