REMARK SMILES CN(CC(N)=O)c1ccc(S(N)(=O)=O)cc1C(=O)NCCCCNC(=O)c1ccc(-c2c3nc(c(-c4c(F)c(F)c(F)c(F)c4F)c4ccc([nH]4)c(-c4c(F)c(F)c(F)c(F)c4F)c4nc(c(-c5c(F)c(F)c(F)c(F)c5F)c5ccc2[nH]5)C=C4)C=C3)cc1
REMARK SMILES IDX 21 1 20 2 19 3 17 4 18 5 16 7 7 8 8 9 9 10 15 11 10 12 2 13
REMARK SMILES IDX 1 14 3 15 4 16 5 17 6 18 11 21 13 22 14 23 12 24 22 27 23 28
REMARK SMILES IDX 24 29 25 30 26 32 27 33 28 34 89 35 29 36 88 37 30 38 31 39
REMARK SMILES IDX 32 40 82 41 33 42 87 43 81 44 83 45 34 46 86 47 80 48 79 49
REMARK SMILES IDX 35 51 67 52 47 53 66 54 48 55 51 56 65 57 84 58 49 59 50 60
REMARK SMILES IDX 64 62 85 63 52 64 36 65 37 66 45 67 38 68 39 69 43 70 46 71
REMARK SMILES IDX 40 72 41 73 44 74 42 75 68 76 69 77 77 78 70 79 71 80 75 81
REMARK SMILES IDX 78 82 72 83 73 84 76 85 74 86 53 87 54 88 62 89 55 90 56 91
REMARK SMILES IDX 60 92 63 93 57 94 58 95 61 96 59 97
REMARK H PARENT 19 6 5 19 5 20 12 25 12 26 24 31 83 50 51 61
REMARK Flexibility Score: inf
ROOT
ATOM      1  C   UNL     1       2.673  -1.514   2.788  1.00  0.00     0.023 C 
ENDROOT
BRANCH   1   2
ATOM      2  C   UNL     1       2.192  -1.485   1.345  1.00  0.00     0.116 C 
BRANCH   2   3
ATOM      3  N   UNL     1       3.173  -1.182   0.340  1.00  0.00    -0.352 N 
ATOM      4  C   UNL     1       3.090  -1.368  -1.023  1.00  0.00     0.253 C 
ATOM      5  O   UNL     1       4.026  -0.932  -1.698  1.00  0.00    -0.269 OA
ATOM      6  H   UNL     1       4.014  -0.790   0.667  1.00  0.00     0.163 HD
BRANCH   4   7
ATOM      7  C   UNL     1       2.002  -2.134  -1.726  1.00  0.00     0.064 A 
ATOM      8  C   UNL     1       0.602  -2.063  -1.492  1.00  0.00     0.050 A 
ATOM      9  C   UNL     1      -0.247  -2.804  -2.346  1.00  0.00     0.028 A 
ATOM     10  C   UNL     1       0.237  -3.587  -3.392  1.00  0.00     0.024 A 
ATOM     11  C   UNL     1       2.482  -2.928  -2.799  1.00  0.00     0.037 A 
ATOM     12  C   UNL     1       1.604  -3.642  -3.618  1.00  0.00     0.083 A 
BRANCH   8  13
ATOM     13  N   UNL     1       0.006  -1.222  -0.554  1.00  0.00    -0.365 N 
ATOM     14  C   UNL     1      -0.212   0.153  -0.993  1.00  0.00     0.144 C 
BRANCH  13  15
ATOM     15  C   UNL     1      -0.876  -1.766   0.499  1.00  0.00     0.215 C 
BRANCH  15  16
ATOM     16  C   UNL     1      -2.269  -2.191   0.050  1.00  0.00     0.236 C 
ATOM     17  N   UNL     1      -2.555  -3.520   0.228  1.00  0.00    -0.368 N 
ATOM     18  O   UNL     1      -3.098  -1.431  -0.439  1.00  0.00    -0.273 OA
ATOM     19  H   UNL     1      -1.881  -4.120   0.621  1.00  0.00     0.159 HD
ATOM     20  H   UNL     1      -3.434  -3.874  -0.039  1.00  0.00     0.159 HD
ENDBRANCH  15  16
ENDBRANCH  13  15
ENDBRANCH   8  13
BRANCH  12  21
ATOM     21  S   UNL     1       2.199  -4.552  -5.011  1.00  0.00     0.238 S 
ATOM     22  O   UNL     1       1.408  -4.190  -6.169  1.00  0.00    -0.207 OA
ATOM     23  O   UNL     1       3.636  -4.556  -5.017  1.00  0.00    -0.207 OA
BRANCH  21  24
ATOM     24  N   UNL     1       1.748  -6.127  -4.626  1.00  0.00    -0.225 NA
ATOM     25  H   UNL     1       0.730  -6.193  -4.605  1.00  0.00     0.137 HD
ATOM     26  H   UNL     1       2.124  -6.374  -3.711  1.00  0.00     0.137 HD
ENDBRANCH  21  24
ENDBRANCH  12  21
ENDBRANCH   4   7
ENDBRANCH   2   3
ENDBRANCH   1   2
BRANCH   1  27
ATOM     27  C   UNL     1       3.268  -0.218   3.336  1.00  0.00     0.023 C 
BRANCH  27  28
ATOM     28  C   UNL     1       2.547   1.083   2.990  1.00  0.00     0.116 C 
BRANCH  28  29
ATOM     29  N   UNL     1       1.197   1.187   3.530  1.00  0.00    -0.352 N 
ATOM     30  C   UNL     1       0.668   2.042   4.471  1.00  0.00     0.251 C 
ATOM     31  H   UNL     1       0.556   0.538   3.159  1.00  0.00     0.163 HD
ATOM     32  O   UNL     1      -0.501   1.910   4.824  1.00  0.00    -0.269 OA
BRANCH  30  33
ATOM     33  C   UNL     1       1.507   3.085   5.103  1.00  0.00     0.039 A 
ATOM     34  C   UNL     1       1.455   3.242   6.492  1.00  0.00     0.014 A 
ATOM     35  C   UNL     1       2.356   3.895   4.348  1.00  0.00     0.014 A 
ATOM     36  C   UNL     1       2.335   4.124   7.128  1.00  0.00     0.010 A 
ATOM     37  C   UNL     1       3.294   4.702   4.987  1.00  0.00     0.010 A 
ATOM     38  C   UNL     1       3.304   4.817   6.386  1.00  0.00    -0.014 A 
BRANCH  38  39
ATOM     39  C   UNL     1       4.339   5.660   7.044  1.00  0.00     0.031 A 
ATOM     40  C   UNL     1       4.419   7.132   6.741  1.00  0.00     0.074 A 
ATOM     41  C   UNL     1       5.256   5.092   7.854  1.00  0.00     0.049 A 
ATOM     42  N   UNL     1       5.316   8.009   7.116  1.00  0.00    -0.248 NA
ATOM     43  C   UNL     1       3.366   7.685   5.875  1.00  0.00     0.031 C 
ATOM     44  C   UNL     1       5.322   3.670   8.197  1.00  0.00     0.029 A 
ATOM     45  N   UNL     1       6.320   5.642   8.527  1.00  0.00    -0.354 N 
ATOM     46  C   UNL     1       4.943   9.208   6.521  1.00  0.00     0.074 A 
ATOM     47  C   UNL     1       3.775   8.934   5.713  1.00  0.00     0.031 C 
ATOM     48  C   UNL     1       6.352   3.464   9.033  1.00  0.00     0.029 A 
ATOM     49  C   UNL     1       7.046   4.729   9.255  1.00  0.00     0.049 A 
ATOM     50  H   UNL     1       6.542   6.600   8.492  1.00  0.00     0.167 HD
ATOM     51  C   UNL     1       5.504  10.433   6.659  1.00  0.00     0.037 A 
ATOM     52  C   UNL     1       8.149   4.894  10.010  1.00  0.00     0.037 A 
ATOM     53  C   UNL     1       6.649  10.716   7.484  1.00  0.00     0.049 A 
ATOM     54  C   UNL     1       8.752   6.267  10.143  1.00  0.00     0.074 A 
ATOM     55  C   UNL     1       7.281  11.928   7.700  1.00  0.00     0.029 A 
ATOM     56  N   UNL     1       7.326   9.771   8.240  1.00  0.00    -0.354 N 
ATOM     57  N   UNL     1       8.364   7.398   9.607  1.00  0.00    -0.248 NA
ATOM     58  C   UNL     1       9.944   6.387  10.996  1.00  0.00     0.031 C 
ATOM     59  C   UNL     1       8.355  11.713   8.570  1.00  0.00     0.029 A 
ATOM     60  C   UNL     1       8.366  10.375   8.927  1.00  0.00     0.049 A 
ATOM     61  H   UNL     1       7.101   8.814   8.282  1.00  0.00     0.167 HD
ATOM     62  C   UNL     1       9.233   8.367  10.091  1.00  0.00     0.074 A 
ATOM     63  C   UNL     1      10.165   7.693  10.970  1.00  0.00     0.031 C 
ATOM     64  C   UNL     1       9.259   9.696   9.829  1.00  0.00     0.037 A 
BRANCH  51  65
ATOM     65  C   UNL     1       4.866  11.571   5.918  1.00  0.00     0.064 A 
ATOM     66  C   UNL     1       3.615  12.079   6.301  1.00  0.00     0.173 A 
ATOM     67  C   UNL     1       5.521  12.186   4.841  1.00  0.00     0.173 A 
ATOM     68  F   UNL     1       2.941  11.517   7.317  1.00  0.00    -0.203 F 
ATOM     69  C   UNL     1       3.032  13.142   5.618  1.00  0.00     0.198 A 
ATOM     70  C   UNL     1       4.949  13.269   4.178  1.00  0.00     0.198 A 
ATOM     71  F   UNL     1       6.722  11.744   4.438  1.00  0.00    -0.203 F 
ATOM     72  F   UNL     1       1.816  13.579   5.973  1.00  0.00    -0.200 F 
ATOM     73  C   UNL     1       3.702  13.741   4.562  1.00  0.00     0.200 A 
ATOM     74  F   UNL     1       5.603  13.855   3.166  1.00  0.00    -0.200 F 
ATOM     75  F   UNL     1       3.144  14.770   3.910  1.00  0.00    -0.200 F 
ENDBRANCH  51  65
BRANCH  52  76
ATOM     76  C   UNL     1       8.749   3.739  10.730  1.00  0.00     0.064 A 
ATOM     77  C   UNL     1       8.707   3.668  12.130  1.00  0.00     0.173 A 
ATOM     78  C   UNL     1       9.412   2.711  10.045  1.00  0.00     0.173 A 
ATOM     79  F   UNL     1       8.103   4.639  12.831  1.00  0.00    -0.203 F 
ATOM     80  C   UNL     1       9.335   2.632  12.819  1.00  0.00     0.198 A 
ATOM     81  C   UNL     1      10.014   1.659  10.734  1.00  0.00     0.198 A 
ATOM     82  F   UNL     1       9.478   2.728   8.706  1.00  0.00    -0.203 F 
ATOM     83  F   UNL     1       9.331   2.623  14.159  1.00  0.00    -0.200 F 
ATOM     84  C   UNL     1       9.986   1.627  12.120  1.00  0.00     0.200 A 
ATOM     85  F   UNL     1      10.633   0.683  10.055  1.00  0.00    -0.200 F 
ATOM     86  F   UNL     1      10.596   0.635  12.783  1.00  0.00    -0.200 F 
ENDBRANCH  52  76
BRANCH  64  87
ATOM     87  C   UNL     1      10.280  10.522  10.554  1.00  0.00     0.064 A 
ATOM     88  C   UNL     1      11.643  10.464  10.234  1.00  0.00     0.173 A 
ATOM     89  C   UNL     1       9.877  11.411  11.563  1.00  0.00     0.173 A 
ATOM     90  F   UNL     1      12.078   9.618   9.287  1.00  0.00    -0.203 F 
ATOM     91  C   UNL     1      12.571  11.246  10.915  1.00  0.00     0.198 A 
ATOM     92  C   UNL     1      10.805  12.212  12.223  1.00  0.00     0.198 A 
ATOM     93  F   UNL     1       8.583  11.508  11.903  1.00  0.00    -0.203 F 
ATOM     94  F   UNL     1      13.876  11.139  10.626  1.00  0.00    -0.200 F 
ATOM     95  C   UNL     1      12.151  12.123  11.904  1.00  0.00     0.200 A 
ATOM     96  F   UNL     1      10.395  13.068  13.170  1.00  0.00    -0.200 F 
ATOM     97  F   UNL     1      13.046  12.879  12.556  1.00  0.00    -0.200 F 
ENDBRANCH  64  87
ENDBRANCH  38  39
ENDBRANCH  30  33
ENDBRANCH  28  29
ENDBRANCH  27  28
ENDBRANCH   1  27
TORSDOF 16
