REMARK SMILES CC(=O)N1CCC(C(=O)Nc2sccc2C(=O)NCCCCNC(=O)c2ccc(-c3c4nc(c(-c5c(F)c(F)c(F)c(F)c5F)c5ccc([nH]5)c(-c5c(F)c(F)c(F)c(F)c5F)c5nc(c(-c6c(F)c(F)c(F)c(F)c6F)c6ccc3[nH]6)C=C5)C=C4)cc2)CC1
REMARK SMILES IDX 20 1 19 2 18 3 16 4 17 5 15 7 11 8 12 9 13 10 14 11 10 12
REMARK SMILES IDX 8 13 9 14 7 16 1 17 2 18 3 19 4 20 5 21 90 22 6 23 89 24
REMARK SMILES IDX 21 25 22 26 23 27 24 28 25 30 26 31 27 32 88 33 28 34 87 35
REMARK SMILES IDX 29 36 30 37 31 38 81 39 32 40 86 41 80 42 82 43 33 44 85 45
REMARK SMILES IDX 79 46 78 47 34 49 66 50 46 51 65 52 47 53 50 54 64 55 83 56
REMARK SMILES IDX 48 57 49 58 63 60 84 61 51 62 35 63 36 64 44 65 37 66 38 67
REMARK SMILES IDX 42 68 45 69 39 70 40 71 43 72 41 73 67 74 68 75 76 76 69 77
REMARK SMILES IDX 70 78 74 79 77 80 71 81 72 82 75 83 73 84 52 85 53 86 61 87
REMARK SMILES IDX 54 88 55 89 59 90 62 91 56 92 57 93 60 94 58 95
REMARK H PARENT 18 6 10 15 23 29 82 48 50 59
REMARK Flexibility Score: inf
ROOT
ATOM      1  C   UNL     1       0.295  -1.424  -9.171  1.00  0.00     0.023 C 
ENDROOT
BRANCH   1   2
ATOM      2  C   UNL     1       0.596  -1.773  -7.718  1.00  0.00     0.116 C 
BRANCH   2   3
ATOM      3  N   UNL     1      -0.555  -1.822  -6.854  1.00  0.00    -0.352 N 
ATOM      4  C   UNL     1      -0.699  -2.350  -5.593  1.00  0.00     0.254 C 
ATOM      5  O   UNL     1      -1.839  -2.302  -5.126  1.00  0.00    -0.269 OA
ATOM      6  H   UNL     1      -1.370  -1.412  -7.226  1.00  0.00     0.163 HD
BRANCH   4   7
ATOM      7  C   UNL     1       0.397  -2.982  -4.829  1.00  0.00     0.074 A 
ATOM      8  C   UNL     1       1.780  -2.880  -4.907  1.00  0.00     0.108 A 
ATOM      9  S   UNL     1       2.580  -4.123  -4.039  1.00  0.00    -0.126 S 
ATOM     10  C   UNL     1       1.160  -4.528  -3.198  1.00  0.00     0.068 A 
ATOM     11  C   UNL     1       0.074  -3.865  -3.719  1.00  0.00     0.028 A 
BRANCH   8  12
ATOM     12  N   UNL     1       2.701  -2.116  -5.581  1.00  0.00    -0.317 N 
ATOM     13  C   UNL     1       2.877  -0.767  -5.649  1.00  0.00     0.228 C 
ATOM     14  O   UNL     1       3.626  -0.352  -6.545  1.00  0.00    -0.274 OA
ATOM     15  H   UNL     1       3.349  -2.637  -6.109  1.00  0.00     0.170 HD
BRANCH  13  16
ATOM     16  C   UNL     1       2.344   0.231  -4.621  1.00  0.00     0.082 C 
ATOM     17  C   UNL     1       1.149  -0.173   0.182  1.00  0.00     0.114 C 
ATOM     18  C   UNL     1       0.463  -0.035  -1.153  1.00  0.00     0.219 C 
ATOM     19  O   UNL     1      -0.636  -0.556  -1.342  1.00  0.00    -0.275 OA
ATOM     20  N   UNL     1       1.093   0.757  -2.103  1.00  0.00    -0.343 N 
ATOM     21  C   UNL     1       0.366   1.154  -3.300  1.00  0.00     0.120 C 
ATOM     22  C   UNL     1       2.534   0.939  -2.194  1.00  0.00     0.120 C 
ATOM     23  C   UNL     1       0.826   0.322  -4.487  1.00  0.00     0.035 C 
ATOM     24  C   UNL     1       3.072   0.012  -3.282  1.00  0.00     0.035 C 
ENDBRANCH  13  16
ENDBRANCH   8  12
ENDBRANCH   4   7
ENDBRANCH   2   3
ENDBRANCH   1   2
BRANCH   1  25
ATOM     25  C   UNL     1      -0.055   0.046  -9.429  1.00  0.00     0.023 C 
BRANCH  25  26
ATOM     26  C   UNL     1       0.979   1.084  -8.980  1.00  0.00     0.116 C 
BRANCH  26  27
ATOM     27  N   UNL     1       2.273   0.946  -9.632  1.00  0.00    -0.352 N 
ATOM     28  C   UNL     1       2.860   1.692 -10.631  1.00  0.00     0.251 C 
ATOM     29  H   UNL     1       2.820   0.195  -9.306  1.00  0.00     0.163 HD
ATOM     30  O   UNL     1       3.900   1.317 -11.156  1.00  0.00    -0.269 OA
BRANCH  28  31
ATOM     31  C   UNL     1       2.221   2.943 -11.101  1.00  0.00     0.039 A 
ATOM     32  C   UNL     1       2.091   3.161 -12.475  1.00  0.00     0.014 A 
ATOM     33  C   UNL     1       1.763   3.903 -10.197  1.00  0.00     0.014 A 
ATOM     34  C   UNL     1       1.403   4.287 -12.937  1.00  0.00     0.010 A 
ATOM     35  C   UNL     1       1.008   4.982 -10.655  1.00  0.00     0.010 A 
ATOM     36  C   UNL     1       0.802   5.176 -12.029  1.00  0.00    -0.014 A 
BRANCH  36  37
ATOM     37  C   UNL     1      -0.090   6.270 -12.499  1.00  0.00     0.031 A 
ATOM     38  C   UNL     1       0.244   7.710 -12.230  1.00  0.00     0.074 A 
ATOM     39  C   UNL     1      -1.256   5.955 -13.100  1.00  0.00     0.049 A 
ATOM     40  N   UNL     1      -0.449   8.787 -12.508  1.00  0.00    -0.248 NA
ATOM     41  C   UNL     1       1.510   7.976 -11.532  1.00  0.00     0.031 C 
ATOM     42  C   UNL     1      -1.729   4.595 -13.363  1.00  0.00     0.029 A 
ATOM     43  N   UNL     1      -2.263   6.755 -13.585  1.00  0.00    -0.354 N 
ATOM     44  C   UNL     1       0.288   9.852 -12.009  1.00  0.00     0.074 A 
ATOM     45  C   UNL     1       1.456   9.290 -11.365  1.00  0.00     0.031 C 
ATOM     46  C   UNL     1      -2.921   4.654 -13.977  1.00  0.00     0.029 A 
ATOM     47  C   UNL     1      -3.319   6.051 -14.112  1.00  0.00     0.049 A 
ATOM     48  H   UNL     1      -2.231   7.738 -13.557  1.00  0.00     0.167 HD
ATOM     49  C   UNL     1       0.024  11.179 -12.096  1.00  0.00     0.037 A 
ATOM     50  C   UNL     1      -4.485   6.479 -14.633  1.00  0.00     0.037 A 
ATOM     51  C   UNL     1      -1.132  11.735 -12.752  1.00  0.00     0.049 A 
ATOM     52  C   UNL     1      -4.757   7.957 -14.714  1.00  0.00     0.074 A 
ATOM     53  C   UNL     1      -1.444  13.067 -12.966  1.00  0.00     0.029 A 
ATOM     54  N   UNL     1      -2.173  10.992 -13.289  1.00  0.00    -0.354 N 
ATOM     55  N   UNL     1      -4.008   8.958 -14.322  1.00  0.00    -0.248 NA
ATOM     56  C   UNL     1      -6.034   8.363 -15.315  1.00  0.00     0.031 C 
ATOM     57  C   UNL     1      -2.704  13.131 -13.572  1.00  0.00     0.029 A 
ATOM     58  C   UNL     1      -3.148  11.838 -13.797  1.00  0.00     0.049 A 
ATOM     59  H   UNL     1      -2.214  10.008 -13.307  1.00  0.00     0.167 HD
ATOM     60  C   UNL     1      -4.711  10.111 -14.644  1.00  0.00     0.074 A 
ATOM     61  C   UNL     1      -5.937   9.685 -15.286  1.00  0.00     0.031 C 
ATOM     62  C   UNL     1      -4.371  11.405 -14.426  1.00  0.00     0.037 A 
BRANCH  49  63
ATOM     63  C   UNL     1       1.000  12.127 -11.458  1.00  0.00     0.064 A 
ATOM     64  C   UNL     1       2.295  12.309 -11.965  1.00  0.00     0.173 A 
ATOM     65  C   UNL     1       0.620  12.896 -10.346  1.00  0.00     0.173 A 
ATOM     66  F   UNL     1       2.713  11.596 -13.022  1.00  0.00    -0.203 F 
ATOM     67  C   UNL     1       3.184  13.197 -11.364  1.00  0.00     0.198 A 
ATOM     68  C   UNL     1       1.499  13.808  -9.769  1.00  0.00     0.198 A 
ATOM     69  F   UNL     1      -0.610  12.771  -9.825  1.00  0.00    -0.203 F 
ATOM     70  F   UNL     1       4.434  13.313 -11.834  1.00  0.00    -0.200 F 
ATOM     71  C   UNL     1       2.783  13.951 -10.271  1.00  0.00     0.200 A 
ATOM     72  F   UNL     1       1.104  14.547  -8.723  1.00  0.00    -0.200 F 
ATOM     73  F   UNL     1       3.637  14.810  -9.698  1.00  0.00    -0.200 F 
ENDBRANCH  49  63
BRANCH  50  74
ATOM     74  C   UNL     1      -5.480   5.490 -15.127  1.00  0.00     0.064 A 
ATOM     75  C   UNL     1      -5.761   5.369 -16.495  1.00  0.00     0.173 A 
ATOM     76  C   UNL     1      -6.164   4.643 -14.243  1.00  0.00     0.173 A 
ATOM     77  F   UNL     1      -5.149   6.171 -17.378  1.00  0.00    -0.203 F 
ATOM     78  C   UNL     1      -6.701   4.449 -16.957  1.00  0.00     0.198 A 
ATOM     79  C   UNL     1      -7.079   3.702 -14.710  1.00  0.00     0.198 A 
ATOM     80  F   UNL     1      -5.928   4.715 -12.925  1.00  0.00    -0.203 F 
ATOM     81  F   UNL     1      -6.983   4.385 -18.266  1.00  0.00    -0.200 F 
ATOM     82  C   UNL     1      -7.353   3.611 -16.066  1.00  0.00     0.200 A 
ATOM     83  F   UNL     1      -7.694   2.882 -13.846  1.00  0.00    -0.200 F 
ATOM     84  F   UNL     1      -8.249   2.721 -16.512  1.00  0.00    -0.200 F 
ENDBRANCH  50  74
BRANCH  62  85
ATOM     85  C   UNL     1      -5.331  12.459 -14.900  1.00  0.00     0.064 A 
ATOM     86  C   UNL     1      -6.571  12.662 -14.274  1.00  0.00     0.173 A 
ATOM     87  C   UNL     1      -4.992  13.302 -15.969  1.00  0.00     0.173 A 
ATOM     88  F   UNL     1      -6.950  11.873 -13.257  1.00  0.00    -0.203 F 
ATOM     89  C   UNL     1      -7.445  13.650 -14.720  1.00  0.00     0.198 A 
ATOM     90  C   UNL     1      -5.854  14.311 -16.390  1.00  0.00     0.198 A 
ATOM     91  F   UNL     1      -3.816  13.157 -16.599  1.00  0.00    -0.203 F 
ATOM     92  F   UNL     1      -8.646  13.790 -14.140  1.00  0.00    -0.200 F 
ATOM     93  C   UNL     1      -7.083  14.479 -15.771  1.00  0.00     0.200 A 
ATOM     94  F   UNL     1      -5.495  15.121 -17.395  1.00  0.00    -0.200 F 
ATOM     95  F   UNL     1      -7.923  15.434 -16.192  1.00  0.00    -0.200 F 
ENDBRANCH  62  85
ENDBRANCH  36  37
ENDBRANCH  28  31
ENDBRANCH  26  27
ENDBRANCH  25  26
ENDBRANCH   1  25
TORSDOF 13
