REMARK SMILES O=C(NCCCCNC(=O)c1ccc(-c2c3nc(c(-c4c(F)c(F)c(F)c(F)c4F)c4ccc([nH]4)c(-c4c(F)c(F)c(F)c(F)c4F)c4nc(c(-c5c(F)c(F)c(F)c(F)c5F)c5ccc2[nH]5)C=C4)C=C3)cc1)c1ccc(C[C@H]2SC(=O)N(c3ccccc3)C2=O)cc1
REMARK SMILES IDX 5 1 4 2 3 3 1 4 2 5 74 7 75 8 93 9 76 10 92 11 77 12 78 13
REMARK SMILES IDX 79 14 80 15 90 16 81 17 83 18 91 19 82 20 84 21 85 22 89 23
REMARK SMILES IDX 86 24 88 25 87 26 6 27 7 28 8 29 9 30 10 32 11 33 12 34
REMARK SMILES IDX 73 35 13 36 72 37 14 38 15 39 16 40 66 41 17 42 71 43 65 44
REMARK SMILES IDX 67 45 18 46 70 47 64 48 63 49 19 51 51 52 31 53 50 54 32 55
REMARK SMILES IDX 35 56 49 57 68 58 33 59 34 60 48 62 69 63 36 64 20 65 21 66
REMARK SMILES IDX 29 67 22 68 23 69 27 70 30 71 24 72 25 73 28 74 26 75 52 76
REMARK SMILES IDX 53 77 61 78 54 79 55 80 59 81 62 82 56 83 57 84 60 85 58 86
REMARK SMILES IDX 37 87 38 88 46 89 39 90 40 91 44 92 47 93 41 94 42 95 45 96
REMARK SMILES IDX 43 97
REMARK H PARENT 3 6 8 31 67 50 35 61
REMARK Flexibility Score: inf
ROOT
ATOM      1  C   UNL     1       5.514   7.034  -4.761  1.00  0.00     0.023 C 
ENDROOT
BRANCH   1   2
ATOM      2  C   UNL     1       6.883   7.195  -4.106  1.00  0.00     0.116 C 
BRANCH   2   3
ATOM      3  N   UNL     1       7.237   8.590  -3.891  1.00  0.00    -0.352 N 
ATOM      4  O   UNL     1       7.642  10.451  -2.667  1.00  0.00    -0.269 OA
ATOM      5  C   UNL     1       7.498   9.235  -2.704  1.00  0.00     0.251 C 
ATOM      6  H   UNL     1       7.298   9.146  -4.701  1.00  0.00     0.163 HD
BRANCH   5   7
ATOM      7  C   UNL     1       7.576   8.437  -1.466  1.00  0.00     0.039 A 
ATOM      8  C   UNL     1       8.491   7.388  -1.366  1.00  0.00     0.014 A 
ATOM      9  C   UNL     1       6.688   8.707  -0.424  1.00  0.00     0.014 A 
ATOM     10  C   UNL     1       8.444   6.539  -0.263  1.00  0.00     0.004 A 
ATOM     11  C   UNL     1       6.637   7.846   0.676  1.00  0.00     0.004 A 
ATOM     12  C   UNL     1       7.486   6.730   0.745  1.00  0.00    -0.046 A 
BRANCH  12  13
ATOM     13  C   UNL     1       7.357   5.727   1.871  1.00  0.00     0.060 C 
BRANCH  13  14
ATOM     14  C   UNL     1       6.501   4.489   1.533  1.00  0.00     0.151 C 
ATOM     15  S   UNL     1       7.225   3.431   0.251  1.00  0.00    -0.050 SA
ATOM     16  C   UNL     1       6.426   3.599   2.759  1.00  0.00     0.248 C 
ATOM     17  C   UNL     1       7.863   2.300   1.425  1.00  0.00     0.293 C 
ATOM     18  N   UNL     1       7.271   2.502   2.652  1.00  0.00    -0.240 N 
ATOM     19  O   UNL     1       5.759   3.926   3.738  1.00  0.00    -0.273 OA
ATOM     20  O   UNL     1       8.678   1.460   1.089  1.00  0.00    -0.261 OA
BRANCH  18  21
ATOM     21  C   UNL     1       7.518   1.626   3.749  1.00  0.00     0.053 A 
ATOM     22  C   UNL     1       6.487   1.258   4.625  1.00  0.00     0.027 A 
ATOM     23  C   UNL     1       8.803   1.112   3.982  1.00  0.00     0.027 A 
ATOM     24  C   UNL     1       6.731   0.395   5.697  1.00  0.00     0.002 A 
ATOM     25  C   UNL     1       9.054   0.277   5.074  1.00  0.00     0.002 A 
ATOM     26  C   UNL     1       8.017  -0.086   5.928  1.00  0.00     0.000 A 
ENDBRANCH  18  21
ENDBRANCH  13  14
ENDBRANCH  12  13
ENDBRANCH   5   7
ENDBRANCH   2   3
ENDBRANCH   1   2
BRANCH   1  27
ATOM     27  C   UNL     1       5.394   7.623  -6.164  1.00  0.00     0.023 C 
BRANCH  27  28
ATOM     28  C   UNL     1       6.438   7.140  -7.162  1.00  0.00     0.116 C 
BRANCH  28  29
ATOM     29  N   UNL     1       6.383   5.705  -7.397  1.00  0.00    -0.352 N 
ATOM     30  C   UNL     1       6.295   5.020  -8.586  1.00  0.00     0.251 C 
ATOM     31  H   UNL     1       6.413   5.144  -6.589  1.00  0.00     0.163 HD
ATOM     32  O   UNL     1       6.119   3.806  -8.589  1.00  0.00    -0.269 OA
BRANCH  30  33
ATOM     33  C   UNL     1       6.378   5.755  -9.867  1.00  0.00     0.039 A 
ATOM     34  C   UNL     1       5.452   5.468 -10.873  1.00  0.00     0.014 A 
ATOM     35  C   UNL     1       7.351   6.737 -10.069  1.00  0.00     0.014 A 
ATOM     36  C   UNL     1       5.454   6.218 -12.051  1.00  0.00     0.010 A 
ATOM     37  C   UNL     1       7.296   7.540 -11.204  1.00  0.00     0.010 A 
ATOM     38  C   UNL     1       6.349   7.289 -12.209  1.00  0.00    -0.014 A 
BRANCH  38  39
ATOM     39  C   UNL     1       6.318   8.155 -13.416  1.00  0.00     0.031 A 
ATOM     40  C   UNL     1       7.514   8.223 -14.325  1.00  0.00     0.074 A 
ATOM     41  C   UNL     1       5.242   8.930 -13.659  1.00  0.00     0.049 A 
ATOM     42  N   UNL     1       7.717   8.979 -15.375  1.00  0.00    -0.248 NA
ATOM     43  C   UNL     1       8.647   7.344 -13.994  1.00  0.00     0.031 C 
ATOM     44  C   UNL     1       4.036   8.987 -12.832  1.00  0.00     0.029 A 
ATOM     45  N   UNL     1       4.996   9.831 -14.666  1.00  0.00    -0.354 N 
ATOM     46  C   UNL     1       8.999   8.678 -15.816  1.00  0.00     0.074 A 
ATOM     47  C   UNL     1       9.550   7.714 -14.889  1.00  0.00     0.031 C 
ATOM     48  C   UNL     1       3.170   9.857 -13.376  1.00  0.00     0.029 A 
ATOM     49  C   UNL     1       3.776  10.455 -14.561  1.00  0.00     0.049 A 
ATOM     50  H   UNL     1       5.633  10.013 -15.394  1.00  0.00     0.167 HD
ATOM     51  C   UNL     1       9.648   9.143 -16.910  1.00  0.00     0.037 A 
ATOM     52  C   UNL     1       3.216  11.413 -15.326  1.00  0.00     0.037 A 
ATOM     53  C   UNL     1       9.089  10.087 -17.842  1.00  0.00     0.049 A 
ATOM     54  C   UNL     1       3.971  11.931 -16.522  1.00  0.00     0.074 A 
ATOM     55  C   UNL     1       9.646  10.579 -19.009  1.00  0.00     0.029 A 
ATOM     56  N   UNL     1       7.845  10.686 -17.708  1.00  0.00    -0.354 N 
ATOM     57  N   UNL     1       5.155  11.588 -16.968  1.00  0.00    -0.248 NA
ATOM     58  C   UNL     1       3.307  12.968 -17.326  1.00  0.00     0.031 C 
ATOM     59  C   UNL     1       8.766  11.521 -19.550  1.00  0.00     0.029 A 
ATOM     60  C   UNL     1       7.629  11.564 -18.759  1.00  0.00     0.049 A 
ATOM     61  H   UNL     1       7.209  10.514 -16.976  1.00  0.00     0.167 HD
ATOM     62  C   UNL     1       5.361  12.335 -18.121  1.00  0.00     0.074 A 
ATOM     63  C   UNL     1       4.174  13.141 -18.313  1.00  0.00     0.031 C 
ATOM     64  C   UNL     1       6.435  12.349 -18.948  1.00  0.00     0.037 A 
BRANCH  51  65
ATOM     65  C   UNL     1      11.041   8.639 -17.161  1.00  0.00     0.064 A 
ATOM     66  C   UNL     1      11.289   7.306 -17.526  1.00  0.00     0.173 A 
ATOM     67  C   UNL     1      12.139   9.509 -17.079  1.00  0.00     0.173 A 
ATOM     68  F   UNL     1      10.278   6.428 -17.609  1.00  0.00    -0.203 F 
ATOM     69  C   UNL     1      12.585   6.858 -17.768  1.00  0.00     0.198 A 
ATOM     70  C   UNL     1      13.429   9.066 -17.356  1.00  0.00     0.198 A 
ATOM     71  F   UNL     1      11.959  10.795 -16.741  1.00  0.00    -0.203 F 
ATOM     72  F   UNL     1      12.802   5.568 -18.062  1.00  0.00    -0.200 F 
ATOM     73  C   UNL     1      13.653   7.739 -17.692  1.00  0.00     0.200 A 
ATOM     74  F   UNL     1      14.457   9.924 -17.299  1.00  0.00    -0.200 F 
ATOM     75  F   UNL     1      14.898   7.309 -17.936  1.00  0.00    -0.200 F 
ENDBRANCH  51  65
BRANCH  52  76
ATOM     76  C   UNL     1       1.863  11.938 -14.997  1.00  0.00     0.064 A 
ATOM     77  C   UNL     1       0.772  11.704 -15.845  1.00  0.00     0.173 A 
ATOM     78  C   UNL     1       1.637  12.703 -13.843  1.00  0.00     0.173 A 
ATOM     79  F   UNL     1       0.940  10.995 -16.972  1.00  0.00    -0.203 F 
ATOM     80  C   UNL     1      -0.485  12.238 -15.569  1.00  0.00     0.198 A 
ATOM     81  C   UNL     1       0.372  13.208 -13.550  1.00  0.00     0.198 A 
ATOM     82  F   UNL     1       2.644  12.953 -12.994  1.00  0.00    -0.203 F 
ATOM     83  F   UNL     1      -1.495  12.047 -16.428  1.00  0.00    -0.200 F 
ATOM     84  C   UNL     1      -0.685  12.986 -14.419  1.00  0.00     0.200 A 
ATOM     85  F   UNL     1       0.179  13.916 -12.428  1.00  0.00    -0.200 F 
ATOM     86  F   UNL     1      -1.894  13.499 -14.153  1.00  0.00    -0.200 F 
ENDBRANCH  52  76
BRANCH  64  87
ATOM     87  C   UNL     1       6.361  13.222 -20.169  1.00  0.00     0.064 A 
ATOM     88  C   UNL     1       6.397  14.621 -20.085  1.00  0.00     0.173 A 
ATOM     89  C   UNL     1       6.299  12.643 -21.447  1.00  0.00     0.173 A 
ATOM     90  F   UNL     1       6.442  15.226 -18.888  1.00  0.00    -0.203 F 
ATOM     91  C   UNL     1       6.347  15.408 -21.233  1.00  0.00     0.198 A 
ATOM     92  C   UNL     1       6.286  13.432 -22.593  1.00  0.00     0.198 A 
ATOM     93  F   UNL     1       6.270  11.309 -21.584  1.00  0.00    -0.203 F 
ATOM     94  F   UNL     1       6.330  16.744 -21.126  1.00  0.00    -0.200 F 
ATOM     95  C   UNL     1       6.301  14.814 -22.485  1.00  0.00     0.200 A 
ATOM     96  F   UNL     1       6.260  12.854 -23.802  1.00  0.00    -0.200 F 
ATOM     97  F   UNL     1       6.264  15.573 -23.589  1.00  0.00    -0.200 F 
ENDBRANCH  64  87
ENDBRANCH  38  39
ENDBRANCH  30  33
ENDBRANCH  28  29
ENDBRANCH  27  28
ENDBRANCH   1  27
TORSDOF 14
