REMARK SMILES CCN(CCC(=O)NCCCCNC(=O)c1ccc(-c2c3nc(c(-c4c(F)c(F)c(F)c(F)c4F)c4ccc([nH]4)c(-c4c(F)c(F)c(F)c(F)c4F)c4nc(c(-c5c(F)c(F)c(F)c(F)c5F)c5ccc2[nH]5)C=C4)C=C3)cc1)C(=O)N(C)CCc1cccs1
REMARK SMILES IDX 6 1 7 2 8 3 5 5 4 6 3 7 2 8 1 9 79 10 80 11 81 12 82 13
REMARK SMILES IDX 83 14 84 15 85 16 86 17 89 18 87 19 88 20 9 21 10 22 11 23
REMARK SMILES IDX 12 24 13 25 14 26 15 28 16 29 17 30 78 31 18 32 77 33 19 34
REMARK SMILES IDX 20 35 21 36 71 37 22 38 76 39 70 40 72 41 23 42 75 43 69 44
REMARK SMILES IDX 68 45 24 47 56 48 36 49 55 50 37 51 40 52 54 53 73 54 38 55
REMARK SMILES IDX 39 56 53 58 74 59 41 60 25 61 26 62 34 63 27 64 28 65 32 66
REMARK SMILES IDX 35 67 29 68 30 69 33 70 31 71 57 72 58 73 66 74 59 75 60 76
REMARK SMILES IDX 64 77 67 78 61 79 62 80 65 81 63 82 42 83 43 84 51 85 44 86
REMARK SMILES IDX 45 87 49 88 52 89 46 90 47 91 50 92 48 93
REMARK H PARENT 8 4 13 27 72 46 40 57
REMARK Flexibility Score: inf
ROOT
ATOM      1  C   UNL     1       0.893   4.269   1.601  1.00  0.00     0.221 C 
ATOM      2  O   UNL     1       1.126   5.418   1.993  1.00  0.00    -0.275 OA
ATOM      3  N   UNL     1       1.863   3.330   1.755  1.00  0.00    -0.356 N 
ATOM      4  H   UNL     1       2.683   3.736   2.120  1.00  0.00     0.163 HD
ENDROOT
BRANCH   1   5
ATOM      5  C   UNL     1      -0.422   3.955   0.978  1.00  0.00     0.121 C 
BRANCH   5   6
ATOM      6  C   UNL     1      -0.318   4.046  -0.526  1.00  0.00     0.131 C 
BRANCH   6   7
ATOM      7  N   UNL     1       0.558   3.026  -1.103  1.00  0.00    -0.324 N 
BRANCH   7   8
ATOM      8  C   UNL     1      -0.139   1.720  -1.252  1.00  0.00     0.118 C 
ATOM      9  C   UNL     1       0.550   0.420  -1.634  1.00  0.00     0.027 C 
ENDBRANCH   7   8
BRANCH   7  10
ATOM     10  C   UNL     1       1.916   3.271  -1.410  1.00  0.00     0.319 C 
ATOM     11  O   UNL     1       2.570   2.541  -2.154  1.00  0.00    -0.248 OA
BRANCH  10  12
ATOM     12  N   UNL     1       2.505   4.440  -0.815  1.00  0.00    -0.327 N 
ATOM     13  C   UNL     1       2.306   5.569  -1.726  1.00  0.00     0.148 C 
BRANCH  12  14
ATOM     14  C   UNL     1       3.926   4.410  -0.248  1.00  0.00     0.126 C 
BRANCH  14  15
ATOM     15  C   UNL     1       4.547   4.574   1.255  1.00  0.00     0.068 C 
BRANCH  15  16
ATOM     16  C   UNL     1       4.463   3.809   2.645  1.00  0.00     0.006 A 
ATOM     17  C   UNL     1       4.454   2.495   3.104  1.00  0.00     0.015 A 
ATOM     18  S   UNL     1       4.308   4.800   4.088  1.00  0.00    -0.149 S 
ATOM     19  C   UNL     1       4.197   2.278   4.490  1.00  0.00     0.012 A 
ATOM     20  C   UNL     1       4.086   3.470   5.145  1.00  0.00     0.065 A 
ENDBRANCH  15  16
ENDBRANCH  14  15
ENDBRANCH  12  14
ENDBRANCH  10  12
ENDBRANCH   7  10
ENDBRANCH   6   7
ENDBRANCH   5   6
ENDBRANCH   1   5
BRANCH   3  21
ATOM     21  C   UNL     1       2.054   1.882   1.537  1.00  0.00     0.116 C 
BRANCH  21  22
ATOM     22  C   UNL     1       3.171   1.163   0.611  1.00  0.00     0.023 C 
BRANCH  22  23
ATOM     23  C   UNL     1       4.689   1.215   0.152  1.00  0.00     0.023 C 
BRANCH  23  24
ATOM     24  C   UNL     1       5.985   0.974   0.944  1.00  0.00     0.116 C 
BRANCH  24  25
ATOM     25  N   UNL     1       5.941  -0.150   1.850  1.00  0.00    -0.352 N 
ATOM     26  C   UNL     1       6.939  -0.623   2.681  1.00  0.00     0.251 C 
ATOM     27  H   UNL     1       5.089  -0.642   1.879  1.00  0.00     0.163 HD
ATOM     28  O   UNL     1       6.757  -1.602   3.367  1.00  0.00    -0.269 OA
BRANCH  26  29
ATOM     29  C   UNL     1       8.272   0.029   2.656  1.00  0.00     0.039 A 
ATOM     30  C   UNL     1       9.372  -0.767   2.321  1.00  0.00     0.014 A 
ATOM     31  C   UNL     1       8.444   1.386   2.938  1.00  0.00     0.014 A 
ATOM     32  C   UNL     1      10.633  -0.186   2.188  1.00  0.00     0.010 A 
ATOM     33  C   UNL     1       9.695   1.976   2.752  1.00  0.00     0.010 A 
ATOM     34  C   UNL     1      10.794   1.198   2.359  1.00  0.00    -0.014 A 
BRANCH  34  35
ATOM     35  C   UNL     1      12.108   1.829   2.082  1.00  0.00     0.031 A 
ATOM     36  C   UNL     1      12.921   2.414   3.197  1.00  0.00     0.074 A 
ATOM     37  C   UNL     1      12.537   1.895   0.806  1.00  0.00     0.049 A 
ATOM     38  N   UNL     1      14.104   2.973   3.157  1.00  0.00    -0.248 NA
ATOM     39  C   UNL     1      12.311   2.397   4.535  1.00  0.00     0.031 C 
ATOM     40  C   UNL     1      11.780   1.425  -0.357  1.00  0.00     0.029 A 
ATOM     41  N   UNL     1      13.705   2.371   0.269  1.00  0.00    -0.354 N 
ATOM     42  C   UNL     1      14.372   3.382   4.457  1.00  0.00     0.074 A 
ATOM     43  C   UNL     1      13.206   3.062   5.250  1.00  0.00     0.031 C 
ATOM     44  C   UNL     1      12.517   1.600  -1.464  1.00  0.00     0.029 A 
ATOM     45  C   UNL     1      13.790   2.208  -1.093  1.00  0.00     0.049 A 
ATOM     46  H   UNL     1      14.415   2.790   0.807  1.00  0.00     0.167 HD
ATOM     47  C   UNL     1      15.502   3.950   4.944  1.00  0.00     0.037 A 
ATOM     48  C   UNL     1      14.795   2.501  -1.940  1.00  0.00     0.037 A 
ATOM     49  C   UNL     1      16.657   4.242   4.134  1.00  0.00     0.049 A 
ATOM     50  C   UNL     1      16.064   3.070  -1.369  1.00  0.00     0.074 A 
ATOM     51  C   UNL     1      17.876   4.771   4.515  1.00  0.00     0.029 A 
ATOM     52  N   UNL     1      16.726   4.021   2.764  1.00  0.00    -0.354 N 
ATOM     53  N   UNL     1      16.340   3.379  -0.124  1.00  0.00    -0.248 NA
ATOM     54  C   UNL     1      17.165   3.313  -2.309  1.00  0.00     0.031 C 
ATOM     55  C   UNL     1      18.672   4.897   3.370  1.00  0.00     0.029 A 
ATOM     56  C   UNL     1      17.964   4.410   2.281  1.00  0.00     0.049 A 
ATOM     57  H   UNL     1      16.001   3.643   2.216  1.00  0.00     0.167 HD
ATOM     58  C   UNL     1      17.649   3.838  -0.125  1.00  0.00     0.074 A 
ATOM     59  C   UNL     1      18.119   3.744  -1.494  1.00  0.00     0.031 C 
ATOM     60  C   UNL     1      18.395   4.301   0.909  1.00  0.00     0.037 A 
BRANCH  47  61
ATOM     61  C   UNL     1      15.527   4.284   6.410  1.00  0.00     0.064 A 
ATOM     62  C   UNL     1      15.523   3.281   7.393  1.00  0.00     0.173 A 
ATOM     63  C   UNL     1      15.532   5.619   6.843  1.00  0.00     0.173 A 
ATOM     64  F   UNL     1      15.509   1.987   7.036  1.00  0.00    -0.203 F 
ATOM     65  C   UNL     1      15.468   3.599   8.748  1.00  0.00     0.198 A 
ATOM     66  C   UNL     1      15.510   5.934   8.200  1.00  0.00     0.198 A 
ATOM     67  F   UNL     1      15.546   6.620   5.950  1.00  0.00    -0.203 F 
ATOM     68  F   UNL     1      15.390   2.622   9.662  1.00  0.00    -0.200 F 
ATOM     69  C   UNL     1      15.463   4.926   9.150  1.00  0.00     0.200 A 
ATOM     70  F   UNL     1      15.517   7.217   8.589  1.00  0.00    -0.200 F 
ATOM     71  F   UNL     1      15.399   5.231  10.454  1.00  0.00    -0.200 F 
ENDBRANCH  47  61
BRANCH  48  72
ATOM     72  C   UNL     1      14.655   2.190  -3.388  1.00  0.00     0.064 A 
ATOM     73  C   UNL     1      15.375   1.138  -3.973  1.00  0.00     0.173 A 
ATOM     74  C   UNL     1      13.769   2.904  -4.208  1.00  0.00     0.173 A 
ATOM     75  F   UNL     1      16.245   0.433  -3.236  1.00  0.00    -0.203 F 
ATOM     76  C   UNL     1      15.221   0.819  -5.321  1.00  0.00     0.198 A 
ATOM     77  C   UNL     1      13.597   2.568  -5.551  1.00  0.00     0.198 A 
ATOM     78  F   UNL     1      13.047   3.913  -3.698  1.00  0.00    -0.203 F 
ATOM     79  F   UNL     1      15.943  -0.175  -5.859  1.00  0.00    -0.200 F 
ATOM     80  C   UNL     1      14.326   1.528  -6.107  1.00  0.00     0.200 A 
ATOM     81  F   UNL     1      12.718   3.245  -6.302  1.00  0.00    -0.200 F 
ATOM     82  F   UNL     1      14.167   1.210  -7.399  1.00  0.00    -0.200 F 
ENDBRANCH  48  72
BRANCH  60  83
ATOM     83  C   UNL     1      19.796   4.729   0.593  1.00  0.00     0.064 A 
ATOM     84  C   UNL     1      20.056   5.926  -0.089  1.00  0.00     0.173 A 
ATOM     85  C   UNL     1      20.887   3.959   1.020  1.00  0.00     0.173 A 
ATOM     86  F   UNL     1      19.043   6.687  -0.530  1.00  0.00    -0.203 F 
ATOM     87  C   UNL     1      21.363   6.327  -0.350  1.00  0.00     0.198 A 
ATOM     88  C   UNL     1      22.192   4.377   0.781  1.00  0.00     0.198 A 
ATOM     89  F   UNL     1      20.686   2.809   1.681  1.00  0.00    -0.203 F 
ATOM     90  F   UNL     1      21.591   7.454  -1.038  1.00  0.00    -0.200 F 
ATOM     91  C   UNL     1      22.429   5.557   0.092  1.00  0.00     0.200 A 
ATOM     92  F   UNL     1      23.221   3.639   1.219  1.00  0.00    -0.200 F 
ATOM     93  F   UNL     1      23.686   5.950  -0.151  1.00  0.00    -0.200 F 
ENDBRANCH  60  83
ENDBRANCH  34  35
ENDBRANCH  26  29
ENDBRANCH  24  25
ENDBRANCH  23  24
ENDBRANCH  22  23
ENDBRANCH  21  22
ENDBRANCH   3  21
TORSDOF 19
