REMARK SMILES Cc1ccnc(NC(=O)c2ncccc2C(=O)NCCCCNC(=O)c2ccc(-c3c4nc(c(-c5c(F)c(F)c(F)c(F)c5F)c5ccc([nH]5)c(-c5c(F)c(F)c(F)c(F)c5F)c5nc(c(-c6c(F)c(F)c(F)c(F)c6F)c6ccc3[nH]6)C=C5)C=C4)cc2)c1
REMARK SMILES IDX 20 1 19 2 18 3 16 4 17 5 15 7 10 8 11 9 12 10 14 11 13 12
REMARK SMILES IDX 8 13 7 14 9 16 6 17 1 18 2 19 3 20 89 21 4 22 5 23 21 24
REMARK SMILES IDX 22 25 23 26 24 27 25 29 26 30 27 31 88 32 28 33 87 34 29 35
REMARK SMILES IDX 30 36 31 37 81 38 32 39 86 40 80 41 82 42 33 43 85 44 79 45
REMARK SMILES IDX 78 46 34 48 66 49 46 50 65 51 47 52 50 53 64 54 83 55 48 56
REMARK SMILES IDX 49 57 63 59 84 60 51 61 35 62 36 63 44 64 37 65 38 66 42 67
REMARK SMILES IDX 45 68 39 69 40 70 43 71 41 72 67 73 68 74 76 75 69 76 70 77
REMARK SMILES IDX 74 78 77 79 71 80 72 81 75 82 73 83 52 84 53 85 61 86 54 87
REMARK SMILES IDX 55 88 59 89 62 90 56 91 57 92 60 93 58 94
REMARK H PARENT 18 6 7 15 23 28 82 47 50 58
REMARK Flexibility Score: inf
ROOT
ATOM      1  C   UNL     1       1.772   3.089   2.242  1.00  0.00     0.023 C 
ENDROOT
BRANCH   1   2
ATOM      2  C   UNL     1       2.984   2.252   2.637  1.00  0.00     0.116 C 
BRANCH   2   3
ATOM      3  N   UNL     1       2.726   0.827   2.759  1.00  0.00    -0.352 N 
ATOM      4  C   UNL     1       3.197  -0.282   2.089  1.00  0.00     0.253 C 
ATOM      5  O   UNL     1       2.831  -1.379   2.511  1.00  0.00    -0.269 OA
ATOM      6  H   UNL     1       2.079   0.608   3.468  1.00  0.00     0.163 HD
BRANCH   4   7
ATOM      7  C   UNL     1       4.100  -0.209   0.914  1.00  0.00     0.071 A 
ATOM      8  C   UNL     1       3.990  -1.112  -0.150  1.00  0.00     0.141 A 
ATOM      9  N   UNL     1       4.798  -1.087  -1.259  1.00  0.00    -0.250 NA
ATOM     10  C   UNL     1       5.747  -0.136  -1.310  1.00  0.00     0.112 A 
ATOM     11  C   UNL     1       5.162   0.701   0.848  1.00  0.00     0.018 A 
ATOM     12  C   UNL     1       5.973   0.764  -0.285  1.00  0.00     0.021 A 
BRANCH   8  13
ATOM     13  C   UNL     1       3.090  -2.297  -0.115  1.00  0.00     0.276 C 
ATOM     14  N   UNL     1       1.723  -2.177  -0.162  1.00  0.00    -0.305 N 
ATOM     15  H   UNL     1       1.221  -3.016  -0.046  1.00  0.00     0.171 HD
ATOM     16  O   UNL     1       3.587  -3.424  -0.039  1.00  0.00    -0.267 OA
BRANCH  14  17
ATOM     17  C   UNL     1       0.948  -1.037  -0.351  1.00  0.00     0.133 A 
ATOM     18  C   UNL     1      -2.712  -0.119  -0.007  1.00  0.00     0.044 C 
ATOM     19  C   UNL     1      -1.242  -0.041  -0.285  1.00  0.00    -0.046 A 
ATOM     20  C   UNL     1      -0.653   1.171  -0.635  1.00  0.00     0.023 A 
ATOM     21  C   UNL     1      -0.424  -1.166  -0.156  1.00  0.00     0.050 A 
ATOM     22  C   UNL     1       0.714   1.199  -0.848  1.00  0.00     0.114 A 
ATOM     23  N   UNL     1       1.522   0.131  -0.693  1.00  0.00    -0.239 NA
ENDBRANCH  14  17
ENDBRANCH   8  13
ENDBRANCH   4   7
ENDBRANCH   2   3
ENDBRANCH   1   2
BRANCH   1  24
ATOM     24  C   UNL     1       0.600   3.112   3.219  1.00  0.00     0.023 C 
BRANCH  24  25
ATOM     25  C   UNL     1       0.935   3.465   4.663  1.00  0.00     0.116 C 
BRANCH  25  26
ATOM     26  N   UNL     1       1.683   4.704   4.814  1.00  0.00    -0.352 N 
ATOM     27  C   UNL     1       1.559   5.691   5.764  1.00  0.00     0.251 C 
ATOM     28  H   UNL     1       2.381   4.858   4.136  1.00  0.00     0.163 HD
ATOM     29  O   UNL     1       2.250   6.699   5.698  1.00  0.00    -0.269 OA
BRANCH  27  30
ATOM     30  C   UNL     1       0.553   5.556   6.840  1.00  0.00     0.039 A 
ATOM     31  C   UNL     1      -0.278   6.645   7.121  1.00  0.00     0.014 A 
ATOM     32  C   UNL     1       0.409   4.362   7.550  1.00  0.00     0.014 A 
ATOM     33  C   UNL     1      -1.308   6.509   8.053  1.00  0.00     0.010 A 
ATOM     34  C   UNL     1      -0.663   4.204   8.425  1.00  0.00     0.010 A 
ATOM     35  C   UNL     1      -1.535   5.273   8.680  1.00  0.00    -0.014 A 
BRANCH  35  36
ATOM     36  C   UNL     1      -2.684   5.075   9.599  1.00  0.00     0.031 A 
ATOM     37  C   UNL     1      -2.444   4.761  11.048  1.00  0.00     0.074 A 
ATOM     38  C   UNL     1      -3.939   5.100   9.111  1.00  0.00     0.049 A 
ATOM     39  N   UNL     1      -3.309   4.474  11.988  1.00  0.00    -0.248 NA
ATOM     40  C   UNL     1      -1.042   4.735  11.494  1.00  0.00     0.031 C 
ATOM     41  C   UNL     1      -4.298   5.339   7.712  1.00  0.00     0.029 A 
ATOM     42  N   UNL     1      -5.147   4.908   9.735  1.00  0.00    -0.354 N 
ATOM     43  C   UNL     1      -2.557   4.216  13.126  1.00  0.00     0.074 A 
ATOM     44  C   UNL     1      -1.164   4.329  12.749  1.00  0.00     0.031 C 
ATOM     45  C   UNL     1      -5.635   5.301   7.589  1.00  0.00     0.029 A 
ATOM     46  C   UNL     1      -6.225   5.002   8.890  1.00  0.00     0.049 A 
ATOM     47  H   UNL     1      -5.232   4.721  10.698  1.00  0.00     0.167 HD
ATOM     48  C   UNL     1      -2.989   3.934  14.379  1.00  0.00     0.037 A 
ATOM     49  C   UNL     1      -7.541   4.859   9.137  1.00  0.00     0.037 A 
ATOM     50  C   UNL     1      -4.375   3.854  14.757  1.00  0.00     0.049 A 
ATOM     51  C   UNL     1      -7.996   4.560  10.540  1.00  0.00     0.074 A 
ATOM     52  C   UNL     1      -4.916   3.639  16.012  1.00  0.00     0.029 A 
ATOM     53  N   UNL     1      -5.440   3.987  13.879  1.00  0.00    -0.354 N 
ATOM     54  N   UNL     1      -7.278   4.388  11.623  1.00  0.00    -0.248 NA
ATOM     55  C   UNL     1      -9.445   4.444  10.755  1.00  0.00     0.031 C 
ATOM     56  C   UNL     1      -6.309   3.605  15.888  1.00  0.00     0.029 A 
ATOM     57  C   UNL     1      -6.637   3.842  14.562  1.00  0.00     0.049 A 
ATOM     58  H   UNL     1      -5.358   4.159  12.913  1.00  0.00     0.167 HD
ATOM     59  C   UNL     1      -8.184   4.171  12.651  1.00  0.00     0.074 A 
ATOM     60  C   UNL     1      -9.507   4.247  12.065  1.00  0.00     0.031 C 
ATOM     61  C   UNL     1      -7.944   3.931  13.963  1.00  0.00     0.037 A 
BRANCH  48  62
ATOM     62  C   UNL     1      -1.946   3.698  15.433  1.00  0.00     0.064 A 
ATOM     63  C   UNL     1      -1.144   4.742  15.919  1.00  0.00     0.173 A 
ATOM     64  C   UNL     1      -1.764   2.421  15.983  1.00  0.00     0.173 A 
ATOM     65  F   UNL     1      -1.270   5.980  15.416  1.00  0.00    -0.203 F 
ATOM     66  C   UNL     1      -0.176   4.510  16.892  1.00  0.00     0.198 A 
ATOM     67  C   UNL     1      -0.816   2.198  16.978  1.00  0.00     0.198 A 
ATOM     68  F   UNL     1      -2.508   1.389  15.559  1.00  0.00    -0.203 F 
ATOM     69  F   UNL     1       0.613   5.512  17.302  1.00  0.00    -0.200 F 
ATOM     70  C   UNL     1      -0.018   3.240  17.426  1.00  0.00     0.200 A 
ATOM     71  F   UNL     1      -0.671   0.973  17.502  1.00  0.00    -0.200 F 
ATOM     72  F   UNL     1       0.911   3.018  18.366  1.00  0.00    -0.200 F 
ENDBRANCH  48  62
BRANCH  49  73
ATOM     73  C   UNL     1      -8.525   5.031   8.038  1.00  0.00     0.064 A 
ATOM     74  C   UNL     1      -9.368   6.151   8.000  1.00  0.00     0.173 A 
ATOM     75  C   UNL     1      -8.646   4.088   7.008  1.00  0.00     0.173 A 
ATOM     76  F   UNL     1      -9.303   7.070   8.974  1.00  0.00    -0.203 F 
ATOM     77  C   UNL     1     -10.306   6.311   6.982  1.00  0.00     0.198 A 
ATOM     78  C   UNL     1      -9.566   4.262   5.976  1.00  0.00     0.198 A 
ATOM     79  F   UNL     1      -7.858   3.002   6.995  1.00  0.00    -0.203 F 
ATOM     80  F   UNL     1     -11.128   7.370   6.993  1.00  0.00    -0.200 F 
ATOM     81  C   UNL     1     -10.401   5.370   5.969  1.00  0.00     0.200 A 
ATOM     82  F   UNL     1      -9.645   3.358   4.991  1.00  0.00    -0.200 F 
ATOM     83  F   UNL     1     -11.300   5.527   4.988  1.00  0.00    -0.200 F 
ENDBRANCH  49  73
BRANCH  61  84
ATOM     84  C   UNL     1      -9.134   3.767  14.861  1.00  0.00     0.064 A 
ATOM     85  C   UNL     1      -9.930   2.613  14.824  1.00  0.00     0.173 A 
ATOM     86  C   UNL     1      -9.458   4.761  15.797  1.00  0.00     0.173 A 
ATOM     87  F   UNL     1      -9.670   1.642  13.935  1.00  0.00    -0.203 F 
ATOM     88  C   UNL     1     -11.021   2.469  15.678  1.00  0.00     0.198 A 
ATOM     89  C   UNL     1     -10.532   4.601  16.668  1.00  0.00     0.198 A 
ATOM     90  F   UNL     1      -8.725   5.881  15.875  1.00  0.00    -0.203 F 
ATOM     91  F   UNL     1     -11.794   1.378  15.595  1.00  0.00    -0.200 F 
ATOM     92  C   UNL     1     -11.316   3.459  16.603  1.00  0.00     0.200 A 
ATOM     93  F   UNL     1     -10.809   5.554  17.569  1.00  0.00    -0.200 F 
ATOM     94  F   UNL     1     -12.363   3.316  17.428  1.00  0.00    -0.200 F 
ENDBRANCH  61  84
ENDBRANCH  35  36
ENDBRANCH  27  30
ENDBRANCH  25  26
ENDBRANCH  24  25
ENDBRANCH   1  24
TORSDOF 13
