REMARK SMILES CC(C)CC(=O)Nc1ccc(NC(=O)[C@@H]2CCCC[C@@H]2C(=O)NCCCCNC(=O)c2ccc(-c3c4nc(c(-c5c(F)c(F)c(F)c(F)c5F)c5ccc([nH]5)c(-c5c(F)c(F)c(F)c(F)c5F)c5nc(c(-c6c(F)c(F)c(F)c(F)c6F)c6ccc3[nH]6)C=C5)C=C4)cc2)cc1
REMARK SMILES IDX 24 1 23 2 21 3 22 4 20 6 15 7 16 8 17 9 19 10 18 11 13 12
REMARK SMILES IDX 12 13 14 15 11 16 8 17 9 18 95 19 10 20 94 21 7 22 5 23 6 24
REMARK SMILES IDX 4 26 2 27 1 28 3 29 25 30 26 31 27 32 28 33 29 34 30 36
REMARK SMILES IDX 31 37 32 38 93 39 33 40 92 41 34 42 35 43 36 44 86 45 37 46
REMARK SMILES IDX 91 47 85 48 87 49 38 50 90 51 84 52 83 53 39 55 71 56 51 57
REMARK SMILES IDX 70 58 52 59 55 60 69 61 88 62 53 63 54 64 68 66 89 67 56 68
REMARK SMILES IDX 40 69 41 70 49 71 42 72 43 73 47 74 50 75 44 76 45 77 48 78
REMARK SMILES IDX 46 79 72 80 73 81 81 82 74 83 75 84 79 85 82 86 76 87 77 88
REMARK SMILES IDX 80 89 78 90 57 91 58 92 66 93 59 94 60 95 64 96 67 97 61 98
REMARK SMILES IDX 62 99 65 100 63 101
REMARK H PARENT 23 5 12 14 7 25 28 35 87 54 55 65
REMARK Flexibility Score: inf
ROOT
ATOM      1  C   UNL     1       2.523  -0.476   6.929  1.00  0.00     0.116 C 
ENDROOT
BRANCH   1   2
ATOM      2  N   UNL     1       2.322   0.493   7.995  1.00  0.00    -0.356 N 
ATOM      3  C   UNL     1       1.380   1.465   8.163  1.00  0.00     0.223 C 
ATOM      4  O   UNL     1       1.416   2.123   9.204  1.00  0.00    -0.275 OA
ATOM      5  H   UNL     1       2.982   0.438   8.723  1.00  0.00     0.163 HD
BRANCH   3   6
ATOM      6  C   UNL     1       0.294   1.672   7.113  1.00  0.00     0.091 C 
ATOM      7  C   UNL     1       0.658   2.604   5.951  1.00  0.00     0.091 C 
ATOM      8  C   UNL     1       0.675   4.086   6.322  1.00  0.00     0.014 C 
ATOM      9  C   UNL     1      -0.685   4.515   6.822  1.00  0.00     0.001 C 
ATOM     10  C   UNL     1      -1.032   2.165   7.746  1.00  0.00     0.014 C 
ATOM     11  C   UNL     1      -1.095   3.673   8.021  1.00  0.00     0.001 C 
BRANCH   7  12
ATOM     12  C   UNL     1       1.958   2.364   5.243  1.00  0.00     0.228 C 
ATOM     13  N   UNL     1       2.012   1.970   3.945  1.00  0.00    -0.326 N 
ATOM     14  H   UNL     1       2.903   1.636   3.692  1.00  0.00     0.169 HD
ATOM     15  O   UNL     1       3.030   2.568   5.820  1.00  0.00    -0.274 OA
BRANCH  13  16
ATOM     16  C   UNL     1       1.100   1.925   2.878  1.00  0.00     0.041 A 
ATOM     17  C   UNL     1      -0.512   1.656   0.573  1.00  0.00     0.041 A 
ATOM     18  C   UNL     1      -1.017   2.289   1.695  1.00  0.00     0.028 A 
ATOM     19  C   UNL     1       0.828   1.311   0.567  1.00  0.00     0.028 A 
ATOM     20  C   UNL     1      -0.200   2.444   2.832  1.00  0.00     0.028 A 
ATOM     21  C   UNL     1       1.615   1.381   1.707  1.00  0.00     0.028 A 
BRANCH  17  22
ATOM     22  N   UNL     1      -1.293   1.457  -0.573  1.00  0.00    -0.326 N 
ATOM     23  C   UNL     1      -1.103   0.500  -1.549  1.00  0.00     0.224 C 
ATOM     24  O   UNL     1      -1.542   0.693  -2.683  1.00  0.00    -0.275 OA
ATOM     25  H   UNL     1      -2.058   2.064  -0.695  1.00  0.00     0.169 HD
BRANCH  23  26
ATOM     26  C   UNL     1      -0.557  -0.871  -1.128  1.00  0.00     0.103 C 
BRANCH  26  27
ATOM     27  C   UNL     1       0.641  -1.445  -1.916  1.00  0.00    -0.008 C 
ATOM     28  C   UNL     1       2.015  -1.065  -1.351  1.00  0.00     0.008 C 
ATOM     29  C   UNL     1       0.557  -2.976  -1.895  1.00  0.00     0.008 C 
ENDBRANCH  26  27
ENDBRANCH  23  26
ENDBRANCH  17  22
ENDBRANCH  13  16
ENDBRANCH   7  12
ENDBRANCH   3   6
ENDBRANCH   1   2
BRANCH   1  30
ATOM     30  C   UNL     1       3.881  -0.344   6.233  1.00  0.00     0.023 C 
BRANCH  30  31
ATOM     31  C   UNL     1       5.088  -0.408   7.160  1.00  0.00     0.023 C 
BRANCH  31  32
ATOM     32  C   UNL     1       5.302  -1.790   7.743  1.00  0.00     0.116 C 
BRANCH  32  33
ATOM     33  N   UNL     1       5.600  -2.768   6.701  1.00  0.00    -0.352 N 
ATOM     34  C   UNL     1       6.723  -3.547   6.544  1.00  0.00     0.251 C 
ATOM     35  H   UNL     1       4.902  -2.887   6.017  1.00  0.00     0.163 HD
ATOM     36  O   UNL     1       6.945  -4.127   5.497  1.00  0.00    -0.269 OA
BRANCH  34  37
ATOM     37  C   UNL     1       7.656  -3.654   7.682  1.00  0.00     0.039 A 
ATOM     38  C   UNL     1       9.029  -3.539   7.463  1.00  0.00     0.014 A 
ATOM     39  C   UNL     1       7.146  -3.819   8.971  1.00  0.00     0.014 A 
ATOM     40  C   UNL     1       9.892  -3.531   8.559  1.00  0.00     0.010 A 
ATOM     41  C   UNL     1       7.989  -3.688  10.059  1.00  0.00     0.010 A 
ATOM     42  C   UNL     1       9.373  -3.572   9.864  1.00  0.00    -0.014 A 
BRANCH  42  43
ATOM     43  C   UNL     1      10.248  -3.556  11.058  1.00  0.00     0.031 A 
ATOM     44  C   UNL     1      10.212  -4.725  12.004  1.00  0.00     0.074 A 
ATOM     45  C   UNL     1      10.991  -2.469  11.334  1.00  0.00     0.049 A 
ATOM     46  N   UNL     1      10.784  -4.867  13.171  1.00  0.00    -0.248 NA
ATOM     47  C   UNL     1       9.377  -5.872  11.603  1.00  0.00     0.031 C 
ATOM     48  C   UNL     1      11.058  -1.256  10.518  1.00  0.00     0.029 A 
ATOM     49  N   UNL     1      11.821  -2.204  12.392  1.00  0.00    -0.354 N 
ATOM     50  C   UNL     1      10.353  -6.097  13.650  1.00  0.00     0.074 A 
ATOM     51  C   UNL     1       9.416  -6.629  12.688  1.00  0.00     0.031 C 
ATOM     52  C   UNL     1      11.907  -0.387  11.090  1.00  0.00     0.029 A 
ATOM     53  C   UNL     1      12.408  -0.964  12.333  1.00  0.00     0.049 A 
ATOM     54  H   UNL     1      11.982  -2.841  13.125  1.00  0.00     0.167 HD
ATOM     55  C   UNL     1      10.733  -6.742  14.777  1.00  0.00     0.037 A 
ATOM     56  C   UNL     1      13.251  -0.363  13.194  1.00  0.00     0.037 A 
ATOM     57  C   UNL     1      11.700  -6.221  15.705  1.00  0.00     0.049 A 
ATOM     58  C   UNL     1      13.668  -1.106  14.436  1.00  0.00     0.074 A 
ATOM     59  C   UNL     1      12.212  -6.815  16.843  1.00  0.00     0.029 A 
ATOM     60  N   UNL     1      12.305  -4.977  15.592  1.00  0.00    -0.354 N 
ATOM     61  N   UNL     1      13.311  -2.298  14.848  1.00  0.00    -0.248 NA
ATOM     62  C   UNL     1      14.613  -0.421  15.328  1.00  0.00     0.031 C 
ATOM     63  C   UNL     1      13.092  -5.910  17.446  1.00  0.00     0.029 A 
ATOM     64  C   UNL     1      13.173  -4.777  16.651  1.00  0.00     0.049 A 
ATOM     65  H   UNL     1      12.141  -4.333  14.866  1.00  0.00     0.167 HD
ATOM     66  C   UNL     1      14.009  -2.522  16.027  1.00  0.00     0.074 A 
ATOM     67  C   UNL     1      14.822  -1.345  16.256  1.00  0.00     0.031 C 
ATOM     68  C   UNL     1      13.983  -3.601  16.846  1.00  0.00     0.037 A 
BRANCH  55  69
ATOM     69  C   UNL     1      10.109  -8.080  15.056  1.00  0.00     0.064 A 
ATOM     70  C   UNL     1      10.369  -9.198  14.248  1.00  0.00     0.173 A 
ATOM     71  C   UNL     1       9.249  -8.250  16.151  1.00  0.00     0.173 A 
ATOM     72  F   UNL     1      11.171  -9.088  13.178  1.00  0.00    -0.203 F 
ATOM     73  C   UNL     1       9.762 -10.425  14.503  1.00  0.00     0.198 A 
ATOM     74  C   UNL     1       8.673  -9.488  16.424  1.00  0.00     0.198 A 
ATOM     75  F   UNL     1       8.967  -7.217  16.958  1.00  0.00    -0.203 F 
ATOM     76  F   UNL     1       9.975 -11.460  13.678  1.00  0.00    -0.200 F 
ATOM     77  C   UNL     1       8.921 -10.571  15.595  1.00  0.00     0.200 A 
ATOM     78  F   UNL     1       7.870  -9.631  17.488  1.00  0.00    -0.200 F 
ATOM     79  F   UNL     1       8.341 -11.754  15.842  1.00  0.00    -0.200 F 
ENDBRANCH  55  69
BRANCH  56  80
ATOM     80  C   UNL     1      13.781   0.993  12.896  1.00  0.00     0.064 A 
ATOM     81  C   UNL     1      15.134   1.179  12.578  1.00  0.00     0.173 A 
ATOM     82  C   UNL     1      12.956   2.126  12.921  1.00  0.00     0.173 A 
ATOM     83  F   UNL     1      15.968   0.128  12.557  1.00  0.00    -0.203 F 
ATOM     84  C   UNL     1      15.647   2.449  12.322  1.00  0.00     0.198 A 
ATOM     85  C   UNL     1      13.463   3.392  12.635  1.00  0.00     0.198 A 
ATOM     86  F   UNL     1      11.653   2.002  13.210  1.00  0.00    -0.203 F 
ATOM     87  F   UNL     1      16.953   2.603  12.069  1.00  0.00    -0.200 F 
ATOM     88  C   UNL     1      14.810   3.554  12.345  1.00  0.00     0.200 A 
ATOM     89  F   UNL     1      12.648   4.456  12.643  1.00  0.00    -0.200 F 
ATOM     90  F   UNL     1      15.302   4.775  12.095  1.00  0.00    -0.200 F 
ENDBRANCH  56  80
BRANCH  68  91
ATOM     91  C   UNL     1      14.893  -3.582  18.039  1.00  0.00     0.064 A 
ATOM     92  C   UNL     1      14.649  -2.750  19.141  1.00  0.00     0.173 A 
ATOM     93  C   UNL     1      15.996  -4.448  18.099  1.00  0.00     0.173 A 
ATOM     94  F   UNL     1      13.615  -1.896  19.127  1.00  0.00    -0.203 F 
ATOM     95  C   UNL     1      15.491  -2.768  20.249  1.00  0.00     0.198 A 
ATOM     96  C   UNL     1      16.816  -4.487  19.222  1.00  0.00     0.198 A 
ATOM     97  F   UNL     1      16.267  -5.270  17.074  1.00  0.00    -0.203 F 
ATOM     98  F   UNL     1      15.268  -1.930  21.271  1.00  0.00    -0.200 F 
ATOM     99  C   UNL     1      16.568  -3.642  20.293  1.00  0.00     0.200 A 
ATOM    100  F   UNL     1      17.845  -5.344  19.269  1.00  0.00    -0.200 F 
ATOM    101  F   UNL     1      17.370  -3.665  21.365  1.00  0.00    -0.200 F 
ENDBRANCH  68  91
ENDBRANCH  42  43
ENDBRANCH  34  37
ENDBRANCH  32  33
ENDBRANCH  31  32
ENDBRANCH  30  31
ENDBRANCH   1  30
TORSDOF 16
