REMARK SMILES O=C(NCCCCNC(=O)[C@H]1C=C[C@@H](NC(=O)c2ccc(Cl)cn2)C1)c1ccc(-c2c3nc(c(-c4c(F)c(F)c(F)c(F)c4F)c4ccc([nH]4)c(-c4c(F)c(F)c(F)c(F)c4F)c4nc(c(-c5c(F)c(F)c(F)c(F)c5F)c5ccc2[nH]5)C=C4)C=C3)cc1
REMARK SMILES IDX 5 1 4 2 3 3 1 4 2 5 26 7 27 8 88 9 28 10 87 11 29 12 30 13
REMARK SMILES IDX 31 14 81 15 32 16 86 17 80 18 82 19 33 20 85 21 79 22 78 23
REMARK SMILES IDX 34 25 66 26 46 27 65 28 47 29 50 30 64 31 83 32 48 33 49 34
REMARK SMILES IDX 63 36 84 37 51 38 35 39 36 40 44 41 37 42 38 43 42 44 45 45
REMARK SMILES IDX 39 46 40 47 43 48 41 49 67 50 68 51 76 52 69 53 70 54 74 55
REMARK SMILES IDX 77 56 71 57 72 58 75 59 73 60 52 61 53 62 61 63 54 64 55 65
REMARK SMILES IDX 59 66 62 67 56 68 57 69 60 70 58 71 6 72 7 73 8 74 9 75
REMARK SMILES IDX 10 77 11 78 12 79 25 80 13 81 14 82 15 83 16 84 17 86 18 87
REMARK SMILES IDX 19 88 24 89 20 90 23 91 21 92 22 93
REMARK H PARENT 3 6 82 24 50 35 8 76 15 85
REMARK Flexibility Score: inf
ROOT
ATOM      1  C   UNL     1       4.816  -2.468  -0.123  1.00  0.00     0.023 C 
ENDROOT
BRANCH   1   2
ATOM      2  C   UNL     1       4.477  -0.992  -0.227  1.00  0.00     0.116 C 
BRANCH   2   3
ATOM      3  N   UNL     1       3.065  -0.726  -0.463  1.00  0.00    -0.352 N 
ATOM      4  O   UNL     1       1.109   0.390  -0.223  1.00  0.00    -0.269 OA
ATOM      5  C   UNL     1       2.313   0.331  -0.004  1.00  0.00     0.251 C 
ATOM      6  H   UNL     1       2.590  -1.384  -1.019  1.00  0.00     0.163 HD
BRANCH   5   7
ATOM      7  C   UNL     1       2.975   1.370   0.809  1.00  0.00     0.039 A 
ATOM      8  C   UNL     1       4.177   1.935   0.380  1.00  0.00     0.014 A 
ATOM      9  C   UNL     1       2.431   1.712   2.049  1.00  0.00     0.014 A 
ATOM     10  C   UNL     1       4.923   2.702   1.264  1.00  0.00     0.010 A 
ATOM     11  C   UNL     1       3.141   2.560   2.901  1.00  0.00     0.010 A 
ATOM     12  C   UNL     1       4.415   3.019   2.536  1.00  0.00    -0.014 A 
BRANCH  12  13
ATOM     13  C   UNL     1       5.242   3.842   3.453  1.00  0.00     0.031 A 
ATOM     14  C   UNL     1       5.777   3.272   4.737  1.00  0.00     0.074 A 
ATOM     15  C   UNL     1       5.556   5.098   3.084  1.00  0.00     0.049 A 
ATOM     16  N   UNL     1       6.553   3.837   5.628  1.00  0.00    -0.248 NA
ATOM     17  C   UNL     1       5.387   1.895   5.073  1.00  0.00     0.031 C 
ATOM     18  C   UNL     1       5.087   5.756   1.862  1.00  0.00     0.029 A 
ATOM     19  N   UNL     1       6.365   6.031   3.676  1.00  0.00    -0.354 N 
ATOM     20  C   UNL     1       6.715   2.902   6.642  1.00  0.00     0.074 A 
ATOM     21  C   UNL     1       5.948   1.734   6.264  1.00  0.00     0.031 C 
ATOM     22  C   UNL     1       5.666   6.961   1.763  1.00  0.00     0.029 A 
ATOM     23  C   UNL     1       6.499   7.182   2.940  1.00  0.00     0.049 A 
ATOM     24  H   UNL     1       6.807   5.891   4.544  1.00  0.00     0.167 HD
ATOM     25  C   UNL     1       7.442   3.009   7.780  1.00  0.00     0.037 A 
ATOM     26  C   UNL     1       7.213   8.295   3.186  1.00  0.00     0.037 A 
ATOM     27  C   UNL     1       8.236   4.159   8.132  1.00  0.00     0.049 A 
ATOM     28  C   UNL     1       8.028   8.375   4.444  1.00  0.00     0.074 A 
ATOM     29  C   UNL     1       9.037   4.348   9.245  1.00  0.00     0.029 A 
ATOM     30  N   UNL     1       8.333   5.313   7.369  1.00  0.00    -0.354 N 
ATOM     31  N   UNL     1       8.187   7.476   5.383  1.00  0.00    -0.248 NA
ATOM     32  C   UNL     1       8.759   9.627   4.676  1.00  0.00     0.031 C 
ATOM     33  C   UNL     1       9.593   5.631   9.172  1.00  0.00     0.029 A 
ATOM     34  C   UNL     1       9.170   6.224   7.994  1.00  0.00     0.049 A 
ATOM     35  H   UNL     1       7.875   5.464   6.511  1.00  0.00     0.167 HD
ATOM     36  C   UNL     1       9.046   8.044   6.311  1.00  0.00     0.074 A 
ATOM     37  C   UNL     1       9.391   9.359   5.810  1.00  0.00     0.031 C 
ATOM     38  C   UNL     1       9.505   7.525   7.476  1.00  0.00     0.037 A 
BRANCH  25  39
ATOM     39  C   UNL     1       7.401   1.860   8.745  1.00  0.00     0.064 A 
ATOM     40  C   UNL     1       8.073   0.656   8.492  1.00  0.00     0.173 A 
ATOM     41  C   UNL     1       6.716   1.986   9.964  1.00  0.00     0.173 A 
ATOM     42  F   UNL     1       8.731   0.481   7.336  1.00  0.00    -0.203 F 
ATOM     43  C   UNL     1       8.046  -0.387   9.415  1.00  0.00     0.198 A 
ATOM     44  C   UNL     1       6.711   0.950  10.895  1.00  0.00     0.198 A 
ATOM     45  F   UNL     1       6.062   3.120  10.258  1.00  0.00    -0.203 F 
ATOM     46  F   UNL     1       8.666  -1.542   9.136  1.00  0.00    -0.200 F 
ATOM     47  C   UNL     1       7.371  -0.237  10.617  1.00  0.00     0.200 A 
ATOM     48  F   UNL     1       6.068   1.101  12.061  1.00  0.00    -0.200 F 
ATOM     49  F   UNL     1       7.353  -1.239  11.507  1.00  0.00    -0.200 F 
ENDBRANCH  25  39
BRANCH  26  50
ATOM     50  C   UNL     1       7.199   9.407   2.204  1.00  0.00     0.064 A 
ATOM     51  C   UNL     1       8.330   9.696   1.430  1.00  0.00     0.173 A 
ATOM     52  C   UNL     1       6.048  10.182   2.000  1.00  0.00     0.173 A 
ATOM     53  F   UNL     1       9.458   8.992   1.603  1.00  0.00    -0.203 F 
ATOM     54  C   UNL     1       8.314  10.727   0.494  1.00  0.00     0.198 A 
ATOM     55  C   UNL     1       6.025  11.194   1.044  1.00  0.00     0.198 A 
ATOM     56  F   UNL     1       4.938   9.938   2.712  1.00  0.00    -0.203 F 
ATOM     57  F   UNL     1       9.419  11.004  -0.212  1.00  0.00    -0.200 F 
ATOM     58  C   UNL     1       7.160  11.470   0.296  1.00  0.00     0.200 A 
ATOM     59  F   UNL     1       4.902  11.898   0.844  1.00  0.00    -0.200 F 
ATOM     60  F   UNL     1       7.141  12.453  -0.614  1.00  0.00    -0.200 F 
ENDBRANCH  26  50
BRANCH  38  61
ATOM     61  C   UNL     1      10.453   8.374   8.268  1.00  0.00     0.064 A 
ATOM     62  C   UNL     1      10.008   9.494   8.985  1.00  0.00     0.173 A 
ATOM     63  C   UNL     1      11.817   8.055   8.320  1.00  0.00     0.173 A 
ATOM     64  F   UNL     1       8.714   9.849   8.949  1.00  0.00    -0.203 F 
ATOM     65  C   UNL     1      10.902  10.281   9.705  1.00  0.00     0.198 A 
ATOM     66  C   UNL     1      12.704   8.829   9.062  1.00  0.00     0.198 A 
ATOM     67  F   UNL     1      12.288   6.990   7.653  1.00  0.00    -0.203 F 
ATOM     68  F   UNL     1      10.465  11.375  10.344  1.00  0.00    -0.200 F 
ATOM     69  C   UNL     1      12.248   9.946   9.746  1.00  0.00     0.200 A 
ATOM     70  F   UNL     1      14.002   8.501   9.107  1.00  0.00    -0.200 F 
ATOM     71  F   UNL     1      13.107  10.706  10.439  1.00  0.00    -0.200 F 
ENDBRANCH  38  61
ENDBRANCH  12  13
ENDBRANCH   5   7
ENDBRANCH   2   3
ENDBRANCH   1   2
BRANCH   1  72
ATOM     72  C   UNL     1       4.415  -3.310  -1.331  1.00  0.00     0.023 C 
BRANCH  72  73
ATOM     73  C   UNL     1       5.077  -2.910  -2.653  1.00  0.00     0.116 C 
BRANCH  73  74
ATOM     74  N   UNL     1       6.473  -3.292  -2.681  1.00  0.00    -0.356 N 
ATOM     75  C   UNL     1       7.101  -4.402  -3.152  1.00  0.00     0.227 C 
ATOM     76  H   UNL     1       7.080  -2.625  -2.287  1.00  0.00     0.163 HD
ATOM     77  O   UNL     1       8.326  -4.428  -2.983  1.00  0.00    -0.274 OA
BRANCH  75  78
ATOM     78  C   UNL     1       6.390  -5.510  -3.958  1.00  0.00     0.103 C 
ATOM     79  C   UNL     1       7.094  -6.823  -3.714  1.00  0.00    -0.016 C 
ATOM     80  C   UNL     1       4.941  -5.878  -3.630  1.00  0.00     0.047 C 
ATOM     81  C   UNL     1       6.250  -7.837  -3.499  1.00  0.00    -0.006 C 
ATOM     82  C   UNL     1       4.835  -7.405  -3.609  1.00  0.00     0.106 C 
BRANCH  82  83
ATOM     83  N   UNL     1       4.110  -7.863  -2.443  1.00  0.00    -0.344 N 
ATOM     84  C   UNL     1       2.762  -8.121  -2.332  1.00  0.00     0.270 C 
ATOM     85  H   UNL     1       4.647  -8.008  -1.631  1.00  0.00     0.164 HD
ATOM     86  O   UNL     1       2.248  -8.205  -1.220  1.00  0.00    -0.267 OA
BRANCH  84  87
ATOM     87  C   UNL     1       1.948  -8.331  -3.563  1.00  0.00     0.128 A 
ATOM     88  C   UNL     1       2.316  -9.323  -4.469  1.00  0.00     0.036 A 
ATOM     89  N   UNL     1       0.850  -7.546  -3.712  1.00  0.00    -0.250 NA
ATOM     90  C   UNL     1       1.536  -9.502  -5.609  1.00  0.00     0.024 A 
ATOM     91  C   UNL     1       0.097  -7.768  -4.816  1.00  0.00     0.132 A 
ATOM     92  C   UNL     1       0.403  -8.714  -5.785  1.00  0.00     0.059 A 
ATOM     93  Cl  UNL     1      -0.587  -8.914  -7.171  1.00  0.00    -0.083 Cl
ENDBRANCH  84  87
ENDBRANCH  82  83
ENDBRANCH  75  78
ENDBRANCH  73  74
ENDBRANCH  72  73
ENDBRANCH   1  72
TORSDOF 13
