REMARK SMILES CSCC[C@H](C(=O)NCCCCNC(=O)c1ccc(-c2c3nc(c(-c4c(F)c(F)c(F)c(F)c4F)c4ccc([nH]4)c(-c4c(F)c(F)c(F)c(F)c4F)c4nc(c(-c5c(F)c(F)c(F)c(F)c5F)c5ccc2[nH]5)C=C4)C=C3)cc1)N1C(=O)/C(=C/c2ccc3ncccc3c2)SC1=S
REMARK SMILES IDX 10 1 9 2 8 3 6 4 7 5 5 7 4 8 3 9 2 10 1 11 79 12 80 13 95 14
REMARK SMILES IDX 81 15 82 16 94 17 96 18 83 19 84 20 85 21 93 22 86 23 92 24
REMARK SMILES IDX 87 25 91 26 88 27 90 28 89 29 11 30 12 31 13 32 14 33 15 35
REMARK SMILES IDX 16 36 17 37 78 38 18 39 77 40 19 41 20 42 21 43 71 44 22 45
REMARK SMILES IDX 76 46 70 47 72 48 23 49 75 50 69 51 68 52 24 54 56 55 36 56
REMARK SMILES IDX 55 57 37 58 40 59 54 60 73 61 38 62 39 63 53 65 74 66 41 67
REMARK SMILES IDX 25 68 26 69 34 70 27 71 28 72 32 73 35 74 29 75 30 76 33 77
REMARK SMILES IDX 31 78 57 79 58 80 66 81 59 82 60 83 64 84 67 85 61 86 62 87
REMARK SMILES IDX 65 88 63 89 42 90 43 91 51 92 44 93 45 94 49 95 52 96 46 97
REMARK SMILES IDX 47 98 50 99 48 100
REMARK H PARENT 8 6 13 34 72 53 40 64
REMARK Flexibility Score: inf
ROOT
ATOM      1  C   UNL     1       3.196   4.458  -4.170  1.00  0.00     0.023 C 
ENDROOT
BRANCH   1   2
ATOM      2  C   UNL     1       2.186   4.400  -3.045  1.00  0.00     0.116 C 
BRANCH   2   3
ATOM      3  N   UNL     1       1.300   3.275  -3.000  1.00  0.00    -0.354 N 
ATOM      4  C   UNL     1       0.583   2.888  -1.901  1.00  0.00     0.243 C 
ATOM      5  O   UNL     1      -0.463   2.265  -2.112  1.00  0.00    -0.273 OA
ATOM      6  H   UNL     1       1.200   2.741  -3.821  1.00  0.00     0.163 HD
BRANCH   4   7
ATOM      7  C   UNL     1       1.010   3.268  -0.448  1.00  0.00     0.182 C 
BRANCH   7   8
ATOM      8  C   UNL     1       2.443   2.833  -0.029  1.00  0.00     0.046 C 
BRANCH   8   9
ATOM      9  C   UNL     1       3.529   3.812   0.396  1.00  0.00     0.072 C 
BRANCH   9  10
ATOM     10  S   UNL     1       3.851   3.902   2.189  1.00  0.00    -0.165 SA
ATOM     11  C   UNL     1       2.276   4.536   2.794  1.00  0.00     0.085 C 
ENDBRANCH   9  10
ENDBRANCH   8   9
ENDBRANCH   7   8
BRANCH   7  12
ATOM     12  N   UNL     1       0.305   4.465   0.091  1.00  0.00    -0.280 N 
ATOM     13  C   UNL     1      -0.753   4.231   0.988  1.00  0.00     0.266 C 
ATOM     14  C   UNL     1       0.494   5.805  -0.203  1.00  0.00     0.149 C 
ATOM     15  O   UNL     1      -1.071   3.163   1.491  1.00  0.00    -0.268 OA
ATOM     16  C   UNL     1      -1.383   5.519   1.388  1.00  0.00     0.081 C 
ATOM     17  S   UNL     1      -0.921   6.717   0.262  1.00  0.00    -0.054 SA
ATOM     18  S   UNL     1       1.762   6.692  -0.809  1.00  0.00    -0.052 S 
ATOM     19  C   UNL     1      -2.007   5.715   2.562  1.00  0.00     0.029 C 
BRANCH  19  20
ATOM     20  C   UNL     1      -2.268   7.058   3.115  1.00  0.00    -0.024 A 
ATOM     21  C   UNL     1      -1.730   7.384   4.362  1.00  0.00     0.010 A 
ATOM     22  C   UNL     1      -2.897   8.067   2.376  1.00  0.00     0.018 A 
ATOM     23  C   UNL     1      -1.744   8.711   4.812  1.00  0.00     0.029 A 
ATOM     24  C   UNL     1      -2.838   9.407   2.795  1.00  0.00     0.001 A 
ATOM     25  C   UNL     1      -2.256   9.741   4.034  1.00  0.00     0.070 A 
ATOM     26  C   UNL     1      -3.296  10.448   1.978  1.00  0.00     0.012 A 
ATOM     27  N   UNL     1      -2.154  11.012   4.459  1.00  0.00    -0.256 NA
ATOM     28  C   UNL     1      -3.165  11.764   2.400  1.00  0.00     0.021 A 
ATOM     29  C   UNL     1      -2.598  11.992   3.640  1.00  0.00     0.112 A 
ENDBRANCH  19  20
ENDBRANCH   7  12
ENDBRANCH   4   7
ENDBRANCH   2   3
ENDBRANCH   1   2
BRANCH   1  30
ATOM     30  C   UNL     1       2.653   4.919  -5.517  1.00  0.00     0.023 C 
BRANCH  30  31
ATOM     31  C   UNL     1       1.772   6.167  -5.522  1.00  0.00     0.116 C 
BRANCH  31  32
ATOM     32  N   UNL     1       2.364   7.350  -4.909  1.00  0.00    -0.352 N 
ATOM     33  C   UNL     1       2.425   8.638  -5.400  1.00  0.00     0.251 C 
ATOM     34  H   UNL     1       2.777   7.211  -4.026  1.00  0.00     0.163 HD
ATOM     35  O   UNL     1       2.988   9.528  -4.773  1.00  0.00    -0.269 OA
BRANCH  33  36
ATOM     36  C   UNL     1       1.849   8.924  -6.730  1.00  0.00     0.039 A 
ATOM     37  C   UNL     1       2.666   9.494  -7.709  1.00  0.00     0.014 A 
ATOM     38  C   UNL     1       0.545   8.529  -7.034  1.00  0.00     0.014 A 
ATOM     39  C   UNL     1       2.215   9.555  -9.028  1.00  0.00     0.010 A 
ATOM     40  C   UNL     1       0.131   8.512  -8.362  1.00  0.00     0.010 A 
ATOM     41  C   UNL     1       0.970   9.005  -9.375  1.00  0.00    -0.014 A 
BRANCH  41  42
ATOM     42  C   UNL     1       0.537   8.900 -10.793  1.00  0.00     0.031 A 
ATOM     43  C   UNL     1      -0.704   9.608 -11.256  1.00  0.00     0.074 A 
ATOM     44  C   UNL     1       1.205   8.090 -11.638  1.00  0.00     0.049 A 
ATOM     45  N   UNL     1      -1.302   9.558 -12.419  1.00  0.00    -0.248 NA
ATOM     46  C   UNL     1      -1.385  10.458 -10.267  1.00  0.00     0.031 C 
ATOM     47  C   UNL     1       2.387   7.295 -11.296  1.00  0.00     0.029 A 
ATOM     48  N   UNL     1       0.978   7.789 -12.958  1.00  0.00    -0.354 N 
ATOM     49  C   UNL     1      -2.439  10.344 -12.293  1.00  0.00     0.074 A 
ATOM     50  C   UNL     1      -2.476  10.819 -10.927  1.00  0.00     0.031 C 
ATOM     51  C   UNL     1       2.796   6.622 -12.384  1.00  0.00     0.029 A 
ATOM     52  C   UNL     1       1.887   6.907 -13.489  1.00  0.00     0.049 A 
ATOM     53  H   UNL     1       0.232   8.170 -13.476  1.00  0.00     0.167 HD
ATOM     54  C   UNL     1      -3.356  10.660 -13.237  1.00  0.00     0.037 A 
ATOM     55  C   UNL     1       1.976   6.385 -14.728  1.00  0.00     0.037 A 
ATOM     56  C   UNL     1      -3.293  10.226 -14.607  1.00  0.00     0.049 A 
ATOM     57  C   UNL     1       0.960   6.776 -15.765  1.00  0.00     0.074 A 
ATOM     58  C   UNL     1      -4.127  10.562 -15.658  1.00  0.00     0.029 A 
ATOM     59  N   UNL     1      -2.334   9.363 -15.116  1.00  0.00    -0.354 N 
ATOM     60  N   UNL     1      -0.069   7.579 -15.654  1.00  0.00    -0.248 NA
ATOM     61  C   UNL     1       1.120   6.189 -17.104  1.00  0.00     0.031 C 
ATOM     62  C   UNL     1      -3.694   9.875 -16.797  1.00  0.00     0.029 A 
ATOM     63  C   UNL     1      -2.566   9.142 -16.464  1.00  0.00     0.049 A 
ATOM     64  H   UNL     1      -1.597   8.967 -14.597  1.00  0.00     0.167 HD
ATOM     65  C   UNL     1      -0.660   7.619 -16.909  1.00  0.00     0.074 A 
ATOM     66  C   UNL     1       0.131   6.766 -17.771  1.00  0.00     0.031 C 
ATOM     67  C   UNL     1      -1.760   8.301 -17.310  1.00  0.00     0.037 A 
BRANCH  54  68
ATOM     68  C   UNL     1      -4.505  11.530 -12.819  1.00  0.00     0.064 A 
ATOM     69  C   UNL     1      -4.326  12.888 -12.517  1.00  0.00     0.173 A 
ATOM     70  C   UNL     1      -5.804  11.005 -12.745  1.00  0.00     0.173 A 
ATOM     71  F   UNL     1      -3.101  13.433 -12.559  1.00  0.00    -0.203 F 
ATOM     72  C   UNL     1      -5.400  13.682 -12.125  1.00  0.00     0.198 A 
ATOM     73  C   UNL     1      -6.881  11.810 -12.381  1.00  0.00     0.198 A 
ATOM     74  F   UNL     1      -6.030   9.714 -13.028  1.00  0.00    -0.203 F 
ATOM     75  F   UNL     1      -5.197  14.964 -11.791  1.00  0.00    -0.200 F 
ATOM     76  C   UNL     1      -6.677  13.144 -12.064  1.00  0.00     0.200 A 
ATOM     77  F   UNL     1      -8.116  11.292 -12.332  1.00  0.00    -0.200 F 
ATOM     78  F   UNL     1      -7.711  13.911 -11.691  1.00  0.00    -0.200 F 
ENDBRANCH  54  68
BRANCH  55  79
ATOM     79  C   UNL     1       3.091   5.464 -15.069  1.00  0.00     0.064 A 
ATOM     80  C   UNL     1       4.125   5.879 -15.921  1.00  0.00     0.173 A 
ATOM     81  C   UNL     1       3.146   4.157 -14.565  1.00  0.00     0.173 A 
ATOM     82  F   UNL     1       4.104   7.114 -16.445  1.00  0.00    -0.203 F 
ATOM     83  C   UNL     1       5.161   5.016 -16.270  1.00  0.00     0.198 A 
ATOM     84  C   UNL     1       4.196   3.303 -14.896  1.00  0.00     0.198 A 
ATOM     85  F   UNL     1       2.183   3.713 -13.743  1.00  0.00    -0.203 F 
ATOM     86  F   UNL     1       6.113   5.425 -17.120  1.00  0.00    -0.200 F 
ATOM     87  C   UNL     1       5.198   3.730 -15.754  1.00  0.00     0.200 A 
ATOM     88  F   UNL     1       4.235   2.064 -14.386  1.00  0.00    -0.200 F 
ATOM     89  F   UNL     1       6.196   2.900 -16.089  1.00  0.00    -0.200 F 
ENDBRANCH  55  79
BRANCH  67  90
ATOM     90  C   UNL     1      -2.153   8.184 -18.753  1.00  0.00     0.064 A 
ATOM     91  C   UNL     1      -2.743   7.018 -19.261  1.00  0.00     0.173 A 
ATOM     92  C   UNL     1      -1.978   9.269 -19.625  1.00  0.00     0.173 A 
ATOM     93  F   UNL     1      -2.916   5.949 -18.469  1.00  0.00    -0.203 F 
ATOM     94  C   UNL     1      -3.125   6.935 -20.597  1.00  0.00     0.198 A 
ATOM     95  C   UNL     1      -2.385   9.192 -20.954  1.00  0.00     0.198 A 
ATOM     96  F   UNL     1      -1.423  10.408 -19.184  1.00  0.00    -0.203 F 
ATOM     97  F   UNL     1      -3.649   5.797 -21.073  1.00  0.00    -0.200 F 
ATOM     98  C   UNL     1      -2.953   8.024 -21.440  1.00  0.00     0.200 A 
ATOM     99  F   UNL     1      -2.228  10.248 -21.764  1.00  0.00    -0.200 F 
ATOM    100  F   UNL     1      -3.328   7.944 -22.724  1.00  0.00    -0.200 F 
ENDBRANCH  67  90
ENDBRANCH  41  42
ENDBRANCH  33  36
ENDBRANCH  31  32
ENDBRANCH  30  31
ENDBRANCH   1  30
TORSDOF 16
