REMARK SMILES CC(C)(C)C1CN(c2cccc(Cl)c2C(=O)NCCCCNC(=O)c2ccc(-c3c4nc(c(-c5c(F)c(F)c(F)c(F)c5F)c5ccc([nH]5)c(-c5c(F)c(F)c(F)c(F)c5F)c5nc(c(-c6c(F)c(F)c(F)c(F)c6F)c6ccc3[nH]6)C=C5)C=C4)cc2)C1
REMARK SMILES IDX 19 1 18 2 17 3 15 4 16 5 14 7 8 8 9 9 10 10 12 11 11 12
REMARK SMILES IDX 13 13 7 14 5 15 6 16 88 17 2 18 1 19 3 20 4 21 20 22 21 23
REMARK SMILES IDX 22 24 23 25 24 27 25 28 26 29 87 30 27 31 86 32 28 33 29 34
REMARK SMILES IDX 30 35 80 36 31 37 85 38 79 39 81 40 32 41 84 42 78 43 77 44
REMARK SMILES IDX 33 46 65 47 45 48 64 49 46 50 49 51 63 52 82 53 47 54 48 55
REMARK SMILES IDX 62 57 83 58 50 59 34 60 35 61 43 62 36 63 37 64 41 65 44 66
REMARK SMILES IDX 38 67 39 68 42 69 40 70 66 71 67 72 75 73 68 74 69 75 73 76
REMARK SMILES IDX 76 77 70 78 71 79 74 80 72 81 51 82 52 83 60 84 53 85 54 86
REMARK SMILES IDX 58 87 61 88 55 89 56 90 59 91 57 92
REMARK H PARENT 17 6 22 26 81 45 49 56
REMARK Flexibility Score: inf
ROOT
ATOM      1  C   UNL     1      -0.395  10.303  -0.514  1.00  0.00     0.023 C 
ENDROOT
BRANCH   1   2
ATOM      2  C   UNL     1      -0.839   9.360   0.602  1.00  0.00     0.116 C 
BRANCH   2   3
ATOM      3  N   UNL     1      -1.284   8.040   0.184  1.00  0.00    -0.352 N 
ATOM      4  C   UNL     1      -1.277   6.830   0.865  1.00  0.00     0.254 C 
ATOM      5  O   UNL     1      -1.956   5.919   0.395  1.00  0.00    -0.269 OA
ATOM      6  H   UNL     1      -1.650   7.998  -0.728  1.00  0.00     0.163 HD
BRANCH   4   7
ATOM      7  C   UNL     1      -0.429   6.610   2.075  1.00  0.00     0.081 A 
ATOM      8  C   UNL     1       0.425   5.479   2.149  1.00  0.00     0.051 A 
ATOM      9  C   UNL     1       1.349   5.391   3.212  1.00  0.00     0.027 A 
ATOM     10  C   UNL     1       1.390   6.346   4.222  1.00  0.00     0.004 A 
ATOM     11  C   UNL     1      -0.500   7.453   3.198  1.00  0.00     0.055 A 
ATOM     12  C   UNL     1       0.434   7.351   4.237  1.00  0.00     0.021 A 
ATOM     13  Cl  UNL     1      -1.825   8.532   3.493  1.00  0.00    -0.083 Cl
BRANCH   8  14
ATOM     14  N   UNL     1       0.304   4.359   1.302  1.00  0.00    -0.370 N 
ATOM     15  C   UNL     1       0.950   2.639   0.339  1.00  0.00     0.033 C 
ATOM     16  C   UNL     1       0.773   4.136  -0.023  1.00  0.00     0.122 C 
ATOM     17  C   UNL     1       0.233   2.976   1.658  1.00  0.00     0.122 C 
BRANCH  15  18
ATOM     18  C   UNL     1       0.417   1.511  -0.571  1.00  0.00    -0.032 C 
ATOM     19  C   UNL     1       0.858   0.155   0.014  1.00  0.00     0.011 C 
ATOM     20  C   UNL     1       1.037   1.674  -1.967  1.00  0.00     0.011 C 
ATOM     21  C   UNL     1      -1.113   1.525  -0.690  1.00  0.00     0.011 C 
ENDBRANCH  15  18
ENDBRANCH   8  14
ENDBRANCH   4   7
ENDBRANCH   2   3
ENDBRANCH   1   2
BRANCH   1  22
ATOM     22  C   UNL     1      -1.396  10.581  -1.635  1.00  0.00     0.023 C 
BRANCH  22  23
ATOM     23  C   UNL     1      -2.826  10.926  -1.228  1.00  0.00     0.116 C 
BRANCH  23  24
ATOM     24  N   UNL     1      -2.948  12.137  -0.429  1.00  0.00    -0.352 N 
ATOM     25  C   UNL     1      -3.668  13.289  -0.653  1.00  0.00     0.251 C 
ATOM     26  H   UNL     1      -2.431  12.132   0.408  1.00  0.00     0.163 HD
ATOM     27  O   UNL     1      -3.579  14.227   0.136  1.00  0.00    -0.269 OA
BRANCH  25  28
ATOM     28  C   UNL     1      -4.513  13.437  -1.861  1.00  0.00     0.039 A 
ATOM     29  C   UNL     1      -4.445  14.632  -2.585  1.00  0.00     0.014 A 
ATOM     30  C   UNL     1      -5.364  12.417  -2.290  1.00  0.00     0.014 A 
ATOM     31  C   UNL     1      -5.145  14.762  -3.789  1.00  0.00     0.010 A 
ATOM     32  C   UNL     1      -5.995  12.514  -3.530  1.00  0.00     0.010 A 
ATOM     33  C   UNL     1      -5.882  13.682  -4.300  1.00  0.00    -0.014 A 
BRANCH  33  34
ATOM     34  C   UNL     1      -6.520  13.744  -5.643  1.00  0.00     0.031 A 
ATOM     35  C   UNL     1      -8.012  13.623  -5.785  1.00  0.00     0.074 A 
ATOM     36  C   UNL     1      -5.748  13.826  -6.746  1.00  0.00     0.049 A 
ATOM     37  N   UNL     1      -8.741  13.560  -6.872  1.00  0.00    -0.248 NA
ATOM     38  C   UNL     1      -8.787  13.529  -4.538  1.00  0.00     0.031 C 
ATOM     39  C   UNL     1      -4.286  13.896  -6.752  1.00  0.00     0.029 A 
ATOM     40  N   UNL     1      -6.085  13.850  -8.078  1.00  0.00    -0.354 N 
ATOM     41  C   UNL     1     -10.051  13.401  -6.441  1.00  0.00     0.074 A 
ATOM     42  C   UNL     1     -10.013  13.324  -4.996  1.00  0.00     0.031 C 
ATOM     43  C   UNL     1      -3.853  13.975  -8.020  1.00  0.00     0.029 A 
ATOM     44  C   UNL     1      -5.001  13.922  -8.920  1.00  0.00     0.049 A 
ATOM     45  H   UNL     1      -7.015  13.818  -8.398  1.00  0.00     0.167 HD
ATOM     46  C   UNL     1     -11.185  13.346  -7.180  1.00  0.00     0.037 A 
ATOM     47  C   UNL     1      -4.938  13.936 -10.265  1.00  0.00     0.037 A 
ATOM     48  C   UNL     1     -11.225  13.452  -8.615  1.00  0.00     0.049 A 
ATOM     49  C   UNL     1      -6.213  13.877 -11.063  1.00  0.00     0.074 A 
ATOM     50  C   UNL     1     -12.330  13.474  -9.449  1.00  0.00     0.029 A 
ATOM     51  N   UNL     1     -10.107  13.552  -9.431  1.00  0.00    -0.354 N 
ATOM     52  N   UNL     1      -7.451  13.798 -10.640  1.00  0.00    -0.248 NA
ATOM     53  C   UNL     1      -6.081  13.916 -12.527  1.00  0.00     0.031 C 
ATOM     54  C   UNL     1     -11.880  13.544 -10.771  1.00  0.00     0.029 A 
ATOM     55  C   UNL     1     -10.496  13.616 -10.760  1.00  0.00     0.049 A 
ATOM     56  H   UNL     1      -9.176  13.575  -9.113  1.00  0.00     0.167 HD
ATOM     57  C   UNL     1      -8.245  13.807 -11.779  1.00  0.00     0.074 A 
ATOM     58  C   UNL     1      -7.349  13.913 -12.912  1.00  0.00     0.031 C 
ATOM     59  C   UNL     1      -9.594  13.733 -11.877  1.00  0.00     0.037 A 
BRANCH  46  60
ATOM     60  C   UNL     1     -12.483  13.169  -6.446  1.00  0.00     0.064 A 
ATOM     61  C   UNL     1     -13.021  14.190  -5.647  1.00  0.00     0.173 A 
ATOM     62  C   UNL     1     -13.216  11.979  -6.570  1.00  0.00     0.173 A 
ATOM     63  F   UNL     1     -12.356  15.344  -5.487  1.00  0.00    -0.203 F 
ATOM     64  C   UNL     1     -14.227  14.014  -4.974  1.00  0.00     0.198 A 
ATOM     65  C   UNL     1     -14.438  11.818  -5.921  1.00  0.00     0.198 A 
ATOM     66  F   UNL     1     -12.752  10.974  -7.328  1.00  0.00    -0.203 F 
ATOM     67  F   UNL     1     -14.695  14.983  -4.177  1.00  0.00    -0.200 F 
ATOM     68  C   UNL     1     -14.938  12.832  -5.117  1.00  0.00     0.200 A 
ATOM     69  F   UNL     1     -15.131  10.681  -6.072  1.00  0.00    -0.200 F 
ATOM     70  F   UNL     1     -16.102  12.666  -4.475  1.00  0.00    -0.200 F 
ENDBRANCH  46  60
BRANCH  47  71
ATOM     71  C   UNL     1      -3.621  14.034 -10.947  1.00  0.00     0.064 A 
ATOM     72  C   UNL     1      -3.255  15.200 -11.636  1.00  0.00     0.173 A 
ATOM     73  C   UNL     1      -2.707  12.971 -10.932  1.00  0.00     0.173 A 
ATOM     74  F   UNL     1      -4.104  16.235 -11.697  1.00  0.00    -0.203 F 
ATOM     75  C   UNL     1      -2.034  15.290 -12.301  1.00  0.00     0.198 A 
ATOM     76  C   UNL     1      -1.474  13.073 -11.574  1.00  0.00     0.198 A 
ATOM     77  F   UNL     1      -3.007  11.836 -10.285  1.00  0.00    -0.203 F 
ATOM     78  F   UNL     1      -1.729  16.398 -12.990  1.00  0.00    -0.200 F 
ATOM     79  C   UNL     1      -1.142  14.229 -12.265  1.00  0.00     0.200 A 
ATOM     80  F   UNL     1      -0.610  12.050 -11.526  1.00  0.00    -0.200 F 
ATOM     81  F   UNL     1       0.034  14.317 -12.902  1.00  0.00    -0.200 F 
ENDBRANCH  47  71
BRANCH  59  82
ATOM     82  C   UNL     1     -10.191  13.803 -13.253  1.00  0.00     0.064 A 
ATOM     83  C   UNL     1     -10.084  12.737 -14.158  1.00  0.00     0.173 A 
ATOM     84  C   UNL     1     -10.914  14.937 -13.655  1.00  0.00     0.173 A 
ATOM     85  F   UNL     1      -9.390  11.637 -13.827  1.00  0.00    -0.203 F 
ATOM     86  C   UNL     1     -10.660  12.812 -15.423  1.00  0.00     0.198 A 
ATOM     87  C   UNL     1     -11.513  14.997 -14.910  1.00  0.00     0.198 A 
ATOM     88  F   UNL     1     -11.050  15.982 -12.825  1.00  0.00    -0.203 F 
ATOM     89  F   UNL     1     -10.506  11.801 -16.288  1.00  0.00    -0.200 F 
ATOM     90  C   UNL     1     -11.379  13.938 -15.795  1.00  0.00     0.200 A 
ATOM     91  F   UNL     1     -12.219  16.080 -15.262  1.00  0.00    -0.200 F 
ATOM     92  F   UNL     1     -11.939  14.006 -17.011  1.00  0.00    -0.200 F 
ENDBRANCH  59  82
ENDBRANCH  33  34
ENDBRANCH  25  28
ENDBRANCH  23  24
ENDBRANCH  22  23
ENDBRANCH   1  22
TORSDOF 13
