REMARK SMILES C[C@H](C[C@H]1CCCCC[NH2+]1)Nc1cc(C(=O)NCCCCNC(=O)c2ccc(-c3c4nc(c(-c5c(F)c(F)c(F)c(F)c5F)c5ccc([nH]5)c(-c5c(F)c(F)c(F)c(F)c5F)c5nc(c(-c6c(F)c(F)c(F)c(F)c6F)c6ccc3[nH]6)C=C5)C=C4)cc2)ccc1F
REMARK SMILES IDX 15 1 16 2 17 3 14 5 12 6 13 7 90 8 89 9 91 10 88 11 11 12
REMARK SMILES IDX 2 14 1 15 3 16 4 17 5 18 6 19 7 20 10 22 9 25 8 26 18 28
REMARK SMILES IDX 19 29 20 30 21 31 22 32 23 33 24 35 25 36 26 37 87 38 27 39
REMARK SMILES IDX 86 40 28 41 29 42 30 43 80 44 31 45 85 46 79 47 81 48 32 49
REMARK SMILES IDX 84 50 78 51 77 52 33 54 65 55 45 56 64 57 46 58 49 59 63 60
REMARK SMILES IDX 82 61 47 62 48 63 62 65 83 66 50 67 34 68 35 69 43 70 36 71
REMARK SMILES IDX 37 72 41 73 44 74 38 75 39 76 42 77 40 78 66 79 67 80 75 81
REMARK SMILES IDX 68 82 69 83 73 84 76 85 70 86 71 87 74 88 72 89 51 90 52 91
REMARK SMILES IDX 60 92 53 93 54 94 58 95 61 96 55 97 56 98 59 99 57 100
REMARK H PARENT 17 4 11 13 10 23 10 24 22 34 81 53 49 64
REMARK Flexibility Score: 90.00
ROOT
ATOM      1  C   UNL     1      -0.504  -8.059  -3.527  1.00  0.00     0.251 C 
ATOM      2  O   UNL     1      -0.396  -8.292  -2.324  1.00  0.00    -0.269 OA
ATOM      3  N   UNL     1      -1.201  -8.958  -4.291  1.00  0.00    -0.352 N 
ATOM      4  H   UNL     1      -1.566  -9.721  -3.788  1.00  0.00     0.163 HD
ENDROOT
BRANCH   1   5
ATOM      5  C   UNL     1       0.053  -6.791  -4.075  1.00  0.00     0.042 A 
ATOM      6  C   UNL     1       0.532  -4.417  -3.583  1.00  0.00     0.071 A 
ATOM      7  C   UNL     1       0.080  -5.694  -3.199  1.00  0.00     0.042 A 
ATOM      8  C   UNL     1       0.928  -4.275  -4.916  1.00  0.00     0.146 A 
ATOM      9  C   UNL     1       0.974  -5.366  -5.787  1.00  0.00     0.042 A 
ATOM     10  F   UNL     1       1.319  -3.096  -5.413  1.00  0.00    -0.205 F 
ATOM     11  C   UNL     1       0.567  -6.629  -5.359  1.00  0.00     0.017 A 
BRANCH   6  12
ATOM     12  N   UNL     1       0.559  -3.452  -2.598  1.00  0.00    -0.380 N 
ATOM     13  H   UNL     1       0.542  -3.805  -1.679  1.00  0.00     0.160 HD
BRANCH  12  14
ATOM     14  C   UNL     1       0.608  -2.001  -2.685  1.00  0.00     0.082 C 
ATOM     15  C   UNL     1       1.810  -1.415  -3.412  1.00  0.00     0.031 C 
BRANCH  14  16
ATOM     16  C   UNL     1       0.430  -1.418  -1.263  1.00  0.00     0.089 C 
BRANCH  16  17
ATOM     17  C   UNL     1       1.535  -1.488  -0.161  1.00  0.00     0.184 C 
BRANCH  17  18
ATOM     18  C   UNL     1       1.107  -2.204   1.138  1.00  0.00     0.065 C 
BRANCH  18  19
ATOM     19  C   UNL     1       1.121  -3.723   1.161  1.00  0.00     0.006 C 
BRANCH  19  20
ATOM     20  C   UNL     1       2.509  -4.329   1.006  1.00  0.00     0.006 CG0
ATOM     21  G   UNL     1       3.024  -4.228  -0.415  1.00  0.00     0.000 G0
ENDBRANCH  19  20
ENDBRANCH  18  19
ENDBRANCH  17  18
BRANCH  17  22
ATOM     22  N   UNL     1       2.946  -1.620  -0.467  1.00  0.00    -0.344 N 
ATOM     23  H   UNL     1       3.441  -1.279   0.358  1.00  0.00     0.346 HD
ATOM     24  H   UNL     1       2.999  -1.120  -1.354  1.00  0.00     0.346 HD
BRANCH  22  25
ATOM     25  C   UNL     1       3.588  -2.871  -0.819  1.00  0.00     0.260 C 
BRANCH  25  26
ATOM     26  C   UNL     1       3.024  -4.228  -0.415  1.00  0.00     0.061 CG0
ATOM     27  G   UNL     1       2.509  -4.329   1.006  1.00  0.00     0.000 G0
ENDBRANCH  25  26
ENDBRANCH  22  25
ENDBRANCH  17  22
ENDBRANCH  16  17
ENDBRANCH  14  16
ENDBRANCH  12  14
ENDBRANCH   6  12
ENDBRANCH   1   5
BRANCH   3  28
ATOM     28  C   UNL     1      -1.494  -8.983  -5.708  1.00  0.00     0.116 C 
BRANCH  28  29
ATOM     29  C   UNL     1      -0.486  -9.876  -6.433  1.00  0.00     0.023 C 
BRANCH  29  30
ATOM     30  C   UNL     1      -0.799 -11.372  -6.337  1.00  0.00     0.023 C 
BRANCH  30  31
ATOM     31  C   UNL     1      -2.117 -11.791  -6.979  1.00  0.00     0.116 C 
BRANCH  31  32
ATOM     32  N   UNL     1      -2.232 -11.388  -8.372  1.00  0.00    -0.352 N 
ATOM     33  C   UNL     1      -2.915 -12.010  -9.387  1.00  0.00     0.251 C 
ATOM     34  H   UNL     1      -1.759 -10.561  -8.619  1.00  0.00     0.163 HD
ATOM     35  O   UNL     1      -2.835 -11.597 -10.539  1.00  0.00    -0.269 OA
BRANCH  33  36
ATOM     36  C   UNL     1      -3.713 -13.212  -9.083  1.00  0.00     0.039 A 
ATOM     37  C   UNL     1      -3.512 -14.361  -9.851  1.00  0.00     0.014 A 
ATOM     38  C   UNL     1      -4.620 -13.214  -8.020  1.00  0.00     0.014 A 
ATOM     39  C   UNL     1      -4.176 -15.538  -9.509  1.00  0.00     0.010 A 
ATOM     40  C   UNL     1      -5.231 -14.403  -7.642  1.00  0.00     0.010 A 
ATOM     41  C   UNL     1      -5.012 -15.575  -8.381  1.00  0.00    -0.014 A 
BRANCH  41  42
ATOM     42  C   UNL     1      -5.655 -16.838  -7.950  1.00  0.00     0.031 A 
ATOM     43  C   UNL     1      -7.148 -16.976  -7.989  1.00  0.00     0.074 A 
ATOM     44  C   UNL     1      -4.893 -17.832  -7.455  1.00  0.00     0.049 A 
ATOM     45  N   UNL     1      -7.896 -17.976  -7.598  1.00  0.00    -0.248 NA
ATOM     46  C   UNL     1      -7.905 -15.825  -8.505  1.00  0.00     0.031 C 
ATOM     47  C   UNL     1      -3.438 -17.787  -7.311  1.00  0.00     0.029 A 
ATOM     48  N   UNL     1      -5.238 -19.068  -6.971  1.00  0.00    -0.354 N 
ATOM     49  C   UNL     1      -9.206 -17.569  -7.803  1.00  0.00     0.074 A 
ATOM     50  C   UNL     1      -9.156 -16.213  -8.306  1.00  0.00     0.031 C 
ATOM     51  C   UNL     1      -3.012 -18.951  -6.797  1.00  0.00     0.029 A 
ATOM     52  C   UNL     1      -4.165 -19.811  -6.547  1.00  0.00     0.049 A 
ATOM     53  H   UNL     1      -6.167 -19.392  -6.932  1.00  0.00     0.167 HD
ATOM     54  C   UNL     1     -10.345 -18.273  -7.609  1.00  0.00     0.037 A 
ATOM     55  C   UNL     1      -4.115 -21.047  -6.015  1.00  0.00     0.037 A 
ATOM     56  C   UNL     1     -10.383 -19.634  -7.146  1.00  0.00     0.049 A 
ATOM     57  C   UNL     1      -5.391 -21.821  -5.835  1.00  0.00     0.074 A 
ATOM     58  C   UNL     1     -11.481 -20.465  -7.005  1.00  0.00     0.029 A 
ATOM     59  N   UNL     1      -9.273 -20.364  -6.747  1.00  0.00    -0.354 N 
ATOM     60  N   UNL     1      -6.620 -21.456  -6.104  1.00  0.00    -0.248 NA
ATOM     61  C   UNL     1      -5.273 -23.179  -5.286  1.00  0.00     0.031 C 
ATOM     62  C   UNL     1     -11.040 -21.683  -6.478  1.00  0.00     0.029 A 
ATOM     63  C   UNL     1      -9.663 -21.628  -6.335  1.00  0.00     0.049 A 
ATOM     64  H   UNL     1      -8.346 -20.033  -6.755  1.00  0.00     0.167 HD
ATOM     65  C   UNL     1      -7.422 -22.538  -5.772  1.00  0.00     0.074 A 
ATOM     66  C   UNL     1      -6.538 -23.581  -5.294  1.00  0.00     0.031 C 
ATOM     67  C   UNL     1      -8.770 -22.654  -5.856  1.00  0.00     0.037 A 
BRANCH  54  68
ATOM     68  C   UNL     1     -11.646 -17.588  -7.905  1.00  0.00     0.064 A 
ATOM     69  C   UNL     1     -12.531 -17.263  -6.866  1.00  0.00     0.173 A 
ATOM     70  C   UNL     1     -12.040 -17.293  -9.219  1.00  0.00     0.173 A 
ATOM     71  F   UNL     1     -12.205 -17.528  -5.592  1.00  0.00    -0.203 F 
ATOM     72  C   UNL     1     -13.763 -16.672  -7.132  1.00  0.00     0.198 A 
ATOM     73  C   UNL     1     -13.260 -16.675  -9.479  1.00  0.00     0.198 A 
ATOM     74  F   UNL     1     -11.225 -17.572 -10.247  1.00  0.00    -0.203 F 
ATOM     75  F   UNL     1     -14.602 -16.391  -6.125  1.00  0.00    -0.200 F 
ATOM     76  C   UNL     1     -14.124 -16.372  -8.437  1.00  0.00     0.200 A 
ATOM     77  F   UNL     1     -13.595 -16.362 -10.739  1.00  0.00    -0.200 F 
ATOM     78  F   UNL     1     -15.302 -15.787  -8.691  1.00  0.00    -0.200 F 
ENDBRANCH  54  68
BRANCH  55  79
ATOM     79  C   UNL     1      -2.797 -21.630  -5.661  1.00  0.00     0.064 A 
ATOM     80  C   UNL     1      -2.062 -21.159  -4.564  1.00  0.00     0.173 A 
ATOM     81  C   UNL     1      -2.220 -22.628  -6.457  1.00  0.00     0.173 A 
ATOM     82  F   UNL     1      -2.569 -20.198  -3.778  1.00  0.00    -0.203 F 
ATOM     83  C   UNL     1      -0.786 -21.649  -4.290  1.00  0.00     0.198 A 
ATOM     84  C   UNL     1      -0.953 -23.133  -6.170  1.00  0.00     0.198 A 
ATOM     85  F   UNL     1      -2.893 -23.120  -7.507  1.00  0.00    -0.203 F 
ATOM     86  F   UNL     1      -0.088 -21.155  -3.260  1.00  0.00    -0.200 F 
ATOM     87  C   UNL     1      -0.234 -22.636  -5.093  1.00  0.00     0.200 A 
ATOM     88  F   UNL     1      -0.429 -24.098  -6.937  1.00  0.00    -0.200 F 
ATOM     89  F   UNL     1       0.993 -23.106  -4.830  1.00  0.00    -0.200 F 
ENDBRANCH  55  79
BRANCH  67  90
ATOM     90  C   UNL     1      -9.383 -23.954  -5.430  1.00  0.00     0.064 A 
ATOM     91  C   UNL     1      -9.943 -24.822  -6.380  1.00  0.00     0.173 A 
ATOM     92  C   UNL     1      -9.496 -24.298  -4.076  1.00  0.00     0.173 A 
ATOM     93  F   UNL     1      -9.867 -24.532  -7.688  1.00  0.00    -0.203 F 
ATOM     94  C   UNL     1     -10.609 -25.979  -5.987  1.00  0.00     0.198 A 
ATOM     95  C   UNL     1     -10.141 -25.470  -3.688  1.00  0.00     0.198 A 
ATOM     96  F   UNL     1      -8.966 -23.506  -3.132  1.00  0.00    -0.203 F 
ATOM     97  F   UNL     1     -11.167 -26.775  -6.910  1.00  0.00    -0.200 F 
ATOM     98  C   UNL     1     -10.706 -26.303  -4.642  1.00  0.00     0.200 A 
ATOM     99  F   UNL     1     -10.216 -25.793  -2.389  1.00  0.00    -0.200 F 
ATOM    100  F   UNL     1     -11.344 -27.419  -4.266  1.00  0.00    -0.200 F 
ENDBRANCH  67  90
ENDBRANCH  41  42
ENDBRANCH  33  36
ENDBRANCH  31  32
ENDBRANCH  30  31
ENDBRANCH  29  30
ENDBRANCH  28  29
ENDBRANCH   3  28
TORSDOF 15
