REMARK SMILES CSCC[C@@H](NC(=O)[C@@H]1CC(=O)N(C)C1)C(=O)NCCCCNC(=O)c1ccc(-c2c3nc(c(-c4c(F)c(F)c(F)c(F)c4F)c4ccc([nH]4)c(-c4c(F)c(F)c(F)c(F)c4F)c4nc(c(-c5c(F)c(F)c(F)c(F)c5F)c5ccc2[nH]5)C=C4)C=C3)cc1
REMARK SMILES IDX 20 1 19 2 18 3 16 4 17 5 5 7 4 8 3 9 2 10 1 11 6 12 7 13
REMARK SMILES IDX 8 15 9 16 10 17 15 18 11 19 13 20 12 21 14 22 21 23 22 24
REMARK SMILES IDX 23 25 24 26 25 28 26 29 27 30 88 31 28 32 87 33 29 34 30 35
REMARK SMILES IDX 31 36 81 37 32 38 86 39 80 40 82 41 33 42 85 43 79 44 78 45
REMARK SMILES IDX 34 47 66 48 46 49 65 50 47 51 50 52 64 53 83 54 48 55 49 56
REMARK SMILES IDX 63 58 84 59 51 60 35 61 36 62 44 63 37 64 38 65 42 66 45 67
REMARK SMILES IDX 39 68 40 69 43 70 41 71 67 72 68 73 76 74 69 75 70 76 74 77
REMARK SMILES IDX 77 78 71 79 72 80 75 81 73 82 52 83 53 84 61 85 54 86 55 87
REMARK SMILES IDX 59 88 62 89 56 90 57 91 60 92 58 93
REMARK H PARENT 18 6 6 14 23 27 82 46 50 57
REMARK Flexibility Score: inf
ROOT
ATOM      1  C   UNL     1       0.456   3.731  -6.216  1.00  0.00     0.023 C 
ENDROOT
BRANCH   1   2
ATOM      2  C   UNL     1       0.918   3.224  -4.848  1.00  0.00     0.116 C 
BRANCH   2   3
ATOM      3  N   UNL     1      -0.032   3.552  -3.786  1.00  0.00    -0.354 N 
ATOM      4  C   UNL     1      -0.011   3.281  -2.447  1.00  0.00     0.242 C 
ATOM      5  O   UNL     1      -0.847   3.844  -1.734  1.00  0.00    -0.273 OA
ATOM      6  H   UNL     1      -0.824   4.053  -4.088  1.00  0.00     0.163 HD
BRANCH   4   7
ATOM      7  C   UNL     1       0.972   2.263  -1.831  1.00  0.00     0.172 C 
BRANCH   7   8
ATOM      8  C   UNL     1       0.538   0.892  -2.424  1.00  0.00     0.046 C 
BRANCH   8   9
ATOM      9  C   UNL     1       1.415  -0.341  -2.251  1.00  0.00     0.072 C 
BRANCH   9  10
ATOM     10  S   UNL     1       0.799  -1.509  -1.002  1.00  0.00    -0.165 SA
ATOM     11  C   UNL     1       1.155  -0.567   0.492  1.00  0.00     0.085 C 
ENDBRANCH   9  10
ENDBRANCH   8   9
ENDBRANCH   7   8
BRANCH   7  12
ATOM     12  N   UNL     1       2.396   2.636  -1.942  1.00  0.00    -0.344 N 
ATOM     13  C   UNL     1       3.022   3.720  -1.343  1.00  0.00     0.226 C 
ATOM     14  H   UNL     1       2.962   2.055  -2.501  1.00  0.00     0.164 HD
ATOM     15  O   UNL     1       4.171   3.567  -0.929  1.00  0.00    -0.275 OA
BRANCH  13  16
ATOM     16  C   UNL     1       2.339   5.081  -1.331  1.00  0.00     0.107 C 
ATOM     17  C   UNL     1       2.326   5.603  -2.760  1.00  0.00     0.115 C 
ATOM     18  C   UNL     1       3.054   6.231  -0.603  1.00  0.00     0.133 C 
ATOM     19  C   UNL     1       2.251   7.083  -2.641  1.00  0.00     0.223 C 
ATOM     20  N   UNL     1       2.696   7.408  -1.386  1.00  0.00    -0.345 N 
ATOM     21  O   UNL     1       1.880   7.837  -3.528  1.00  0.00    -0.275 OA
ATOM     22  C   UNL     1       2.777   8.772  -0.921  1.00  0.00     0.146 C 
ENDBRANCH  13  16
ENDBRANCH   7  12
ENDBRANCH   4   7
ENDBRANCH   2   3
ENDBRANCH   1   2
BRANCH   1  23
ATOM     23  C   UNL     1       0.284   5.247  -6.346  1.00  0.00     0.023 C 
BRANCH  23  24
ATOM     24  C   UNL     1       1.552   6.077  -6.189  1.00  0.00     0.116 C 
BRANCH  24  25
ATOM     25  N   UNL     1       2.513   5.910  -7.260  1.00  0.00    -0.352 N 
ATOM     26  C   UNL     1       3.121   6.866  -8.037  1.00  0.00     0.251 C 
ATOM     27  H   UNL     1       2.766   4.979  -7.459  1.00  0.00     0.163 HD
ATOM     28  O   UNL     1       3.927   6.527  -8.899  1.00  0.00    -0.269 OA
BRANCH  26  29
ATOM     29  C   UNL     1       2.761   8.295  -7.896  1.00  0.00     0.039 A 
ATOM     30  C   UNL     1       2.402   8.990  -9.054  1.00  0.00     0.014 A 
ATOM     31  C   UNL     1       2.763   8.953  -6.663  1.00  0.00     0.014 A 
ATOM     32  C   UNL     1       1.981  10.318  -8.967  1.00  0.00     0.010 A 
ATOM     33  C   UNL     1       2.277  10.260  -6.569  1.00  0.00     0.010 A 
ATOM     34  C   UNL     1       1.877  10.956  -7.720  1.00  0.00    -0.014 A 
BRANCH  34  35
ATOM     35  C   UNL     1       1.330  12.337  -7.629  1.00  0.00     0.031 A 
ATOM     36  C   UNL     1       2.198  13.482  -7.187  1.00  0.00     0.074 A 
ATOM     37  C   UNL     1       0.037  12.562  -7.938  1.00  0.00     0.049 A 
ATOM     38  N   UNL     1       1.897  14.753  -7.073  1.00  0.00    -0.248 NA
ATOM     39  C   UNL     1       3.582  13.158  -6.811  1.00  0.00     0.031 C 
ATOM     40  C   UNL     1      -0.922  11.534  -8.343  1.00  0.00     0.029 A 
ATOM     41  N   UNL     1      -0.693  13.725  -7.960  1.00  0.00    -0.354 N 
ATOM     42  C   UNL     1       3.050  15.376  -6.613  1.00  0.00     0.074 A 
ATOM     43  C   UNL     1       4.040  14.338  -6.419  1.00  0.00     0.031 C 
ATOM     44  C   UNL     1      -2.105  12.114  -8.601  1.00  0.00     0.029 A 
ATOM     45  C   UNL     1      -2.002  13.548  -8.341  1.00  0.00     0.049 A 
ATOM     46  H   UNL     1      -0.315  14.604  -7.726  1.00  0.00     0.167 HD
ATOM     47  C   UNL     1       3.269  16.695  -6.391  1.00  0.00     0.037 A 
ATOM     48  C   UNL     1      -3.008  14.436  -8.460  1.00  0.00     0.037 A 
ATOM     49  C   UNL     1       2.284  17.729  -6.588  1.00  0.00     0.049 A 
ATOM     50  C   UNL     1      -2.746  15.891  -8.177  1.00  0.00     0.074 A 
ATOM     51  C   UNL     1       2.430  19.098  -6.439  1.00  0.00     0.029 A 
ATOM     52  N   UNL     1       0.967  17.508  -6.963  1.00  0.00    -0.354 N 
ATOM     53  N   UNL     1      -1.631  16.478  -7.817  1.00  0.00    -0.248 NA
ATOM     54  C   UNL     1      -3.884  16.810  -8.324  1.00  0.00     0.031 C 
ATOM     55  C   UNL     1       1.187  19.699  -6.661  1.00  0.00     0.029 A 
ATOM     56  C   UNL     1       0.282  18.713  -7.018  1.00  0.00     0.049 A 
ATOM     57  H   UNL     1       0.576  16.627  -7.161  1.00  0.00     0.167 HD
ATOM     58  C   UNL     1      -1.923  17.833  -7.728  1.00  0.00     0.074 A 
ATOM     59  C   UNL     1      -3.317  17.984  -8.084  1.00  0.00     0.031 C 
ATOM     60  C   UNL     1      -1.105  18.858  -7.382  1.00  0.00     0.037 A 
BRANCH  47  61
ATOM     61  C   UNL     1       4.630  17.102  -5.900  1.00  0.00     0.064 A 
ATOM     62  C   UNL     1       5.767  17.014  -6.718  1.00  0.00     0.173 A 
ATOM     63  C   UNL     1       4.792  17.629  -4.609  1.00  0.00     0.173 A 
ATOM     64  F   UNL     1       5.670  16.512  -7.958  1.00  0.00    -0.203 F 
ATOM     65  C   UNL     1       7.018  17.410  -6.252  1.00  0.00     0.198 A 
ATOM     66  C   UNL     1       6.038  18.055  -4.159  1.00  0.00     0.198 A 
ATOM     67  F   UNL     1       3.737  17.746  -3.788  1.00  0.00    -0.203 F 
ATOM     68  F   UNL     1       8.098  17.269  -7.034  1.00  0.00    -0.200 F 
ATOM     69  C   UNL     1       7.152  17.937  -4.976  1.00  0.00     0.200 A 
ATOM     70  F   UNL     1       6.162  18.582  -2.932  1.00  0.00    -0.200 F 
ATOM     71  F   UNL     1       8.355  18.326  -4.533  1.00  0.00    -0.200 F 
ENDBRANCH  47  61
BRANCH  48  72
ATOM     72  C   UNL     1      -4.359  13.975  -8.879  1.00  0.00     0.064 A 
ATOM     73  C   UNL     1      -4.899  14.350 -10.117  1.00  0.00     0.173 A 
ATOM     74  C   UNL     1      -5.142  13.163  -8.046  1.00  0.00     0.173 A 
ATOM     75  F   UNL     1      -4.200  15.144 -10.941  1.00  0.00    -0.203 F 
ATOM     76  C   UNL     1      -6.180  13.949 -10.495  1.00  0.00     0.198 A 
ATOM     77  C   UNL     1      -6.408  12.736  -8.439  1.00  0.00     0.198 A 
ATOM     78  F   UNL     1      -4.672  12.775  -6.851  1.00  0.00    -0.203 F 
ATOM     79  F   UNL     1      -6.693  14.366 -11.661  1.00  0.00    -0.200 F 
ATOM     80  C   UNL     1      -6.930  13.137  -9.659  1.00  0.00     0.200 A 
ATOM     81  F   UNL     1      -7.124  11.939  -7.634  1.00  0.00    -0.200 F 
ATOM     82  F   UNL     1      -8.160  12.749 -10.024  1.00  0.00    -0.200 F 
ENDBRANCH  48  72
BRANCH  60  83
ATOM     83  C   UNL     1      -1.682  20.246  -7.413  1.00  0.00     0.064 A 
ATOM     84  C   UNL     1      -2.636  20.675  -6.478  1.00  0.00     0.173 A 
ATOM     85  C   UNL     1      -1.240  21.174  -8.370  1.00  0.00     0.173 A 
ATOM     86  F   UNL     1      -3.103  19.825  -5.551  1.00  0.00    -0.203 F 
ATOM     87  C   UNL     1      -3.146  21.971  -6.517  1.00  0.00     0.198 A 
ATOM     88  C   UNL     1      -1.726  22.479  -8.384  1.00  0.00     0.198 A 
ATOM     89  F   UNL     1      -0.324  20.820  -9.284  1.00  0.00    -0.203 F 
ATOM     90  F   UNL     1      -4.094  22.342  -5.646  1.00  0.00    -0.200 F 
ATOM     91  C   UNL     1      -2.684  22.874  -7.463  1.00  0.00     0.200 A 
ATOM     92  F   UNL     1      -1.266  23.354  -9.289  1.00  0.00    -0.200 F 
ATOM     93  F   UNL     1      -3.169  24.123  -7.492  1.00  0.00    -0.200 F 
ENDBRANCH  60  83
ENDBRANCH  34  35
ENDBRANCH  26  29
ENDBRANCH  24  25
ENDBRANCH  23  24
ENDBRANCH   1  23
TORSDOF 16
