REMARK SMILES C[C@H]([NH2+]CCc1ccco1)[C@@H](C)C(=O)NCCCCNC(=O)c1ccc(-c2c3nc(c(-c4c(F)c(F)c(F)c(F)c4F)c4ccc([nH]4)c(-c4c(F)c(F)c(F)c(F)c4F)c4nc(c(-c5c(F)c(F)c(F)c(F)c5F)c5ccc2[nH]5)C=C4)C=C3)cc1
REMARK SMILES IDX 16 1 15 2 13 3 14 4 11 6 12 7 2 8 1 9 3 10 4 13 5 14 6 15
REMARK SMILES IDX 7 16 10 17 8 18 9 19 17 20 18 21 19 22 20 23 21 24 22 26
REMARK SMILES IDX 23 27 24 28 85 29 25 30 84 31 26 32 27 33 28 34 78 35 29 36
REMARK SMILES IDX 83 37 77 38 79 39 30 40 82 41 76 42 75 43 31 45 63 46 43 47
REMARK SMILES IDX 62 48 44 49 47 50 61 51 80 52 45 53 46 54 60 56 81 57 48 58
REMARK SMILES IDX 32 59 33 60 41 61 34 62 35 63 39 64 42 65 36 66 37 67 40 68
REMARK SMILES IDX 38 69 64 70 65 71 73 72 66 73 67 74 71 75 74 76 68 77 69 78
REMARK SMILES IDX 72 79 70 80 49 81 50 82 58 83 51 84 52 85 56 86 59 87 53 88
REMARK SMILES IDX 54 89 57 90 55 91
REMARK H PARENT 15 5 3 11 3 12 20 25 79 44 47 55
REMARK Flexibility Score: inf
ROOT
ATOM      1  C   UNL     1      -0.331   0.871   3.946  1.00  0.00     0.116 C 
ENDROOT
BRANCH   1   2
ATOM      2  N   UNL     1      -1.218   1.779   3.242  1.00  0.00    -0.356 N 
ATOM      3  C   UNL     1      -1.514   1.909   1.919  1.00  0.00     0.228 C 
ATOM      4  O   UNL     1      -2.330   2.783   1.610  1.00  0.00    -0.275 OA
ATOM      5  H   UNL     1      -1.691   2.416   3.826  1.00  0.00     0.163 HD
BRANCH   3   6
ATOM      6  C   UNL     1      -0.899   1.012   0.838  1.00  0.00     0.133 C 
ATOM      7  C   UNL     1      -1.485  -0.398   0.971  1.00  0.00     0.024 C 
BRANCH   6   8
ATOM      8  C   UNL     1       0.649   1.115   0.804  1.00  0.00     0.191 C 
ATOM      9  C   UNL     1       1.109   2.566   0.568  1.00  0.00     0.076 C 
BRANCH   8  10
ATOM     10  N   UNL     1       1.329   0.137  -0.059  1.00  0.00    -0.343 N 
ATOM     11  H   UNL     1       0.764  -0.713  -0.065  1.00  0.00     0.346 HD
ATOM     12  H   UNL     1       2.260   0.030   0.343  1.00  0.00     0.346 HD
BRANCH  10  13
ATOM     13  C   UNL     1       1.556   0.527  -1.449  1.00  0.00     0.268 C 
BRANCH  13  14
ATOM     14  C   UNL     1       2.097  -0.645  -2.282  1.00  0.00     0.136 C 
BRANCH  14  15
ATOM     15  C   UNL     1       1.045  -1.652  -2.580  1.00  0.00     0.109 A 
ATOM     16  C   UNL     1      -0.016  -1.677  -3.460  1.00  0.00     0.046 A 
ATOM     17  O   UNL     1       1.083  -2.808  -1.860  1.00  0.00    -0.469 OA
ATOM     18  C   UNL     1      -0.660  -2.922  -3.271  1.00  0.00     0.042 A 
ATOM     19  C   UNL     1       0.050  -3.576  -2.292  1.00  0.00     0.195 A 
ENDBRANCH  14  15
ENDBRANCH  13  14
ENDBRANCH  10  13
ENDBRANCH   8  10
ENDBRANCH   6   8
ENDBRANCH   3   6
ENDBRANCH   1   2
BRANCH   1  20
ATOM     20  C   UNL     1       0.953   1.560   4.411  1.00  0.00     0.023 C 
BRANCH  20  21
ATOM     21  C   UNL     1       0.768   2.571   5.541  1.00  0.00     0.023 C 
BRANCH  21  22
ATOM     22  C   UNL     1       0.052   2.040   6.775  1.00  0.00     0.116 C 
BRANCH  22  23
ATOM     23  N   UNL     1       0.677   0.849   7.330  1.00  0.00    -0.352 N 
ATOM     24  C   UNL     1       0.901   0.513   8.640  1.00  0.00     0.251 C 
ATOM     25  H   UNL     1       0.984   0.188   6.668  1.00  0.00     0.163 HD
ATOM     26  O   UNL     1       1.562  -0.488   8.910  1.00  0.00    -0.269 OA
BRANCH  24  27
ATOM     27  C   UNL     1       0.385   1.369   9.729  1.00  0.00     0.039 A 
ATOM     28  C   UNL     1       1.214   1.625  10.823  1.00  0.00     0.014 A 
ATOM     29  C   UNL     1      -0.901   1.916   9.682  1.00  0.00     0.014 A 
ATOM     30  C   UNL     1       0.774   2.472  11.840  1.00  0.00     0.010 A 
ATOM     31  C   UNL     1      -1.304   2.831  10.652  1.00  0.00     0.010 A 
ATOM     32  C   UNL     1      -0.474   3.111  11.746  1.00  0.00    -0.014 A 
BRANCH  32  33
ATOM     33  C   UNL     1      -0.897   4.081  12.788  1.00  0.00     0.031 A 
ATOM     34  C   UNL     1      -2.098   3.812  13.650  1.00  0.00     0.074 A 
ATOM     35  C   UNL     1      -0.198   5.223  12.942  1.00  0.00     0.049 A 
ATOM     36  N   UNL     1      -2.572   4.515  14.649  1.00  0.00    -0.248 NA
ATOM     37  C   UNL     1      -2.887   2.611  13.338  1.00  0.00     0.031 C 
ATOM     38  C   UNL     1       0.939   5.633  12.116  1.00  0.00     0.029 A 
ATOM     39  N   UNL     1      -0.333   6.242  13.851  1.00  0.00    -0.354 N 
ATOM     40  C   UNL     1      -3.710   3.845  15.079  1.00  0.00     0.074 A 
ATOM     41  C   UNL     1      -3.894   2.716  14.193  1.00  0.00     0.031 C 
ATOM     42  C   UNL     1       1.428   6.792  12.585  1.00  0.00     0.029 A 
ATOM     43  C   UNL     1       0.620   7.222  13.722  1.00  0.00     0.049 A 
ATOM     44  H   UNL     1      -1.044   6.268  14.530  1.00  0.00     0.167 HD
ATOM     45  C   UNL     1      -4.511   4.128  16.134  1.00  0.00     0.037 A 
ATOM     46  C   UNL     1       0.827   8.338  14.446  1.00  0.00     0.037 A 
ATOM     47  C   UNL     1      -4.316   5.248  17.019  1.00  0.00     0.049 A 
ATOM     48  C   UNL     1      -0.065   8.618  15.624  1.00  0.00     0.074 A 
ATOM     49  C   UNL     1      -5.036   5.591  18.150  1.00  0.00     0.029 A 
ATOM     50  N   UNL     1      -3.332   6.214  16.866  1.00  0.00    -0.354 N 
ATOM     51  N   UNL     1      -1.081   7.926  16.079  1.00  0.00    -0.248 NA
ATOM     52  C   UNL     1       0.234   9.828  16.402  1.00  0.00     0.031 C 
ATOM     53  C   UNL     1      -4.524   6.794  18.648  1.00  0.00     0.029 A 
ATOM     54  C   UNL     1      -3.442   7.166  17.868  1.00  0.00     0.049 A 
ATOM     55  H   UNL     1      -2.655   6.222  16.151  1.00  0.00     0.167 HD
ATOM     56  C   UNL     1      -1.526   8.598  17.210  1.00  0.00     0.074 A 
ATOM     57  C   UNL     1      -0.650   9.739  17.385  1.00  0.00     0.031 C 
ATOM     58  C   UNL     1      -2.565   8.300  18.029  1.00  0.00     0.037 A 
BRANCH  45  59
ATOM     59  C   UNL     1      -5.675   3.211  16.390  1.00  0.00     0.064 A 
ATOM     60  C   UNL     1      -5.491   1.886  16.818  1.00  0.00     0.173 A 
ATOM     61  C   UNL     1      -6.992   3.672  16.240  1.00  0.00     0.173 A 
ATOM     62  F   UNL     1      -4.254   1.390  16.966  1.00  0.00    -0.203 F 
ATOM     63  C   UNL     1      -6.580   1.050  17.055  1.00  0.00     0.198 A 
ATOM     64  C   UNL     1      -8.078   2.843  16.512  1.00  0.00     0.198 A 
ATOM     65  F   UNL     1      -7.228   4.930  15.839  1.00  0.00    -0.203 F 
ATOM     66  F   UNL     1      -6.377  -0.226  17.410  1.00  0.00    -0.200 F 
ATOM     67  C   UNL     1      -7.872   1.531  16.910  1.00  0.00     0.200 A 
ATOM     68  F   UNL     1      -9.327   3.315  16.387  1.00  0.00    -0.200 F 
ATOM     69  F   UNL     1      -8.918   0.728  17.148  1.00  0.00    -0.200 F 
ENDBRANCH  45  59
BRANCH  46  70
ATOM     70  C   UNL     1       1.951   9.249  14.102  1.00  0.00     0.064 A 
ATOM     71  C   UNL     1       3.057   9.387  14.953  1.00  0.00     0.173 A 
ATOM     72  C   UNL     1       1.942  10.002  12.919  1.00  0.00     0.173 A 
ATOM     73  F   UNL     1       3.106   8.702  16.105  1.00  0.00    -0.203 F 
ATOM     74  C   UNL     1       4.097  10.263  14.647  1.00  0.00     0.198 A 
ATOM     75  C   UNL     1       2.998  10.852  12.598  1.00  0.00     0.198 A 
ATOM     76  F   UNL     1       0.912   9.899  12.066  1.00  0.00    -0.203 F 
ATOM     77  F   UNL     1       5.115  10.415  15.504  1.00  0.00    -0.200 F 
ATOM     78  C   UNL     1       4.069  10.990  13.467  1.00  0.00     0.200 A 
ATOM     79  F   UNL     1       2.975  11.538  11.447  1.00  0.00    -0.200 F 
ATOM     80  F   UNL     1       5.071  11.829  13.170  1.00  0.00    -0.200 F 
ENDBRANCH  46  70
BRANCH  58  81
ATOM     81  C   UNL     1      -2.785   9.204  19.209  1.00  0.00     0.064 A 
ATOM     82  C   UNL     1      -3.213  10.532  19.058  1.00  0.00     0.173 A 
ATOM     83  C   UNL     1      -2.560   8.734  20.513  1.00  0.00     0.173 A 
ATOM     84  F   UNL     1      -3.430  11.036  17.834  1.00  0.00    -0.203 F 
ATOM     85  C   UNL     1      -3.358  11.368  20.162  1.00  0.00     0.198 A 
ATOM     86  C   UNL     1      -2.745   9.562  21.617  1.00  0.00     0.198 A 
ATOM     87  F   UNL     1      -2.161   7.469  20.718  1.00  0.00    -0.203 F 
ATOM     88  F   UNL     1      -3.694  12.654  19.985  1.00  0.00    -0.200 F 
ATOM     89  C   UNL     1      -3.128  10.882  21.440  1.00  0.00     0.200 A 
ATOM     90  F   UNL     1      -2.540   9.084  22.852  1.00  0.00    -0.200 F 
ATOM     91  F   UNL     1      -3.264  11.690  22.500  1.00  0.00    -0.200 F 
ENDBRANCH  58  81
ENDBRANCH  32  33
ENDBRANCH  24  27
ENDBRANCH  22  23
ENDBRANCH  21  22
ENDBRANCH  20  21
ENDBRANCH   1  20
TORSDOF 16
