REMARK SMILES CC(C)C(=O)Nc1ccc(NC(=O)[C@@H]2[C@@H](C(=O)NCCCCNC(=O)c3ccc(-c4c5nc(c(-c6c(F)c(F)c(F)c(F)c6F)c6ccc([nH]6)c(-c6c(F)c(F)c(F)c(F)c6F)c6nc(c(-c7c(F)c(F)c(F)c(F)c7F)c7ccc4[nH]7)C=C6)C=C5)cc3)C2(C)C)cc1Cl
REMARK SMILES IDX 19 1 18 2 16 3 17 4 15 6 14 7 89 8 90 9 91 10 12 11 11 12
REMARK SMILES IDX 13 14 10 15 7 16 8 17 93 18 9 19 92 20 94 21 6 22 4 23 5 24
REMARK SMILES IDX 2 26 1 27 3 28 20 29 21 30 22 31 23 32 24 33 25 35 26 36
REMARK SMILES IDX 27 37 88 38 28 39 87 40 29 41 30 42 31 43 81 44 32 45 86 46
REMARK SMILES IDX 80 47 82 48 33 49 85 50 79 51 78 52 34 54 66 55 46 56 65 57
REMARK SMILES IDX 47 58 50 59 64 60 83 61 48 62 49 63 63 65 84 66 51 67 35 68
REMARK SMILES IDX 36 69 44 70 37 71 38 72 42 73 45 74 39 75 40 76 43 77 41 78
REMARK SMILES IDX 67 79 68 80 76 81 69 82 70 83 74 84 77 85 71 86 72 87 75 88
REMARK SMILES IDX 73 89 52 90 53 91 61 92 54 93 55 94 59 95 62 96 56 97 57 98
REMARK SMILES IDX 60 99 58 100
REMARK H PARENT 18 5 11 13 6 25 23 34 82 53 50 64
REMARK Flexibility Score: inf
ROOT
ATOM      1  C   UNL     1       1.979   2.909  -3.700  1.00  0.00     0.116 C 
ENDROOT
BRANCH   1   2
ATOM      2  N   UNL     1       0.634   2.597  -3.280  1.00  0.00    -0.356 N 
ATOM      3  C   UNL     1      -0.599   3.065  -3.629  1.00  0.00     0.224 C 
ATOM      4  O   UNL     1      -1.546   2.622  -2.976  1.00  0.00    -0.275 OA
ATOM      5  H   UNL     1       0.598   1.893  -2.593  1.00  0.00     0.163 HD
BRANCH   3   6
ATOM      6  C   UNL     1      -0.936   3.961  -4.774  1.00  0.00     0.098 C 
ATOM      7  C   UNL     1      -0.365   3.563  -6.112  1.00  0.00     0.098 C 
ATOM      8  C   UNL     1      -0.248   5.012  -5.619  1.00  0.00    -0.011 C 
ATOM      9  C   UNL     1       1.069   5.607  -5.221  1.00  0.00     0.013 C 
ATOM     10  C   UNL     1      -1.158   6.063  -6.235  1.00  0.00     0.013 C 
BRANCH   7  11
ATOM     11  C   UNL     1      -0.963   3.238  -7.432  1.00  0.00     0.228 C 
ATOM     12  N   UNL     1      -2.281   3.294  -7.796  1.00  0.00    -0.326 N 
ATOM     13  H   UNL     1      -2.413   3.172  -8.764  1.00  0.00     0.169 HD
ATOM     14  O   UNL     1      -0.166   2.965  -8.333  1.00  0.00    -0.274 OA
BRANCH  12  15
ATOM     15  C   UNL     1      -3.478   3.483  -7.110  1.00  0.00     0.042 A 
ATOM     16  C   UNL     1      -5.871   4.113  -5.813  1.00  0.00     0.060 A 
ATOM     17  C   UNL     1      -4.847   3.464  -5.126  1.00  0.00     0.030 A 
ATOM     18  C   UNL     1      -5.698   4.458  -7.157  1.00  0.00     0.066 A 
ATOM     19  C   UNL     1      -3.684   3.092  -5.796  1.00  0.00     0.028 A 
ATOM     20  C   UNL     1      -4.515   4.113  -7.811  1.00  0.00     0.048 A 
ATOM     21  Cl  UNL     1      -6.920   5.286  -8.053  1.00  0.00    -0.082 Cl
BRANCH  16  22
ATOM     22  N   UNL     1      -7.044   4.409  -5.115  1.00  0.00    -0.325 N 
ATOM     23  C   UNL     1      -7.976   3.516  -4.668  1.00  0.00     0.226 C 
ATOM     24  O   UNL     1      -8.739   3.879  -3.767  1.00  0.00    -0.274 OA
ATOM     25  H   UNL     1      -7.217   5.360  -4.926  1.00  0.00     0.169 HD
BRANCH  23  26
ATOM     26  C   UNL     1      -8.121   2.120  -5.290  1.00  0.00     0.072 C 
ATOM     27  C   UNL     1      -8.341   2.157  -6.800  1.00  0.00     0.018 C 
ATOM     28  C   UNL     1      -7.032   1.128  -4.906  1.00  0.00     0.018 C 
ENDBRANCH  23  26
ENDBRANCH  16  22
ENDBRANCH  12  15
ENDBRANCH   7  11
ENDBRANCH   3   6
ENDBRANCH   1   2
BRANCH   1  29
ATOM     29  C   UNL     1       2.652   3.856  -2.709  1.00  0.00     0.023 C 
BRANCH  29  30
ATOM     30  C   UNL     1       3.069   3.203  -1.396  1.00  0.00     0.023 C 
BRANCH  30  31
ATOM     31  C   UNL     1       3.949   1.973  -1.544  1.00  0.00     0.116 C 
BRANCH  31  32
ATOM     32  N   UNL     1       5.108   2.193  -2.397  1.00  0.00    -0.352 N 
ATOM     33  C   UNL     1       6.406   1.795  -2.202  1.00  0.00     0.251 C 
ATOM     34  H   UNL     1       4.937   2.696  -3.226  1.00  0.00     0.163 HD
ATOM     35  O   UNL     1       7.295   2.166  -2.961  1.00  0.00    -0.269 OA
BRANCH  33  36
ATOM     36  C   UNL     1       6.724   0.944  -1.041  1.00  0.00     0.039 A 
ATOM     37  C   UNL     1       7.802   1.291  -0.227  1.00  0.00     0.014 A 
ATOM     38  C   UNL     1       5.923  -0.159  -0.731  1.00  0.00     0.014 A 
ATOM     39  C   UNL     1       8.039   0.564   0.938  1.00  0.00     0.010 A 
ATOM     40  C   UNL     1       6.099  -0.817   0.478  1.00  0.00     0.010 A 
ATOM     41  C   UNL     1       7.168  -0.472   1.318  1.00  0.00    -0.014 A 
BRANCH  41  42
ATOM     42  C   UNL     1       7.381  -1.220   2.580  1.00  0.00     0.031 A 
ATOM     43  C   UNL     1       7.674  -2.695   2.537  1.00  0.00     0.074 A 
ATOM     44  C   UNL     1       7.274  -0.580   3.760  1.00  0.00     0.049 A 
ATOM     45  N   UNL     1       7.873  -3.528   3.526  1.00  0.00    -0.248 NA
ATOM     46  C   UNL     1       7.717  -3.325   1.207  1.00  0.00     0.031 C 
ATOM     47  C   UNL     1       6.923   0.832   3.930  1.00  0.00     0.029 A 
ATOM     48  N   UNL     1       7.450  -1.034   5.043  1.00  0.00    -0.354 N 
ATOM     49  C   UNL     1       8.065  -4.771   2.938  1.00  0.00     0.074 A 
ATOM     50  C   UNL     1       7.877  -4.603   1.515  1.00  0.00     0.031 C 
ATOM     51  C   UNL     1       6.939   1.135   5.238  1.00  0.00     0.029 A 
ATOM     52  C   UNL     1       7.273  -0.064   5.999  1.00  0.00     0.049 A 
ATOM     53  H   UNL     1       7.681  -1.966   5.257  1.00  0.00     0.167 HD
ATOM     54  C   UNL     1       8.410  -5.941   3.526  1.00  0.00     0.037 A 
ATOM     55  C   UNL     1       7.374  -0.138   7.340  1.00  0.00     0.037 A 
ATOM     56  C   UNL     1       8.612  -6.101   4.941  1.00  0.00     0.049 A 
ATOM     57  C   UNL     1       7.774  -1.447   7.966  1.00  0.00     0.074 A 
ATOM     58  C   UNL     1       8.981  -7.236   5.640  1.00  0.00     0.029 A 
ATOM     59  N   UNL     1       8.466  -5.085   5.875  1.00  0.00    -0.354 N 
ATOM     60  N   UNL     1       8.017  -2.602   7.392  1.00  0.00    -0.248 NA
ATOM     61  C   UNL     1       7.936  -1.458   9.425  1.00  0.00     0.031 C 
ATOM     62  C   UNL     1       9.026  -6.916   7.001  1.00  0.00     0.029 A 
ATOM     63  C   UNL     1       8.736  -5.569   7.145  1.00  0.00     0.049 A 
ATOM     64  H   UNL     1       8.208  -4.159   5.666  1.00  0.00     0.167 HD
ATOM     65  C   UNL     1       8.389  -3.465   8.414  1.00  0.00     0.074 A 
ATOM     66  C   UNL     1       8.365  -2.693   9.639  1.00  0.00     0.031 C 
ATOM     67  C   UNL     1       8.717  -4.779   8.349  1.00  0.00     0.037 A 
BRANCH  54  68
ATOM     68  C   UNL     1       8.615  -7.130   2.631  1.00  0.00     0.064 A 
ATOM     69  C   UNL     1       9.701  -7.196   1.744  1.00  0.00     0.173 A 
ATOM     70  C   UNL     1       7.741  -8.225   2.679  1.00  0.00     0.173 A 
ATOM     71  F   UNL     1      10.557  -6.168   1.646  1.00  0.00    -0.203 F 
ATOM     72  C   UNL     1       9.888  -8.302   0.919  1.00  0.00     0.198 A 
ATOM     73  C   UNL     1       7.950  -9.344   1.876  1.00  0.00     0.198 A 
ATOM     74  F   UNL     1       6.687  -8.215   3.509  1.00  0.00    -0.203 F 
ATOM     75  F   UNL     1      10.903  -8.318   0.043  1.00  0.00    -0.200 F 
ATOM     76  C   UNL     1       9.018  -9.378   0.992  1.00  0.00     0.200 A 
ATOM     77  F   UNL     1       7.114 -10.389   1.955  1.00  0.00    -0.200 F 
ATOM     78  F   UNL     1       9.204 -10.447   0.204  1.00  0.00    -0.200 F 
ENDBRANCH  54  68
BRANCH  55  79
ATOM     79  C   UNL     1       7.125   1.065   8.178  1.00  0.00     0.064 A 
ATOM     80  C   UNL     1       8.163   1.676   8.895  1.00  0.00     0.173 A 
ATOM     81  C   UNL     1       5.839   1.611   8.303  1.00  0.00     0.173 A 
ATOM     82  F   UNL     1       9.409   1.183   8.822  1.00  0.00    -0.203 F 
ATOM     83  C   UNL     1       7.919   2.762   9.734  1.00  0.00     0.198 A 
ATOM     84  C   UNL     1       5.602   2.717   9.116  1.00  0.00     0.198 A 
ATOM     85  F   UNL     1       4.812   1.071   7.631  1.00  0.00    -0.203 F 
ATOM     86  F   UNL     1       8.919   3.286  10.456  1.00  0.00    -0.200 F 
ATOM     87  C   UNL     1       6.639   3.284   9.841  1.00  0.00     0.200 A 
ATOM     88  F   UNL     1       4.367   3.229   9.203  1.00  0.00    -0.200 F 
ATOM     89  F   UNL     1       6.404   4.326  10.650  1.00  0.00    -0.200 F 
ENDBRANCH  55  79
BRANCH  67  90
ATOM     90  C   UNL     1       9.119  -5.445   9.633  1.00  0.00     0.064 A 
ATOM     91  C   UNL     1       8.195  -5.693  10.659  1.00  0.00     0.173 A 
ATOM     92  C   UNL     1      10.448  -5.847   9.835  1.00  0.00     0.173 A 
ATOM     93  F   UNL     1       6.914  -5.317  10.519  1.00  0.00    -0.203 F 
ATOM     94  C   UNL     1       8.596  -6.276  11.857  1.00  0.00     0.198 A 
ATOM     95  C   UNL     1      10.839  -6.462  11.021  1.00  0.00     0.198 A 
ATOM     96  F   UNL     1      11.370  -5.643   8.881  1.00  0.00    -0.203 F 
ATOM     97  F   UNL     1       7.710  -6.440  12.850  1.00  0.00    -0.200 F 
ATOM     98  C   UNL     1       9.916  -6.664  12.036  1.00  0.00     0.200 A 
ATOM     99  F   UNL     1      12.111  -6.851  11.185  1.00  0.00    -0.200 F 
ATOM    100  F   UNL     1      10.301  -7.223  13.191  1.00  0.00    -0.200 F 
ENDBRANCH  67  90
ENDBRANCH  41  42
ENDBRANCH  33  36
ENDBRANCH  31  32
ENDBRANCH  30  31
ENDBRANCH  29  30
ENDBRANCH   1  29
TORSDOF 15
