REMARK SMILES O=C(NCCCCNC(=O)c1cncnc1N1CC[C@H]2[NH2+]CCC[C@]2(CO)C1)c1ccc(-c2c3nc(c(-c4c(F)c(F)c(F)c(F)c4F)c4ccc([nH]4)c(-c4c(F)c(F)c(F)c(F)c4F)c4nc(c(-c5c(F)c(F)c(F)c(F)c5F)c5ccc2[nH]5)C=C4)C=C3)cc1
REMARK SMILES IDX 6 1 5 2 4 3 3 4 1 5 2 6 29 8 30 9 91 10 31 11 90 12 32 13
REMARK SMILES IDX 33 14 34 15 84 16 35 17 89 18 83 19 85 20 36 21 88 22 82 23
REMARK SMILES IDX 81 24 37 26 69 27 49 28 68 29 50 30 53 31 67 32 86 33 51 34
REMARK SMILES IDX 52 35 66 37 87 38 54 39 38 40 39 41 47 42 40 43 41 44 45 45
REMARK SMILES IDX 48 46 42 47 43 48 46 49 44 50 70 51 71 52 79 53 72 54 73 55
REMARK SMILES IDX 77 56 80 57 74 58 75 59 78 60 76 61 55 62 56 63 64 64 57 65
REMARK SMILES IDX 58 66 62 67 65 68 59 69 60 70 63 71 61 72 7 73 8 74 9 75
REMARK SMILES IDX 10 77 11 78 12 79 16 80 13 81 15 82 14 83 17 84 18 85 28 86
REMARK SMILES IDX 19 87 25 88 20 89 24 90 21 91 23 92 22 93 26 96 27 97
REMARK H PARENT 3 7 85 25 53 36 8 76 21 94 21 95 27 98
REMARK Flexibility Score: inf
ROOT
ATOM      1  C   UNL     1       4.485  -1.984  -3.351  1.00  0.00     0.023 C 
ENDROOT
BRANCH   1   2
ATOM      2  C   UNL     1       4.974  -1.813  -1.915  1.00  0.00     0.023 C 
BRANCH   2   3
ATOM      3  C   UNL     1       4.629  -0.485  -1.254  1.00  0.00     0.116 C 
BRANCH   3   4
ATOM      4  N   UNL     1       3.199  -0.252  -1.136  1.00  0.00    -0.352 N 
ATOM      5  O   UNL     1       1.234   0.126  -0.093  1.00  0.00    -0.269 OA
ATOM      6  C   UNL     1       2.455   0.074  -0.025  1.00  0.00     0.251 C 
ATOM      7  H   UNL     1       2.687  -0.341  -1.973  1.00  0.00     0.163 HD
BRANCH   6   8
ATOM      8  C   UNL     1       3.132   0.328   1.267  1.00  0.00     0.039 A 
ATOM      9  C   UNL     1       4.271   1.133   1.333  1.00  0.00     0.014 A 
ATOM     10  C   UNL     1       2.618  -0.256   2.429  1.00  0.00     0.014 A 
ATOM     11  C   UNL     1       4.983   1.224   2.524  1.00  0.00     0.010 A 
ATOM     12  C   UNL     1       3.288  -0.091   3.645  1.00  0.00     0.010 A 
ATOM     13  C   UNL     1       4.496   0.620   3.695  1.00  0.00    -0.014 A 
BRANCH  13  14
ATOM     14  C   UNL     1       5.244   0.795   4.966  1.00  0.00     0.031 A 
ATOM     15  C   UNL     1       5.883  -0.373   5.664  1.00  0.00     0.074 A 
ATOM     16  C   UNL     1       5.369   2.036   5.473  1.00  0.00     0.049 A 
ATOM     17  N   UNL     1       6.593  -0.388   6.765  1.00  0.00    -0.248 NA
ATOM     18  C   UNL     1       5.698  -1.699   5.055  1.00  0.00     0.031 C 
ATOM     19  C   UNL     1       4.777   3.243   4.893  1.00  0.00     0.029 A 
ATOM     20  N   UNL     1       6.045   2.493   6.575  1.00  0.00    -0.354 N 
ATOM     21  C   UNL     1       6.921  -1.718   6.991  1.00  0.00     0.074 A 
ATOM     22  C   UNL     1       6.315  -2.487   5.925  1.00  0.00     0.031 C 
ATOM     23  C   UNL     1       5.152   4.308   5.617  1.00  0.00     0.029 A 
ATOM     24  C   UNL     1       5.961   3.853   6.742  1.00  0.00     0.049 A 
ATOM     25  H   UNL     1       6.543   1.904   7.186  1.00  0.00     0.167 HD
ATOM     26  C   UNL     1       7.667  -2.244   7.993  1.00  0.00     0.037 A 
ATOM     27  C   UNL     1       6.466   4.648   7.703  1.00  0.00     0.037 A 
ATOM     28  C   UNL     1       8.285  -1.470   9.040  1.00  0.00     0.049 A 
ATOM     29  C   UNL     1       7.284   4.036   8.802  1.00  0.00     0.074 A 
ATOM     30  C   UNL     1       9.094  -1.909  10.075  1.00  0.00     0.029 A 
ATOM     31  N   UNL     1       8.159  -0.097   9.188  1.00  0.00    -0.354 N 
ATOM     32  N   UNL     1       7.617   2.781   8.983  1.00  0.00    -0.248 NA
ATOM     33  C   UNL     1       7.795   4.949   9.832  1.00  0.00     0.031 C 
ATOM     34  C   UNL     1       9.423  -0.807  10.872  1.00  0.00     0.029 A 
ATOM     35  C   UNL     1       8.858   0.325  10.309  1.00  0.00     0.049 A 
ATOM     36  H   UNL     1       7.650   0.492   8.586  1.00  0.00     0.167 HD
ATOM     37  C   UNL     1       8.384   2.754  10.138  1.00  0.00     0.074 A 
ATOM     38  C   UNL     1       8.487   4.123  10.603  1.00  0.00     0.031 C 
ATOM     39  C   UNL     1       8.947   1.690  10.760  1.00  0.00     0.037 A 
BRANCH  26  40
ATOM     40  C   UNL     1       7.851  -3.734   8.020  1.00  0.00     0.064 A 
ATOM     41  C   UNL     1       8.684  -4.391   7.102  1.00  0.00     0.173 A 
ATOM     42  C   UNL     1       7.234  -4.507   9.016  1.00  0.00     0.173 A 
ATOM     43  F   UNL     1       9.289  -3.700   6.125  1.00  0.00    -0.203 F 
ATOM     44  C   UNL     1       8.877  -5.769   7.169  1.00  0.00     0.198 A 
ATOM     45  C   UNL     1       7.449  -5.880   9.095  1.00  0.00     0.198 A 
ATOM     46  F   UNL     1       6.433  -3.927   9.922  1.00  0.00    -0.203 F 
ATOM     47  F   UNL     1       9.649  -6.380   6.261  1.00  0.00    -0.200 F 
ATOM     48  C   UNL     1       8.267  -6.511   8.169  1.00  0.00     0.200 A 
ATOM     49  F   UNL     1       6.868  -6.594  10.069  1.00  0.00    -0.200 F 
ATOM     50  F   UNL     1       8.462  -7.835   8.238  1.00  0.00    -0.200 F 
ENDBRANCH  26  40
BRANCH  27  51
ATOM     51  C   UNL     1       6.206   6.109   7.657  1.00  0.00     0.064 A 
ATOM     52  C   UNL     1       7.233   7.017   7.369  1.00  0.00     0.173 A 
ATOM     53  C   UNL     1       4.919   6.623   7.874  1.00  0.00     0.173 A 
ATOM     54  F   UNL     1       8.483   6.573   7.171  1.00  0.00    -0.203 F 
ATOM     55  C   UNL     1       6.985   8.386   7.311  1.00  0.00     0.198 A 
ATOM     56  C   UNL     1       4.666   7.989   7.788  1.00  0.00     0.198 A 
ATOM     57  F   UNL     1       3.902   5.793   8.146  1.00  0.00    -0.203 F 
ATOM     58  F   UNL     1       7.991   9.237   7.069  1.00  0.00    -0.200 F 
ATOM     59  C   UNL     1       5.701   8.871   7.512  1.00  0.00     0.200 A 
ATOM     60  F   UNL     1       3.421   8.451   7.965  1.00  0.00    -0.200 F 
ATOM     61  F   UNL     1       5.461  10.187   7.445  1.00  0.00    -0.200 F 
ENDBRANCH  27  51
BRANCH  39  62
ATOM     62  C   UNL     1       9.740   1.971  12.002  1.00  0.00     0.064 A 
ATOM     63  C   UNL     1       9.114   2.320  13.207  1.00  0.00     0.173 A 
ATOM     64  C   UNL     1      11.139   1.868  11.991  1.00  0.00     0.173 A 
ATOM     65  F   UNL     1       7.780   2.448  13.263  1.00  0.00    -0.203 F 
ATOM     66  C   UNL     1       9.863   2.582  14.351  1.00  0.00     0.198 A 
ATOM     67  C   UNL     1      11.882   2.104  13.144  1.00  0.00     0.198 A 
ATOM     68  F   UNL     1      11.784   1.533  10.863  1.00  0.00    -0.203 F 
ATOM     69  F   UNL     1       9.248   2.961  15.480  1.00  0.00    -0.200 F 
ATOM     70  C   UNL     1      11.245   2.468  14.320  1.00  0.00     0.200 A 
ATOM     71  F   UNL     1      13.217   1.984  13.115  1.00  0.00    -0.200 F 
ATOM     72  F   UNL     1      11.964   2.719  15.423  1.00  0.00    -0.200 F 
ENDBRANCH  39  62
ENDBRANCH  13  14
ENDBRANCH   6   8
ENDBRANCH   3   4
ENDBRANCH   2   3
ENDBRANCH   1   2
BRANCH   1  73
ATOM     73  C   UNL     1       4.829  -0.842  -4.301  1.00  0.00     0.116 C 
BRANCH  73  74
ATOM     74  N   UNL     1       6.260  -0.595  -4.404  1.00  0.00    -0.352 N 
ATOM     75  C   UNL     1       7.082  -0.683  -5.505  1.00  0.00     0.256 C 
ATOM     76  H   UNL     1       6.703  -0.327  -3.567  1.00  0.00     0.163 HD
ATOM     77  O   UNL     1       8.272  -0.405  -5.402  1.00  0.00    -0.269 OA
BRANCH  75  78
ATOM     78  C   UNL     1       6.512  -1.073  -6.796  1.00  0.00     0.100 A 
ATOM     79  C   UNL     1       5.593  -0.211  -7.372  1.00  0.00     0.130 A 
ATOM     80  C   UNL     1       6.883  -2.186  -7.537  1.00  0.00     0.144 A 
ATOM     81  N   UNL     1       4.973  -0.441  -8.543  1.00  0.00    -0.244 NA
ATOM     82  N   UNL     1       6.273  -2.434  -8.722  1.00  0.00    -0.219 NA
ATOM     83  C   UNL     1       5.347  -1.566  -9.159  1.00  0.00     0.224 A 
BRANCH  80  84
ATOM     84  N   UNL     1       7.906  -3.073  -7.226  1.00  0.00    -0.355 N 
ATOM     85  C   UNL     1       8.096  -3.583  -5.874  1.00  0.00     0.124 C 
ATOM     86  C   UNL     1       9.107  -2.815  -8.041  1.00  0.00     0.133 C 
ATOM     87  C   UNL     1       8.997  -4.822  -5.888  1.00  0.00     0.087 C 
ATOM     88  C   UNL     1      10.046  -4.039  -8.076  1.00  0.00     0.063 C 
ATOM     89  C   UNL     1      10.306  -4.501  -6.620  1.00  0.00     0.194 C 
ATOM     90  C   UNL     1      11.407  -3.611  -8.682  1.00  0.00     0.023 C 
ATOM     91  N   UNL     1      11.239  -5.641  -6.579  1.00  0.00    -0.343 N 
ATOM     92  C   UNL     1      12.449  -4.724  -8.563  1.00  0.00     0.062 C 
ATOM     93  C   UNL     1      12.545  -5.263  -7.135  1.00  0.00     0.260 C 
ATOM     94  H   UNL     1      10.852  -6.410  -7.127  1.00  0.00     0.346 HD
ATOM     95  H   UNL     1      11.366  -5.927  -5.609  1.00  0.00     0.346 HD
BRANCH  88  96
ATOM     96  C   UNL     1       9.393  -5.153  -8.937  1.00  0.00     0.171 C 
BRANCH  96  97
ATOM     97  O   UNL     1       9.329  -4.770 -10.311  1.00  0.00    -0.395 OA
ATOM     98  H   UNL     1       8.790  -3.968 -10.398  1.00  0.00     0.210 HD
ENDBRANCH  96  97
ENDBRANCH  88  96
ENDBRANCH  80  84
ENDBRANCH  75  78
ENDBRANCH  73  74
ENDBRANCH   1  73
TORSDOF 14
