REMARK SMILES CC[C@](C)(NC(=O)[C@](C)([NH3+])c1ccccc1)C(=O)NCCCCNC(=O)c1ccc(-c2c3nc(c(-c4c(F)c(F)c(F)c(F)c4F)c4ccc([nH]4)c(-c4c(F)c(F)c(F)c(F)c4F)c4nc(c(-c5c(F)c(F)c(F)c(F)c5F)c5ccc2[nH]5)C=C4)C=C3)cc1
REMARK SMILES IDX 21 1 20 2 19 3 17 4 18 5 3 7 4 8 2 9 1 10 5 11 6 12 7 14
REMARK SMILES IDX 8 15 9 16 10 17 11 21 12 22 16 23 13 24 15 25 14 26 22 27
REMARK SMILES IDX 23 28 24 29 25 30 26 32 27 33 28 34 89 35 29 36 88 37 30 38
REMARK SMILES IDX 31 39 32 40 82 41 33 42 87 43 81 44 83 45 34 46 86 47 80 48
REMARK SMILES IDX 79 49 35 51 67 52 47 53 66 54 48 55 51 56 65 57 84 58 49 59
REMARK SMILES IDX 50 60 64 62 85 63 52 64 36 65 37 66 45 67 38 68 39 69 43 70
REMARK SMILES IDX 46 71 40 72 41 73 44 74 42 75 68 76 69 77 77 78 70 79 71 80
REMARK SMILES IDX 75 81 78 82 72 83 73 84 76 85 74 86 53 87 54 88 62 89 55 90
REMARK SMILES IDX 56 91 60 92 63 93 57 94 58 95 61 96 59 97
REMARK H PARENT 19 6 5 13 10 18 10 19 10 20 24 31 83 50 51 61
REMARK Flexibility Score: inf
ROOT
ATOM      1  C   UNL     1       0.103  -2.015  -2.870  1.00  0.00     0.023 C 
ENDROOT
BRANCH   1   2
ATOM      2  C   UNL     1       0.345  -1.901  -1.362  1.00  0.00     0.116 C 
BRANCH   2   3
ATOM      3  N   UNL     1       1.059  -3.007  -0.727  1.00  0.00    -0.354 N 
ATOM      4  C   UNL     1       2.343  -3.150  -0.260  1.00  0.00     0.245 C 
ATOM      5  O   UNL     1       2.626  -4.235   0.261  1.00  0.00    -0.272 OA
ATOM      6  H   UNL     1       0.508  -3.813  -0.609  1.00  0.00     0.163 HD
BRANCH   4   7
ATOM      7  C   UNL     1       3.421  -2.037  -0.402  1.00  0.00     0.116 C 
ATOM      8  C   UNL     1       4.780  -2.416   0.221  1.00  0.00     0.045 C 
BRANCH   7   9
ATOM      9  C   UNL     1       2.880  -0.749   0.339  1.00  0.00     0.035 C 
ATOM     10  C   UNL     1       3.390  -0.467   1.753  1.00  0.00     0.007 C 
ENDBRANCH   7   9
BRANCH   7  11
ATOM     11  N   UNL     1       3.628  -1.752  -1.860  1.00  0.00    -0.336 N 
ATOM     12  C   UNL     1       4.091  -2.415  -2.973  1.00  0.00     0.286 C 
ATOM     13  H   UNL     1       3.356  -0.833  -2.083  1.00  0.00     0.164 HD
ATOM     14  O   UNL     1       4.359  -1.619  -3.887  1.00  0.00    -0.267 OA
BRANCH  12  15
ATOM     15  C   UNL     1       4.120  -4.000  -3.203  1.00  0.00     0.196 C 
ATOM     16  C   UNL     1       2.659  -4.427  -3.364  1.00  0.00     0.096 C 
BRANCH  15  17
ATOM     17  N   UNL     1       4.693  -4.710  -2.055  1.00  0.00    -0.341 N 
ATOM     18  H   UNL     1       4.694  -5.713  -2.241  1.00  0.00     0.345 HD
ATOM     19  H   UNL     1       4.134  -4.518  -1.224  1.00  0.00     0.345 HD
ATOM     20  H   UNL     1       5.650  -4.392  -1.902  1.00  0.00     0.345 HD
ENDBRANCH  15  17
BRANCH  15  21
ATOM     21  C   UNL     1       4.832  -4.550  -4.469  1.00  0.00     0.022 A 
ATOM     22  C   UNL     1       4.722  -5.940  -4.741  1.00  0.00     0.011 A 
ATOM     23  C   UNL     1       5.533  -3.783  -5.405  1.00  0.00     0.011 A 
ATOM     24  C   UNL     1       5.204  -6.513  -5.917  1.00  0.00     0.001 A 
ATOM     25  C   UNL     1       6.027  -4.358  -6.586  1.00  0.00     0.001 A 
ATOM     26  C   UNL     1       5.847  -5.714  -6.850  1.00  0.00     0.000 A 
ENDBRANCH  15  21
ENDBRANCH  12  15
ENDBRANCH   7  11
ENDBRANCH   4   7
ENDBRANCH   2   3
ENDBRANCH   1   2
BRANCH   1  27
ATOM     27  C   UNL     1      -0.556  -3.290  -3.391  1.00  0.00     0.023 C 
BRANCH  27  28
ATOM     28  C   UNL     1      -1.825  -3.724  -2.687  1.00  0.00     0.116 C 
BRANCH  28  29
ATOM     29  N   UNL     1      -2.953  -2.877  -3.011  1.00  0.00    -0.352 N 
ATOM     30  C   UNL     1      -4.103  -3.186  -3.698  1.00  0.00     0.251 C 
ATOM     31  H   UNL     1      -2.888  -1.947  -2.694  1.00  0.00     0.163 HD
ATOM     32  O   UNL     1      -4.857  -2.287  -4.057  1.00  0.00    -0.269 OA
BRANCH  30  33
ATOM     33  C   UNL     1      -4.436  -4.595  -4.020  1.00  0.00     0.039 A 
ATOM     34  C   UNL     1      -5.006  -4.887  -5.262  1.00  0.00     0.014 A 
ATOM     35  C   UNL     1      -4.231  -5.622  -3.094  1.00  0.00     0.014 A 
ATOM     36  C   UNL     1      -5.338  -6.207  -5.586  1.00  0.00     0.010 A 
ATOM     37  C   UNL     1      -4.471  -6.945  -3.452  1.00  0.00     0.010 A 
ATOM     38  C   UNL     1      -5.058  -7.249  -4.689  1.00  0.00    -0.014 A 
BRANCH  38  39
ATOM     39  C   UNL     1      -5.436  -8.654  -4.988  1.00  0.00     0.031 A 
ATOM     40  C   UNL     1      -6.447  -9.354  -4.118  1.00  0.00     0.074 A 
ATOM     41  C   UNL     1      -4.837  -9.318  -5.995  1.00  0.00     0.049 A 
ATOM     42  N   UNL     1      -6.854 -10.598  -4.151  1.00  0.00    -0.248 NA
ATOM     43  C   UNL     1      -7.057  -8.555  -3.043  1.00  0.00     0.031 C 
ATOM     44  C   UNL     1      -3.810  -8.768  -6.879  1.00  0.00     0.029 A 
ATOM     45  N   UNL     1      -5.002 -10.607  -6.437  1.00  0.00    -0.354 N 
ATOM     46  C   UNL     1      -7.737 -10.734  -3.087  1.00  0.00     0.074 A 
ATOM     47  C   UNL     1      -7.768  -9.465  -2.396  1.00  0.00     0.031 C 
ATOM     48  C   UNL     1      -3.454  -9.704  -7.774  1.00  0.00     0.029 A 
ATOM     49  C   UNL     1      -4.202 -10.929  -7.506  1.00  0.00     0.049 A 
ATOM     50  H   UNL     1      -5.634 -11.241  -6.027  1.00  0.00     0.167 HD
ATOM     51  C   UNL     1      -8.476 -11.812  -2.733  1.00  0.00     0.037 A 
ATOM     52  C   UNL     1      -4.086 -12.083  -8.189  1.00  0.00     0.037 A 
ATOM     53  C   UNL     1      -8.483 -13.056  -3.455  1.00  0.00     0.049 A 
ATOM     54  C   UNL     1      -4.939 -13.259  -7.795  1.00  0.00     0.074 A 
ATOM     55  C   UNL     1      -9.253 -14.183  -3.228  1.00  0.00     0.029 A 
ATOM     56  N   UNL     1      -7.683 -13.332  -4.554  1.00  0.00    -0.354 N 
ATOM     57  N   UNL     1      -5.818 -13.356  -6.827  1.00  0.00    -0.248 NA
ATOM     58  C   UNL     1      -4.789 -14.483  -8.594  1.00  0.00     0.031 C 
ATOM     59  C   UNL     1      -8.892 -15.155  -4.167  1.00  0.00     0.029 A 
ATOM     60  C   UNL     1      -7.928 -14.618  -5.006  1.00  0.00     0.049 A 
ATOM     61  H   UNL     1      -7.036 -12.706  -4.953  1.00  0.00     0.167 HD
ATOM     62  C   UNL     1      -6.344 -14.638  -6.916  1.00  0.00     0.074 A 
ATOM     63  C   UNL     1      -5.695 -15.278  -8.041  1.00  0.00     0.031 C 
ATOM     64  C   UNL     1      -7.279 -15.232  -6.135  1.00  0.00     0.037 A 
BRANCH  51  65
ATOM     65  C   UNL     1      -9.346 -11.688  -1.516  1.00  0.00     0.064 A 
ATOM     66  C   UNL     1     -10.486 -10.871  -1.503  1.00  0.00     0.173 A 
ATOM     67  C   UNL     1      -9.048 -12.415  -0.352  1.00  0.00     0.173 A 
ATOM     68  F   UNL     1     -10.808 -10.145  -2.585  1.00  0.00    -0.203 F 
ATOM     69  C   UNL     1     -11.276 -10.758  -0.362  1.00  0.00     0.198 A 
ATOM     70  C   UNL     1      -9.858 -12.324   0.777  1.00  0.00     0.198 A 
ATOM     71  F   UNL     1      -7.973 -13.215  -0.311  1.00  0.00    -0.203 F 
ATOM     72  F   UNL     1     -12.328  -9.928  -0.357  1.00  0.00    -0.200 F 
ATOM     73  C   UNL     1     -10.965 -11.489   0.774  1.00  0.00     0.200 A 
ATOM     74  F   UNL     1      -9.563 -13.040   1.871  1.00  0.00    -0.200 F 
ATOM     75  F   UNL     1     -11.728 -11.383   1.871  1.00  0.00    -0.200 F 
ENDBRANCH  51  65
BRANCH  52  76
ATOM     76  C   UNL     1      -3.153 -12.171  -9.342  1.00  0.00     0.064 A 
ATOM     77  C   UNL     1      -3.641 -12.251 -10.654  1.00  0.00     0.173 A 
ATOM     78  C   UNL     1      -1.763 -12.174  -9.162  1.00  0.00     0.173 A 
ATOM     79  F   UNL     1      -4.964 -12.274 -10.875  1.00  0.00    -0.203 F 
ATOM     80  C   UNL     1      -2.774 -12.347 -11.741  1.00  0.00     0.198 A 
ATOM     81  C   UNL     1      -0.896 -12.243 -10.251  1.00  0.00     0.198 A 
ATOM     82  F   UNL     1      -1.246 -12.095  -7.927  1.00  0.00    -0.203 F 
ATOM     83  F   UNL     1      -3.269 -12.463 -12.981  1.00  0.00    -0.200 F 
ATOM     84  C   UNL     1      -1.403 -12.337 -11.539  1.00  0.00     0.200 A 
ATOM     85  F   UNL     1       0.429 -12.221 -10.053  1.00  0.00    -0.200 F 
ATOM     86  F   UNL     1      -0.569 -12.424 -12.584  1.00  0.00    -0.200 F 
ENDBRANCH  52  76
BRANCH  64  87
ATOM     87  C   UNL     1      -7.681 -16.632  -6.490  1.00  0.00     0.064 A 
ATOM     88  C   UNL     1      -6.835 -17.724  -6.248  1.00  0.00     0.173 A 
ATOM     89  C   UNL     1      -8.947 -16.889  -7.038  1.00  0.00     0.173 A 
ATOM     90  F   UNL     1      -5.610 -17.527  -5.739  1.00  0.00    -0.203 F 
ATOM     91  C   UNL     1      -7.234 -19.020  -6.562  1.00  0.00     0.198 A 
ATOM     92  C   UNL     1      -9.353 -18.188  -7.325  1.00  0.00     0.198 A 
ATOM     93  F   UNL     1      -9.796 -15.878  -7.282  1.00  0.00    -0.203 F 
ATOM     94  F   UNL     1      -6.394 -20.044  -6.361  1.00  0.00    -0.200 F 
ATOM     95  C   UNL     1      -8.494 -19.252  -7.093  1.00  0.00     0.200 A 
ATOM     96  F   UNL     1     -10.576 -18.412  -7.826  1.00  0.00    -0.200 F 
ATOM     97  F   UNL     1      -8.879 -20.501  -7.387  1.00  0.00    -0.200 F 
ENDBRANCH  64  87
ENDBRANCH  38  39
ENDBRANCH  30  33
ENDBRANCH  28  29
ENDBRANCH  27  28
ENDBRANCH   1  27
TORSDOF 16
