REMARK SMILES CC1(C)CCN(C(=O)N[C@](C)(C(=O)NCCCCNC(=O)c2ccc(-c3c4nc(c(-c5c(F)c(F)c(F)c(F)c5F)c5ccc([nH]5)c(-c5c(F)c(F)c(F)c(F)c5F)c5nc(c(-c6c(F)c(F)c(F)c(F)c6F)c6ccc3[nH]6)C=C5)C=C4)cc2)c2ccccc2)C1
REMARK SMILES IDX 16 1 15 2 14 3 12 4 13 5 10 7 11 8 9 9 7 10 8 11 6 13 1 14
REMARK SMILES IDX 2 15 3 16 4 17 91 18 5 19 85 20 86 21 90 22 87 23 89 24
REMARK SMILES IDX 88 25 17 26 18 27 19 28 20 29 21 31 22 32 23 33 84 34 24 35
REMARK SMILES IDX 83 36 25 37 26 38 27 39 77 40 28 41 82 42 76 43 78 44 29 45
REMARK SMILES IDX 81 46 75 47 74 48 30 50 62 51 42 52 61 53 43 54 46 55 60 56
REMARK SMILES IDX 79 57 44 58 45 59 59 61 80 62 47 63 31 64 32 65 40 66 33 67
REMARK SMILES IDX 34 68 38 69 41 70 35 71 36 72 39 73 37 74 63 75 64 76 72 77
REMARK SMILES IDX 65 78 66 79 70 80 73 81 67 82 68 83 71 84 69 85 48 86 49 87
REMARK SMILES IDX 57 88 50 89 51 90 55 91 58 92 52 93 53 94 56 95 54 96
REMARK H PARENT 14 6 9 12 19 30 78 49 46 60
REMARK Flexibility Score: inf
ROOT
ATOM      1  C   UNL     1       3.920   5.974  -1.826  1.00  0.00     0.023 C 
ENDROOT
BRANCH   1   2
ATOM      2  C   UNL     1       2.842   6.264  -0.774  1.00  0.00     0.116 C 
BRANCH   2   3
ATOM      3  N   UNL     1       1.528   5.897  -1.254  1.00  0.00    -0.354 N 
ATOM      4  C   UNL     1       0.835   4.727  -1.309  1.00  0.00     0.250 C 
ATOM      5  O   UNL     1      -0.043   4.743  -2.184  1.00  0.00    -0.272 OA
ATOM      6  H   UNL     1       1.026   6.660  -1.621  1.00  0.00     0.163 HD
BRANCH   4   7
ATOM      7  C   UNL     1       1.122   3.444  -0.395  1.00  0.00     0.143 C 
ATOM      8  C   UNL     1       2.602   3.023  -0.571  1.00  0.00     0.051 C 
BRANCH   7   9
ATOM      9  N   UNL     1       1.013   3.814   1.048  1.00  0.00    -0.320 N 
ATOM     10  C   UNL     1      -0.088   4.113   1.773  1.00  0.00     0.318 C 
ATOM     11  O   UNL     1      -0.262   5.301   2.054  1.00  0.00    -0.249 OA
ATOM     12  H   UNL     1       1.864   3.846   1.541  1.00  0.00     0.166 HD
BRANCH  10  13
ATOM     13  N   UNL     1      -0.811   3.112   2.356  1.00  0.00    -0.324 N 
ATOM     14  C   UNL     1      -1.417  -0.052   3.974  1.00  0.00     0.013 C 
ATOM     15  C   UNL     1      -1.817   1.033   2.970  1.00  0.00    -0.016 C 
ATOM     16  C   UNL     1      -2.716   0.397   1.898  1.00  0.00     0.013 C 
ATOM     17  C   UNL     1      -2.580   2.195   3.641  1.00  0.00     0.030 C 
ATOM     18  C   UNL     1      -0.559   1.685   2.358  1.00  0.00     0.127 C 
ATOM     19  C   UNL     1      -1.729   3.436   3.426  1.00  0.00     0.122 C 
ENDBRANCH  10  13
ENDBRANCH   7   9
BRANCH   7  20
ATOM     20  C   UNL     1       0.200   2.269  -0.816  1.00  0.00    -0.013 A 
ATOM     21  C   UNL     1      -1.185   2.471  -0.980  1.00  0.00     0.007 A 
ATOM     22  C   UNL     1       0.681   0.961  -1.049  1.00  0.00     0.007 A 
ATOM     23  C   UNL     1      -2.033   1.438  -1.391  1.00  0.00     0.000 A 
ATOM     24  C   UNL     1      -0.172  -0.080  -1.426  1.00  0.00     0.000 A 
ATOM     25  C   UNL     1      -1.528   0.160  -1.604  1.00  0.00     0.000 A 
ENDBRANCH   7  20
ENDBRANCH   4   7
ENDBRANCH   2   3
ENDBRANCH   1   2
BRANCH   1  26
ATOM     26  C   UNL     1       3.736   6.691  -3.169  1.00  0.00     0.023 C 
BRANCH  26  27
ATOM     27  C   UNL     1       3.604   8.206  -3.092  1.00  0.00     0.116 C 
BRANCH  27  28
ATOM     28  N   UNL     1       4.724   8.841  -2.415  1.00  0.00    -0.352 N 
ATOM     29  C   UNL     1       5.396   9.994  -2.749  1.00  0.00     0.251 C 
ATOM     30  H   UNL     1       5.046   8.382  -1.606  1.00  0.00     0.163 HD
ATOM     31  O   UNL     1       6.388  10.340  -2.129  1.00  0.00    -0.269 OA
BRANCH  29  32
ATOM     32  C   UNL     1       4.924  10.788  -3.903  1.00  0.00     0.039 A 
ATOM     33  C   UNL     1       5.839  11.128  -4.902  1.00  0.00     0.014 A 
ATOM     34  C   UNL     1       3.578  11.144  -4.018  1.00  0.00     0.014 A 
ATOM     35  C   UNL     1       5.386  11.751  -6.065  1.00  0.00     0.010 A 
ATOM     36  C   UNL     1       3.119  11.709  -5.202  1.00  0.00     0.010 A 
ATOM     37  C   UNL     1       4.016  12.002  -6.242  1.00  0.00    -0.014 A 
BRANCH  37  38
ATOM     38  C   UNL     1       3.487  12.535  -7.520  1.00  0.00     0.031 A 
ATOM     39  C   UNL     1       2.851  13.893  -7.564  1.00  0.00     0.074 A 
ATOM     40  C   UNL     1       3.500  11.754  -8.617  1.00  0.00     0.049 A 
ATOM     41  N   UNL     1       2.242  14.490  -8.557  1.00  0.00    -0.248 NA
ATOM     42  C   UNL     1       2.880  14.672  -6.318  1.00  0.00     0.031 C 
ATOM     43  C   UNL     1       4.059  10.403  -8.686  1.00  0.00     0.029 A 
ATOM     44  N   UNL     1       3.016  11.979  -9.881  1.00  0.00    -0.354 N 
ATOM     45  C   UNL     1       1.801  15.704  -8.051  1.00  0.00     0.074 A 
ATOM     46  C   UNL     1       2.172  15.740  -6.652  1.00  0.00     0.031 C 
ATOM     47  C   UNL     1       3.908   9.929  -9.933  1.00  0.00     0.029 A 
ATOM     48  C   UNL     1       3.203  10.922 -10.737  1.00  0.00     0.049 A 
ATOM     49  H   UNL     1       2.576  12.818 -10.148  1.00  0.00     0.167 HD
ATOM     50  C   UNL     1       1.161  16.705  -8.701  1.00  0.00     0.037 A 
ATOM     51  C   UNL     1       2.837  10.769 -12.024  1.00  0.00     0.037 A 
ATOM     52  C   UNL     1       0.816  16.671 -10.098  1.00  0.00     0.049 A 
ATOM     53  C   UNL     1       2.090  11.879 -12.710  1.00  0.00     0.074 A 
ATOM     54  C   UNL     1       0.242  17.665 -10.871  1.00  0.00     0.029 A 
ATOM     55  N   UNL     1       1.004  15.576 -10.930  1.00  0.00    -0.354 N 
ATOM     56  N   UNL     1       1.743  13.054 -12.245  1.00  0.00    -0.248 NA
ATOM     57  C   UNL     1       1.677  11.636 -14.100  1.00  0.00     0.031 C 
ATOM     58  C   UNL     1       0.039  17.154 -12.158  1.00  0.00     0.029 A 
ATOM     59  C   UNL     1       0.525  15.857 -12.199  1.00  0.00     0.049 A 
ATOM     60  H   UNL     1       1.417  14.724 -10.657  1.00  0.00     0.167 HD
ATOM     61  C   UNL     1       1.094  13.700 -13.288  1.00  0.00     0.074 A 
ATOM     62  C   UNL     1       1.104  12.789 -14.414  1.00  0.00     0.031 C 
ATOM     63  C   UNL     1       0.542  14.938 -13.309  1.00  0.00     0.037 A 
BRANCH  50  64
ATOM     64  C   UNL     1       0.789  17.918  -7.900  1.00  0.00     0.064 A 
ATOM     65  C   UNL     1       1.760  18.811  -7.421  1.00  0.00     0.173 A 
ATOM     66  C   UNL     1      -0.556  18.196  -7.614  1.00  0.00     0.173 A 
ATOM     67  F   UNL     1       3.061  18.584  -7.657  1.00  0.00    -0.203 F 
ATOM     68  C   UNL     1       1.401  19.915  -6.652  1.00  0.00     0.198 A 
ATOM     69  C   UNL     1      -0.913  19.318  -6.871  1.00  0.00     0.198 A 
ATOM     70  F   UNL     1      -1.524  17.378  -8.054  1.00  0.00    -0.203 F 
ATOM     71  F   UNL     1       2.350  20.721  -6.156  1.00  0.00    -0.200 F 
ATOM     72  C   UNL     1       0.065  20.170  -6.382  1.00  0.00     0.200 A 
ATOM     73  F   UNL     1      -2.205  19.570  -6.619  1.00  0.00    -0.200 F 
ATOM     74  F   UNL     1      -0.279  21.232  -5.640  1.00  0.00    -0.200 F 
ENDBRANCH  50  64
BRANCH  51  75
ATOM     75  C   UNL     1       3.198   9.527 -12.753  1.00  0.00     0.064 A 
ATOM     76  C   UNL     1       4.182   9.550 -13.751  1.00  0.00     0.173 A 
ATOM     77  C   UNL     1       2.587   8.299 -12.463  1.00  0.00     0.173 A 
ATOM     78  F   UNL     1       4.778  10.706 -14.076  1.00  0.00    -0.203 F 
ATOM     79  C   UNL     1       4.535   8.391 -14.439  1.00  0.00     0.198 A 
ATOM     80  C   UNL     1       2.958   7.136 -13.136  1.00  0.00     0.198 A 
ATOM     81  F   UNL     1       1.642   8.225 -11.515  1.00  0.00    -0.203 F 
ATOM     82  F   UNL     1       5.457   8.447 -15.410  1.00  0.00    -0.200 F 
ATOM     83  C   UNL     1       3.929   7.184 -14.126  1.00  0.00     0.200 A 
ATOM     84  F   UNL     1       2.379   5.969 -12.823  1.00  0.00    -0.200 F 
ATOM     85  F   UNL     1       4.275   6.068 -14.782  1.00  0.00    -0.200 F 
ENDBRANCH  51  75
BRANCH  63  86
ATOM     86  C   UNL     1      -0.078  15.390 -14.598  1.00  0.00     0.064 A 
ATOM     87  C   UNL     1      -1.309  14.882 -15.036  1.00  0.00     0.173 A 
ATOM     88  C   UNL     1       0.544  16.377 -15.378  1.00  0.00     0.173 A 
ATOM     89  F   UNL     1      -1.932  13.924 -14.334  1.00  0.00    -0.203 F 
ATOM     90  C   UNL     1      -1.889  15.336 -16.218  1.00  0.00     0.198 A 
ATOM     91  C   UNL     1      -0.052  16.847 -16.545  1.00  0.00     0.198 A 
ATOM     92  F   UNL     1       1.721  16.896 -14.999  1.00  0.00    -0.203 F 
ATOM     93  F   UNL     1      -3.048  14.810 -16.638  1.00  0.00    -0.200 F 
ATOM     94  C   UNL     1      -1.264  16.323 -16.966  1.00  0.00     0.200 A 
ATOM     95  F   UNL     1       0.547  17.808 -17.261  1.00  0.00    -0.200 F 
ATOM     96  F   UNL     1      -1.829  16.765 -18.098  1.00  0.00    -0.200 F 
ENDBRANCH  63  86
ENDBRANCH  37  38
ENDBRANCH  29  32
ENDBRANCH  27  28
ENDBRANCH  26  27
ENDBRANCH   1  26
TORSDOF 14
