REMARK SMILES CC[C@@H](C)[C@@H](C)Nc1cccc(F)c1C(=O)NCCCCNC(=O)c1ccc(-c2c3nc(c(-c4c(F)c(F)c(F)c(F)c4F)c4ccc([nH]4)c(-c4c(F)c(F)c(F)c(F)c4F)c4nc(c(-c5c(F)c(F)c(F)c(F)c5F)c5ccc2[nH]5)C=C4)C=C3)cc1
REMARK SMILES IDX 18 1 17 2 15 3 16 4 14 6 8 7 9 8 10 9 12 10 11 11 13 12 7 13
REMARK SMILES IDX 5 15 6 16 3 17 4 18 2 19 1 20 19 21 20 22 21 23 22 24 23 25
REMARK SMILES IDX 24 27 25 28 26 29 87 30 27 31 86 32 28 33 29 34 30 35 80 36
REMARK SMILES IDX 31 37 85 38 79 39 81 40 32 41 84 42 78 43 77 44 33 46 65 47
REMARK SMILES IDX 45 48 64 49 46 50 49 51 63 52 82 53 47 54 48 55 62 57 83 58
REMARK SMILES IDX 50 59 34 60 35 61 43 62 36 63 37 64 41 65 44 66 38 67 39 68
REMARK SMILES IDX 42 69 40 70 66 71 67 72 75 73 68 74 69 75 73 76 76 77 70 78
REMARK SMILES IDX 71 79 74 80 72 81 51 82 52 83 60 84 53 85 54 86 58 87 61 88
REMARK SMILES IDX 55 89 56 90 59 91 57 92
REMARK H PARENT 17 5 7 14 22 26 81 45 49 56
REMARK Flexibility Score: inf
ROOT
ATOM      1  C   UNL     1       0.831  -2.473   8.751  1.00  0.00     0.116 C 
ENDROOT
BRANCH   1   2
ATOM      2  N   UNL     1       1.452  -2.035   7.515  1.00  0.00    -0.352 N 
ATOM      3  C   UNL     1       1.148  -2.264   6.193  1.00  0.00     0.256 C 
ATOM      4  O   UNL     1       1.965  -1.817   5.382  1.00  0.00    -0.269 OA
ATOM      5  H   UNL     1       2.243  -1.464   7.649  1.00  0.00     0.163 HD
BRANCH   3   6
ATOM      6  C   UNL     1      -0.027  -3.066   5.721  1.00  0.00     0.098 A 
ATOM      7  C   UNL     1       0.019  -3.723   4.462  1.00  0.00     0.050 A 
ATOM      8  C   UNL     1      -1.004  -4.638   4.139  1.00  0.00     0.027 A 
ATOM      9  C   UNL     1      -2.103  -4.831   4.971  1.00  0.00     0.005 A 
ATOM     10  C   UNL     1      -1.211  -3.163   6.459  1.00  0.00     0.138 A 
ATOM     11  C   UNL     1      -2.227  -4.054   6.111  1.00  0.00     0.040 A 
ATOM     12  F   UNL     1      -1.456  -2.356   7.501  1.00  0.00    -0.206 F 
BRANCH   7  13
ATOM     13  N   UNL     1       0.989  -3.421   3.494  1.00  0.00    -0.382 N 
ATOM     14  H   UNL     1       1.944  -3.416   3.734  1.00  0.00     0.160 HD
BRANCH  13  15
ATOM     15  C   UNL     1       0.570  -3.109   2.116  1.00  0.00     0.079 C 
ATOM     16  C   UNL     1       1.159  -4.188   1.202  1.00  0.00     0.031 C 
BRANCH  15  17
ATOM     17  C   UNL     1       1.015  -1.664   1.719  1.00  0.00     0.008 C 
ATOM     18  C   UNL     1       0.381  -0.613   2.645  1.00  0.00     0.010 C 
BRANCH  17  19
ATOM     19  C   UNL     1       0.653  -1.339   0.249  1.00  0.00     0.002 C 
ATOM     20  C   UNL     1       1.114   0.036  -0.221  1.00  0.00     0.004 C 
ENDBRANCH  17  19
ENDBRANCH  15  17
ENDBRANCH  13  15
ENDBRANCH   7  13
ENDBRANCH   3   6
ENDBRANCH   1   2
BRANCH   1  21
ATOM     21  C   UNL     1       1.834  -2.889   9.823  1.00  0.00     0.023 C 
BRANCH  21  22
ATOM     22  C   UNL     1       2.839  -1.828  10.267  1.00  0.00     0.023 C 
BRANCH  22  23
ATOM     23  C   UNL     1       2.260  -0.481  10.686  1.00  0.00     0.116 C 
BRANCH  23  24
ATOM     24  N   UNL     1       1.288  -0.573  11.765  1.00  0.00    -0.352 N 
ATOM     25  C   UNL     1       1.255   0.056  12.989  1.00  0.00     0.251 C 
ATOM     26  H   UNL     1       0.534  -1.182  11.592  1.00  0.00     0.163 HD
ATOM     27  O   UNL     1       0.385  -0.228  13.801  1.00  0.00    -0.269 OA
BRANCH  25  28
ATOM     28  C   UNL     1       2.295   1.047  13.347  1.00  0.00     0.039 A 
ATOM     29  C   UNL     1       2.895   0.963  14.607  1.00  0.00     0.014 A 
ATOM     30  C   UNL     1       2.687   2.045  12.452  1.00  0.00     0.014 A 
ATOM     31  C   UNL     1       3.951   1.818  14.932  1.00  0.00     0.010 A 
ATOM     32  C   UNL     1       3.789   2.844  12.745  1.00  0.00     0.010 A 
ATOM     33  C   UNL     1       4.439   2.732  13.984  1.00  0.00    -0.014 A 
BRANCH  33  34
ATOM     34  C   UNL     1       5.636   3.568  14.260  1.00  0.00     0.031 A 
ATOM     35  C   UNL     1       5.520   5.065  14.305  1.00  0.00     0.074 A 
ATOM     36  C   UNL     1       6.842   2.981  14.397  1.00  0.00     0.049 A 
ATOM     37  N   UNL     1       6.463   5.964  14.436  1.00  0.00    -0.248 NA
ATOM     38  C   UNL     1       4.170   5.629  14.157  1.00  0.00     0.031 C 
ATOM     39  C   UNL     1       7.093   1.541  14.330  1.00  0.00     0.029 A 
ATOM     40  N   UNL     1       8.085   3.524  14.612  1.00  0.00    -0.354 N 
ATOM     41  C   UNL     1       5.823   7.194  14.367  1.00  0.00     0.074 A 
ATOM     42  C   UNL     1       4.420   6.930  14.135  1.00  0.00     0.031 C 
ATOM     43  C   UNL     1       8.401   1.313  14.528  1.00  0.00     0.029 A 
ATOM     44  C   UNL     1       9.088   2.590  14.697  1.00  0.00     0.049 A 
ATOM     45  H   UNL     1       8.242   4.492  14.698  1.00  0.00     0.167 HD
ATOM     46  C   UNL     1       6.355   8.431  14.510  1.00  0.00     0.037 A 
ATOM     47  C   UNL     1      10.413   2.744  14.884  1.00  0.00     0.037 A 
ATOM     48  C   UNL     1       7.745   8.690  14.777  1.00  0.00     0.049 A 
ATOM     49  C   UNL     1      10.979   4.129  15.043  1.00  0.00     0.074 A 
ATOM     50  C   UNL     1       8.367   9.907  14.993  1.00  0.00     0.029 A 
ATOM     51  N   UNL     1       8.726   7.715  14.872  1.00  0.00    -0.354 N 
ATOM     52  N   UNL     1      10.357   5.281  15.022  1.00  0.00    -0.248 NA
ATOM     53  C   UNL     1      12.430   4.235  15.253  1.00  0.00     0.031 C 
ATOM     54  C   UNL     1       9.732   9.672  15.182  1.00  0.00     0.029 A 
ATOM     55  C   UNL     1       9.953   8.305  15.129  1.00  0.00     0.049 A 
ATOM     56  H   UNL     1       8.574   6.747  14.771  1.00  0.00     0.167 HD
ATOM     57  C   UNL     1      11.331   6.246  15.239  1.00  0.00     0.074 A 
ATOM     58  C   UNL     1      12.587   5.544  15.400  1.00  0.00     0.031 C 
ATOM     59  C   UNL     1      11.193   7.592  15.299  1.00  0.00     0.037 A 
BRANCH  46  60
ATOM     60  C   UNL     1       5.429   9.606  14.399  1.00  0.00     0.064 A 
ATOM     61  C   UNL     1       5.520  10.486  13.311  1.00  0.00     0.173 A 
ATOM     62  C   UNL     1       4.495   9.897  15.404  1.00  0.00     0.173 A 
ATOM     63  F   UNL     1       6.402  10.257  12.326  1.00  0.00    -0.203 F 
ATOM     64  C   UNL     1       4.715  11.620  13.239  1.00  0.00     0.198 A 
ATOM     65  C   UNL     1       3.672  11.016  15.314  1.00  0.00     0.198 A 
ATOM     66  F   UNL     1       4.362   9.080  16.460  1.00  0.00    -0.203 F 
ATOM     67  F   UNL     1       4.839  12.463  12.204  1.00  0.00    -0.200 F 
ATOM     68  C   UNL     1       3.789  11.882  14.237  1.00  0.00     0.200 A 
ATOM     69  F   UNL     1       2.762  11.254  16.268  1.00  0.00    -0.200 F 
ATOM     70  F   UNL     1       3.007  12.967  14.160  1.00  0.00    -0.200 F 
ENDBRANCH  46  60
BRANCH  47  71
ATOM     71  C   UNL     1      11.287   1.546  14.972  1.00  0.00     0.064 A 
ATOM     72  C   UNL     1      11.564   0.755  13.847  1.00  0.00     0.173 A 
ATOM     73  C   UNL     1      11.841   1.154  16.198  1.00  0.00     0.173 A 
ATOM     74  F   UNL     1      11.055   1.086  12.652  1.00  0.00    -0.203 F 
ATOM     75  C   UNL     1      12.348  -0.392  13.951  1.00  0.00     0.198 A 
ATOM     76  C   UNL     1      12.645   0.021  16.296  1.00  0.00     0.198 A 
ATOM     77  F   UNL     1      11.621   1.891  17.297  1.00  0.00    -0.203 F 
ATOM     78  F   UNL     1      12.573  -1.148  12.868  1.00  0.00    -0.200 F 
ATOM     79  C   UNL     1      12.891  -0.756  15.174  1.00  0.00     0.200 A 
ATOM     80  F   UNL     1      13.185  -0.315  17.475  1.00  0.00    -0.200 F 
ATOM     81  F   UNL     1      13.653  -1.854  15.271  1.00  0.00    -0.200 F 
ENDBRANCH  47  71
BRANCH  59  82
ATOM     82  C   UNL     1      12.421   8.407  15.576  1.00  0.00     0.064 A 
ATOM     83  C   UNL     1      12.576   9.059  16.809  1.00  0.00     0.173 A 
ATOM     84  C   UNL     1      13.399   8.616  14.593  1.00  0.00     0.173 A 
ATOM     85  F   UNL     1      11.663   8.896  17.779  1.00  0.00    -0.203 F 
ATOM     86  C   UNL     1      13.656   9.904  17.041  1.00  0.00     0.198 A 
ATOM     87  C   UNL     1      14.492   9.442  14.838  1.00  0.00     0.198 A 
ATOM     88  F   UNL     1      13.300   8.004  13.403  1.00  0.00    -0.203 F 
ATOM     89  F   UNL     1      13.765  10.545  18.213  1.00  0.00    -0.200 F 
ATOM     90  C   UNL     1      14.614  10.094  16.057  1.00  0.00     0.200 A 
ATOM     91  F   UNL     1      15.428   9.609  13.894  1.00  0.00    -0.200 F 
ATOM     92  F   UNL     1      15.656  10.905  16.282  1.00  0.00    -0.200 F 
ENDBRANCH  59  82
ENDBRANCH  33  34
ENDBRANCH  25  28
ENDBRANCH  23  24
ENDBRANCH  22  23
ENDBRANCH  21  22
ENDBRANCH   1  21
TORSDOF 15
