REMARK SMILES O=C(NCCCCNC(=O)c1cccn1CC(=O)N1CCc2ccccc2C1)c1ccc(-c2c3nc(c(-c4c(F)c(F)c(F)c(F)c4F)c4ccc([nH]4)c(-c4c(F)c(F)c(F)c(F)c4F)c4nc(c(-c5c(F)c(F)c(F)c(F)c5F)c5ccc2[nH]5)C=C4)C=C3)cc1
REMARK SMILES IDX 6 1 5 2 4 3 3 4 1 5 2 6 29 8 30 9 91 10 31 11 90 12 32 13
REMARK SMILES IDX 33 14 34 15 84 16 35 17 89 18 83 19 85 20 36 21 88 22 82 23
REMARK SMILES IDX 81 24 37 26 69 27 49 28 68 29 50 30 53 31 67 32 86 33 51 34
REMARK SMILES IDX 52 35 66 37 87 38 54 39 38 40 39 41 47 42 40 43 41 44 45 45
REMARK SMILES IDX 48 46 42 47 43 48 46 49 44 50 70 51 71 52 79 53 72 54 73 55
REMARK SMILES IDX 77 56 80 57 74 58 75 59 78 60 76 61 55 62 56 63 64 64 57 65
REMARK SMILES IDX 58 66 62 67 65 68 59 69 60 70 63 71 61 72 7 73 8 74 9 75
REMARK SMILES IDX 10 77 11 78 12 79 15 80 13 81 14 82 16 83 17 84 18 85 19 86
REMARK SMILES IDX 20 87 28 88 21 89 27 90 22 91 26 92 23 93 25 94 24 95
REMARK H PARENT 3 7 85 25 53 36 8 76
REMARK Flexibility Score: inf
ROOT
ATOM      1  C   UNL     1       4.559   1.945   2.871  1.00  0.00     0.023 C 
ENDROOT
BRANCH   1   2
ATOM      2  C   UNL     1       5.103   1.513   1.510  1.00  0.00     0.023 C 
BRANCH   2   3
ATOM      3  C   UNL     1       4.716   0.102   1.076  1.00  0.00     0.116 C 
BRANCH   3   4
ATOM      4  N   UNL     1       3.296  -0.113   0.871  1.00  0.00    -0.352 N 
ATOM      5  O   UNL     1       1.257  -0.170  -0.011  1.00  0.00    -0.269 OA
ATOM      6  C   UNL     1       2.392   0.305  -0.072  1.00  0.00     0.251 C 
ATOM      7  H   UNL     1       2.892  -0.687   1.561  1.00  0.00     0.163 HD
BRANCH   6   8
ATOM      8  C   UNL     1       2.680   1.325  -1.117  1.00  0.00     0.039 A 
ATOM      9  C   UNL     1       3.949   1.592  -1.626  1.00  0.00     0.014 A 
ATOM     10  C   UNL     1       1.579   2.029  -1.645  1.00  0.00     0.014 A 
ATOM     11  C   UNL     1       4.131   2.583  -2.585  1.00  0.00     0.010 A 
ATOM     12  C   UNL     1       1.748   3.002  -2.634  1.00  0.00     0.010 A 
ATOM     13  C   UNL     1       3.032   3.276  -3.105  1.00  0.00    -0.014 A 
BRANCH  13  14
ATOM     14  C   UNL     1       3.295   4.117  -4.297  1.00  0.00     0.031 A 
ATOM     15  C   UNL     1       3.465   3.263  -5.559  1.00  0.00     0.074 A 
ATOM     16  C   UNL     1       3.492   5.452  -4.096  1.00  0.00     0.049 A 
ATOM     17  N   UNL     1       4.276   3.408  -6.564  1.00  0.00    -0.248 NA
ATOM     18  C   UNL     1       2.683   2.003  -5.673  1.00  0.00     0.031 C 
ATOM     19  C   UNL     1       3.212   6.152  -2.829  1.00  0.00     0.029 A 
ATOM     20  N   UNL     1       3.977   6.482  -4.883  1.00  0.00    -0.354 N 
ATOM     21  C   UNL     1       3.981   2.387  -7.495  1.00  0.00     0.074 A 
ATOM     22  C   UNL     1       3.085   1.487  -6.835  1.00  0.00     0.031 C 
ATOM     23  C   UNL     1       3.595   7.444  -2.900  1.00  0.00     0.029 A 
ATOM     24  C   UNL     1       4.166   7.717  -4.206  1.00  0.00     0.049 A 
ATOM     25  H   UNL     1       4.177   6.367  -5.840  1.00  0.00     0.167 HD
ATOM     26  C   UNL     1       4.388   2.426  -8.798  1.00  0.00     0.037 A 
ATOM     27  C   UNL     1       4.784   8.862  -4.638  1.00  0.00     0.037 A 
ATOM     28  C   UNL     1       5.201   3.571  -9.023  1.00  0.00     0.049 A 
ATOM     29  C   UNL     1       5.161   8.606  -6.034  1.00  0.00     0.074 A 
ATOM     30  C   UNL     1       6.491   3.891  -8.694  1.00  0.00     0.029 A 
ATOM     31  N   UNL     1       4.562   4.701  -9.463  1.00  0.00    -0.354 N 
ATOM     32  N   UNL     1       4.338   8.643  -7.038  1.00  0.00    -0.248 NA
ATOM     33  C   UNL     1       6.549   8.231  -6.337  1.00  0.00     0.031 C 
ATOM     34  C   UNL     1       6.479   5.298  -8.574  1.00  0.00     0.029 A 
ATOM     35  C   UNL     1       5.216   5.782  -8.931  1.00  0.00     0.049 A 
ATOM     36  H   UNL     1       3.776   4.731 -10.055  1.00  0.00     0.167 HD
ATOM     37  C   UNL     1       5.046   7.983  -8.015  1.00  0.00     0.074 A 
ATOM     38  C   UNL     1       6.440   8.071  -7.652  1.00  0.00     0.031 C 
ATOM     39  C   UNL     1       4.445   6.981  -8.703  1.00  0.00     0.037 A 
BRANCH  26  40
ATOM     40  C   UNL     1       3.935   1.666 -10.023  1.00  0.00     0.064 A 
ATOM     41  C   UNL     1       4.729   1.758 -11.197  1.00  0.00     0.173 A 
ATOM     42  C   UNL     1       2.635   1.176 -10.202  1.00  0.00     0.173 A 
ATOM     43  F   UNL     1       6.008   2.159 -11.136  1.00  0.00    -0.203 F 
ATOM     44  C   UNL     1       4.205   1.530 -12.469  1.00  0.00     0.198 A 
ATOM     45  C   UNL     1       2.131   0.894 -11.477  1.00  0.00     0.198 A 
ATOM     46  F   UNL     1       1.788   1.054  -9.174  1.00  0.00    -0.203 F 
ATOM     47  F   UNL     1       4.951   1.782 -13.554  1.00  0.00    -0.200 F 
ATOM     48  C   UNL     1       2.897   1.116 -12.609  1.00  0.00     0.200 A 
ATOM     49  F   UNL     1       0.864   0.477 -11.608  1.00  0.00    -0.200 F 
ATOM     50  F   UNL     1       2.364   0.964 -13.829  1.00  0.00    -0.200 F 
ENDBRANCH  26  40
BRANCH  27  51
ATOM     51  C   UNL     1       5.212  10.205  -4.075  1.00  0.00     0.064 A 
ATOM     52  C   UNL     1       4.780  10.768  -2.868  1.00  0.00     0.173 A 
ATOM     53  C   UNL     1       6.145  11.021  -4.785  1.00  0.00     0.173 A 
ATOM     54  F   UNL     1       3.808  10.199  -2.148  1.00  0.00    -0.203 F 
ATOM     55  C   UNL     1       5.313  11.973  -2.367  1.00  0.00     0.198 A 
ATOM     56  C   UNL     1       6.696  12.198  -4.278  1.00  0.00     0.198 A 
ATOM     57  F   UNL     1       6.563  10.712  -6.019  1.00  0.00    -0.203 F 
ATOM     58  F   UNL     1       4.871  12.459  -1.199  1.00  0.00    -0.200 F 
ATOM     59  C   UNL     1       6.291  12.669  -3.056  1.00  0.00     0.200 A 
ATOM     60  F   UNL     1       7.625  12.856  -4.988  1.00  0.00    -0.200 F 
ATOM     61  F   UNL     1       6.824  13.792  -2.556  1.00  0.00    -0.200 F 
ENDBRANCH  27  51
BRANCH  39  62
ATOM     62  C   UNL     1       2.933   7.089  -8.704  1.00  0.00     0.064 A 
ATOM     63  C   UNL     1       2.306   8.163  -9.352  1.00  0.00     0.173 A 
ATOM     64  C   UNL     1       2.098   6.251  -7.945  1.00  0.00     0.173 A 
ATOM     65  F   UNL     1       3.033   9.007 -10.101  1.00  0.00    -0.203 F 
ATOM     66  C   UNL     1       0.933   8.392  -9.229  1.00  0.00     0.198 A 
ATOM     67  C   UNL     1       0.725   6.470  -7.828  1.00  0.00     0.198 A 
ATOM     68  F   UNL     1       2.603   5.207  -7.293  1.00  0.00    -0.203 F 
ATOM     69  F   UNL     1       0.373   9.438  -9.852  1.00  0.00    -0.200 F 
ATOM     70  C   UNL     1       0.144   7.548  -8.464  1.00  0.00     0.200 A 
ATOM     71  F   UNL     1      -0.027   5.633  -7.096  1.00  0.00    -0.200 F 
ATOM     72  F   UNL     1      -1.174   7.766  -8.350  1.00  0.00    -0.200 F 
ENDBRANCH  39  62
ENDBRANCH  13  14
ENDBRANCH   6   8
ENDBRANCH   3   4
ENDBRANCH   2   3
ENDBRANCH   1   2
BRANCH   1  73
ATOM     73  C   UNL     1       4.957   1.079   4.065  1.00  0.00     0.116 C 
BRANCH  73  74
ATOM     74  N   UNL     1       6.395   1.041   4.264  1.00  0.00    -0.351 N 
ATOM     75  C   UNL     1       7.151   1.381   5.360  1.00  0.00     0.267 C 
ATOM     76  H   UNL     1       6.911   0.721   3.489  1.00  0.00     0.163 HD
ATOM     77  O   UNL     1       8.367   1.384   5.230  1.00  0.00    -0.268 OA
BRANCH  75  78
ATOM     78  C   UNL     1       6.484   1.764   6.590  1.00  0.00     0.107 A 
ATOM     79  C   UNL     1       5.495   1.088   7.289  1.00  0.00     0.033 A 
ATOM     80  N   UNL     1       6.780   2.902   7.331  1.00  0.00    -0.334 N 
ATOM     81  C   UNL     1       5.180   1.829   8.449  1.00  0.00     0.020 A 
ATOM     82  C   UNL     1       5.996   2.937   8.458  1.00  0.00     0.087 A 
BRANCH  80  83
ATOM     83  C   UNL     1       7.814   3.880   7.012  1.00  0.00     0.222 C 
BRANCH  83  84
ATOM     84  C   UNL     1       7.409   5.341   6.869  1.00  0.00     0.242 C 
ATOM     85  O   UNL     1       8.093   6.192   7.453  1.00  0.00    -0.273 OA
BRANCH  84  86
ATOM     86  N   UNL     1       6.427   5.727   5.958  1.00  0.00    -0.336 N 
ATOM     87  C   UNL     1       5.361   4.848   5.483  1.00  0.00     0.124 C 
ATOM     88  C   UNL     1       6.401   7.140   5.558  1.00  0.00     0.155 C 
ATOM     89  C   UNL     1       4.588   5.334   4.263  1.00  0.00     0.057 C 
ATOM     90  C   UNL     1       5.086   7.646   5.021  1.00  0.00    -0.025 A 
ATOM     91  C   UNL     1       4.189   6.768   4.399  1.00  0.00    -0.041 A 
ATOM     92  C   UNL     1       4.785   9.013   5.050  1.00  0.00     0.006 A 
ATOM     93  C   UNL     1       2.995   7.244   3.847  1.00  0.00     0.004 A 
ATOM     94  C   UNL     1       3.594   9.488   4.499  1.00  0.00     0.000 A 
ATOM     95  C   UNL     1       2.696   8.603   3.906  1.00  0.00     0.000 A 
ENDBRANCH  84  86
ENDBRANCH  83  84
ENDBRANCH  80  83
ENDBRANCH  75  78
ENDBRANCH  73  74
ENDBRANCH   1  73
TORSDOF 14
