REMARK SMILES Cc1cc2nc(NC(=O)[C@H]3[C@@H](C(=O)NCCCCNC(=O)c4ccc(-c5c6nc(c(-c7c(F)c(F)c(F)c(F)c7F)c7ccc([nH]7)c(-c7c(F)c(F)c(F)c(F)c7F)c7nc(c(-c8c(F)c(F)c(F)c(F)c8F)c8ccc5[nH]8)C=C7)C=C6)cc4)[C@@H]4C=C[C@H]3C4)sc2cc1C
REMARK SMILES IDX 16 1 15 2 14 3 12 4 13 5 11 7 10 8 88 9 85 10 87 11 89 12
REMARK SMILES IDX 86 13 8 14 7 15 9 17 6 18 1 19 2 20 3 21 93 22 4 23 92 24
REMARK SMILES IDX 94 25 5 26 91 27 90 28 17 29 18 30 19 31 20 32 21 34 22 35
REMARK SMILES IDX 23 36 84 37 24 38 83 39 25 40 26 41 27 42 77 43 28 44 82 45
REMARK SMILES IDX 76 46 78 47 29 48 81 49 75 50 74 51 30 53 62 54 42 55 61 56
REMARK SMILES IDX 43 57 46 58 60 59 79 60 44 61 45 62 59 64 80 65 47 66 31 67
REMARK SMILES IDX 32 68 40 69 33 70 34 71 38 72 41 73 35 74 36 75 39 76 37 77
REMARK SMILES IDX 63 78 64 79 72 80 65 81 66 82 70 83 73 84 67 85 68 86 71 87
REMARK SMILES IDX 69 88 48 89 49 90 57 91 50 92 51 93 55 94 58 95 52 96 53 97
REMARK SMILES IDX 56 98 54 99
REMARK H PARENT 14 6 7 16 19 33 78 52 46 63
REMARK Flexibility Score: inf
ROOT
ATOM      1  C   UNL     1      -3.506   4.986  -7.292  1.00  0.00     0.023 C 
ENDROOT
BRANCH   1   2
ATOM      2  C   UNL     1      -2.418   5.894  -7.871  1.00  0.00     0.116 C 
BRANCH   2   3
ATOM      3  N   UNL     1      -1.838   6.858  -6.945  1.00  0.00    -0.356 N 
ATOM      4  C   UNL     1      -0.769   6.715  -6.089  1.00  0.00     0.224 C 
ATOM      5  O   UNL     1      -0.357   7.672  -5.455  1.00  0.00    -0.275 OA
ATOM      6  H   UNL     1      -2.275   7.740  -6.928  1.00  0.00     0.163 HD
BRANCH   4   7
ATOM      7  C   UNL     1      -0.154   5.336  -5.976  1.00  0.00     0.098 C 
ATOM      8  C   UNL     1      -0.818   4.328  -4.953  1.00  0.00     0.099 C 
ATOM      9  C   UNL     1       0.452   3.652  -4.401  1.00  0.00     0.025 C 
ATOM     10  C   UNL     1       1.348   5.345  -5.543  1.00  0.00     0.025 C 
ATOM     11  C   UNL     1       1.322   3.062  -5.507  1.00  0.00    -0.027 C 
ATOM     12  C   UNL     1       1.300   4.887  -4.085  1.00  0.00     0.017 C 
ATOM     13  C   UNL     1       1.923   4.079  -6.139  1.00  0.00    -0.027 C 
BRANCH   8  14
ATOM     14  C   UNL     1      -1.896   5.006  -4.035  1.00  0.00     0.230 C 
ATOM     15  N   UNL     1      -2.108   4.926  -2.708  1.00  0.00    -0.302 N 
ATOM     16  H   UNL     1      -2.979   5.273  -2.405  1.00  0.00     0.172 HD
ATOM     17  O   UNL     1      -2.777   5.706  -4.563  1.00  0.00    -0.274 OA
BRANCH  15  18
ATOM     18  C   UNL     1      -1.317   4.446  -1.729  1.00  0.00     0.190 A 
ATOM     19  C   UNL     1       4.049   3.359   0.456  1.00  0.00     0.044 C 
ATOM     20  C   UNL     1       2.589   3.708   0.503  1.00  0.00    -0.046 A 
ATOM     21  C   UNL     1       1.851   3.451  -0.655  1.00  0.00     0.033 A 
ATOM     22  C   UNL     1       1.933   4.243   1.627  1.00  0.00    -0.047 A 
ATOM     23  C   UNL     1       0.514   3.851  -0.739  1.00  0.00     0.084 A 
ATOM     24  C   UNL     1       0.579   4.647   1.548  1.00  0.00     0.025 A 
ATOM     25  C   UNL     1       2.612   4.418   2.957  1.00  0.00     0.044 C 
ATOM     26  N   UNL     1      -0.249   3.735  -1.860  1.00  0.00    -0.220 NA
ATOM     27  C   UNL     1      -0.101   4.476   0.340  1.00  0.00     0.057 A 
ATOM     28  S   UNL     1      -1.691   4.955  -0.147  1.00  0.00    -0.097 S 
ENDBRANCH  15  18
ENDBRANCH   8  14
ENDBRANCH   4   7
ENDBRANCH   2   3
ENDBRANCH   1   2
BRANCH   1  29
ATOM     29  C   UNL     1      -4.799   5.697  -6.864  1.00  0.00     0.023 C 
BRANCH  29  30
ATOM     30  C   UNL     1      -5.526   6.387  -8.014  1.00  0.00     0.116 C 
BRANCH  30  31
ATOM     31  N   UNL     1      -5.668   5.516  -9.163  1.00  0.00    -0.352 N 
ATOM     32  C   UNL     1      -6.547   4.551  -9.554  1.00  0.00     0.251 C 
ATOM     33  H   UNL     1      -4.952   5.657  -9.825  1.00  0.00     0.163 HD
ATOM     34  O   UNL     1      -6.254   3.956 -10.595  1.00  0.00    -0.269 OA
BRANCH  32  35
ATOM     35  C   UNL     1      -7.800   4.168  -8.848  1.00  0.00     0.039 A 
ATOM     36  C   UNL     1      -8.205   4.606  -7.589  1.00  0.00     0.014 A 
ATOM     37  C   UNL     1      -8.630   3.259  -9.536  1.00  0.00     0.014 A 
ATOM     38  C   UNL     1      -9.392   4.129  -7.028  1.00  0.00     0.010 A 
ATOM     39  C   UNL     1      -9.820   2.791  -8.986  1.00  0.00     0.010 A 
ATOM     40  C   UNL     1     -10.195   3.207  -7.715  1.00  0.00    -0.014 A 
BRANCH  40  41
ATOM     41  C   UNL     1     -11.459   2.797  -7.095  1.00  0.00     0.031 A 
ATOM     42  C   UNL     1     -12.362   3.918  -6.704  1.00  0.00     0.074 A 
ATOM     43  C   UNL     1     -11.877   1.525  -6.926  1.00  0.00     0.049 A 
ATOM     44  N   UNL     1     -12.724   4.263  -5.510  1.00  0.00    -0.248 NA
ATOM     45  C   UNL     1     -12.849   4.818  -7.759  1.00  0.00     0.031 C 
ATOM     46  C   UNL     1     -11.299   0.291  -7.462  1.00  0.00     0.029 A 
ATOM     47  N   UNL     1     -12.984   1.080  -6.256  1.00  0.00    -0.354 N 
ATOM     48  C   UNL     1     -13.594   5.340  -5.659  1.00  0.00     0.074 A 
ATOM     49  C   UNL     1     -13.559   5.701  -7.054  1.00  0.00     0.031 C 
ATOM     50  C   UNL     1     -12.162  -0.733  -7.265  1.00  0.00     0.029 A 
ATOM     51  C   UNL     1     -13.272  -0.263  -6.455  1.00  0.00     0.049 A 
ATOM     52  H   UNL     1     -13.530   1.664  -5.682  1.00  0.00     0.167 HD
ATOM     53  C   UNL     1     -14.406   5.747  -4.644  1.00  0.00     0.037 A 
ATOM     54  C   UNL     1     -14.357  -0.935  -6.000  1.00  0.00     0.037 A 
ATOM     55  C   UNL     1     -13.960   5.237  -3.376  1.00  0.00     0.049 A 
ATOM     56  C   UNL     1     -14.882  -0.196  -4.830  1.00  0.00     0.074 A 
ATOM     57  C   UNL     1     -12.848   5.421  -2.580  1.00  0.00     0.029 A 
ATOM     58  N   UNL     1     -14.594   4.127  -2.886  1.00  0.00    -0.354 N 
ATOM     59  N   UNL     1     -14.267  -0.103  -3.685  1.00  0.00    -0.248 NA
ATOM     60  C   UNL     1     -15.966   0.750  -5.037  1.00  0.00     0.031 C 
ATOM     61  C   UNL     1     -12.631   4.164  -1.944  1.00  0.00     0.029 A 
ATOM     62  C   UNL     1     -13.641   3.296  -2.361  1.00  0.00     0.049 A 
ATOM     63  H   UNL     1     -15.563   3.956  -2.908  1.00  0.00     0.167 HD
ATOM     64  C   UNL     1     -14.585   1.163  -3.223  1.00  0.00     0.074 A 
ATOM     65  C   UNL     1     -15.734   1.579  -4.018  1.00  0.00     0.031 C 
ATOM     66  C   UNL     1     -13.713   1.855  -2.436  1.00  0.00     0.037 A 
BRANCH  53  67
ATOM     67  C   UNL     1     -15.793   6.316  -4.822  1.00  0.00     0.064 A 
ATOM     68  C   UNL     1     -16.483   6.825  -3.701  1.00  0.00     0.173 A 
ATOM     69  C   UNL     1     -16.582   6.089  -5.969  1.00  0.00     0.173 A 
ATOM     70  F   UNL     1     -15.838   7.060  -2.549  1.00  0.00    -0.203 F 
ATOM     71  C   UNL     1     -17.868   7.015  -3.708  1.00  0.00     0.198 A 
ATOM     72  C   UNL     1     -17.956   6.327  -5.987  1.00  0.00     0.198 A 
ATOM     73  F   UNL     1     -16.080   5.524  -7.074  1.00  0.00    -0.203 F 
ATOM     74  F   UNL     1     -18.496   7.379  -2.581  1.00  0.00    -0.200 F 
ATOM     75  C   UNL     1     -18.605   6.758  -4.849  1.00  0.00     0.200 A 
ATOM     76  F   UNL     1     -18.657   6.052  -7.096  1.00  0.00    -0.200 F 
ATOM     77  F   UNL     1     -19.939   6.876  -4.839  1.00  0.00    -0.200 F 
ENDBRANCH  53  67
BRANCH  54  78
ATOM     78  C   UNL     1     -15.145  -1.997  -6.671  1.00  0.00     0.064 A 
ATOM     79  C   UNL     1     -16.084  -2.762  -5.955  1.00  0.00     0.173 A 
ATOM     80  C   UNL     1     -15.224  -2.063  -8.074  1.00  0.00     0.173 A 
ATOM     81  F   UNL     1     -16.104  -2.727  -4.615  1.00  0.00    -0.203 F 
ATOM     82  C   UNL     1     -17.073  -3.507  -6.606  1.00  0.00     0.198 A 
ATOM     83  C   UNL     1     -16.207  -2.812  -8.723  1.00  0.00     0.198 A 
ATOM     84  F   UNL     1     -14.415  -1.320  -8.843  1.00  0.00    -0.203 F 
ATOM     85  F   UNL     1     -18.000  -4.159  -5.890  1.00  0.00    -0.200 F 
ATOM     86  C   UNL     1     -17.143  -3.518  -7.989  1.00  0.00     0.200 A 
ATOM     87  F   UNL     1     -16.287  -2.786 -10.060  1.00  0.00    -0.200 F 
ATOM     88  F   UNL     1     -18.135  -4.169  -8.613  1.00  0.00    -0.200 F 
ENDBRANCH  54  78
BRANCH  66  89
ATOM     89  C   UNL     1     -12.591   1.089  -1.794  1.00  0.00     0.064 A 
ATOM     90  C   UNL     1     -11.558   0.455  -2.505  1.00  0.00     0.173 A 
ATOM     91  C   UNL     1     -12.489   1.122  -0.396  1.00  0.00     0.173 A 
ATOM     92  F   UNL     1     -11.536   0.458  -3.844  1.00  0.00    -0.203 F 
ATOM     93  C   UNL     1     -10.489  -0.145  -1.840  1.00  0.00     0.198 A 
ATOM     94  C   UNL     1     -11.402   0.556   0.263  1.00  0.00     0.198 A 
ATOM     95  F   UNL     1     -13.422   1.756   0.331  1.00  0.00    -0.203 F 
ATOM     96  F   UNL     1      -9.517  -0.752  -2.537  1.00  0.00    -0.200 F 
ATOM     97  C   UNL     1     -10.407  -0.085  -0.458  1.00  0.00     0.200 A 
ATOM     98  F   UNL     1     -11.303   0.659   1.595  1.00  0.00    -0.200 F 
ATOM     99  F   UNL     1      -9.355  -0.618   0.179  1.00  0.00    -0.200 F 
ENDBRANCH  66  89
ENDBRANCH  40  41
ENDBRANCH  32  35
ENDBRANCH  30  31
ENDBRANCH  29  30
ENDBRANCH   1  29
TORSDOF 13
