REMARK SMILES O=C(NCCCCNC(=O)c1ccccc1Nc1nc(Cl)nc(Nc2ccc(N3CCOCC3=O)cc2)n1)c1ccc(-c2c3nc(c(-c4c(F)c(F)c(F)c(F)c4F)c4ccc([nH]4)c(-c4c(F)c(F)c(F)c(F)c4F)c4nc(c(-c5c(F)c(F)c(F)c(F)c5F)c5ccc2[nH]5)C=C4)C=C3)cc1
REMARK SMILES IDX 7 1 6 2 5 3 4 4 3 5 1 6 2 7 39 9 40 10 101 11 41 12 100 13
REMARK SMILES IDX 42 14 43 15 44 16 94 17 45 18 99 19 93 20 95 21 46 22 98 23
REMARK SMILES IDX 92 24 91 25 47 27 79 28 59 29 78 30 60 31 63 32 77 33 96 34
REMARK SMILES IDX 61 35 62 36 76 38 97 39 64 40 48 41 49 42 57 43 50 44 51 45
REMARK SMILES IDX 55 46 58 47 52 48 53 49 56 50 54 51 80 52 81 53 89 54 82 55
REMARK SMILES IDX 83 56 87 57 90 58 84 59 85 60 88 61 86 62 65 63 66 64 74 65
REMARK SMILES IDX 67 66 68 67 72 68 75 69 69 70 70 71 73 72 71 73 8 74 9 75
REMARK SMILES IDX 10 77 11 78 12 79 16 80 13 81 15 82 14 83 17 84 18 86 19 87
REMARK SMILES IDX 38 88 20 89 23 90 21 91 22 92 24 93 25 95 26 96 37 97 27 98
REMARK SMILES IDX 36 99 28 100 29 101 30 102 34 103 31 104 33 105 35 106
REMARK SMILES IDX 32 107
REMARK H PARENT 3 8 95 26 63 37 8 76 17 85 24 94
REMARK Flexibility Score: inf
ROOT
ATOM      1  C   UNL     1       4.934   3.541   2.670  1.00  0.00     0.116 C 
ENDROOT
BRANCH   1   2
ATOM      2  C   UNL     1       4.572   3.730   1.199  1.00  0.00     0.023 C 
BRANCH   2   3
ATOM      3  C   UNL     1       5.047   2.625   0.257  1.00  0.00     0.023 C 
BRANCH   3   4
ATOM      4  C   UNL     1       4.679   1.208   0.676  1.00  0.00     0.116 C 
BRANCH   4   5
ATOM      5  N   UNL     1       3.245   0.973   0.666  1.00  0.00    -0.352 N 
ATOM      6  O   UNL     1       1.292   0.111  -0.072  1.00  0.00    -0.269 OA
ATOM      7  C   UNL     1       2.519   0.069  -0.071  1.00  0.00     0.251 C 
ATOM      8  H   UNL     1       2.719   1.541   1.275  1.00  0.00     0.163 HD
BRANCH   7   9
ATOM      9  C   UNL     1       3.221  -0.949  -0.882  1.00  0.00     0.039 A 
ATOM     10  C   UNL     1       4.283  -1.678  -0.342  1.00  0.00     0.014 A 
ATOM     11  C   UNL     1       2.795  -1.194  -2.191  1.00  0.00     0.014 A 
ATOM     12  C   UNL     1       4.998  -2.558  -1.146  1.00  0.00     0.010 A 
ATOM     13  C   UNL     1       3.459  -2.145  -2.971  1.00  0.00     0.010 A 
ATOM     14  C   UNL     1       4.573  -2.826  -2.457  1.00  0.00    -0.014 A 
BRANCH  14  15
ATOM     15  C   UNL     1       5.226  -3.919  -3.220  1.00  0.00     0.031 A 
ATOM     16  C   UNL     1       6.003  -3.649  -4.475  1.00  0.00     0.074 A 
ATOM     17  C   UNL     1       5.094  -5.177  -2.754  1.00  0.00     0.049 A 
ATOM     18  N   UNL     1       6.606  -4.501  -5.265  1.00  0.00    -0.248 NA
ATOM     19  C   UNL     1       6.116  -2.248  -4.907  1.00  0.00     0.031 C 
ATOM     20  C   UNL     1       4.341  -5.553  -1.554  1.00  0.00     0.029 A 
ATOM     21  N   UNL     1       5.582  -6.369  -3.224  1.00  0.00    -0.354 N 
ATOM     22  C   UNL     1       7.152  -3.747  -6.295  1.00  0.00     0.074 A 
ATOM     23  C   UNL     1       6.800  -2.367  -6.040  1.00  0.00     0.031 C 
ATOM     24  C   UNL     1       4.436  -6.877  -1.369  1.00  0.00     0.029 A 
ATOM     25  C   UNL     1       5.194  -7.452  -2.473  1.00  0.00     0.049 A 
ATOM     26  H   UNL     1       6.155  -6.442  -4.021  1.00  0.00     0.167 HD
ATOM     27  C   UNL     1       7.880  -4.179  -7.353  1.00  0.00     0.037 A 
ATOM     28  C   UNL     1       5.390  -8.768  -2.670  1.00  0.00     0.037 A 
ATOM     29  C   UNL     1       8.244  -5.555  -7.581  1.00  0.00     0.049 A 
ATOM     30  C   UNL     1       6.173  -9.210  -3.873  1.00  0.00     0.074 A 
ATOM     31  C   UNL     1       9.053  -6.078  -8.575  1.00  0.00     0.029 A 
ATOM     32  N   UNL     1       7.811  -6.627  -6.814  1.00  0.00    -0.354 N 
ATOM     33  N   UNL     1       6.748  -8.480  -4.797  1.00  0.00    -0.248 NA
ATOM     34  C   UNL     1       6.326 -10.657  -4.067  1.00  0.00     0.031 C 
ATOM     35  C   UNL     1       9.057  -7.470  -8.450  1.00  0.00     0.029 A 
ATOM     36  C   UNL     1       8.296  -7.813  -7.344  1.00  0.00     0.049 A 
ATOM     37  H   UNL     1       7.243  -6.556  -6.013  1.00  0.00     0.167 HD
ATOM     38  C   UNL     1       7.336  -9.376  -5.677  1.00  0.00     0.074 A 
ATOM     39  C   UNL     1       7.077 -10.703  -5.157  1.00  0.00     0.031 C 
ATOM     40  C   UNL     1       8.019  -9.124  -6.819  1.00  0.00     0.037 A 
BRANCH  27  41
ATOM     41  C   UNL     1       8.331  -3.171  -8.370  1.00  0.00     0.064 A 
ATOM     42  C   UNL     1       9.378  -2.276  -8.111  1.00  0.00     0.173 A 
ATOM     43  C   UNL     1       7.783  -3.184  -9.663  1.00  0.00     0.173 A 
ATOM     44  F   UNL     1       9.933  -2.221  -6.891  1.00  0.00    -0.203 F 
ATOM     45  C   UNL     1       9.858  -1.428  -9.107  1.00  0.00     0.198 A 
ATOM     46  C   UNL     1       8.280  -2.352 -10.663  1.00  0.00     0.198 A 
ATOM     47  F   UNL     1       6.785  -4.029  -9.966  1.00  0.00    -0.203 F 
ATOM     48  F   UNL     1      10.850  -0.570  -8.834  1.00  0.00    -0.200 F 
ATOM     49  C   UNL     1       9.317  -1.475 -10.384  1.00  0.00     0.200 A 
ATOM     50  F   UNL     1       7.767  -2.411 -11.899  1.00  0.00    -0.200 F 
ATOM     51  F   UNL     1       9.797  -0.677 -11.348  1.00  0.00    -0.200 F 
ENDBRANCH  27  41
BRANCH  28  52
ATOM     52  C   UNL     1       4.792  -9.757  -1.737  1.00  0.00     0.064 A 
ATOM     53  C   UNL     1       5.596 -10.577  -0.934  1.00  0.00     0.173 A 
ATOM     54  C   UNL     1       3.400  -9.915  -1.643  1.00  0.00     0.173 A 
ATOM     55  F   UNL     1       6.932 -10.478  -1.002  1.00  0.00    -0.203 F 
ATOM     56  C   UNL     1       5.032 -11.535  -0.095  1.00  0.00     0.198 A 
ATOM     57  C   UNL     1       2.837 -10.848  -0.777  1.00  0.00     0.198 A 
ATOM     58  F   UNL     1       2.586  -9.152  -2.386  1.00  0.00    -0.203 F 
ATOM     59  F   UNL     1       5.825 -12.347   0.618  1.00  0.00    -0.200 F 
ATOM     60  C   UNL     1       3.653 -11.666  -0.013  1.00  0.00     0.200 A 
ATOM     61  F   UNL     1       1.504 -10.957  -0.688  1.00  0.00    -0.200 F 
ATOM     62  F   UNL     1       3.113 -12.589   0.794  1.00  0.00    -0.200 F 
ENDBRANCH  28  52
BRANCH  40  63
ATOM     63  C   UNL     1       8.534 -10.310  -7.580  1.00  0.00     0.064 A 
ATOM     64  C   UNL     1       7.665 -11.156  -8.285  1.00  0.00     0.173 A 
ATOM     65  C   UNL     1       9.908 -10.587  -7.629  1.00  0.00     0.173 A 
ATOM     66  F   UNL     1       6.341 -10.944  -8.251  1.00  0.00    -0.203 F 
ATOM     67  C   UNL     1       8.152 -12.249  -8.995  1.00  0.00     0.198 A 
ATOM     68  C   UNL     1      10.394 -11.663  -8.366  1.00  0.00     0.198 A 
ATOM     69  F   UNL     1      10.780  -9.806  -6.974  1.00  0.00    -0.203 F 
ATOM     70  F   UNL     1       7.300 -13.073  -9.621  1.00  0.00    -0.200 F 
ATOM     71  C   UNL     1       9.516 -12.497  -9.041  1.00  0.00     0.200 A 
ATOM     72  F   UNL     1      11.713 -11.893  -8.421  1.00  0.00    -0.200 F 
ATOM     73  F   UNL     1       9.984 -13.546  -9.732  1.00  0.00    -0.200 F 
ENDBRANCH  40  63
ENDBRANCH  14  15
ENDBRANCH   7   9
ENDBRANCH   4   5
ENDBRANCH   3   4
ENDBRANCH   2   3
ENDBRANCH   1   2
BRANCH   1  74
ATOM     74  N   UNL     1       6.362   3.371   2.888  1.00  0.00    -0.352 N 
ATOM     75  C   UNL     1       7.168   3.954   3.834  1.00  0.00     0.253 C 
ATOM     76  H   UNL     1       6.814   2.751   2.271  1.00  0.00     0.163 HD
ATOM     77  O   UNL     1       8.373   3.715   3.841  1.00  0.00    -0.269 OA
BRANCH  75  78
ATOM     78  C   UNL     1       6.607   4.897   4.824  1.00  0.00     0.063 A 
ATOM     79  C   UNL     1       7.165   6.185   4.843  1.00  0.00     0.016 A 
ATOM     80  C   UNL     1       5.585   4.537   5.723  1.00  0.00     0.054 A 
ATOM     81  C   UNL     1       6.671   7.149   5.719  1.00  0.00     0.001 A 
ATOM     82  C   UNL     1       5.073   5.544   6.559  1.00  0.00     0.027 A 
ATOM     83  C   UNL     1       5.614   6.832   6.565  1.00  0.00     0.002 A 
BRANCH  80  84
ATOM     84  N   UNL     1       5.081   3.228   5.785  1.00  0.00    -0.323 N 
ATOM     85  H   UNL     1       5.704   2.526   5.485  1.00  0.00     0.170 HD
BRANCH  84  86
ATOM     86  C   UNL     1       3.837   2.771   6.204  1.00  0.00     0.233 A 
ATOM     87  N   UNL     1       2.765   3.522   6.015  1.00  0.00    -0.182 NA
ATOM     88  N   UNL     1       3.814   1.572   6.774  1.00  0.00    -0.176 NA
ATOM     89  C   UNL     1       1.645   2.969   6.444  1.00  0.00     0.228 A 
ATOM     90  C   UNL     1       2.638   1.151   7.231  1.00  0.00     0.233 A 
ATOM     91  Cl  UNL     1       0.223   3.891   6.232  1.00  0.00    -0.041 Cl
ATOM     92  N   UNL     1       1.503   1.810   7.057  1.00  0.00    -0.182 NA
BRANCH  90  93
ATOM     93  N   UNL     1       2.675   0.015   8.035  1.00  0.00    -0.324 N 
ATOM     94  H   UNL     1       3.558  -0.411   8.131  1.00  0.00     0.170 HD
BRANCH  93  95
ATOM     95  C   UNL     1       1.628  -0.601   8.724  1.00  0.00     0.041 A 
ATOM     96  C   UNL     1       1.737  -0.815  10.103  1.00  0.00     0.028 A 
ATOM     97  C   UNL     1       0.422  -0.914   8.095  1.00  0.00     0.028 A 
ATOM     98  C   UNL     1       0.656  -1.315  10.839  1.00  0.00     0.028 A 
ATOM     99  C   UNL     1      -0.638  -1.470   8.815  1.00  0.00     0.028 A 
ATOM    100  C   UNL     1      -0.537  -1.659  10.197  1.00  0.00     0.044 A 
BRANCH 100 101
ATOM    101  N   UNL     1      -1.655  -2.134  10.942  1.00  0.00    -0.308 N 
ATOM    102  C   UNL     1      -2.121  -1.284  12.044  1.00  0.00     0.154 C 
ATOM    103  C   UNL     1      -2.464  -3.159  10.437  1.00  0.00     0.253 C 
ATOM    104  C   UNL     1      -3.168  -1.953  12.925  1.00  0.00     0.183 C 
ATOM    105  C   UNL     1      -3.732  -3.465  11.250  1.00  0.00     0.260 C 
ATOM    106  O   UNL     1      -2.175  -3.865   9.469  1.00  0.00    -0.272 OA
ATOM    107  O   UNL     1      -4.226  -2.451  12.111  1.00  0.00    -0.370 OA
ENDBRANCH 100 101
ENDBRANCH  93  95
ENDBRANCH  90  93
ENDBRANCH  84  86
ENDBRANCH  80  84
ENDBRANCH  75  78
ENDBRANCH   1  74
TORSDOF 16
