REMARK SMILES CNC(=O)NC1=[NH+]N=CN[C@@H]1C(=O)NCCCCNC(=O)c1ccc(-c2c3nc(c(-c4c(F)c(F)c(F)c(F)c4F)c4ccc([nH]4)c(-c4c(F)c(F)c(F)c(F)c4F)c4nc(c(-c5c(F)c(F)c(F)c(F)c5F)c5ccc2[nH]5)C=C4)C=C3)cc1
REMARK SMILES IDX 17 1 16 2 15 3 14 4 12 5 13 6 11 8 1 9 2 10 3 11 4 13 5 14
REMARK SMILES IDX 6 15 7 17 8 18 10 20 9 21 18 23 19 24 20 25 21 27 22 28
REMARK SMILES IDX 23 29 84 30 24 31 83 32 25 33 26 34 27 35 77 36 28 37 82 38
REMARK SMILES IDX 76 39 78 40 29 41 81 42 75 43 74 44 30 46 62 47 42 48 61 49
REMARK SMILES IDX 43 50 46 51 60 52 79 53 44 54 45 55 59 57 80 58 47 59 31 60
REMARK SMILES IDX 32 61 40 62 33 63 34 64 38 65 41 66 35 67 36 68 39 69 37 70
REMARK SMILES IDX 63 71 64 72 72 73 65 74 66 75 70 76 73 77 67 78 68 79 71 80
REMARK SMILES IDX 69 81 48 82 49 83 57 84 50 85 51 86 55 87 58 88 52 89 53 90
REMARK SMILES IDX 56 91 54 92
REMARK H PARENT 14 7 2 12 5 16 7 19 10 22 19 26 78 45 46 56
REMARK Flexibility Score: inf
ROOT
ATOM      1  C   UNL     1      -3.450   4.304   3.598  1.00  0.00     0.023 C 
ENDROOT
BRANCH   1   2
ATOM      2  C   UNL     1      -2.072   3.639   3.583  1.00  0.00     0.023 C 
BRANCH   2   3
ATOM      3  C   UNL     1      -2.103   2.116   3.474  1.00  0.00     0.116 C 
BRANCH   3   4
ATOM      4  N   UNL     1      -2.508   1.673   2.155  1.00  0.00    -0.354 N 
ATOM      5  C   UNL     1      -1.754   1.270   1.091  1.00  0.00     0.255 C 
ATOM      6  O   UNL     1      -2.366   1.008   0.049  1.00  0.00    -0.272 OA
ATOM      7  H   UNL     1      -3.481   1.660   2.003  1.00  0.00     0.163 HD
BRANCH   5   8
ATOM      8  C   UNL     1      -0.217   1.196   1.124  1.00  0.00     0.287 C 
ATOM      9  C   UNL     1       1.911  -0.947  -0.413  1.00  0.00     0.147 C 
ATOM     10  N   UNL     1       0.612  -1.587  -0.322  1.00  0.00    -0.321 N 
ATOM     11  C   UNL     1      -0.141  -1.825   0.785  1.00  0.00     0.406 C 
ATOM     12  H   UNL     1       0.224  -1.888  -1.175  1.00  0.00     0.167 HD
ATOM     13  O   UNL     1      -1.048  -2.651   0.756  1.00  0.00    -0.221 OA
ATOM     14  N   UNL     1       0.182  -1.154   1.927  1.00  0.00    -0.191 N 
ATOM     15  C   UNL     1       0.343   0.193   2.128  1.00  0.00     0.309 C 
ATOM     16  H   UNL     1       0.321  -1.718   2.722  1.00  0.00     0.317 HD
ATOM     17  N   UNL     1       1.021   0.511   3.190  1.00  0.00    -0.148 N 
ATOM     18  N   UNL     1       1.399   1.854   3.387  1.00  0.00    -0.077 NA
ATOM     19  H   UNL     1       1.267  -0.178   3.849  1.00  0.00     0.342 HD
ATOM     20  N   UNL     1       0.363   2.510   1.355  1.00  0.00    -0.352 N 
ATOM     21  C   UNL     1       1.096   2.720   2.477  1.00  0.00     0.241 C 
ATOM     22  H   UNL     1       0.226   3.237   0.706  1.00  0.00     0.163 HD
ENDBRANCH   5   8
ENDBRANCH   3   4
ENDBRANCH   2   3
ENDBRANCH   1   2
BRANCH   1  23
ATOM     23  C   UNL     1      -4.406   3.790   4.667  1.00  0.00     0.116 C 
BRANCH  23  24
ATOM     24  N   UNL     1      -3.870   3.875   6.017  1.00  0.00    -0.352 N 
ATOM     25  C   UNL     1      -4.551   4.111   7.190  1.00  0.00     0.251 C 
ATOM     26  H   UNL     1      -2.898   3.746   6.102  1.00  0.00     0.163 HD
ATOM     27  O   UNL     1      -3.955   4.252   8.246  1.00  0.00    -0.269 OA
BRANCH  25  28
ATOM     28  C   UNL     1      -6.021   4.238   7.142  1.00  0.00     0.039 A 
ATOM     29  C   UNL     1      -6.617   5.367   7.708  1.00  0.00     0.014 A 
ATOM     30  C   UNL     1      -6.796   3.274   6.492  1.00  0.00     0.014 A 
ATOM     31  C   UNL     1      -7.990   5.565   7.560  1.00  0.00     0.010 A 
ATOM     32  C   UNL     1      -8.149   3.508   6.284  1.00  0.00     0.010 A 
ATOM     33  C   UNL     1      -8.758   4.656   6.815  1.00  0.00    -0.014 A 
BRANCH  33  34
ATOM     34  C   UNL     1     -10.202   4.890   6.572  1.00  0.00     0.031 A 
ATOM     35  C   UNL     1     -11.222   3.943   7.133  1.00  0.00     0.074 A 
ATOM     36  C   UNL     1     -10.585   5.906   5.776  1.00  0.00     0.049 A 
ATOM     37  N   UNL     1     -12.521   3.934   6.972  1.00  0.00    -0.248 NA
ATOM     38  C   UNL     1     -10.709   2.836   7.954  1.00  0.00     0.031 C 
ATOM     39  C   UNL     1      -9.682   6.849   5.115  1.00  0.00     0.029 A 
ATOM     40  N   UNL     1     -11.835   6.302   5.371  1.00  0.00    -0.354 N 
ATOM     41  C   UNL     1     -12.976   2.815   7.656  1.00  0.00     0.074 A 
ATOM     42  C   UNL     1     -11.810   2.138   8.183  1.00  0.00     0.031 C 
ATOM     43  C   UNL     1     -10.407   7.720   4.395  1.00  0.00     0.029 A 
ATOM     44  C   UNL     1     -11.821   7.380   4.521  1.00  0.00     0.049 A 
ATOM     45  H   UNL     1     -12.663   5.856   5.663  1.00  0.00     0.167 HD
ATOM     46  C   UNL     1     -14.252   2.404   7.849  1.00  0.00     0.037 A 
ATOM     47  C   UNL     1     -12.836   8.018   3.908  1.00  0.00     0.037 A 
ATOM     48  C   UNL     1     -15.407   3.096   7.343  1.00  0.00     0.049 A 
ATOM     49  C   UNL     1     -14.247   7.564   4.159  1.00  0.00     0.074 A 
ATOM     50  C   UNL     1     -16.745   2.809   7.547  1.00  0.00     0.029 A 
ATOM     51  N   UNL     1     -15.358   4.215   6.523  1.00  0.00    -0.354 N 
ATOM     52  N   UNL     1     -14.674   6.557   4.881  1.00  0.00    -0.248 NA
ATOM     53  C   UNL     1     -15.317   8.343   3.522  1.00  0.00     0.031 C 
ATOM     54  C   UNL     1     -17.506   3.729   6.815  1.00  0.00     0.029 A 
ATOM     55  C   UNL     1     -16.643   4.618   6.193  1.00  0.00     0.049 A 
ATOM     56  H   UNL     1     -14.533   4.658   6.220  1.00  0.00     0.167 HD
ATOM     57  C   UNL     1     -16.059   6.589   4.800  1.00  0.00     0.074 A 
ATOM     58  C   UNL     1     -16.401   7.727   3.972  1.00  0.00     0.031 C 
ATOM     59  C   UNL     1     -16.965   5.750   5.362  1.00  0.00     0.037 A 
BRANCH  46  60
ATOM     60  C   UNL     1     -14.453   1.146   8.643  1.00  0.00     0.064 A 
ATOM     61  C   UNL     1     -14.170   1.089  10.017  1.00  0.00     0.173 A 
ATOM     62  C   UNL     1     -14.932  -0.018   8.024  1.00  0.00     0.173 A 
ATOM     63  F   UNL     1     -13.698   2.171  10.654  1.00  0.00    -0.203 F 
ATOM     64  C   UNL     1     -14.315  -0.098  10.731  1.00  0.00     0.198 A 
ATOM     65  C   UNL     1     -15.107  -1.195   8.749  1.00  0.00     0.198 A 
ATOM     66  F   UNL     1     -15.224  -0.018   6.715  1.00  0.00    -0.203 F 
ATOM     67  F   UNL     1     -13.974  -0.144  12.026  1.00  0.00    -0.200 F 
ATOM     68  C   UNL     1     -14.786  -1.237  10.097  1.00  0.00     0.200 A 
ATOM     69  F   UNL     1     -15.574  -2.293   8.138  1.00  0.00    -0.200 F 
ATOM     70  F   UNL     1     -14.921  -2.380  10.784  1.00  0.00    -0.200 F 
ENDBRANCH  46  60
BRANCH  47  71
ATOM     71  C   UNL     1     -12.542   9.172   3.021  1.00  0.00     0.064 A 
ATOM     72  C   UNL     1     -12.832  10.482   3.424  1.00  0.00     0.173 A 
ATOM     73  C   UNL     1     -11.931   8.991   1.772  1.00  0.00     0.173 A 
ATOM     74  F   UNL     1     -13.432  10.702   4.603  1.00  0.00    -0.203 F 
ATOM     75  C   UNL     1     -12.531  11.569   2.606  1.00  0.00     0.198 A 
ATOM     76  C   UNL     1     -11.609  10.081   0.965  1.00  0.00     0.198 A 
ATOM     77  F   UNL     1     -11.626   7.757   1.345  1.00  0.00    -0.203 F 
ATOM     78  F   UNL     1     -12.845  12.810   3.002  1.00  0.00    -0.200 F 
ATOM     79  C   UNL     1     -11.912  11.368   1.381  1.00  0.00     0.200 A 
ATOM     80  F   UNL     1     -10.996   9.883  -0.210  1.00  0.00    -0.200 F 
ATOM     81  F   UNL     1     -11.610  12.415   0.601  1.00  0.00    -0.200 F 
ENDBRANCH  47  71
BRANCH  59  82
ATOM     82  C   UNL     1     -18.415   6.041   5.111  1.00  0.00     0.064 A 
ATOM     83  C   UNL     1     -19.006   5.803   3.862  1.00  0.00     0.173 A 
ATOM     84  C   UNL     1     -19.233   6.522   6.145  1.00  0.00     0.173 A 
ATOM     85  F   UNL     1     -18.262   5.358   2.837  1.00  0.00    -0.203 F 
ATOM     86  C   UNL     1     -20.359   6.055   3.651  1.00  0.00     0.198 A 
ATOM     87  C   UNL     1     -20.591   6.747   5.938  1.00  0.00     0.198 A 
ATOM     88  F   UNL     1     -18.716   6.761   7.360  1.00  0.00    -0.203 F 
ATOM     89  F   UNL     1     -20.894   5.860   2.438  1.00  0.00    -0.200 F 
ATOM     90  C   UNL     1     -21.151   6.519   4.691  1.00  0.00     0.200 A 
ATOM     91  F   UNL     1     -21.357   7.184   6.947  1.00  0.00    -0.200 F 
ATOM     92  F   UNL     1     -22.455   6.754   4.487  1.00  0.00    -0.200 F 
ENDBRANCH  59  82
ENDBRANCH  33  34
ENDBRANCH  25  28
ENDBRANCH  23  24
ENDBRANCH   1  23
TORSDOF 11
