REMARK SMILES C[C@@H](C(=O)NCCCCNC(=O)c1ccc(-c2c3nc(c(-c4c(F)c(F)c(F)c(F)c4F)c4ccc([nH]4)c(-c4c(F)c(F)c(F)c(F)c4F)c4nc(c(-c5c(F)c(F)c(F)c(F)c5F)c5ccc2[nH]5)C=C4)C=C3)cc1)c1cccn(C(F)F)c1=O
REMARK SMILES IDX 7 1 6 2 5 3 3 4 4 5 2 7 1 8 76 9 77 10 84 11 78 12 80 13
REMARK SMILES IDX 85 14 79 15 81 16 82 17 83 18 8 19 9 20 10 21 11 22 12 24
REMARK SMILES IDX 13 25 14 26 75 27 15 28 74 29 16 30 17 31 18 32 68 33 19 34
REMARK SMILES IDX 73 35 67 36 69 37 20 38 72 39 66 40 65 41 21 43 53 44 33 45
REMARK SMILES IDX 52 46 34 47 37 48 51 49 70 50 35 51 36 52 50 54 71 55 38 56
REMARK SMILES IDX 22 57 23 58 31 59 24 60 25 61 29 62 32 63 26 64 27 65 30 66
REMARK SMILES IDX 28 67 54 68 55 69 63 70 56 71 57 72 61 73 64 74 58 75 59 76
REMARK SMILES IDX 62 77 60 78 39 79 40 80 48 81 41 82 42 83 46 84 49 85 43 86
REMARK SMILES IDX 44 87 47 88 45 89
REMARK H PARENT 5 6 10 23 69 42 37 53
REMARK Flexibility Score: inf
ROOT
ATOM      1  C   UNL     1       4.240  -0.045   1.265  1.00  0.00     0.023 C 
ENDROOT
BRANCH   1   2
ATOM      2  C   UNL     1       3.449  -1.340   1.446  1.00  0.00     0.116 C 
BRANCH   2   3
ATOM      3  N   UNL     1       2.383  -1.162   2.409  1.00  0.00    -0.356 N 
ATOM      4  C   UNL     1       1.045  -0.970   2.213  1.00  0.00     0.227 C 
ATOM      5  O   UNL     1       0.360  -0.783   3.220  1.00  0.00    -0.274 OA
ATOM      6  H   UNL     1       2.667  -1.183   3.352  1.00  0.00     0.163 HD
BRANCH   4   7
ATOM      7  C   UNL     1       0.455  -1.097   0.798  1.00  0.00     0.111 C 
ATOM      8  C   UNL     1       0.931  -0.011  -0.172  1.00  0.00     0.023 C 
BRANCH   7   9
ATOM      9  C   UNL     1      -1.055  -1.181   0.903  1.00  0.00     0.030 A 
ATOM     10  C   UNL     1      -1.720  -2.352   0.889  1.00  0.00     0.012 A 
ATOM     11  C   UNL     1      -1.849   0.093   1.039  1.00  0.00     0.258 A 
ATOM     12  C   UNL     1      -3.155  -2.405   0.986  1.00  0.00     0.019 A 
ATOM     13  N   UNL     1      -3.226  -0.044   1.045  1.00  0.00    -0.258 N 
ATOM     14  O   UNL     1      -1.286   1.183   1.093  1.00  0.00    -0.269 OA
ATOM     15  C   UNL     1      -3.860  -1.270   1.042  1.00  0.00     0.095 A 
BRANCH  13  16
ATOM     16  C   UNL     1      -4.013   1.162   1.052  1.00  0.00     0.451 C 
ATOM     17  F   UNL     1      -4.826   1.172  -0.040  1.00  0.00    -0.185 F 
ATOM     18  F   UNL     1      -4.837   1.169   2.134  1.00  0.00    -0.185 F 
ENDBRANCH  13  16
ENDBRANCH   7   9
ENDBRANCH   4   7
ENDBRANCH   2   3
ENDBRANCH   1   2
BRANCH   1  19
ATOM     19  C   UNL     1       5.040   0.380   2.501  1.00  0.00     0.023 C 
BRANCH  19  20
ATOM     20  C   UNL     1       6.041  -0.653   3.008  1.00  0.00     0.116 C 
BRANCH  20  21
ATOM     21  N   UNL     1       7.032  -1.018   2.008  1.00  0.00    -0.352 N 
ATOM     22  C   UNL     1       8.385  -1.195   2.158  1.00  0.00     0.251 C 
ATOM     23  H   UNL     1       6.684  -1.158   1.098  1.00  0.00     0.163 HD
ATOM     24  O   UNL     1       9.099  -1.368   1.175  1.00  0.00    -0.269 OA
BRANCH  22  25
ATOM     25  C   UNL     1       8.985  -1.144   3.507  1.00  0.00     0.039 A 
ATOM     26  C   UNL     1      10.143  -0.387   3.700  1.00  0.00     0.014 A 
ATOM     27  C   UNL     1       8.402  -1.825   4.579  1.00  0.00     0.014 A 
ATOM     28  C   UNL     1      10.681  -0.262   4.981  1.00  0.00     0.010 A 
ATOM     29  C   UNL     1       8.895  -1.637   5.867  1.00  0.00     0.010 A 
ATOM     30  C   UNL     1      10.040  -0.855   6.082  1.00  0.00    -0.014 A 
BRANCH  30  31
ATOM     31  C   UNL     1      10.553  -0.663   7.463  1.00  0.00     0.031 A 
ATOM     32  C   UNL     1      11.044  -1.839   8.259  1.00  0.00     0.074 A 
ATOM     33  C   UNL     1      10.518   0.563   8.021  1.00  0.00     0.049 A 
ATOM     34  N   UNL     1      11.475  -1.881   9.495  1.00  0.00    -0.248 NA
ATOM     35  C   UNL     1      11.026  -3.148   7.587  1.00  0.00     0.031 C 
ATOM     36  C   UNL     1      10.015   1.774   7.369  1.00  0.00     0.029 A 
ATOM     37  N   UNL     1      10.902   0.992   9.267  1.00  0.00    -0.354 N 
ATOM     38  C   UNL     1      11.764  -3.215   9.750  1.00  0.00     0.074 A 
ATOM     39  C   UNL     1      11.408  -3.959   8.562  1.00  0.00     0.031 C 
ATOM     40  C   UNL     1      10.143   2.811   8.211  1.00  0.00     0.029 A 
ATOM     41  C   UNL     1      10.697   2.334   9.474  1.00  0.00     0.049 A 
ATOM     42  H   UNL     1      11.289   0.394   9.947  1.00  0.00     0.167 HD
ATOM     43  C   UNL     1      12.299  -3.765  10.866  1.00  0.00     0.037 A 
ATOM     44  C   UNL     1      10.920   3.093  10.564  1.00  0.00     0.037 A 
ATOM     45  C   UNL     1      12.671  -3.017  12.039  1.00  0.00     0.049 A 
ATOM     46  C   UNL     1      11.510   2.455  11.794  1.00  0.00     0.074 A 
ATOM     47  C   UNL     1      13.279  -3.472  13.195  1.00  0.00     0.029 A 
ATOM     48  N   UNL     1      12.463  -1.655  12.206  1.00  0.00    -0.354 N 
ATOM     49  N   UNL     1      11.850   1.206  11.997  1.00  0.00    -0.248 NA
ATOM     50  C   UNL     1      11.755   3.336  12.944  1.00  0.00     0.031 C 
ATOM     51  C   UNL     1      13.386  -2.399  14.085  1.00  0.00     0.029 A 
ATOM     52  C   UNL     1      12.906  -1.260  13.459  1.00  0.00     0.049 A 
ATOM     53  H   UNL     1      12.061  -1.058  11.535  1.00  0.00     0.167 HD
ATOM     54  C   UNL     1      12.375   1.156  13.281  1.00  0.00     0.074 A 
ATOM     55  C   UNL     1      12.324   2.505  13.804  1.00  0.00     0.031 C 
ATOM     56  C   UNL     1      12.855   0.088  13.965  1.00  0.00     0.037 A 
BRANCH  43  57
ATOM     57  C   UNL     1      12.517  -5.251  10.875  1.00  0.00     0.064 A 
ATOM     58  C   UNL     1      13.488  -5.860  10.064  1.00  0.00     0.173 A 
ATOM     59  C   UNL     1      11.777  -6.074  11.738  1.00  0.00     0.173 A 
ATOM     60  F   UNL     1      14.217  -5.122   9.213  1.00  0.00    -0.203 F 
ATOM     61  C   UNL     1      13.688  -7.238  10.095  1.00  0.00     0.198 A 
ATOM     62  C   UNL     1      12.003  -7.447  11.791  1.00  0.00     0.198 A 
ATOM     63  F   UNL     1      10.840  -5.545  12.539  1.00  0.00    -0.203 F 
ATOM     64  F   UNL     1      14.585  -7.801   9.274  1.00  0.00    -0.200 F 
ATOM     65  C   UNL     1      12.952  -8.029  10.964  1.00  0.00     0.200 A 
ATOM     66  F   UNL     1      11.301  -8.207  12.642  1.00  0.00    -0.200 F 
ATOM     67  F   UNL     1      13.153  -9.353  11.001  1.00  0.00    -0.200 F 
ENDBRANCH  43  57
BRANCH  44  68
ATOM     68  C   UNL     1      10.602   4.545  10.537  1.00  0.00     0.064 A 
ATOM     69  C   UNL     1      11.620   5.509  10.578  1.00  0.00     0.173 A 
ATOM     70  C   UNL     1       9.277   5.001  10.476  1.00  0.00     0.173 A 
ATOM     71  F   UNL     1      12.903   5.124  10.657  1.00  0.00    -0.203 F 
ATOM     72  C   UNL     1      11.325   6.870  10.584  1.00  0.00     0.198 A 
ATOM     73  C   UNL     1       8.984   6.363  10.450  1.00  0.00     0.198 A 
ATOM     74  F   UNL     1       8.266   4.122  10.429  1.00  0.00    -0.203 F 
ATOM     75  F   UNL     1      12.315   7.768  10.676  1.00  0.00    -0.200 F 
ATOM     76  C   UNL     1      10.007   7.296  10.514  1.00  0.00     0.200 A 
ATOM     77  F   UNL     1       7.710   6.770  10.365  1.00  0.00    -0.200 F 
ATOM     78  F   UNL     1       9.723   8.606  10.515  1.00  0.00    -0.200 F 
ENDBRANCH  44  68
BRANCH  56  79
ATOM     79  C   UNL     1      13.402   0.340  15.342  1.00  0.00     0.064 A 
ATOM     80  C   UNL     1      12.569   0.672  16.420  1.00  0.00     0.173 A 
ATOM     81  C   UNL     1      14.778   0.209  15.591  1.00  0.00     0.173 A 
ATOM     82  F   UNL     1      11.249   0.823  16.233  1.00  0.00    -0.203 F 
ATOM     83  C   UNL     1      13.096   0.893  17.690  1.00  0.00     0.198 A 
ATOM     84  C   UNL     1      15.296   0.396  16.869  1.00  0.00     0.198 A 
ATOM     85  F   UNL     1      15.618  -0.115  14.598  1.00  0.00    -0.203 F 
ATOM     86  F   UNL     1      12.288   1.262  18.694  1.00  0.00    -0.200 F 
ATOM     87  C   UNL     1      14.457   0.747  17.916  1.00  0.00     0.200 A 
ATOM     88  F   UNL     1      16.609   0.237  17.088  1.00  0.00    -0.200 F 
ATOM     89  F   UNL     1      14.960   0.952  19.140  1.00  0.00    -0.200 F 
ENDBRANCH  56  79
ENDBRANCH  30  31
ENDBRANCH  22  25
ENDBRANCH  20  21
ENDBRANCH  19  20
ENDBRANCH   1  19
TORSDOF 13
