REMARK SMILES O=C(C[C@H]1C(=O)NCC[N@H+]1[C@H]1CCO[C@@]2(CCSC2)C1)NCCCCNC(=O)c1ccc(-c2c3nc(c(-c4c(F)c(F)c(F)c(F)c4F)c4ccc([nH]4)c(-c4c(F)c(F)c(F)c(F)c4F)c4nc(c(-c5c(F)c(F)c(F)c(F)c5F)c5ccc2[nH]5)C=C4)C=C3)cc1
REMARK SMILES IDX 23 1 22 2 21 3 1 4 2 5 3 7 4 8 5 9 10 10 6 11 7 12 9 13 8 15
REMARK SMILES IDX 11 17 12 18 20 19 13 20 15 21 14 22 16 23 19 24 17 25 18 26
REMARK SMILES IDX 24 27 25 28 26 29 27 30 28 32 29 33 30 34 91 35 31 36 90 37
REMARK SMILES IDX 32 38 33 39 34 40 84 41 35 42 89 43 83 44 85 45 36 46 88 47
REMARK SMILES IDX 82 48 81 49 37 51 69 52 49 53 68 54 50 55 53 56 67 57 86 58
REMARK SMILES IDX 51 59 52 60 66 62 87 63 54 64 38 65 39 66 47 67 40 68 41 69
REMARK SMILES IDX 45 70 48 71 42 72 43 73 46 74 44 75 70 76 71 77 79 78 72 79
REMARK SMILES IDX 73 80 77 81 80 82 74 83 75 84 78 85 76 86 55 87 56 88 64 89
REMARK SMILES IDX 57 90 58 91 62 92 65 93 59 94 60 95 63 96 61 97
REMARK H PARENT 21 6 10 14 7 16 26 31 85 50 53 61
REMARK Flexibility Score: inf
ROOT
ATOM      1  C   UNL     1      -0.153   8.769   2.480  1.00  0.00     0.023 C 
ENDROOT
BRANCH   1   2
ATOM      2  C   UNL     1      -1.199   8.004   1.669  1.00  0.00     0.116 C 
BRANCH   2   3
ATOM      3  N   UNL     1      -0.577   6.941   0.913  1.00  0.00    -0.356 N 
ATOM      4  O   UNL     1      -2.168   5.334   1.338  1.00  0.00    -0.275 OA
ATOM      5  C   UNL     1      -1.095   5.668   0.849  1.00  0.00     0.226 C 
ATOM      6  H   UNL     1       0.254   7.137   0.422  1.00  0.00     0.163 HD
BRANCH   5   7
ATOM      7  C   UNL     1      -0.120   4.666   0.276  1.00  0.00     0.175 C 
BRANCH   7   8
ATOM      8  C   UNL     1       0.146   4.672  -1.234  1.00  0.00     0.283 C 
ATOM      9  C   UNL     1      -0.295   5.994  -1.909  1.00  0.00     0.279 C 
ATOM     10  N   UNL     1       1.551   4.316  -1.619  1.00  0.00    -0.320 N 
ATOM     11  O   UNL     1      -1.470   6.258  -2.154  1.00  0.00    -0.268 OA
ATOM     12  N   UNL     1       0.659   6.959  -2.116  1.00  0.00    -0.345 N 
ATOM     13  C   UNL     1       2.481   5.428  -1.385  1.00  0.00     0.284 C 
ATOM     14  H   UNL     1       1.462   4.167  -2.624  1.00  0.00     0.349 HD
ATOM     15  C   UNL     1       2.064   6.638  -2.230  1.00  0.00     0.177 C 
ATOM     16  H   UNL     1       0.377   7.899  -2.190  1.00  0.00     0.163 HD
BRANCH  10  17
ATOM     17  C   UNL     1       2.088   2.992  -1.235  1.00  0.00     0.189 C 
ATOM     18  C   UNL     1       2.461   2.785   0.243  1.00  0.00     0.093 C 
ATOM     19  C   UNL     1       1.190   1.844  -1.728  1.00  0.00     0.101 C 
ATOM     20  C   UNL     1       2.973   1.374   0.487  1.00  0.00     0.167 C 
ATOM     21  C   UNL     1       1.740   0.451  -1.355  1.00  0.00     0.084 C 
ATOM     22  O   UNL     1       2.014   0.412   0.054  1.00  0.00    -0.374 OA
ATOM     23  C   UNL     1       0.683  -0.633  -1.631  1.00  0.00     0.047 C 
ATOM     24  C   UNL     1       2.970   0.006  -2.168  1.00  0.00     0.105 C 
ATOM     25  C   UNL     1       0.631  -0.877  -3.129  1.00  0.00     0.072 C 
ATOM     26  S   UNL     1       2.356  -0.804  -3.672  1.00  0.00    -0.159 SA
ENDBRANCH  10  17
ENDBRANCH   7   8
ENDBRANCH   5   7
ENDBRANCH   2   3
ENDBRANCH   1   2
BRANCH   1  27
ATOM     27  C   UNL     1       0.966   9.411   1.651  1.00  0.00     0.023 C 
BRANCH  27  28
ATOM     28  C   UNL     1       0.497  10.298   0.502  1.00  0.00     0.116 C 
BRANCH  28  29
ATOM     29  N   UNL     1      -0.336  11.400   0.953  1.00  0.00    -0.352 N 
ATOM     30  C   UNL     1      -0.226  12.742   0.701  1.00  0.00     0.251 C 
ATOM     31  H   UNL     1      -1.094  11.143   1.526  1.00  0.00     0.163 HD
ATOM     32  O   UNL     1      -0.944  13.540   1.304  1.00  0.00    -0.269 OA
BRANCH  30  33
ATOM     33  C   UNL     1       0.769  13.245  -0.269  1.00  0.00     0.039 A 
ATOM     34  C   UNL     1       1.522  14.374   0.068  1.00  0.00     0.014 A 
ATOM     35  C   UNL     1       0.955  12.625  -1.508  1.00  0.00     0.014 A 
ATOM     36  C   UNL     1       2.504  14.841  -0.807  1.00  0.00     0.010 A 
ATOM     37  C   UNL     1       1.984  13.047  -2.348  1.00  0.00     0.010 A 
ATOM     38  C   UNL     1       2.769  14.159  -2.005  1.00  0.00    -0.014 A 
BRANCH  38  39
ATOM     39  C   UNL     1       3.869  14.590  -2.906  1.00  0.00     0.031 A 
ATOM     40  C   UNL     1       3.566  15.084  -4.293  1.00  0.00     0.074 A 
ATOM     41  C   UNL     1       5.147  14.478  -2.496  1.00  0.00     0.049 A 
ATOM     42  N   UNL     1       4.392  15.431  -5.248  1.00  0.00    -0.248 NA
ATOM     43  C   UNL     1       2.146  15.172  -4.667  1.00  0.00     0.031 C 
ATOM     44  C   UNL     1       5.575  13.973  -1.190  1.00  0.00     0.029 A 
ATOM     45  N   UNL     1       6.324  14.770  -3.140  1.00  0.00    -0.354 N 
ATOM     46  C   UNL     1       3.595  15.769  -6.333  1.00  0.00     0.074 A 
ATOM     47  C   UNL     1       2.223  15.531  -5.940  1.00  0.00     0.031 C 
ATOM     48  C   UNL     1       6.915  14.008  -1.122  1.00  0.00     0.029 A 
ATOM     49  C   UNL     1       7.444  14.499  -2.391  1.00  0.00     0.049 A 
ATOM     50  H   UNL     1       6.362  15.138  -4.052  1.00  0.00     0.167 HD
ATOM     51  C   UNL     1       3.972  16.256  -7.540  1.00  0.00     0.037 A 
ATOM     52  C   UNL     1       8.750  14.623  -2.696  1.00  0.00     0.037 A 
ATOM     53  C   UNL     1       5.337  16.512  -7.922  1.00  0.00     0.049 A 
ATOM     54  C   UNL     1       9.142  15.157  -4.047  1.00  0.00     0.074 A 
ATOM     55  C   UNL     1       5.816  17.054  -9.102  1.00  0.00     0.029 A 
ATOM     56  N   UNL     1       6.442  16.242  -7.129  1.00  0.00    -0.354 N 
ATOM     57  N   UNL     1       8.377  15.530  -5.043  1.00  0.00    -0.248 NA
ATOM     58  C   UNL     1      10.581  15.292  -4.314  1.00  0.00     0.031 C 
ATOM     59  C   UNL     1       7.213  17.067  -9.043  1.00  0.00     0.029 A 
ATOM     60  C   UNL     1       7.604  16.585  -7.804  1.00  0.00     0.049 A 
ATOM     61  H   UNL     1       6.408  15.863  -6.221  1.00  0.00     0.167 HD
ATOM     62  C   UNL     1       9.236  15.970  -6.041  1.00  0.00     0.074 A 
ATOM     63  C   UNL     1      10.581  15.831  -5.524  1.00  0.00     0.031 C 
ATOM     64  C   UNL     1       8.937  16.447  -7.275  1.00  0.00     0.037 A 
BRANCH  51  65
ATOM     65  C   UNL     1       2.889  16.547  -8.539  1.00  0.00     0.064 A 
ATOM     66  C   UNL     1       1.987  17.608  -8.359  1.00  0.00     0.173 A 
ATOM     67  C   UNL     1       2.772  15.781  -9.709  1.00  0.00     0.173 A 
ATOM     68  F   UNL     1       2.049  18.365  -7.253  1.00  0.00    -0.203 F 
ATOM     69  C   UNL     1       0.991  17.870  -9.296  1.00  0.00     0.198 A 
ATOM     70  C   UNL     1       1.795  16.066 -10.659  1.00  0.00     0.198 A 
ATOM     71  F   UNL     1       3.612  14.759  -9.935  1.00  0.00    -0.203 F 
ATOM     72  F   UNL     1       0.110  18.856  -9.076  1.00  0.00    -0.200 F 
ATOM     73  C   UNL     1       0.900  17.104 -10.448  1.00  0.00     0.200 A 
ATOM     74  F   UNL     1       1.717  15.334 -11.779  1.00  0.00    -0.200 F 
ATOM     75  F   UNL     1      -0.055  17.363 -11.352  1.00  0.00    -0.200 F 
ENDBRANCH  51  65
BRANCH  52  76
ATOM     76  C   UNL     1       9.783  14.251  -1.695  1.00  0.00     0.064 A 
ATOM     77  C   UNL     1      10.583  15.229  -1.087  1.00  0.00     0.173 A 
ATOM     78  C   UNL     1       9.995  12.914  -1.328  1.00  0.00     0.173 A 
ATOM     79  F   UNL     1      10.431  16.519  -1.420  1.00  0.00    -0.203 F 
ATOM     80  C   UNL     1      11.569  14.882  -0.166  1.00  0.00     0.198 A 
ATOM     81  C   UNL     1      10.962  12.571  -0.385  1.00  0.00     0.198 A 
ATOM     82  F   UNL     1       9.252  11.941  -1.875  1.00  0.00    -0.203 F 
ATOM     83  F   UNL     1      12.351  15.832   0.364  1.00  0.00    -0.200 F 
ATOM     84  C   UNL     1      11.754  13.554   0.188  1.00  0.00     0.200 A 
ATOM     85  F   UNL     1      11.125  11.289  -0.033  1.00  0.00    -0.200 F 
ATOM     86  F   UNL     1      12.700  13.221   1.077  1.00  0.00    -0.200 F 
ENDBRANCH  52  76
BRANCH  64  87
ATOM     87  C   UNL     1      10.082  16.886  -8.140  1.00  0.00     0.064 A 
ATOM     88  C   UNL     1      10.966  15.962  -8.719  1.00  0.00     0.173 A 
ATOM     89  C   UNL     1      10.275  18.246  -8.425  1.00  0.00     0.173 A 
ATOM     90  F   UNL     1      10.834  14.651  -8.464  1.00  0.00    -0.203 F 
ATOM     91  C   UNL     1      12.015  16.387  -9.530  1.00  0.00     0.198 A 
ATOM     92  C   UNL     1      11.306  18.665  -9.261  1.00  0.00     0.198 A 
ATOM     93  F   UNL     1       9.455  19.170  -7.902  1.00  0.00    -0.203 F 
ATOM     94  F   UNL     1      12.876  15.491 -10.032  1.00  0.00    -0.200 F 
ATOM     95  C   UNL     1      12.180  17.736  -9.807  1.00  0.00     0.200 A 
ATOM     96  F   UNL     1      11.455  19.967  -9.539  1.00  0.00    -0.200 F 
ATOM     97  F   UNL     1      13.185  18.142 -10.594  1.00  0.00    -0.200 F 
ENDBRANCH  64  87
ENDBRANCH  38  39
ENDBRANCH  30  33
ENDBRANCH  28  29
ENDBRANCH  27  28
ENDBRANCH   1  27
TORSDOF 13
