REMARK SMILES N#C/C(=C/c1cccc(OCC(=O)NCCCCNC(=O)c2ccc(-c3c4nc(c(-c5c(F)c(F)c(F)c(F)c5F)c5ccc([nH]5)c(-c5c(F)c(F)c(F)c(F)c5F)c5nc(c(-c6c(F)c(F)c(F)c(F)c6F)c6ccc3[nH]6)C=C5)C=C4)cc2)c1)c1nc2ccccc2[nH]1
REMARK SMILES IDX 15 1 14 2 12 3 13 4 11 6 10 7 9 8 5 9 6 10 85 11 7 12 8 13
REMARK SMILES IDX 4 14 3 15 2 16 1 17 86 18 87 19 94 20 88 21 93 22 89 24
REMARK SMILES IDX 92 25 90 26 91 27 16 28 17 29 18 30 19 31 20 32 21 34 22 35
REMARK SMILES IDX 23 36 84 37 24 38 83 39 25 40 26 41 27 42 77 43 28 44 82 45
REMARK SMILES IDX 76 46 78 47 29 48 81 49 75 50 74 51 30 53 62 54 42 55 61 56
REMARK SMILES IDX 43 57 46 58 60 59 79 60 44 61 45 62 59 64 80 65 47 66 31 67
REMARK SMILES IDX 32 68 40 69 33 70 34 71 38 72 41 73 35 74 36 75 39 76 37 77
REMARK SMILES IDX 63 78 64 79 72 80 65 81 66 82 70 83 73 84 67 85 68 86 71 87
REMARK SMILES IDX 69 88 48 89 49 90 57 91 50 92 51 93 55 94 58 95 52 96 53 97
REMARK SMILES IDX 56 98 54 99
REMARK H PARENT 14 5 94 23 19 33 78 52 46 63
REMARK Flexibility Score: inf
ROOT
ATOM      1  C   UNL     1      10.130   1.042   2.711  1.00  0.00     0.116 C 
ENDROOT
BRANCH   1   2
ATOM      2  N   UNL     1       8.700   0.959   2.943  1.00  0.00    -0.353 N 
ATOM      3  C   UNL     1       7.928  -0.170   3.034  1.00  0.00     0.257 C 
ATOM      4  O   UNL     1       6.797  -0.101   3.522  1.00  0.00    -0.271 OA
ATOM      5  H   UNL     1       8.227   1.817   3.048  1.00  0.00     0.163 HD
BRANCH   3   6
ATOM      6  C   UNL     1       8.487  -1.520   2.571  1.00  0.00     0.329 C 
BRANCH   6   7
ATOM      7  O   UNL     1       8.985  -1.569   1.245  1.00  0.00    -0.484 OA
BRANCH   7   8
ATOM      8  C   UNL     1       8.093  -1.435   0.215  1.00  0.00     0.120 A 
ATOM      9  C   UNL     1       5.907  -1.158  -0.823  1.00  0.00    -0.021 A 
ATOM     10  C   UNL     1       6.519  -1.085  -2.078  1.00  0.00     0.008 A 
ATOM     11  C   UNL     1       6.701  -1.359   0.320  1.00  0.00     0.054 A 
ATOM     12  C   UNL     1       7.904  -1.190  -2.190  1.00  0.00     0.004 A 
ATOM     13  C   UNL     1       8.685  -1.362  -1.047  1.00  0.00     0.046 A 
BRANCH   9  14
ATOM     14  C   UNL     1       4.441  -1.033  -0.729  1.00  0.00     0.031 C 
ATOM     15  C   UNL     1       3.766  -0.087  -0.047  1.00  0.00     0.095 C 
BRANCH  15  16
ATOM     16  C   UNL     1       2.246  -0.087  -0.047  1.00  0.00     0.103 C 
ATOM     17  N   UNL     1       0.985  -0.087  -0.047  1.00  0.00    -0.192 NA
ENDBRANCH  15  16
BRANCH  15  18
ATOM     18  C   UNL     1       4.425   0.973   0.638  1.00  0.00     0.149 A 
ATOM     19  N   UNL     1       5.304   1.861   0.211  1.00  0.00    -0.228 NA
ATOM     20  N   UNL     1       4.162   1.164   1.978  1.00  0.00    -0.337 N 
ATOM     21  C   UNL     1       5.648   2.607   1.310  1.00  0.00     0.089 A 
ATOM     22  C   UNL     1       4.958   2.183   2.436  1.00  0.00     0.066 A 
ATOM     23  H   UNL     1       3.513   0.654   2.515  1.00  0.00     0.168 HD
ATOM     24  C   UNL     1       6.562   3.662   1.430  1.00  0.00     0.030 A 
ATOM     25  C   UNL     1       5.150   2.730   3.707  1.00  0.00     0.028 A 
ATOM     26  C   UNL     1       6.789   4.220   2.695  1.00  0.00     0.002 A 
ATOM     27  C   UNL     1       6.099   3.752   3.816  1.00  0.00     0.002 A 
ENDBRANCH  15  18
ENDBRANCH   9  14
ENDBRANCH   7   8
ENDBRANCH   6   7
ENDBRANCH   3   6
ENDBRANCH   1   2
BRANCH   1  28
ATOM     28  C   UNL     1      10.540   1.685   1.386  1.00  0.00     0.023 C 
BRANCH  28  29
ATOM     29  C   UNL     1      10.256   3.179   1.182  1.00  0.00     0.023 C 
BRANCH  29  30
ATOM     30  C   UNL     1      10.502   4.138   2.346  1.00  0.00     0.116 C 
BRANCH  30  31
ATOM     31  N   UNL     1      11.904   4.449   2.556  1.00  0.00    -0.352 N 
ATOM     32  C   UNL     1      12.519   5.673   2.693  1.00  0.00     0.251 C 
ATOM     33  H   UNL     1      12.504   3.670   2.609  1.00  0.00     0.163 HD
ATOM     34  O   UNL     1      13.750   5.728   2.730  1.00  0.00    -0.269 OA
BRANCH  32  35
ATOM     35  C   UNL     1      11.742   6.938   2.776  1.00  0.00     0.039 A 
ATOM     36  C   UNL     1      12.207   8.055   2.071  1.00  0.00     0.014 A 
ATOM     37  C   UNL     1      10.606   7.065   3.582  1.00  0.00     0.014 A 
ATOM     38  C   UNL     1      11.517   9.272   2.134  1.00  0.00     0.010 A 
ATOM     39  C   UNL     1       9.888   8.268   3.606  1.00  0.00     0.010 A 
ATOM     40  C   UNL     1      10.336   9.387   2.885  1.00  0.00    -0.014 A 
BRANCH  40  41
ATOM     41  C   UNL     1       9.573  10.669   2.912  1.00  0.00     0.031 A 
ATOM     42  C   UNL     1       9.468  11.481   4.176  1.00  0.00     0.074 A 
ATOM     43  C   UNL     1       8.944  11.101   1.800  1.00  0.00     0.049 A 
ATOM     44  N   UNL     1       8.841  12.613   4.387  1.00  0.00    -0.248 NA
ATOM     45  C   UNL     1      10.143  10.942   5.365  1.00  0.00     0.031 C 
ATOM     46  C   UNL     1       8.931  10.402   0.516  1.00  0.00     0.029 A 
ATOM     47  N   UNL     1       8.190  12.228   1.574  1.00  0.00    -0.354 N 
ATOM     48  C   UNL     1       9.041  12.918   5.727  1.00  0.00     0.074 A 
ATOM     49  C   UNL     1       9.807  11.827   6.293  1.00  0.00     0.031 C 
ATOM     50  C   UNL     1       8.223  11.123  -0.369  1.00  0.00     0.029 A 
ATOM     51  C   UNL     1       7.704  12.318   0.292  1.00  0.00     0.049 A 
ATOM     52  H   UNL     1       8.015  12.906   2.265  1.00  0.00     0.167 HD
ATOM     53  C   UNL     1       8.642  14.014   6.420  1.00  0.00     0.037 A 
ATOM     54  C   UNL     1       6.925  13.252  -0.288  1.00  0.00     0.037 A 
ATOM     55  C   UNL     1       7.892  15.110   5.860  1.00  0.00     0.049 A 
ATOM     56  C   UNL     1       6.477  14.450   0.507  1.00  0.00     0.074 A 
ATOM     57  C   UNL     1       7.494  16.286   6.473  1.00  0.00     0.029 A 
ATOM     58  N   UNL     1       7.418  15.162   4.557  1.00  0.00    -0.354 N 
ATOM     59  N   UNL     1       6.736  14.760   1.754  1.00  0.00    -0.248 NA
ATOM     60  C   UNL     1       5.634  15.433  -0.191  1.00  0.00     0.031 C 
ATOM     61  C   UNL     1       6.737  17.026   5.559  1.00  0.00     0.029 A 
ATOM     62  C   UNL     1       6.709  16.337   4.358  1.00  0.00     0.049 A 
ATOM     63  H   UNL     1       7.564  14.467   3.875  1.00  0.00     0.167 HD
ATOM     64  C   UNL     1       6.116  15.982   1.981  1.00  0.00     0.074 A 
ATOM     65  C   UNL     1       5.478  16.365   0.739  1.00  0.00     0.031 C 
ATOM     66  C   UNL     1       6.081  16.718   3.118  1.00  0.00     0.037 A 
BRANCH  53  67
ATOM     67  C   UNL     1       9.007  14.085   7.876  1.00  0.00     0.064 A 
ATOM     68  C   UNL     1      10.332  14.283   8.293  1.00  0.00     0.173 A 
ATOM     69  C   UNL     1       8.015  14.001   8.865  1.00  0.00     0.173 A 
ATOM     70  F   UNL     1      11.320  14.364   7.389  1.00  0.00    -0.203 F 
ATOM     71  C   UNL     1      10.654  14.360   9.646  1.00  0.00     0.198 A 
ATOM     72  C   UNL     1       8.336  14.110  10.216  1.00  0.00     0.198 A 
ATOM     73  F   UNL     1       6.730  13.825   8.521  1.00  0.00    -0.203 F 
ATOM     74  F   UNL     1      11.933  14.498  10.022  1.00  0.00    -0.200 F 
ATOM     75  C   UNL     1       9.656  14.280  10.605  1.00  0.00     0.200 A 
ATOM     76  F   UNL     1       7.369  14.048  11.140  1.00  0.00    -0.200 F 
ATOM     77  F   UNL     1       9.967  14.360  11.907  1.00  0.00    -0.200 F 
ENDBRANCH  53  67
BRANCH  54  78
ATOM     78  C   UNL     1       6.533  13.105  -1.715  1.00  0.00     0.064 A 
ATOM     79  C   UNL     1       7.047  13.964  -2.697  1.00  0.00     0.173 A 
ATOM     80  C   UNL     1       5.634  12.110  -2.125  1.00  0.00     0.173 A 
ATOM     81  F   UNL     1       7.890  14.948  -2.350  1.00  0.00    -0.203 F 
ATOM     82  C   UNL     1       6.665  13.843  -4.031  1.00  0.00     0.198 A 
ATOM     83  C   UNL     1       5.274  11.972  -3.464  1.00  0.00     0.198 A 
ATOM     84  F   UNL     1       5.114  11.263  -1.224  1.00  0.00    -0.203 F 
ATOM     85  F   UNL     1       7.136  14.706  -4.941  1.00  0.00    -0.200 F 
ATOM     86  C   UNL     1       5.784  12.843  -4.415  1.00  0.00     0.200 A 
ATOM     87  F   UNL     1       4.433  10.996  -3.832  1.00  0.00    -0.200 F 
ATOM     88  F   UNL     1       5.421  12.724  -5.699  1.00  0.00    -0.200 F 
ENDBRANCH  54  78
BRANCH  66  89
ATOM     89  C   UNL     1       5.359  18.035   3.070  1.00  0.00     0.064 A 
ATOM     90  C   UNL     1       3.961  18.109   2.991  1.00  0.00     0.173 A 
ATOM     91  C   UNL     1       6.075  19.241   3.143  1.00  0.00     0.173 A 
ATOM     92  F   UNL     1       3.230  16.987   2.904  1.00  0.00    -0.203 F 
ATOM     93  C   UNL     1       3.308  19.339   2.964  1.00  0.00     0.198 A 
ATOM     94  C   UNL     1       5.418  20.468   3.145  1.00  0.00     0.198 A 
ATOM     95  F   UNL     1       7.414  19.228   3.225  1.00  0.00    -0.203 F 
ATOM     96  F   UNL     1       1.974  19.385   2.842  1.00  0.00    -0.200 F 
ATOM     97  C   UNL     1       4.036  20.517   3.048  1.00  0.00     0.200 A 
ATOM     98  F   UNL     1       6.122  21.604   3.241  1.00  0.00    -0.200 F 
ATOM     99  F   UNL     1       3.405  21.699   3.030  1.00  0.00    -0.200 F 
ENDBRANCH  66  89
ENDBRANCH  40  41
ENDBRANCH  32  35
ENDBRANCH  30  31
ENDBRANCH  29  30
ENDBRANCH  28  29
ENDBRANCH   1  28
TORSDOF 16
