REMARK SMILES O=C(NCCCCNC(=O)c1cc(Cl)ccc1NC(=O)c1ccc2c(c1)C(=O)N(Cc1ccco1)C2=O)c1ccc(-c2c3nc(c(-c4c(F)c(F)c(F)c(F)c4F)c4ccc([nH]4)c(-c4c(F)c(F)c(F)c(F)c4F)c4nc(c(-c5c(F)c(F)c(F)c(F)c5F)c5ccc2[nH]5)C=C4)C=C3)cc1
REMARK SMILES IDX 6 1 5 2 4 3 3 4 1 5 2 6 38 8 39 9 100 10 40 11 99 12 41 13
REMARK SMILES IDX 42 14 43 15 93 16 44 17 98 18 92 19 94 20 45 21 97 22 91 23
REMARK SMILES IDX 90 24 46 26 78 27 58 28 77 29 59 30 62 31 76 32 95 33 60 34
REMARK SMILES IDX 61 35 75 37 96 38 63 39 47 40 48 41 56 42 49 43 50 44 54 45
REMARK SMILES IDX 57 46 51 47 52 48 55 49 53 50 79 51 80 52 88 53 81 54 82 55
REMARK SMILES IDX 86 56 89 57 83 58 84 59 87 60 85 61 64 62 65 63 73 64 66 65
REMARK SMILES IDX 67 66 71 67 74 68 68 69 69 70 72 71 70 72 7 73 8 74 9 75
REMARK SMILES IDX 10 77 11 78 12 79 17 80 13 81 16 82 14 83 15 84 18 85 19 86
REMARK SMILES IDX 20 88 21 89 22 90 26 91 23 92 25 93 24 94 27 95 36 96 28 97
REMARK SMILES IDX 29 98 37 99 30 100 31 101 32 102 35 103 33 104 34 105
REMARK H PARENT 3 7 94 25 62 36 8 76 18 87
REMARK Flexibility Score: inf
ROOT
ATOM      1  C   UNL     1       4.448  -3.139   2.114  1.00  0.00     0.023 C 
ENDROOT
BRANCH   1   2
ATOM      2  C   UNL     1       4.905  -1.704   1.881  1.00  0.00     0.023 C 
BRANCH   2   3
ATOM      3  C   UNL     1       4.527  -1.125   0.525  1.00  0.00     0.116 C 
BRANCH   3   4
ATOM      4  N   UNL     1       3.088  -1.040   0.320  1.00  0.00    -0.352 N 
ATOM      5  O   UNL     1       1.093  -0.023   0.016  1.00  0.00    -0.269 OA
ATOM      6  C   UNL     1       2.317   0.060   0.024  1.00  0.00     0.251 C 
ATOM      7  H   UNL     1       2.598  -1.889   0.404  1.00  0.00     0.163 HD
BRANCH   6   8
ATOM      8  C   UNL     1       2.973   1.355  -0.254  1.00  0.00     0.039 A 
ATOM      9  C   UNL     1       4.085   1.417  -1.095  1.00  0.00     0.014 A 
ATOM     10  C   UNL     1       2.486   2.513   0.357  1.00  0.00     0.014 A 
ATOM     11  C   UNL     1       4.812   2.596  -1.187  1.00  0.00     0.010 A 
ATOM     12  C   UNL     1       3.159   3.725   0.176  1.00  0.00     0.010 A 
ATOM     13  C   UNL     1       4.348   3.769  -0.568  1.00  0.00    -0.014 A 
BRANCH  13  14
ATOM     14  C   UNL     1       5.090   5.039  -0.772  1.00  0.00     0.031 A 
ATOM     15  C   UNL     1       5.721   5.770   0.379  1.00  0.00     0.074 A 
ATOM     16  C   UNL     1       5.205   5.520  -2.025  1.00  0.00     0.049 A 
ATOM     17  N   UNL     1       6.394   6.894   0.373  1.00  0.00    -0.248 NA
ATOM     18  C   UNL     1       5.573   5.169   1.713  1.00  0.00     0.031 C 
ATOM     19  C   UNL     1       4.630   4.899  -3.220  1.00  0.00     0.029 A 
ATOM     20  N   UNL     1       5.848   6.631  -2.506  1.00  0.00    -0.354 N 
ATOM     21  C   UNL     1       6.734   7.144   1.696  1.00  0.00     0.074 A 
ATOM     22  C   UNL     1       6.167   6.070   2.484  1.00  0.00     0.031 C 
ATOM     23  C   UNL     1       4.979   5.611  -4.299  1.00  0.00     0.029 A 
ATOM     24  C   UNL     1       5.736   6.780  -3.867  1.00  0.00     0.049 A 
ATOM     25  H   UNL     1       6.342   7.261  -1.933  1.00  0.00     0.167 HD
ATOM     26  C   UNL     1       7.460   8.171   2.201  1.00  0.00     0.037 A 
ATOM     27  C   UNL     1       6.168   7.763  -4.677  1.00  0.00     0.037 A 
ATOM     28  C   UNL     1       8.023   9.234   1.405  1.00  0.00     0.049 A 
ATOM     29  C   UNL     1       6.925   8.915  -4.082  1.00  0.00     0.074 A 
ATOM     30  C   UNL     1       8.801  10.302   1.817  1.00  0.00     0.029 A 
ATOM     31  N   UNL     1       7.859   9.369   0.033  1.00  0.00    -0.354 N 
ATOM     32  N   UNL     1       7.273   9.120  -2.835  1.00  0.00    -0.248 NA
ATOM     33  C   UNL     1       7.349   9.972  -5.007  1.00  0.00     0.031 C 
ATOM     34  C   UNL     1       9.053  11.117   0.708  1.00  0.00     0.029 A 
ATOM     35  C   UNL     1       8.494  10.520  -0.410  1.00  0.00     0.049 A 
ATOM     36  H   UNL     1       7.365   8.740  -0.542  1.00  0.00     0.167 HD
ATOM     37  C   UNL     1       7.978  10.315  -2.829  1.00  0.00     0.074 A 
ATOM     38  C   UNL     1       8.025  10.778  -4.200  1.00  0.00     0.031 C 
ATOM     39  C   UNL     1       8.536  10.969  -1.780  1.00  0.00     0.037 A 
BRANCH  26  40
ATOM     40  C   UNL     1       7.667   8.218   3.690  1.00  0.00     0.064 A 
ATOM     41  C   UNL     1       8.477   7.285   4.356  1.00  0.00     0.173 A 
ATOM     42  C   UNL     1       7.084   9.239   4.456  1.00  0.00     0.173 A 
ATOM     43  F   UNL     1       9.054   6.284   3.675  1.00  0.00    -0.203 F 
ATOM     44  C   UNL     1       8.669   7.356   5.734  1.00  0.00     0.198 A 
ATOM     45  C   UNL     1       7.305   9.327   5.828  1.00  0.00     0.198 A 
ATOM     46  F   UNL     1       6.307  10.164   3.872  1.00  0.00    -0.203 F 
ATOM     47  F   UNL     1       9.406   6.424   6.355  1.00  0.00    -0.200 F 
ATOM     48  C   UNL     1       8.090   8.380   6.468  1.00  0.00     0.200 A 
ATOM     49  F   UNL     1       6.758  10.328   6.532  1.00  0.00    -0.200 F 
ATOM     50  F   UNL     1       8.283   8.451   7.792  1.00  0.00    -0.200 F 
ENDBRANCH  26  40
BRANCH  27  51
ATOM     51  C   UNL     1       5.878   7.699  -6.133  1.00  0.00     0.064 A 
ATOM     52  C   UNL     1       6.907   7.529  -7.068  1.00  0.00     0.173 A 
ATOM     53  C   UNL     1       4.564   7.798  -6.618  1.00  0.00     0.173 A 
ATOM     54  F   UNL     1       8.180   7.445  -6.655  1.00  0.00    -0.203 F 
ATOM     55  C   UNL     1       6.636   7.482  -8.434  1.00  0.00     0.198 A 
ATOM     56  C   UNL     1       4.291   7.714  -7.980  1.00  0.00     0.198 A 
ATOM     57  F   UNL     1       3.542   7.953  -5.763  1.00  0.00    -0.203 F 
ATOM     58  F   UNL     1       7.643   7.367  -9.310  1.00  0.00    -0.200 F 
ATOM     59  C   UNL     1       5.328   7.567  -8.888  1.00  0.00     0.200 A 
ATOM     60  F   UNL     1       3.024   7.775  -8.412  1.00  0.00    -0.200 F 
ATOM     61  F   UNL     1       5.068   7.513 -10.201  1.00  0.00    -0.200 F 
ENDBRANCH  27  51
BRANCH  39  62
ATOM     62  C   UNL     1       9.285  12.236  -2.083  1.00  0.00     0.064 A 
ATOM     63  C   UNL     1       8.627  13.406  -2.492  1.00  0.00     0.173 A 
ATOM     64  C   UNL     1      10.680  12.286  -1.934  1.00  0.00     0.173 A 
ATOM     65  F   UNL     1       7.297  13.407  -2.667  1.00  0.00    -0.203 F 
ATOM     66  C   UNL     1       9.341  14.568  -2.771  1.00  0.00     0.198 A 
ATOM     67  C   UNL     1      11.386  13.460  -2.178  1.00  0.00     0.198 A 
ATOM     68  F   UNL     1      11.358  11.197  -1.540  1.00  0.00    -0.203 F 
ATOM     69  F   UNL     1       8.698  15.656  -3.216  1.00  0.00    -0.200 F 
ATOM     70  C   UNL     1      10.718  14.597  -2.605  1.00  0.00     0.200 A 
ATOM     71  F   UNL     1      12.714  13.490  -2.002  1.00  0.00    -0.200 F 
ATOM     72  F   UNL     1      11.402  15.719  -2.866  1.00  0.00    -0.200 F 
ENDBRANCH  39  62
ENDBRANCH  13  14
ENDBRANCH   6   8
ENDBRANCH   3   4
ENDBRANCH   2   3
ENDBRANCH   1   2
BRANCH   1  73
ATOM     73  C   UNL     1       4.857  -4.128   1.028  1.00  0.00     0.116 C 
BRANCH  73  74
ATOM     74  N   UNL     1       6.303  -4.280   0.913  1.00  0.00    -0.352 N 
ATOM     75  C   UNL     1       7.060  -5.418   1.073  1.00  0.00     0.253 C 
ATOM     76  H   UNL     1       6.803  -3.461   0.692  1.00  0.00     0.163 HD
ATOM     77  O   UNL     1       8.283  -5.366   1.120  1.00  0.00    -0.269 OA
BRANCH  75  78
ATOM     78  C   UNL     1       6.362  -6.703   1.272  1.00  0.00     0.064 A 
ATOM     79  C   UNL     1       5.430  -7.103   0.301  1.00  0.00     0.036 A 
ATOM     80  C   UNL     1       6.543  -7.432   2.460  1.00  0.00     0.054 A 
ATOM     81  C   UNL     1       4.553  -8.137   0.586  1.00  0.00     0.041 A 
ATOM     82  C   UNL     1       5.561  -8.378   2.768  1.00  0.00     0.028 A 
ATOM     83  Cl  UNL     1       3.363  -8.594  -0.565  1.00  0.00    -0.084 Cl
ATOM     84  C   UNL     1       4.583  -8.745   1.834  1.00  0.00     0.023 A 
BRANCH  80  85
ATOM     85  N   UNL     1       7.683  -7.183   3.268  1.00  0.00    -0.321 N 
ATOM     86  C   UNL     1       8.291  -7.900   4.278  1.00  0.00     0.255 C 
ATOM     87  H   UNL     1       8.128  -6.328   3.067  1.00  0.00     0.170 HD
ATOM     88  O   UNL     1       9.218  -7.419   4.926  1.00  0.00    -0.269 OA
BRANCH  86  89
ATOM     89  C   UNL     1       7.857  -9.271   4.611  1.00  0.00     0.041 A 
ATOM     90  C   UNL     1       7.386  -9.500   5.925  1.00  0.00     0.015 A 
ATOM     91  C   UNL     1       7.777 -10.260   3.618  1.00  0.00     0.028 A 
ATOM     92  C   UNL     1       6.697 -10.674   6.230  1.00  0.00     0.015 A 
ATOM     93  C   UNL     1       7.063 -11.396   3.943  1.00  0.00     0.054 A 
ATOM     94  C   UNL     1       6.516 -11.579   5.202  1.00  0.00     0.053 A 
ATOM     95  C   UNL     1       6.556 -12.467   3.084  1.00  0.00     0.261 C 
ATOM     96  C   UNL     1       5.643 -12.746   5.136  1.00  0.00     0.261 C 
ATOM     97  O   UNL     1       6.766 -12.524   1.887  1.00  0.00    -0.269 OA
ATOM     98  N   UNL     1       5.758 -13.249   3.870  1.00  0.00    -0.267 N 
ATOM     99  O   UNL     1       4.912 -13.088   6.045  1.00  0.00    -0.269 OA
BRANCH  98 100
ATOM    100  C   UNL     1       4.982 -14.368   3.378  1.00  0.00     0.204 C 
BRANCH 100 101
ATOM    101  C   UNL     1       5.500 -15.634   3.962  1.00  0.00     0.123 A 
ATOM    102  C   UNL     1       5.527 -16.146   5.244  1.00  0.00     0.047 A 
ATOM    103  O   UNL     1       6.062 -16.526   3.096  1.00  0.00    -0.467 OA
ATOM    104  C   UNL     1       6.156 -17.409   5.160  1.00  0.00     0.042 A 
ATOM    105  C   UNL     1       6.455 -17.598   3.832  1.00  0.00     0.195 A 
ENDBRANCH 100 101
ENDBRANCH  98 100
ENDBRANCH  86  89
ENDBRANCH  80  85
ENDBRANCH  75  78
ENDBRANCH  73  74
ENDBRANCH   1  73
TORSDOF 15
