REMARK SMILES CC[C@@](C)(NS(=O)(=O)c1ccc(F)c(Cl)c1)C(=O)NCCCCNC(=O)c1ccc(-c2c3nc(c(-c4c(F)c(F)c(F)c(F)c4F)c4ccc([nH]4)c(-c4c(F)c(F)c(F)c(F)c4F)c4nc(c(-c5c(F)c(F)c(F)c(F)c5F)c5ccc2[nH]5)C=C4)C=C3)cc1
REMARK SMILES IDX 21 1 20 2 19 3 17 4 18 5 3 7 4 8 2 9 1 10 5 11 6 13 7 14
REMARK SMILES IDX 8 15 9 16 10 17 16 18 11 19 14 20 12 21 15 22 13 23 22 24
REMARK SMILES IDX 23 25 24 26 25 27 26 29 27 30 28 31 89 32 29 33 88 34 30 35
REMARK SMILES IDX 31 36 32 37 82 38 33 39 87 40 81 41 83 42 34 43 86 44 80 45
REMARK SMILES IDX 79 46 35 48 67 49 47 50 66 51 48 52 51 53 65 54 84 55 49 56
REMARK SMILES IDX 50 57 64 59 85 60 52 61 36 62 37 63 45 64 38 65 39 66 43 67
REMARK SMILES IDX 46 68 40 69 41 70 44 71 42 72 68 73 69 74 77 75 70 76 71 77
REMARK SMILES IDX 75 78 78 79 72 80 73 81 76 82 74 83 53 84 54 85 62 86 55 87
REMARK SMILES IDX 56 88 60 89 63 90 57 91 58 92 61 93 59 94
REMARK H PARENT 19 6 5 12 24 28 83 47 51 58
REMARK Flexibility Score: inf
ROOT
ATOM      1  C   UNL     1       2.426  -5.873   2.025  1.00  0.00     0.023 C 
ENDROOT
BRANCH   1   2
ATOM      2  C   UNL     1       1.968  -4.437   2.298  1.00  0.00     0.116 C 
BRANCH   2   3
ATOM      3  N   UNL     1       2.649  -3.435   1.493  1.00  0.00    -0.354 N 
ATOM      4  C   UNL     1       2.279  -2.497   0.586  1.00  0.00     0.241 C 
ATOM      5  O   UNL     1       3.211  -1.749   0.252  1.00  0.00    -0.273 OA
ATOM      6  H   UNL     1       3.622  -3.438   1.644  1.00  0.00     0.163 HD
BRANCH   4   7
ATOM      7  C   UNL     1       0.891  -2.360  -0.099  1.00  0.00     0.108 C 
ATOM      8  C   UNL     1      -0.307  -2.618   0.815  1.00  0.00     0.040 C 
BRANCH   7   9
ATOM      9  C   UNL     1       0.766  -0.882  -0.638  1.00  0.00     0.030 C 
ATOM     10  C   UNL     1       0.862   0.244   0.383  1.00  0.00     0.006 C 
ENDBRANCH   7   9
BRANCH   7  11
ATOM     11  N   UNL     1       0.777  -3.145  -1.360  1.00  0.00    -0.196 NA
ATOM     12  H   UNL     1       1.394  -2.667  -2.016  1.00  0.00     0.142 HD
BRANCH  11  13
ATOM     13  S   UNL     1       1.079  -4.755  -1.602  1.00  0.00     0.241 S 
ATOM     14  O   UNL     1       0.555  -5.476  -0.469  1.00  0.00    -0.207 OA
ATOM     15  O   UNL     1       0.606  -5.029  -2.941  1.00  0.00    -0.207 OA
BRANCH  13  16
ATOM     16  C   UNL     1       2.841  -4.961  -1.665  1.00  0.00     0.084 A 
ATOM     17  C   UNL     1       3.366  -6.249  -1.486  1.00  0.00     0.025 A 
ATOM     18  C   UNL     1       3.694  -3.873  -1.863  1.00  0.00     0.045 A 
ATOM     19  C   UNL     1       4.750  -6.434  -1.446  1.00  0.00     0.042 A 
ATOM     20  C   UNL     1       5.075  -4.060  -1.779  1.00  0.00     0.078 A 
ATOM     21  C   UNL     1       5.596  -5.335  -1.567  1.00  0.00     0.141 A 
ATOM     22  Cl  UNL     1       6.122  -2.699  -1.905  1.00  0.00    -0.081 Cl
ATOM     23  F   UNL     1       6.919  -5.527  -1.461  1.00  0.00    -0.205 F 
ENDBRANCH  13  16
ENDBRANCH  11  13
ENDBRANCH   7  11
ENDBRANCH   4   7
ENDBRANCH   2   3
ENDBRANCH   1   2
BRANCH   1  24
ATOM     24  C   UNL     1       3.934  -6.105   2.023  1.00  0.00     0.023 C 
BRANCH  24  25
ATOM     25  C   UNL     1       4.555  -6.105   3.408  1.00  0.00     0.116 C 
BRANCH  25  26
ATOM     26  N   UNL     1       4.198  -7.306   4.151  1.00  0.00    -0.352 N 
ATOM     27  C   UNL     1       4.925  -8.437   4.433  1.00  0.00     0.251 C 
ATOM     28  H   UNL     1       3.282  -7.308   4.511  1.00  0.00     0.163 HD
ATOM     29  O   UNL     1       4.342  -9.436   4.846  1.00  0.00    -0.269 OA
BRANCH  27  30
ATOM     30  C   UNL     1       6.395  -8.475   4.251  1.00  0.00     0.039 A 
ATOM     31  C   UNL     1       7.005  -9.683   3.889  1.00  0.00     0.014 A 
ATOM     32  C   UNL     1       7.189  -7.357   4.506  1.00  0.00     0.014 A 
ATOM     33  C   UNL     1       8.395  -9.753   3.753  1.00  0.00     0.010 A 
ATOM     34  C   UNL     1       8.555  -7.395   4.257  1.00  0.00     0.010 A 
ATOM     35  C   UNL     1       9.181  -8.603   3.918  1.00  0.00    -0.014 A 
BRANCH  35  36
ATOM     36  C   UNL     1      10.663  -8.640   3.838  1.00  0.00     0.031 A 
ATOM     37  C   UNL     1      11.478  -8.246   5.044  1.00  0.00     0.074 A 
ATOM     38  C   UNL     1      11.275  -8.944   2.679  1.00  0.00     0.049 A 
ATOM     39  N   UNL     1      12.768  -8.054   5.152  1.00  0.00    -0.248 NA
ATOM     40  C   UNL     1      10.731  -7.983   6.286  1.00  0.00     0.031 C 
ATOM     41  C   UNL     1      10.599  -9.290   1.428  1.00  0.00     0.029 A 
ATOM     42  N   UNL     1      12.609  -8.995   2.362  1.00  0.00    -0.354 N 
ATOM     43  C   UNL     1      12.975  -7.601   6.449  1.00  0.00     0.074 A 
ATOM     44  C   UNL     1      11.676  -7.496   7.074  1.00  0.00     0.031 C 
ATOM     45  C   UNL     1      11.522  -9.540   0.485  1.00  0.00     0.029 A 
ATOM     46  C   UNL     1      12.851  -9.337   1.054  1.00  0.00     0.049 A 
ATOM     47  H   UNL     1      13.325  -8.804   3.010  1.00  0.00     0.167 HD
ATOM     48  C   UNL     1      14.144  -7.325   7.073  1.00  0.00     0.037 A 
ATOM     49  C   UNL     1      14.016  -9.469   0.392  1.00  0.00     0.037 A 
ATOM     50  C   UNL     1      15.437  -7.505   6.470  1.00  0.00     0.049 A 
ATOM     51  C   UNL     1      15.306  -9.227   1.127  1.00  0.00     0.074 A 
ATOM     52  C   UNL     1      16.687  -7.332   7.036  1.00  0.00     0.029 A 
ATOM     53  N   UNL     1      15.641  -7.923   5.163  1.00  0.00    -0.354 N 
ATOM     54  N   UNL     1      15.492  -8.842   2.366  1.00  0.00    -0.248 NA
ATOM     55  C   UNL     1      16.548  -9.446   0.374  1.00  0.00     0.031 C 
ATOM     56  C   UNL     1      17.649  -7.625   6.063  1.00  0.00     0.029 A 
ATOM     57  C   UNL     1      16.997  -8.013   4.903  1.00  0.00     0.049 A 
ATOM     58  H   UNL     1      14.926  -8.125   4.516  1.00  0.00     0.167 HD
ATOM     59  C   UNL     1      16.867  -8.793   2.549  1.00  0.00     0.074 A 
ATOM     60  C   UNL     1      17.469  -9.204   1.297  1.00  0.00     0.031 C 
ATOM     61  C   UNL     1      17.570  -8.436   3.652  1.00  0.00     0.037 A 
BRANCH  48  62
ATOM     62  C   UNL     1      14.074  -6.817   8.485  1.00  0.00     0.064 A 
ATOM     63  C   UNL     1      13.666  -7.642   9.545  1.00  0.00     0.173 A 
ATOM     64  C   UNL     1      14.428  -5.493   8.784  1.00  0.00     0.173 A 
ATOM     65  F   UNL     1      13.303  -8.912   9.310  1.00  0.00    -0.203 F 
ATOM     66  C   UNL     1      13.579  -7.150  10.844  1.00  0.00     0.198 A 
ATOM     67  C   UNL     1      14.370  -5.013  10.091  1.00  0.00     0.198 A 
ATOM     68  F   UNL     1      14.829  -4.663   7.810  1.00  0.00    -0.203 F 
ATOM     69  F   UNL     1      13.129  -7.940  11.829  1.00  0.00    -0.200 F 
ATOM     70  C   UNL     1      13.936  -5.839  11.117  1.00  0.00     0.200 A 
ATOM     71  F   UNL     1      14.725  -3.749  10.355  1.00  0.00    -0.200 F 
ATOM     72  F   UNL     1      13.852  -5.367  12.369  1.00  0.00    -0.200 F 
ENDBRANCH  48  62
BRANCH  49  73
ATOM     73  C   UNL     1      14.012  -9.891  -1.031  1.00  0.00     0.064 A 
ATOM     74  C   UNL     1      14.423 -11.181  -1.395  1.00  0.00     0.173 A 
ATOM     75  C   UNL     1      13.584  -9.029  -2.051  1.00  0.00     0.173 A 
ATOM     76  F   UNL     1      14.858 -12.034  -0.456  1.00  0.00    -0.203 F 
ATOM     77  C   UNL     1      14.419 -11.589  -2.727  1.00  0.00     0.198 A 
ATOM     78  C   UNL     1      13.558  -9.447  -3.380  1.00  0.00     0.198 A 
ATOM     79  F   UNL     1      13.175  -7.787  -1.753  1.00  0.00    -0.203 F 
ATOM     80  F   UNL     1      14.851 -12.816  -3.050  1.00  0.00    -0.200 F 
ATOM     81  C   UNL     1      13.981 -10.724  -3.718  1.00  0.00     0.200 A 
ATOM     82  F   UNL     1      13.122  -8.613  -4.334  1.00  0.00    -0.200 F 
ATOM     83  F   UNL     1      13.971 -11.119  -4.998  1.00  0.00    -0.200 F 
ENDBRANCH  49  73
BRANCH  61  84
ATOM     84  C   UNL     1      19.064  -8.505   3.563  1.00  0.00     0.064 A 
ATOM     85  C   UNL     1      19.799  -7.544   2.854  1.00  0.00     0.173 A 
ATOM     86  C   UNL     1      19.768  -9.514   4.235  1.00  0.00     0.173 A 
ATOM     87  F   UNL     1      19.166  -6.569   2.185  1.00  0.00    -0.203 F 
ATOM     88  C   UNL     1      21.188  -7.603   2.805  1.00  0.00     0.198 A 
ATOM     89  C   UNL     1      21.159  -9.556   4.204  1.00  0.00     0.198 A 
ATOM     90  F   UNL     1      19.108 -10.451   4.931  1.00  0.00    -0.203 F 
ATOM     91  F   UNL     1      21.871  -6.697   2.092  1.00  0.00    -0.200 F 
ATOM     92  C   UNL     1      21.867  -8.604   3.485  1.00  0.00     0.200 A 
ATOM     93  F   UNL     1      21.814 -10.517   4.869  1.00  0.00    -0.200 F 
ATOM     94  F   UNL     1      23.206  -8.655   3.443  1.00  0.00    -0.200 F 
ENDBRANCH  61  84
ENDBRANCH  35  36
ENDBRANCH  27  30
ENDBRANCH  25  26
ENDBRANCH  24  25
ENDBRANCH   1  24
TORSDOF 15
