REMARK SMILES O=C(NCCCCNC(=O)c1cc(-c2ccsc2)nc2ccccc12)c1ccc(-c2c3nc(c(-c4c(F)c(F)c(F)c(F)c4F)c4ccc([nH]4)c(-c4c(F)c(F)c(F)c(F)c4F)c4nc(c(-c5c(F)c(F)c(F)c(F)c5F)c5ccc2[nH]5)C=C4)C=C3)cc1
REMARK SMILES IDX 5 1 4 2 3 3 1 4 2 5 26 7 27 8 88 9 28 10 87 11 29 12 30 13
REMARK SMILES IDX 31 14 81 15 32 16 86 17 80 18 82 19 33 20 85 21 79 22 78 23
REMARK SMILES IDX 34 25 66 26 46 27 65 28 47 29 50 30 64 31 83 32 48 33 49 34
REMARK SMILES IDX 63 36 84 37 51 38 35 39 36 40 44 41 37 42 38 43 42 44 45 45
REMARK SMILES IDX 39 46 40 47 43 48 41 49 67 50 68 51 76 52 69 53 70 54 74 55
REMARK SMILES IDX 77 56 71 57 72 58 75 59 73 60 52 61 53 62 61 63 54 64 55 65
REMARK SMILES IDX 59 66 62 67 56 68 57 69 60 70 58 71 6 72 7 73 8 74 9 75
REMARK SMILES IDX 10 77 11 78 12 79 25 80 13 81 20 82 24 83 19 84 21 85 23 86
REMARK SMILES IDX 22 87 14 88 15 89 18 90 16 91 17 92
REMARK H PARENT 3 6 82 24 50 35 8 76
REMARK Flexibility Score: inf
ROOT
ATOM      1  C   UNL     1       4.948  -2.618  -0.661  1.00  0.00     0.023 C 
ENDROOT
BRANCH   1   2
ATOM      2  C   UNL     1       4.654  -1.133  -0.844  1.00  0.00     0.116 C 
BRANCH   2   3
ATOM      3  N   UNL     1       3.233  -0.820  -0.844  1.00  0.00    -0.352 N 
ATOM      4  O   UNL     1       1.276   0.008  -0.087  1.00  0.00    -0.269 OA
ATOM      5  C   UNL     1       2.499  -0.041   0.020  1.00  0.00     0.251 C 
ATOM      6  H   UNL     1       2.718  -1.228  -1.576  1.00  0.00     0.163 HD
BRANCH   5   7
ATOM      7  C   UNL     1       3.169   0.708   1.106  1.00  0.00     0.039 A 
ATOM      8  C   UNL     1       4.340   1.428   0.868  1.00  0.00     0.014 A 
ATOM      9  C   UNL     1       2.621   0.677   2.393  1.00  0.00     0.014 A 
ATOM     10  C   UNL     1       5.060   1.947   1.938  1.00  0.00     0.010 A 
ATOM     11  C   UNL     1       3.298   1.286   3.455  1.00  0.00     0.010 A 
ATOM     12  C   UNL     1       4.552   1.878   3.246  1.00  0.00    -0.014 A 
BRANCH  12  13
ATOM     13  C   UNL     1       5.353   2.442   4.366  1.00  0.00     0.031 A 
ATOM     14  C   UNL     1       5.895   1.558   5.457  1.00  0.00     0.074 A 
ATOM     15  C   UNL     1       5.642   3.757   4.363  1.00  0.00     0.049 A 
ATOM     16  N   UNL     1       6.669   1.874   6.468  1.00  0.00    -0.248 NA
ATOM     17  C   UNL     1       5.516   0.138   5.420  1.00  0.00     0.031 C 
ATOM     18  C   UNL     1       5.164   4.720   3.369  1.00  0.00     0.029 A 
ATOM     19  N   UNL     1       6.430   4.506   5.199  1.00  0.00    -0.354 N 
ATOM     20  C   UNL     1       6.843   0.705   7.197  1.00  0.00     0.074 A 
ATOM     21  C   UNL     1       6.079  -0.326   6.528  1.00  0.00     0.031 C 
ATOM     22  C   UNL     1       5.718   5.916   3.614  1.00  0.00     0.029 A 
ATOM     23  C   UNL     1       6.546   5.819   4.811  1.00  0.00     0.049 A 
ATOM     24  H   UNL     1       6.870   4.139   5.999  1.00  0.00     0.167 HD
ATOM     25  C   UNL     1       7.581   0.508   8.317  1.00  0.00     0.037 A 
ATOM     26  C   UNL     1       7.241   6.833   5.357  1.00  0.00     0.037 A 
ATOM     27  C   UNL     1       8.372   1.524   8.962  1.00  0.00     0.049 A 
ATOM     28  C   UNL     1       8.058   6.582   6.592  1.00  0.00     0.074 A 
ATOM     29  C   UNL     1       9.194   1.406  10.070  1.00  0.00     0.029 A 
ATOM     30  N   UNL     1       8.440   2.849   8.555  1.00  0.00    -0.354 N 
ATOM     31  N   UNL     1       8.245   5.463   7.246  1.00  0.00    -0.248 NA
ATOM     32  C   UNL     1       8.759   7.739   7.165  1.00  0.00     0.031 C 
ATOM     33  C   UNL     1       9.728   2.667  10.358  1.00  0.00     0.029 A 
ATOM     34  C   UNL     1       9.274   3.562   9.403  1.00  0.00     0.049 A 
ATOM     35  H   UNL     1       7.966   3.226   7.779  1.00  0.00     0.167 HD
ATOM     36  C   UNL     1       9.096   5.774   8.296  1.00  0.00     0.074 A 
ATOM     37  C   UNL     1       9.406   7.184   8.179  1.00  0.00     0.031 C 
ATOM     38  C   UNL     1       9.575   4.964   9.272  1.00  0.00     0.037 A 
BRANCH  25  39
ATOM     39  C   UNL     1       7.559  -0.861   8.935  1.00  0.00     0.064 A 
ATOM     40  C   UNL     1       8.225  -1.948   8.350  1.00  0.00     0.173 A 
ATOM     41  C   UNL     1       6.903  -1.075  10.157  1.00  0.00     0.173 A 
ATOM     42  F   UNL     1       8.858  -1.799   7.177  1.00  0.00    -0.203 F 
ATOM     43  C   UNL     1       8.216  -3.203   8.954  1.00  0.00     0.198 A 
ATOM     44  C   UNL     1       6.917  -2.325  10.771  1.00  0.00     0.198 A 
ATOM     45  F   UNL     1       6.256  -0.067  10.763  1.00  0.00    -0.203 F 
ATOM     46  F   UNL     1       8.826  -4.236   8.357  1.00  0.00    -0.200 F 
ATOM     47  C   UNL     1       7.569  -3.389  10.167  1.00  0.00     0.200 A 
ATOM     48  F   UNL     1       6.300  -2.499  11.948  1.00  0.00    -0.200 F 
ATOM     49  F   UNL     1       7.567  -4.596  10.750  1.00  0.00    -0.200 F 
ENDBRANCH  25  39
BRANCH  26  50
ATOM     50  C   UNL     1       7.208   8.174   4.721  1.00  0.00     0.064 A 
ATOM     51  C   UNL     1       8.338   8.691   4.074  1.00  0.00     0.173 A 
ATOM     52  C   UNL     1       6.044   8.957   4.731  1.00  0.00     0.173 A 
ATOM     53  F   UNL     1       9.480   7.987   4.056  1.00  0.00    -0.203 F 
ATOM     54  C   UNL     1       8.310   9.946   3.471  1.00  0.00     0.198 A 
ATOM     55  C   UNL     1       6.008  10.199   4.104  1.00  0.00     0.198 A 
ATOM     56  F   UNL     1       4.935   8.502   5.334  1.00  0.00    -0.203 F 
ATOM     57  F   UNL     1       9.414  10.433   2.890  1.00  0.00    -0.200 F 
ATOM     58  C   UNL     1       7.143  10.696   3.480  1.00  0.00     0.200 A 
ATOM     59  F   UNL     1       4.874  10.913   4.101  1.00  0.00    -0.200 F 
ATOM     60  F   UNL     1       7.112  11.899   2.891  1.00  0.00    -0.200 F 
ENDBRANCH  26  50
BRANCH  38  61
ATOM     61  C   UNL     1      10.506   5.582  10.272  1.00  0.00     0.064 A 
ATOM     62  C   UNL     1      10.042   6.460  11.262  1.00  0.00     0.173 A 
ATOM     63  C   UNL     1      11.876   5.278  10.249  1.00  0.00     0.173 A 
ATOM     64  F   UNL     1       8.744   6.794  11.313  1.00  0.00    -0.203 F 
ATOM     65  C   UNL     1      10.921   7.035  12.175  1.00  0.00     0.198 A 
ATOM     66  C   UNL     1      12.747   5.834  11.181  1.00  0.00     0.198 A 
ATOM     67  F   UNL     1      12.367   4.439   9.325  1.00  0.00    -0.203 F 
ATOM     68  F   UNL     1      10.465   7.911  13.081  1.00  0.00    -0.200 F 
ATOM     69  C   UNL     1      12.271   6.718  12.137  1.00  0.00     0.200 A 
ATOM     70  F   UNL     1      14.050   5.520  11.149  1.00  0.00    -0.200 F 
ATOM     71  F   UNL     1      13.116   7.274  13.017  1.00  0.00    -0.200 F 
ENDBRANCH  38  61
ENDBRANCH  12  13
ENDBRANCH   5   7
ENDBRANCH   2   3
ENDBRANCH   1   2
BRANCH   1  72
ATOM     72  C   UNL     1       4.477  -3.533  -1.789  1.00  0.00     0.023 C 
BRANCH  72  73
ATOM     73  C   UNL     1       4.851  -3.093  -3.201  1.00  0.00     0.116 C 
BRANCH  73  74
ATOM     74  N   UNL     1       6.276  -2.860  -3.380  1.00  0.00    -0.352 N 
ATOM     75  C   UNL     1       7.064  -3.143  -4.468  1.00  0.00     0.252 C 
ATOM     76  H   UNL     1       6.737  -2.442  -2.618  1.00  0.00     0.163 HD
ATOM     77  O   UNL     1       8.261  -2.875  -4.454  1.00  0.00    -0.269 OA
BRANCH  75  78
ATOM     78  C   UNL     1       6.487  -3.839  -5.632  1.00  0.00     0.051 A 
ATOM     79  C   UNL     1       7.016  -5.097  -5.909  1.00  0.00     0.043 A 
ATOM     80  C   UNL     1       5.452  -3.289  -6.419  1.00  0.00     0.013 A 
ATOM     81  C   UNL     1       6.456  -5.807  -6.950  1.00  0.00     0.073 A 
ATOM     82  C   UNL     1       4.918  -4.130  -7.413  1.00  0.00     0.072 A 
ATOM     83  C   UNL     1       4.928  -1.979  -6.272  1.00  0.00     0.011 A 
ATOM     84  N   UNL     1       5.413  -5.350  -7.678  1.00  0.00    -0.248 NA
ATOM     85  C   UNL     1       3.829  -3.682  -8.148  1.00  0.00     0.029 A 
ATOM     86  C   UNL     1       3.841  -1.550  -7.028  1.00  0.00     0.001 A 
ATOM     87  C   UNL     1       3.277  -2.412  -7.957  1.00  0.00     0.002 A 
BRANCH  81  88
ATOM     88  C   UNL     1       6.995  -7.093  -7.363  1.00  0.00     0.011 A 
ATOM     89  C   UNL     1       7.398  -7.455  -8.688  1.00  0.00     0.022 A 
ATOM     90  C   UNL     1       7.172  -8.142  -6.481  1.00  0.00     0.075 A 
ATOM     91  C   UNL     1       7.892  -8.739  -8.757  1.00  0.00     0.065 A 
ATOM     92  S   UNL     1       7.842  -9.525  -7.239  1.00  0.00    -0.152 S 
ENDBRANCH  81  88
ENDBRANCH  75  78
ENDBRANCH  73  74
ENDBRANCH  72  73
ENDBRANCH   1  72
TORSDOF 12
