REMARK SMILES C[C@@H](CO)CS[C@@H](C)C[C@@](C)([NH3+])C(=O)NCCCCNC(=O)c1ccc(-c2c3nc(c(-c4c(F)c(F)c(F)c(F)c4F)c4ccc([nH]4)c(-c4c(F)c(F)c(F)c(F)c4F)c4nc(c(-c5c(F)c(F)c(F)c(F)c5F)c5ccc2[nH]5)C=C4)C=C3)cc1
REMARK SMILES IDX 13 1 14 2 15 3 10 5 11 6 9 7 7 8 8 9 6 10 5 11 2 12 1 13
REMARK SMILES IDX 3 14 4 15 12 17 16 21 17 22 18 23 19 24 20 25 21 26 22 28
REMARK SMILES IDX 23 29 24 30 85 31 25 32 84 33 26 34 27 35 28 36 78 37 29 38
REMARK SMILES IDX 83 39 77 40 79 41 30 42 82 43 76 44 75 45 31 47 63 48 43 49
REMARK SMILES IDX 62 50 44 51 47 52 61 53 80 54 45 55 46 56 60 58 81 59 48 60
REMARK SMILES IDX 32 61 33 62 41 63 34 64 35 65 39 66 42 67 36 68 37 69 40 70
REMARK SMILES IDX 38 71 64 72 65 73 73 74 66 75 67 76 71 77 74 78 68 79 69 80
REMARK SMILES IDX 72 81 70 82 49 83 50 84 58 85 51 86 52 87 56 88 59 89 53 90
REMARK SMILES IDX 54 91 57 92 55 93
REMARK H PARENT 15 4 4 16 12 18 12 19 12 20 20 27 79 46 47 57
REMARK Flexibility Score: inf
ROOT
ATOM      1  C   UNL     1       0.756   0.318   3.290  1.00  0.00     0.281 C 
ATOM      2  O   UNL     1       0.404   1.237   2.556  1.00  0.00    -0.268 OA
ATOM      3  N   UNL     1       1.089   0.751   4.536  1.00  0.00    -0.351 N 
ATOM      4  H   UNL     1       0.525   1.482   4.877  1.00  0.00     0.163 HD
ENDROOT
BRANCH   1   5
ATOM      5  C   UNL     1       0.895  -1.177   2.849  1.00  0.00     0.172 C 
ATOM      6  C   UNL     1       0.340  -2.105   3.946  1.00  0.00     0.090 C 
BRANCH   5   7
ATOM      7  C   UNL     1       0.256  -1.596   1.482  1.00  0.00     0.093 C 
BRANCH   7   8
ATOM      8  C   UNL     1      -1.201  -1.281   1.072  1.00  0.00     0.050 C 
ATOM      9  C   UNL     1      -1.522  -1.961  -0.269  1.00  0.00     0.019 C 
BRANCH   8  10
ATOM     10  S   UNL     1      -1.825   0.448   1.028  1.00  0.00    -0.158 SA
BRANCH  10  11
ATOM     11  C   UNL     1      -1.046   1.262  -0.438  1.00  0.00     0.075 C 
BRANCH  11  12
ATOM     12  C   UNL     1       0.398   1.822  -0.376  1.00  0.00     0.021 C 
ATOM     13  C   UNL     1       1.484   0.759  -0.516  1.00  0.00     0.011 C 
BRANCH  12  14
ATOM     14  C   UNL     1       0.613   2.873  -1.477  1.00  0.00     0.160 C 
BRANCH  14  15
ATOM     15  O   UNL     1       0.345   2.343  -2.767  1.00  0.00    -0.396 OA
ATOM     16  H   UNL     1       0.949   1.605  -2.945  1.00  0.00     0.210 HD
ENDBRANCH  14  15
ENDBRANCH  12  14
ENDBRANCH  11  12
ENDBRANCH  10  11
ENDBRANCH   8  10
ENDBRANCH   7   8
ENDBRANCH   5   7
BRANCH   5  17
ATOM     17  N   UNL     1       2.348  -1.451   2.644  1.00  0.00    -0.345 N 
ATOM     18  H   UNL     1       2.474  -2.421   2.355  1.00  0.00     0.345 HD
ATOM     19  H   UNL     1       2.851  -1.288   3.516  1.00  0.00     0.345 HD
ATOM     20  H   UNL     1       2.712  -0.830   1.921  1.00  0.00     0.345 HD
ENDBRANCH   5  17
ENDBRANCH   1   5
BRANCH   3  21
ATOM     21  C   UNL     1       2.129   0.325   5.446  1.00  0.00     0.116 C 
BRANCH  21  22
ATOM     22  C   UNL     1       3.311   1.298   5.396  1.00  0.00     0.023 C 
BRANCH  22  23
ATOM     23  C   UNL     1       2.973   2.749   5.764  1.00  0.00     0.023 C 
BRANCH  23  24
ATOM     24  C   UNL     1       2.150   2.924   7.036  1.00  0.00     0.116 C 
BRANCH  24  25
ATOM     25  N   UNL     1       2.760   2.279   8.188  1.00  0.00    -0.352 N 
ATOM     26  C   UNL     1       2.992   2.772   9.444  1.00  0.00     0.251 C 
ATOM     27  H   UNL     1       3.049   1.349   8.043  1.00  0.00     0.163 HD
ATOM     28  O   UNL     1       3.652   2.118  10.248  1.00  0.00    -0.269 OA
BRANCH  26  29
ATOM     29  C   UNL     1       2.480   4.104   9.820  1.00  0.00     0.039 A 
ATOM     30  C   UNL     1       3.338   4.985  10.482  1.00  0.00     0.014 A 
ATOM     31  C   UNL     1       1.172   4.488   9.514  1.00  0.00     0.014 A 
ATOM     32  C   UNL     1       2.904   6.277  10.777  1.00  0.00     0.010 A 
ATOM     33  C   UNL     1       0.768   5.801   9.739  1.00  0.00     0.010 A 
ATOM     34  C   UNL     1       1.630   6.709  10.372  1.00  0.00    -0.014 A 
BRANCH  34  35
ATOM     35  C   UNL     1       1.202   8.114  10.584  1.00  0.00     0.031 A 
ATOM     36  C   UNL     1       0.036   8.431  11.476  1.00  0.00     0.074 A 
ATOM     37  C   UNL     1       1.837   9.103   9.926  1.00  0.00     0.049 A 
ATOM     38  N   UNL     1      -0.497   9.592  11.761  1.00  0.00    -0.248 NA
ATOM     39  C   UNL     1      -0.639   7.290  12.113  1.00  0.00     0.031 C 
ATOM     40  C   UNL     1       2.945   8.916   8.988  1.00  0.00     0.029 A 
ATOM     41  N   UNL     1       1.638  10.461   9.938  1.00  0.00    -0.354 N 
ATOM     42  C   UNL     1      -1.571   9.321  12.598  1.00  0.00     0.074 A 
ATOM     43  C   UNL     1      -1.651   7.883  12.729  1.00  0.00     0.031 C 
ATOM     44  C   UNL     1       3.347  10.114   8.538  1.00  0.00     0.029 A 
ATOM     45  C   UNL     1       2.500  11.150   9.120  1.00  0.00     0.049 A 
ATOM     46  H   UNL     1       0.944  10.899  10.481  1.00  0.00     0.167 HD
ATOM     47  C   UNL     1      -2.399  10.195  13.220  1.00  0.00     0.037 A 
ATOM     48  C   UNL     1       2.593  12.469   8.864  1.00  0.00     0.037 A 
ATOM     49  C   UNL     1      -2.306  11.626  13.093  1.00  0.00     0.049 A 
ATOM     50  C   UNL     1       1.654  13.417   9.558  1.00  0.00     0.074 A 
ATOM     51  C   UNL     1      -3.054  12.600  13.732  1.00  0.00     0.029 A 
ATOM     52  N   UNL     1      -1.416  12.290  12.261  1.00  0.00    -0.354 N 
ATOM     53  N   UNL     1       0.698  13.156  10.416  1.00  0.00    -0.248 NA
ATOM     54  C   UNL     1       1.814  14.845   9.255  1.00  0.00     0.031 C 
ATOM     55  C   UNL     1      -2.660  13.848  13.239  1.00  0.00     0.029 A 
ATOM     56  C   UNL     1      -1.619  13.659  12.345  1.00  0.00     0.049 A 
ATOM     57  H   UNL     1      -0.739  11.854  11.694  1.00  0.00     0.167 HD
ATOM     58  C   UNL     1       0.159  14.384  10.774  1.00  0.00     0.074 A 
ATOM     59  C   UNL     1       0.911  15.393  10.055  1.00  0.00     0.031 C 
ATOM     60  C   UNL     1      -0.866  14.653  11.621  1.00  0.00     0.037 A 
BRANCH  47  61
ATOM     61  C   UNL     1      -3.485   9.624  14.088  1.00  0.00     0.064 A 
ATOM     62  C   UNL     1      -3.198   8.956  15.289  1.00  0.00     0.173 A 
ATOM     63  C   UNL     1      -4.834   9.773  13.731  1.00  0.00     0.173 A 
ATOM     64  F   UNL     1      -1.925   8.777  15.675  1.00  0.00    -0.203 F 
ATOM     65  C   UNL     1      -4.216   8.428  16.079  1.00  0.00     0.198 A 
ATOM     66  C   UNL     1      -5.851   9.274  14.541  1.00  0.00     0.198 A 
ATOM     67  F   UNL     1      -5.168  10.408  12.598  1.00  0.00    -0.203 F 
ATOM     68  F   UNL     1      -3.912   7.744  17.191  1.00  0.00    -0.200 F 
ATOM     69  C   UNL     1      -5.541   8.594  15.709  1.00  0.00     0.200 A 
ATOM     70  F   UNL     1      -7.133   9.450  14.190  1.00  0.00    -0.200 F 
ATOM     71  F   UNL     1      -6.520   8.090  16.473  1.00  0.00    -0.200 F 
ENDBRANCH  47  61
BRANCH  48  72
ATOM     72  C   UNL     1       3.628  12.968   7.921  1.00  0.00     0.064 A 
ATOM     73  C   UNL     1       4.710  13.734   8.377  1.00  0.00     0.173 A 
ATOM     74  C   UNL     1       3.562  12.686   6.549  1.00  0.00     0.173 A 
ATOM     75  F   UNL     1       4.809  14.046   9.677  1.00  0.00    -0.203 F 
ATOM     76  C   UNL     1       5.675  14.216   7.494  1.00  0.00     0.198 A 
ATOM     77  C   UNL     1       4.544  13.141   5.671  1.00  0.00     0.198 A 
ATOM     78  F   UNL     1       2.551  11.951   6.062  1.00  0.00    -0.203 F 
ATOM     79  F   UNL     1       6.673  14.984   7.950  1.00  0.00    -0.200 F 
ATOM     80  C   UNL     1       5.595  13.913   6.143  1.00  0.00     0.200 A 
ATOM     81  F   UNL     1       4.472  12.830   4.370  1.00  0.00    -0.200 F 
ATOM     82  F   UNL     1       6.527  14.369   5.295  1.00  0.00    -0.200 F 
ENDBRANCH  48  72
BRANCH  60  83
ATOM     83  C   UNL     1      -1.216  16.098  11.840  1.00  0.00     0.064 A 
ATOM     84  C   UNL     1      -1.807  16.877  10.834  1.00  0.00     0.173 A 
ATOM     85  C   UNL     1      -0.982  16.704  13.084  1.00  0.00     0.173 A 
ATOM     86  F   UNL     1      -2.039  16.351   9.621  1.00  0.00    -0.203 F 
ATOM     87  C   UNL     1      -2.120  18.215  11.055  1.00  0.00     0.198 A 
ATOM     88  C   UNL     1      -1.330  18.032  13.313  1.00  0.00     0.198 A 
ATOM     89  F   UNL     1      -0.426  16.003  14.084  1.00  0.00    -0.203 F 
ATOM     90  F   UNL     1      -2.630  18.955  10.060  1.00  0.00    -0.200 F 
ATOM     91  C   UNL     1      -1.889  18.789  12.296  1.00  0.00     0.200 A 
ATOM     92  F   UNL     1      -1.121  18.579  14.519  1.00  0.00    -0.200 F 
ATOM     93  F   UNL     1      -2.197  20.076  12.509  1.00  0.00    -0.200 F 
ENDBRANCH  60  83
ENDBRANCH  34  35
ENDBRANCH  26  29
ENDBRANCH  24  25
ENDBRANCH  23  24
ENDBRANCH  22  23
ENDBRANCH  21  22
ENDBRANCH   3  21
TORSDOF 19
