REMARK SMILES CCOC(=O)c1sc(NC(=O)CCC(=O)NCCCCNC(=O)c2ccc(-c3c4nc(c(-c5c(F)c(F)c(F)c(F)c5F)c5ccc([nH]5)c(-c5c(F)c(F)c(F)c(F)c5F)c5nc(c(-c6c(F)c(F)c(F)c(F)c6F)c6ccc3[nH]6)C=C5)C=C4)cc2)c(C#N)c1C
REMARK SMILES IDX 14 1 15 2 16 3 13 5 12 6 10 7 9 8 11 10 8 11 6 12 7 13 90 14
REMARK SMILES IDX 87 15 91 16 4 17 5 18 3 19 2 20 1 21 88 22 89 23 17 24 18 25
REMARK SMILES IDX 19 26 20 27 21 28 22 29 23 31 24 32 25 33 86 34 26 35 85 36
REMARK SMILES IDX 27 37 28 38 29 39 79 40 30 41 84 42 78 43 80 44 31 45 83 46
REMARK SMILES IDX 77 47 76 48 32 50 64 51 44 52 63 53 45 54 48 55 62 56 81 57
REMARK SMILES IDX 46 58 47 59 61 61 82 62 49 63 33 64 34 65 42 66 35 67 36 68
REMARK SMILES IDX 40 69 43 70 37 71 38 72 41 73 39 74 65 75 66 76 74 77 67 78
REMARK SMILES IDX 68 79 72 80 75 81 69 82 70 83 73 84 71 85 50 86 51 87 59 88
REMARK SMILES IDX 52 89 53 90 57 91 60 92 54 93 55 94 58 95 56 96
REMARK H PARENT 16 4 9 9 21 30 80 49 48 60
REMARK Flexibility Score: inf
ROOT
ATOM      1  C   UNL     1       5.929   0.699  -5.064  1.00  0.00     0.220 C 
ATOM      2  O   UNL     1       5.436   1.361  -4.149  1.00  0.00    -0.275 OA
ATOM      3  N   UNL     1       5.762   1.159  -6.332  1.00  0.00    -0.356 N 
ATOM      4  H   UNL     1       5.054   1.834  -6.440  1.00  0.00     0.163 HD
ENDROOT
BRANCH   1   5
ATOM      5  C   UNL     1       6.685  -0.579  -4.791  1.00  0.00     0.110 C 
BRANCH   5   6
ATOM      6  C   UNL     1       5.937  -1.899  -4.968  1.00  0.00     0.110 C 
BRANCH   6   7
ATOM      7  C   UNL     1       5.006  -2.068  -6.156  1.00  0.00     0.225 C 
ATOM      8  N   UNL     1       3.781  -1.476  -6.301  1.00  0.00    -0.317 N 
ATOM      9  H   UNL     1       3.353  -1.634  -7.173  1.00  0.00     0.170 HD
ATOM     10  O   UNL     1       5.397  -2.764  -7.104  1.00  0.00    -0.275 OA
BRANCH   8  11
ATOM     11  C   UNL     1       3.039  -0.694  -5.436  1.00  0.00     0.114 A 
ATOM     12  C   UNL     1       2.299   0.497  -3.430  1.00  0.00     0.118 A 
ATOM     13  S   UNL     1       3.185  -0.910  -3.761  1.00  0.00    -0.109 S 
ATOM     14  C   UNL     1       1.758   1.063  -4.571  1.00  0.00    -0.006 A 
ATOM     15  C   UNL     1       2.051   0.240  -5.717  1.00  0.00     0.091 A 
ATOM     16  C   UNL     1       1.000   2.354  -4.624  1.00  0.00     0.048 C 
BRANCH  12  17
ATOM     17  C   UNL     1       2.149   0.888  -2.057  1.00  0.00     0.348 C 
ATOM     18  O   UNL     1       3.042   1.061  -1.240  1.00  0.00    -0.245 OA
BRANCH  17  19
ATOM     19  O   UNL     1       0.814   0.943  -1.796  1.00  0.00    -0.462 OA
BRANCH  19  20
ATOM     20  C   UNL     1       0.455   1.140  -0.428  1.00  0.00     0.230 C 
ATOM     21  C   UNL     1       0.755  -0.099   0.397  1.00  0.00     0.049 C 
ENDBRANCH  19  20
ENDBRANCH  17  19
ENDBRANCH  12  17
BRANCH  15  22
ATOM     22  C   UNL     1       1.483   0.503  -7.003  1.00  0.00     0.103 C 
ATOM     23  N   UNL     1       1.014   0.779  -8.036  1.00  0.00    -0.192 NA
ENDBRANCH  15  22
ENDBRANCH   8  11
ENDBRANCH   6   7
ENDBRANCH   5   6
ENDBRANCH   1   5
BRANCH   3  24
ATOM     24  C   UNL     1       6.466   0.809  -7.554  1.00  0.00     0.116 C 
BRANCH  24  25
ATOM     25  C   UNL     1       5.600   0.205  -8.667  1.00  0.00     0.023 C 
BRANCH  25  26
ATOM     26  C   UNL     1       4.207   0.801  -8.851  1.00  0.00     0.023 C 
BRANCH  26  27
ATOM     27  C   UNL     1       4.192   2.156  -9.513  1.00  0.00     0.116 C 
BRANCH  27  28
ATOM     28  N   UNL     1       4.622   2.109 -10.913  1.00  0.00    -0.352 N 
ATOM     29  C   UNL     1       4.708   3.161 -11.815  1.00  0.00     0.251 C 
ATOM     30  H   UNL     1       4.883   1.224 -11.256  1.00  0.00     0.163 HD
ATOM     31  O   UNL     1       4.699   2.975 -13.024  1.00  0.00    -0.269 OA
BRANCH  29  32
ATOM     32  C   UNL     1       4.855   4.521 -11.270  1.00  0.00     0.039 A 
ATOM     33  C   UNL     1       4.242   5.660 -11.799  1.00  0.00     0.014 A 
ATOM     34  C   UNL     1       5.577   4.605 -10.099  1.00  0.00     0.014 A 
ATOM     35  C   UNL     1       4.388   6.861 -11.101  1.00  0.00     0.010 A 
ATOM     36  C   UNL     1       5.197   5.590  -9.256  1.00  0.00     0.010 A 
ATOM     37  C   UNL     1       4.918   6.811  -9.808  1.00  0.00    -0.014 A 
BRANCH  37  38
ATOM     38  C   UNL     1       5.000   7.924  -8.879  1.00  0.00     0.031 A 
ATOM     39  C   UNL     1       3.665   8.507  -8.638  1.00  0.00     0.074 A 
ATOM     40  C   UNL     1       6.120   8.200  -8.162  1.00  0.00     0.049 A 
ATOM     41  N   UNL     1       3.159   9.529  -9.242  1.00  0.00    -0.248 NA
ATOM     42  C   UNL     1       2.672   7.721  -7.884  1.00  0.00     0.031 C 
ATOM     43  C   UNL     1       7.385   7.445  -8.098  1.00  0.00     0.029 A 
ATOM     44  N   UNL     1       6.352   9.216  -7.274  1.00  0.00    -0.354 N 
ATOM     45  C   UNL     1       1.897   9.694  -8.684  1.00  0.00     0.074 A 
ATOM     46  C   UNL     1       1.558   8.421  -8.118  1.00  0.00     0.031 C 
ATOM     47  C   UNL     1       8.152   7.895  -7.076  1.00  0.00     0.029 A 
ATOM     48  C   UNL     1       7.528   9.077  -6.519  1.00  0.00     0.049 A 
ATOM     49  H   UNL     1       5.742   9.983  -7.173  1.00  0.00     0.167 HD
ATOM     50  C   UNL     1       1.466  10.954  -8.388  1.00  0.00     0.037 A 
ATOM     51  C   UNL     1       7.935   9.906  -5.520  1.00  0.00     0.037 A 
ATOM     52  C   UNL     1       2.353  11.913  -9.013  1.00  0.00     0.049 A 
ATOM     53  C   UNL     1       7.216  11.185  -5.728  1.00  0.00     0.074 A 
ATOM     54  C   UNL     1       2.640  12.328 -10.295  1.00  0.00     0.029 A 
ATOM     55  N   UNL     1       3.442  12.211  -8.234  1.00  0.00    -0.354 N 
ATOM     56  N   UNL     1       7.417  11.955  -6.763  1.00  0.00    -0.248 NA
ATOM     57  C   UNL     1       5.950  11.378  -5.036  1.00  0.00     0.031 C 
ATOM     58  C   UNL     1       4.021  12.700 -10.285  1.00  0.00     0.029 A 
ATOM     59  C   UNL     1       4.513  12.598  -8.984  1.00  0.00     0.049 A 
ATOM     60  H   UNL     1       3.450  12.151  -7.251  1.00  0.00     0.167 HD
ATOM     61  C   UNL     1       6.154  12.404  -7.109  1.00  0.00     0.074 A 
ATOM     62  C   UNL     1       5.320  12.137  -5.938  1.00  0.00     0.031 C 
ATOM     63  C   UNL     1       5.845  12.635  -8.421  1.00  0.00     0.037 A 
BRANCH  50  64
ATOM     64  C   UNL     1       0.698  11.347  -7.130  1.00  0.00     0.064 A 
ATOM     65  C   UNL     1       0.425  12.720  -6.928  1.00  0.00     0.173 A 
ATOM     66  C   UNL     1       0.515  10.534  -5.990  1.00  0.00     0.173 A 
ATOM     67  F   UNL     1       0.544  13.597  -7.936  1.00  0.00    -0.203 F 
ATOM     68  C   UNL     1       0.120  13.244  -5.667  1.00  0.00     0.198 A 
ATOM     69  C   UNL     1       0.175  11.056  -4.742  1.00  0.00     0.198 A 
ATOM     70  F   UNL     1       0.740   9.218  -5.991  1.00  0.00    -0.203 F 
ATOM     71  F   UNL     1       0.002  14.568  -5.507  1.00  0.00    -0.200 F 
ATOM     72  C   UNL     1       0.012  12.412  -4.571  1.00  0.00     0.200 A 
ATOM     73  F   UNL     1       0.087  10.230  -3.688  1.00  0.00    -0.200 F 
ATOM     74  F   UNL     1      -0.211  12.913  -3.350  1.00  0.00    -0.200 F 
ENDBRANCH  50  64
BRANCH  51  75
ATOM     75  C   UNL     1       8.623   9.601  -4.237  1.00  0.00     0.064 A 
ATOM     76  C   UNL     1       9.246  10.605  -3.470  1.00  0.00     0.173 A 
ATOM     77  C   UNL     1       8.395   8.376  -3.584  1.00  0.00     0.173 A 
ATOM     78  F   UNL     1       9.454  11.821  -3.995  1.00  0.00    -0.203 F 
ATOM     79  C   UNL     1       9.592  10.402  -2.127  1.00  0.00     0.198 A 
ATOM     80  C   UNL     1       8.736   8.175  -2.243  1.00  0.00     0.198 A 
ATOM     81  F   UNL     1       7.738   7.387  -4.208  1.00  0.00    -0.203 F 
ATOM     82  F   UNL     1      10.127  11.402  -1.411  1.00  0.00    -0.200 F 
ATOM     83  C   UNL     1       9.324   9.191  -1.510  1.00  0.00     0.200 A 
ATOM     84  F   UNL     1       8.426   7.017  -1.644  1.00  0.00    -0.200 F 
ATOM     85  F   UNL     1       9.588   9.018  -0.207  1.00  0.00    -0.200 F 
ENDBRANCH  51  75
BRANCH  63  86
ATOM     86  C   UNL     1       6.982  12.829  -9.380  1.00  0.00     0.064 A 
ATOM     87  C   UNL     1       7.872  11.825  -9.795  1.00  0.00     0.173 A 
ATOM     88  C   UNL     1       7.082  14.081 -10.000  1.00  0.00     0.173 A 
ATOM     89  F   UNL     1       7.793  10.584  -9.299  1.00  0.00    -0.203 F 
ATOM     90  C   UNL     1       8.833  12.078 -10.776  1.00  0.00     0.198 A 
ATOM     91  C   UNL     1       8.015  14.320 -11.001  1.00  0.00     0.198 A 
ATOM     92  F   UNL     1       6.228  15.061  -9.668  1.00  0.00    -0.203 F 
ATOM     93  F   UNL     1       9.677  11.108 -11.159  1.00  0.00    -0.200 F 
ATOM     94  C   UNL     1       8.896  13.322 -11.384  1.00  0.00     0.200 A 
ATOM     95  F   UNL     1       8.038  15.510 -11.615  1.00  0.00    -0.200 F 
ATOM     96  F   UNL     1       9.789  13.554 -12.356  1.00  0.00    -0.200 F 
ENDBRANCH  63  86
ENDBRANCH  37  38
ENDBRANCH  29  32
ENDBRANCH  27  28
ENDBRANCH  26  27
ENDBRANCH  25  26
ENDBRANCH  24  25
ENDBRANCH   3  24
TORSDOF 18
