REMARK SMILES O=C(NCCCCNC(=O)c1cc(NC(=O)c2cccs2)ccc1N1CCC[C@H](C[NH+]2CCCC2)C1)c1ccc(-c2c3nc(c(-c4c(F)c(F)c(F)c(F)c4F)c4ccc([nH]4)c(-c4c(F)c(F)c(F)c(F)c4F)c4nc(c(-c5c(F)c(F)c(F)c(F)c5F)c5ccc2[nH]5)C=C4)C=C3)cc1
REMARK SMILES IDX 6 1 5 2 4 3 3 4 1 5 2 6 37 8 38 9 99 10 39 11 98 12 40 13
REMARK SMILES IDX 41 14 42 15 92 16 43 17 97 18 91 19 93 20 44 21 96 22 90 23
REMARK SMILES IDX 89 24 45 26 77 27 57 28 76 29 58 30 61 31 75 32 94 33 59 34
REMARK SMILES IDX 60 35 74 37 95 38 62 39 46 40 47 41 55 42 48 43 49 44 53 45
REMARK SMILES IDX 56 46 50 47 51 48 54 49 52 50 78 51 79 52 87 53 80 54 81 55
REMARK SMILES IDX 85 56 88 57 82 58 83 59 86 60 84 61 63 62 64 63 72 64 65 65
REMARK SMILES IDX 66 66 70 67 73 68 67 69 68 70 71 71 69 72 7 73 8 74 9 75
REMARK SMILES IDX 10 77 11 78 12 79 24 80 13 81 23 82 22 83 25 84 26 85 36 86
REMARK SMILES IDX 27 87 29 88 28 89 30 90 31 91 32 92 35 93 33 95 34 96 14 97
REMARK SMILES IDX 15 98 16 100 17 101 18 102 21 103 19 104 20 105
REMARK H PARENT 3 7 93 25 61 36 8 76 31 94 14 99
REMARK Flexibility Score: inf
ROOT
ATOM      1  C   UNL     1       4.749   1.787  -3.643  1.00  0.00     0.023 C 
ENDROOT
BRANCH   1   2
ATOM      2  C   UNL     1       5.140   0.682  -2.668  1.00  0.00     0.023 C 
BRANCH   2   3
ATOM      3  C   UNL     1       4.748   0.906  -1.213  1.00  0.00     0.116 C 
BRANCH   3   4
ATOM      4  N   UNL     1       3.311   0.876  -0.980  1.00  0.00    -0.352 N 
ATOM      5  O   UNL     1       1.341   0.082  -0.205  1.00  0.00    -0.269 OA
ATOM      6  C   UNL     1       2.563   0.013  -0.206  1.00  0.00     0.251 C 
ATOM      7  H   UNL     1       2.796   1.576  -1.443  1.00  0.00     0.163 HD
BRANCH   6   8
ATOM      8  C   UNL     1       3.245  -1.028   0.596  1.00  0.00     0.039 A 
ATOM      9  C   UNL     1       4.362  -0.707   1.366  1.00  0.00     0.014 A 
ATOM     10  C   UNL     1       2.782  -2.347   0.551  1.00  0.00     0.014 A 
ATOM     11  C   UNL     1       5.129  -1.724   1.918  1.00  0.00     0.010 A 
ATOM     12  C   UNL     1       3.496  -3.359   1.204  1.00  0.00     0.010 A 
ATOM     13  C   UNL     1       4.703  -3.062   1.854  1.00  0.00    -0.014 A 
BRANCH  13  14
ATOM     14  C   UNL     1       5.527  -4.101   2.527  1.00  0.00     0.031 A 
ATOM     15  C   UNL     1       6.202  -5.200   1.752  1.00  0.00     0.074 A 
ATOM     16  C   UNL     1       5.727  -3.992   3.855  1.00  0.00     0.049 A 
ATOM     17  N   UNL     1       7.021  -6.128   2.185  1.00  0.00    -0.248 NA
ATOM     18  C   UNL     1       5.924  -5.277   0.310  1.00  0.00     0.031 C 
ATOM     19  C   UNL     1       5.106  -2.982   4.715  1.00  0.00     0.029 A 
ATOM     20  N   UNL     1       6.532  -4.702   4.708  1.00  0.00    -0.354 N 
ATOM     21  C   UNL     1       7.342  -6.904   1.078  1.00  0.00     0.074 A 
ATOM     22  C   UNL     1       6.612  -6.355  -0.045  1.00  0.00     0.031 C 
ATOM     23  C   UNL     1       5.604  -3.091   5.954  1.00  0.00     0.029 A 
ATOM     24  C   UNL     1       6.528  -4.218   5.993  1.00  0.00     0.049 A 
ATOM     25  H   UNL     1       7.061  -5.484   4.426  1.00  0.00     0.167 HD
ATOM     26  C   UNL     1       8.178  -7.968   1.007  1.00  0.00     0.037 A 
ATOM     27  C   UNL     1       7.189  -4.636   7.087  1.00  0.00     0.037 A 
ATOM     28  C   UNL     1       8.917  -8.502   2.125  1.00  0.00     0.049 A 
ATOM     29  C   UNL     1       8.116  -5.811   6.972  1.00  0.00     0.074 A 
ATOM     30  C   UNL     1       9.796  -9.572   2.149  1.00  0.00     0.029 A 
ATOM     31  N   UNL     1       8.866  -8.000   3.417  1.00  0.00    -0.354 N 
ATOM     32  N   UNL     1       8.418  -6.523   5.915  1.00  0.00    -0.248 NA
ATOM     33  C   UNL     1       8.790  -6.241   8.203  1.00  0.00     0.031 C 
ATOM     34  C   UNL     1      10.251  -9.739   3.462  1.00  0.00     0.029 A 
ATOM     35  C   UNL     1       9.688  -8.747   4.248  1.00  0.00     0.049 A 
ATOM     36  H   UNL     1       8.326  -7.228   3.703  1.00  0.00     0.167 HD
ATOM     37  C   UNL     1       9.314  -7.487   6.351  1.00  0.00     0.074 A 
ATOM     38  C   UNL     1       9.538  -7.241   7.761  1.00  0.00     0.031 C 
ATOM     39  C   UNL     1       9.888  -8.495   5.651  1.00  0.00     0.037 A 
BRANCH  26  40
ATOM     40  C   UNL     1       8.346  -8.643  -0.324  1.00  0.00     0.064 A 
ATOM     41  C   UNL     1       9.094  -8.055  -1.355  1.00  0.00     0.173 A 
ATOM     42  C   UNL     1       7.820  -9.925  -0.545  1.00  0.00     0.173 A 
ATOM     43  F   UNL     1       9.610  -6.827  -1.199  1.00  0.00    -0.203 F 
ATOM     44  C   UNL     1       9.300  -8.722  -2.561  1.00  0.00     0.198 A 
ATOM     45  C   UNL     1       8.047 -10.598  -1.743  1.00  0.00     0.198 A 
ATOM     46  F   UNL     1       7.102 -10.535   0.410  1.00  0.00    -0.203 F 
ATOM     47  F   UNL     1       9.996  -8.130  -3.542  1.00  0.00    -0.200 F 
ATOM     48  C   UNL     1       8.785  -9.995  -2.751  1.00  0.00     0.200 A 
ATOM     49  F   UNL     1       7.559 -11.834  -1.920  1.00  0.00    -0.200 F 
ATOM     50  F   UNL     1       8.997 -10.641  -3.906  1.00  0.00    -0.200 F 
ENDBRANCH  26  40
BRANCH  27  51
ATOM     51  C   UNL     1       6.982  -3.942   8.383  1.00  0.00     0.064 A 
ATOM     52  C   UNL     1       8.007  -3.193   8.977  1.00  0.00     0.173 A 
ATOM     53  C   UNL     1       5.749  -4.005   9.049  1.00  0.00     0.173 A 
ATOM     54  F   UNL     1       9.210  -3.118   8.388  1.00  0.00    -0.203 F 
ATOM     55  C   UNL     1       7.811  -2.549  10.197  1.00  0.00     0.198 A 
ATOM     56  C   UNL     1       5.544  -3.334  10.251  1.00  0.00     0.198 A 
ATOM     57  F   UNL     1       4.734  -4.703   8.517  1.00  0.00    -0.203 F 
ATOM     58  F   UNL     1       8.820  -1.876  10.766  1.00  0.00    -0.200 F 
ATOM     59  C   UNL     1       6.578  -2.614  10.829  1.00  0.00     0.200 A 
ATOM     60  F   UNL     1       4.345  -3.383  10.847  1.00  0.00    -0.200 F 
ATOM     61  F   UNL     1       6.388  -1.986  11.997  1.00  0.00    -0.200 F 
ENDBRANCH  27  51
BRANCH  39  62
ATOM     62  C   UNL     1      10.810  -9.401   6.411  1.00  0.00     0.064 A 
ATOM     63  C   UNL     1      10.318 -10.327   7.343  1.00  0.00     0.173 A 
ATOM     64  C   UNL     1      12.197  -9.342   6.209  1.00  0.00     0.173 A 
ATOM     65  F   UNL     1       9.000 -10.407   7.583  1.00  0.00    -0.203 F 
ATOM     66  C   UNL     1      11.184 -11.137   8.071  1.00  0.00     0.198 A 
ATOM     67  C   UNL     1      13.058 -10.173   6.919  1.00  0.00     0.198 A 
ATOM     68  F   UNL     1      12.715  -8.476   5.325  1.00  0.00    -0.203 F 
ATOM     69  F   UNL     1      10.696 -11.973   8.997  1.00  0.00    -0.200 F 
ATOM     70  C   UNL     1      12.552 -11.062   7.856  1.00  0.00     0.200 A 
ATOM     71  F   UNL     1      14.379 -10.106   6.706  1.00  0.00    -0.200 F 
ATOM     72  F   UNL     1      13.385 -11.838   8.562  1.00  0.00    -0.200 F 
ENDBRANCH  39  62
ENDBRANCH  13  14
ENDBRANCH   6   8
ENDBRANCH   3   4
ENDBRANCH   2   3
ENDBRANCH   1   2
BRANCH   1  73
ATOM     73  C   UNL     1       5.068   3.205  -3.190  1.00  0.00     0.116 C 
BRANCH  73  74
ATOM     74  N   UNL     1       6.453   3.446  -2.844  1.00  0.00    -0.352 N 
ATOM     75  C   UNL     1       7.109   4.658  -2.855  1.00  0.00     0.253 C 
ATOM     76  H   UNL     1       6.982   2.661  -2.571  1.00  0.00     0.163 HD
ATOM     77  O   UNL     1       8.239   4.749  -2.385  1.00  0.00    -0.269 OA
BRANCH  75  78
ATOM     78  C   UNL     1       6.493   5.816  -3.547  1.00  0.00     0.065 A 
ATOM     79  C   UNL     1       7.177   6.196  -4.715  1.00  0.00     0.042 A 
ATOM     80  C   UNL     1       5.284   6.428  -3.164  1.00  0.00     0.050 A 
ATOM     81  C   UNL     1       6.615   7.084  -5.620  1.00  0.00     0.042 A 
ATOM     82  C   UNL     1       4.758   7.365  -4.069  1.00  0.00     0.029 A 
ATOM     83  C   UNL     1       5.401   7.680  -5.277  1.00  0.00     0.028 A 
BRANCH  80  84
ATOM     84  N   UNL     1       4.640   6.217  -1.955  1.00  0.00    -0.370 N 
ATOM     85  C   UNL     1       3.210   5.904  -1.893  1.00  0.00     0.116 C 
ATOM     86  C   UNL     1       5.435   6.086  -0.730  1.00  0.00     0.126 C 
ATOM     87  C   UNL     1       2.539   6.591  -0.709  1.00  0.00     0.022 C 
ATOM     88  C   UNL     1       4.799   6.914   0.401  1.00  0.00     0.064 C 
ATOM     89  C   UNL     1       3.352   6.428   0.575  1.00  0.00     0.013 C 
BRANCH  88  90
ATOM     90  C   UNL     1       4.969   8.427   0.088  1.00  0.00     0.267 C 
BRANCH  90  91
ATOM     91  N   UNL     1       4.694   9.430   1.120  1.00  0.00    -0.335 N 
ATOM     92  C   UNL     1       5.469   9.292   2.349  1.00  0.00     0.262 C 
ATOM     93  C   UNL     1       3.296   9.630   1.487  1.00  0.00     0.262 C 
ATOM     94  H   UNL     1       5.004  10.261   0.616  1.00  0.00     0.348 HD
ATOM     95  C   UNL     1       4.514   8.673   3.348  1.00  0.00     0.067 C 
ATOM     96  C   UNL     1       3.159   9.230   2.952  1.00  0.00     0.067 C 
ENDBRANCH  90  91
ENDBRANCH  88  90
ENDBRANCH  80  84
BRANCH  81  97
ATOM     97  N   UNL     1       7.190   7.442  -6.854  1.00  0.00    -0.321 N 
ATOM     98  C   UNL     1       8.257   6.939  -7.578  1.00  0.00     0.265 C 
ATOM     99  H   UNL     1       6.744   8.204  -7.289  1.00  0.00     0.170 HD
ATOM    100  O   UNL     1       8.635   7.605  -8.546  1.00  0.00    -0.268 OA
BRANCH  98 101
ATOM    101  C   UNL     1       8.842   5.660  -7.234  1.00  0.00     0.092 A 
ATOM    102  C   UNL     1       8.237   4.421  -7.110  1.00  0.00     0.025 A 
ATOM    103  S   UNL     1      10.525   5.570  -6.927  1.00  0.00    -0.139 S 
ATOM    104  C   UNL     1       9.138   3.429  -6.624  1.00  0.00     0.012 A 
ATOM    105  C   UNL     1      10.412   3.927  -6.462  1.00  0.00     0.065 A 
ENDBRANCH  98 101
ENDBRANCH  81  97
ENDBRANCH  75  78
ENDBRANCH  73  74
ENDBRANCH   1  73
TORSDOF 16
