REMARK SMILES CC1(C)S[C@H](c2ccc(Br)cc2)[NH2+][C@H]1C(=O)NCCCCNC(=O)c1ccc(-c2c3nc(c(-c4c(F)c(F)c(F)c(F)c4F)c4ccc([nH]4)c(-c4c(F)c(F)c(F)c(F)c4F)c4nc(c(-c5c(F)c(F)c(F)c(F)c5F)c5ccc2[nH]5)C=C4)C=C3)cc1
REMARK SMILES IDX 20 1 19 2 18 3 17 4 15 5 16 6 14 8 1 9 2 10 3 11 4 12 5 13
REMARK SMILES IDX 13 14 6 17 7 18 12 19 8 20 11 21 9 22 10 23 21 24 22 25
REMARK SMILES IDX 23 26 24 28 25 29 26 30 87 31 27 32 86 33 28 34 29 35 30 36
REMARK SMILES IDX 80 37 31 38 85 39 79 40 81 41 32 42 84 43 78 44 77 45 33 47
REMARK SMILES IDX 65 48 45 49 64 50 46 51 49 52 63 53 82 54 47 55 48 56 62 58
REMARK SMILES IDX 83 59 50 60 34 61 35 62 43 63 36 64 37 65 41 66 44 67 38 68
REMARK SMILES IDX 39 69 42 70 40 71 66 72 67 73 75 74 68 75 69 76 73 77 76 78
REMARK SMILES IDX 70 79 71 80 74 81 72 82 51 83 52 84 60 85 53 86 54 87 58 88
REMARK SMILES IDX 61 89 55 90 56 91 59 92 57 93
REMARK H PARENT 17 7 13 15 13 16 22 27 81 46 49 57
REMARK Flexibility Score: inf
ROOT
ATOM      1  C   UNL     1       2.211   3.182   3.924  1.00  0.00     0.023 C 
ENDROOT
BRANCH   1   2
ATOM      2  C   UNL     1       1.616   1.936   3.286  1.00  0.00     0.023 C 
BRANCH   2   3
ATOM      3  C   UNL     1       0.378   2.182   2.425  1.00  0.00     0.116 C 
BRANCH   3   4
ATOM      4  N   UNL     1       0.712   2.817   1.166  1.00  0.00    -0.351 N 
ATOM      5  C   UNL     1       0.621   2.420  -0.134  1.00  0.00     0.279 C 
ATOM      6  O   UNL     1       1.108   3.195  -0.967  1.00  0.00    -0.268 OA
ATOM      7  H   UNL     1       1.082   3.723   1.272  1.00  0.00     0.163 HD
BRANCH   5   8
ATOM      8  C   UNL     1      -0.002   1.087  -0.601  1.00  0.00     0.289 C 
ATOM      9  C   UNL     1       1.744  -0.321   0.780  1.00  0.00     0.030 C 
ATOM     10  C   UNL     1       0.912  -0.151  -0.486  1.00  0.00     0.077 C 
ATOM     11  C   UNL     1       1.847  -0.252  -1.697  1.00  0.00     0.030 C 
ATOM     12  S   UNL     1      -0.267  -1.541  -0.505  1.00  0.00    -0.081 SA
ATOM     13  C   UNL     1      -1.759  -0.511  -0.344  1.00  0.00     0.274 C 
ATOM     14  N   UNL     1      -1.355   0.864  -0.034  1.00  0.00    -0.320 N 
ATOM     15  H   UNL     1      -1.332   0.997   0.977  1.00  0.00     0.348 HD
ATOM     16  H   UNL     1      -2.019   1.526  -0.435  1.00  0.00     0.348 HD
BRANCH  13  17
ATOM     17  C   UNL     1      -2.658  -0.670  -1.558  1.00  0.00     0.020 A 
ATOM     18  C   UNL     1      -3.240  -1.931  -1.805  1.00  0.00     0.012 A 
ATOM     19  C   UNL     1      -2.934   0.370  -2.460  1.00  0.00     0.012 A 
ATOM     20  C   UNL     1      -4.032  -2.157  -2.931  1.00  0.00     0.016 A 
ATOM     21  C   UNL     1      -3.730   0.148  -3.588  1.00  0.00     0.016 A 
ATOM     22  C   UNL     1      -4.267  -1.116  -3.822  1.00  0.00     0.018 A 
ATOM     23  Br  UNL     1      -5.316  -1.424  -5.364  1.00  0.00    -0.051 Br
ENDBRANCH  13  17
ENDBRANCH   5   8
ENDBRANCH   3   4
ENDBRANCH   2   3
ENDBRANCH   1   2
BRANCH   1  24
ATOM     24  C   UNL     1       1.264   3.922   4.851  1.00  0.00     0.116 C 
BRANCH  24  25
ATOM     25  N   UNL     1       0.725   3.079   5.909  1.00  0.00    -0.352 N 
ATOM     26  C   UNL     1       0.673   3.322   7.262  1.00  0.00     0.251 C 
ATOM     27  H   UNL     1       0.348   2.218   5.617  1.00  0.00     0.163 HD
ATOM     28  O   UNL     1       0.313   2.455   8.043  1.00  0.00    -0.269 OA
BRANCH  26  29
ATOM     29  C   UNL     1       1.091   4.649   7.753  1.00  0.00     0.039 A 
ATOM     30  C   UNL     1       1.994   4.730   8.815  1.00  0.00     0.014 A 
ATOM     31  C   UNL     1       0.634   5.803   7.114  1.00  0.00     0.014 A 
ATOM     32  C   UNL     1       2.490   5.977   9.194  1.00  0.00     0.010 A 
ATOM     33  C   UNL     1       1.207   7.027   7.422  1.00  0.00     0.010 A 
ATOM     34  C   UNL     1       2.124   7.128   8.479  1.00  0.00    -0.014 A 
BRANCH  34  35
ATOM     35  C   UNL     1       2.639   8.468   8.846  1.00  0.00     0.031 A 
ATOM     36  C   UNL     1       1.670   9.529   9.289  1.00  0.00     0.074 A 
ATOM     37  C   UNL     1       3.947   8.751   8.705  1.00  0.00     0.049 A 
ATOM     38  N   UNL     1       1.883  10.793   9.547  1.00  0.00    -0.248 NA
ATOM     39  C   UNL     1       0.260   9.122   9.414  1.00  0.00     0.031 C 
ATOM     40  C   UNL     1       4.971   7.821   8.225  1.00  0.00     0.029 A 
ATOM     41  N   UNL     1       4.638   9.912   8.943  1.00  0.00    -0.354 N 
ATOM     42  C   UNL     1       0.635  11.333   9.830  1.00  0.00     0.074 A 
ATOM     43  C   UNL     1      -0.337  10.280   9.649  1.00  0.00     0.031 C 
ATOM     44  C   UNL     1       6.163   8.440   8.231  1.00  0.00     0.029 A 
ATOM     45  C   UNL     1       5.983   9.815   8.683  1.00  0.00     0.049 A 
ATOM     46  H   UNL     1       4.210  10.736   9.270  1.00  0.00     0.167 HD
ATOM     47  C   UNL     1       0.331  12.588  10.236  1.00  0.00     0.037 A 
ATOM     48  C   UNL     1       6.956  10.738   8.802  1.00  0.00     0.037 A 
ATOM     49  C   UNL     1       1.310  13.614  10.467  1.00  0.00     0.049 A 
ATOM     50  C   UNL     1       6.599  12.112   9.304  1.00  0.00     0.074 A 
ATOM     51  C   UNL     1       1.121  14.899  10.940  1.00  0.00     0.029 A 
ATOM     52  N   UNL     1       2.672  13.460  10.251  1.00  0.00    -0.354 N 
ATOM     53  N   UNL     1       5.424  12.596   9.627  1.00  0.00    -0.248 NA
ATOM     54  C   UNL     1       7.706  13.063   9.470  1.00  0.00     0.031 C 
ATOM     55  C   UNL     1       2.368  15.534  10.984  1.00  0.00     0.029 A 
ATOM     56  C   UNL     1       3.337  14.629  10.579  1.00  0.00     0.049 A 
ATOM     57  H   UNL     1       3.103  12.640   9.915  1.00  0.00     0.167 HD
ATOM     58  C   UNL     1       5.653  13.893  10.065  1.00  0.00     0.074 A 
ATOM     59  C   UNL     1       7.081  14.116   9.977  1.00  0.00     0.031 C 
ATOM     60  C   UNL     1       4.762  14.817  10.502  1.00  0.00     0.037 A 
BRANCH  47  61
ATOM     61  C   UNL     1      -1.117  12.905  10.470  1.00  0.00     0.064 A 
ATOM     62  C   UNL     1      -1.832  12.338  11.536  1.00  0.00     0.173 A 
ATOM     63  C   UNL     1      -1.798  13.792   9.623  1.00  0.00     0.173 A 
ATOM     64  F   UNL     1      -1.232  11.470  12.365  1.00  0.00    -0.203 F 
ATOM     65  C   UNL     1      -3.183  12.618  11.724  1.00  0.00     0.198 A 
ATOM     66  C   UNL     1      -3.141  14.095   9.833  1.00  0.00     0.198 A 
ATOM     67  F   UNL     1      -1.163  14.363   8.589  1.00  0.00    -0.203 F 
ATOM     68  F   UNL     1      -3.858  12.015  12.713  1.00  0.00    -0.200 F 
ATOM     69  C   UNL     1      -3.834  13.501  10.877  1.00  0.00     0.200 A 
ATOM     70  F   UNL     1      -3.768  14.956   9.020  1.00  0.00    -0.200 F 
ATOM     71  F   UNL     1      -5.134  13.771  11.060  1.00  0.00    -0.200 F 
ENDBRANCH  47  61
BRANCH  48  72
ATOM     72  C   UNL     1       8.364  10.380   8.491  1.00  0.00     0.064 A 
ATOM     73  C   UNL     1       9.314  10.257   9.515  1.00  0.00     0.173 A 
ATOM     74  C   UNL     1       8.791  10.156   7.175  1.00  0.00     0.173 A 
ATOM     75  F   UNL     1       8.957  10.478  10.789  1.00  0.00    -0.203 F 
ATOM     76  C   UNL     1      10.642   9.947   9.232  1.00  0.00     0.198 A 
ATOM     77  C   UNL     1      10.114   9.821   6.896  1.00  0.00     0.198 A 
ATOM     78  F   UNL     1       7.919  10.253   6.161  1.00  0.00    -0.203 F 
ATOM     79  F   UNL     1      11.539   9.881  10.226  1.00  0.00    -0.200 F 
ATOM     80  C   UNL     1      11.041   9.725   7.923  1.00  0.00     0.200 A 
ATOM     81  F   UNL     1      10.493   9.593   5.630  1.00  0.00    -0.200 F 
ATOM     82  F   UNL     1      12.318   9.425   7.651  1.00  0.00    -0.200 F 
ENDBRANCH  48  72
BRANCH  60  83
ATOM     83  C   UNL     1       5.313  16.133  10.964  1.00  0.00     0.064 A 
ATOM     84  C   UNL     1       5.812  17.081  10.060  1.00  0.00     0.173 A 
ATOM     85  C   UNL     1       5.301  16.463  12.328  1.00  0.00     0.173 A 
ATOM     86  F   UNL     1       5.856  16.806   8.748  1.00  0.00    -0.203 F 
ATOM     87  C   UNL     1       6.305  18.303  10.509  1.00  0.00     0.198 A 
ATOM     88  C   UNL     1       5.768  17.697  12.769  1.00  0.00     0.198 A 
ATOM     89  F   UNL     1       4.826  15.591  13.230  1.00  0.00    -0.203 F 
ATOM     90  F   UNL     1       6.821  19.177   9.633  1.00  0.00    -0.200 F 
ATOM     91  C   UNL     1       6.276  18.613  11.861  1.00  0.00     0.200 A 
ATOM     92  F   UNL     1       5.728  17.999  14.074  1.00  0.00    -0.200 F 
ATOM     93  F   UNL     1       6.746  19.792  12.289  1.00  0.00    -0.200 F 
ENDBRANCH  60  83
ENDBRANCH  34  35
ENDBRANCH  26  29
ENDBRANCH  24  25
ENDBRANCH   1  24
TORSDOF 12
