REMARK SMILES CCc1ccc(C(=O)NCc2ccc(C(=O)NCCCCNC(=O)c3ccc(-c4c5nc(c(-c6c(F)c(F)c(F)c(F)c6F)c6ccc([nH]6)c(-c6c(F)c(F)c(F)c(F)c6F)c6nc(c(-c7c(F)c(F)c(F)c(F)c7F)c7ccc4[nH]7)C=C6)C=C5)cc3)cc2)cc1
REMARK SMILES IDX 18 1 17 2 15 3 16 4 14 6 11 7 12 8 89 9 13 10 88 11 10 12
REMARK SMILES IDX 9 13 7 14 8 15 6 17 3 18 4 19 91 20 5 21 90 22 2 23 1 24
REMARK SMILES IDX 19 25 20 26 21 27 22 28 23 29 24 31 25 32 26 33 87 34 27 35
REMARK SMILES IDX 86 36 28 37 29 38 30 39 80 40 31 41 85 42 79 43 81 44 32 45
REMARK SMILES IDX 84 46 78 47 77 48 33 50 65 51 45 52 64 53 46 54 49 55 63 56
REMARK SMILES IDX 82 57 47 58 48 59 62 61 83 62 50 63 34 64 35 65 43 66 36 67
REMARK SMILES IDX 37 68 41 69 44 70 38 71 39 72 42 73 40 74 66 75 67 76 75 77
REMARK SMILES IDX 68 78 69 79 73 80 76 81 70 82 71 83 74 84 72 85 51 86 52 87
REMARK SMILES IDX 60 88 53 89 54 90 58 91 61 92 55 93 56 94 59 95 57 96
REMARK H PARENT 17 5 9 16 22 30 81 49 49 60
REMARK Flexibility Score: inf
ROOT
ATOM      1  C   UNL     1      -5.528   7.217   1.690  1.00  0.00     0.116 C 
ENDROOT
BRANCH   1   2
ATOM      2  N   UNL     1      -5.219   8.619   1.898  1.00  0.00    -0.352 N 
ATOM      3  C   UNL     1      -4.026   9.290   1.991  1.00  0.00     0.251 C 
ATOM      4  O   UNL     1      -4.067  10.515   2.107  1.00  0.00    -0.269 OA
ATOM      5  H   UNL     1      -6.012   9.195   1.988  1.00  0.00     0.163 HD
BRANCH   3   6
ATOM      6  C   UNL     1      -2.701   8.615   1.912  1.00  0.00     0.039 A 
ATOM      7  C   UNL     1      -0.112   7.481   1.711  1.00  0.00    -0.029 A 
ATOM      8  C   UNL     1      -0.354   8.790   1.276  1.00  0.00     0.006 A 
ATOM      9  C   UNL     1      -1.177   6.763   2.272  1.00  0.00     0.006 A 
ATOM     10  C   UNL     1      -1.633   9.350   1.380  1.00  0.00     0.014 A 
ATOM     11  C   UNL     1      -2.449   7.330   2.390  1.00  0.00     0.014 A 
BRANCH   7  12
ATOM     12  C   UNL     1       1.268   6.876   1.598  1.00  0.00     0.152 C 
BRANCH  12  13
ATOM     13  N   UNL     1       1.724   6.387   2.880  1.00  0.00    -0.348 N 
ATOM     14  C   UNL     1       1.845   5.161   3.469  1.00  0.00     0.251 C 
ATOM     15  O   UNL     1       2.299   5.161   4.617  1.00  0.00    -0.269 OA
ATOM     16  H   UNL     1       2.019   7.116   3.473  1.00  0.00     0.164 HD
BRANCH  14  17
ATOM     17  C   UNL     1       1.482   3.849   2.849  1.00  0.00     0.039 A 
ATOM     18  C   UNL     1       0.867   1.234   1.917  1.00  0.00    -0.048 A 
ATOM     19  C   UNL     1       1.630   1.413   3.072  1.00  0.00     0.004 A 
ATOM     20  C   UNL     1       0.397   2.369   1.248  1.00  0.00     0.004 A 
ATOM     21  C   UNL     1       1.932   2.701   3.528  1.00  0.00     0.014 A 
ATOM     22  C   UNL     1       0.697   3.659   1.711  1.00  0.00     0.014 A 
BRANCH  18  23
ATOM     23  C   UNL     1       0.532  -0.153   1.428  1.00  0.00     0.032 C 
ATOM     24  C   UNL     1       1.058  -0.431   0.026  1.00  0.00     0.009 C 
ENDBRANCH  18  23
ENDBRANCH  14  17
ENDBRANCH  12  13
ENDBRANCH   7  12
ENDBRANCH   3   6
ENDBRANCH   1   2
BRANCH   1  25
ATOM     25  C   UNL     1      -5.926   6.545   3.006  1.00  0.00     0.023 C 
BRANCH  25  26
ATOM     26  C   UNL     1      -7.322   6.921   3.513  1.00  0.00     0.023 C 
BRANCH  26  27
ATOM     27  C   UNL     1      -8.472   6.517   2.597  1.00  0.00     0.116 C 
BRANCH  27  28
ATOM     28  N   UNL     1      -8.527   5.086   2.342  1.00  0.00    -0.352 N 
ATOM     29  C   UNL     1      -9.632   4.294   2.130  1.00  0.00     0.251 C 
ATOM     30  H   UNL     1      -7.659   4.623   2.317  1.00  0.00     0.163 HD
ATOM     31  O   UNL     1      -9.519   3.083   2.030  1.00  0.00    -0.269 OA
BRANCH  29  32
ATOM     32  C   UNL     1     -10.968   4.925   2.067  1.00  0.00     0.039 A 
ATOM     33  C   UNL     1     -11.997   4.393   2.847  1.00  0.00     0.014 A 
ATOM     34  C   UNL     1     -11.194   6.047   1.266  1.00  0.00     0.014 A 
ATOM     35  C   UNL     1     -13.239   5.029   2.877  1.00  0.00     0.010 A 
ATOM     36  C   UNL     1     -12.411   6.717   1.347  1.00  0.00     0.010 A 
ATOM     37  C   UNL     1     -13.443   6.216   2.156  1.00  0.00    -0.014 A 
BRANCH  37  38
ATOM     38  C   UNL     1     -14.728   6.955   2.240  1.00  0.00     0.031 A 
ATOM     39  C   UNL     1     -15.599   7.094   1.024  1.00  0.00     0.074 A 
ATOM     40  C   UNL     1     -15.073   7.558   3.394  1.00  0.00     0.049 A 
ATOM     41  N   UNL     1     -16.714   7.763   0.876  1.00  0.00    -0.248 NA
ATOM     42  C   UNL     1     -15.142   6.414  -0.198  1.00  0.00     0.031 C 
ATOM     43  C   UNL     1     -14.286   7.537   4.629  1.00  0.00     0.029 A 
ATOM     44  N   UNL     1     -16.171   8.318   3.714  1.00  0.00    -0.354 N 
ATOM     45  C   UNL     1     -17.081   7.598  -0.452  1.00  0.00     0.074 A 
ATOM     46  C   UNL     1     -16.047   6.806  -1.082  1.00  0.00     0.031 C 
ATOM     47  C   UNL     1     -14.933   8.236   5.575  1.00  0.00     0.029 A 
ATOM     48  C   UNL     1     -16.161   8.784   5.006  1.00  0.00     0.049 A 
ATOM     49  H   UNL     1     -16.896   8.512   3.077  1.00  0.00     0.167 HD
ATOM     50  C   UNL     1     -18.192   8.048  -1.083  1.00  0.00     0.037 A 
ATOM     51  C   UNL     1     -17.040   9.571   5.655  1.00  0.00     0.037 A 
ATOM     52  C   UNL     1     -19.234   8.807  -0.444  1.00  0.00     0.049 A 
ATOM     53  C   UNL     1     -18.269  10.051   4.930  1.00  0.00     0.074 A 
ATOM     54  C   UNL     1     -20.430   9.252  -0.980  1.00  0.00     0.029 A 
ATOM     55  N   UNL     1     -19.204   9.234   0.875  1.00  0.00    -0.354 N 
ATOM     56  N   UNL     1     -18.642   9.825   3.694  1.00  0.00    -0.248 NA
ATOM     57  C   UNL     1     -19.204  10.889   5.694  1.00  0.00     0.031 C 
ATOM     58  C   UNL     1     -21.104   9.984   0.002  1.00  0.00     0.029 A 
ATOM     59  C   UNL     1     -20.352   9.954   1.165  1.00  0.00     0.049 A 
ATOM     60  H   UNL     1     -18.475   9.053   1.512  1.00  0.00     0.167 HD
ATOM     61  C   UNL     1     -19.864  10.464   3.542  1.00  0.00     0.074 A 
ATOM     62  C   UNL     1     -20.179  11.075   4.816  1.00  0.00     0.031 C 
ATOM     63  C   UNL     1     -20.656  10.540   2.444  1.00  0.00     0.037 A 
BRANCH  50  64
ATOM     64  C   UNL     1     -18.347   7.724  -2.539  1.00  0.00     0.064 A 
ATOM     65  C   UNL     1     -18.626   6.420  -2.976  1.00  0.00     0.173 A 
ATOM     66  C   UNL     1     -18.271   8.738  -3.506  1.00  0.00     0.173 A 
ATOM     67  F   UNL     1     -18.697   5.413  -2.092  1.00  0.00    -0.203 F 
ATOM     68  C   UNL     1     -18.802   6.140  -4.328  1.00  0.00     0.198 A 
ATOM     69  C   UNL     1     -18.476   8.459  -4.855  1.00  0.00     0.198 A 
ATOM     70  F   UNL     1     -18.011  10.002  -3.142  1.00  0.00    -0.203 F 
ATOM     71  F   UNL     1     -19.028   4.880  -4.725  1.00  0.00    -0.200 F 
ATOM     72  C   UNL     1     -18.736   7.160  -5.265  1.00  0.00     0.200 A 
ATOM     73  F   UNL     1     -18.425   9.448  -5.758  1.00  0.00    -0.200 F 
ATOM     74  F   UNL     1     -18.919   6.890  -6.565  1.00  0.00    -0.200 F 
ENDBRANCH  50  64
BRANCH  51  75
ATOM     75  C   UNL     1     -16.806   9.940   7.076  1.00  0.00     0.064 A 
ATOM     76  C   UNL     1     -17.631   9.440   8.094  1.00  0.00     0.173 A 
ATOM     77  C   UNL     1     -15.774  10.815   7.444  1.00  0.00     0.173 A 
ATOM     78  F   UNL     1     -18.645   8.617   7.790  1.00  0.00    -0.203 F 
ATOM     79  C   UNL     1     -17.449   9.823   9.421  1.00  0.00     0.198 A 
ATOM     80  C   UNL     1     -15.575  11.174   8.775  1.00  0.00     0.198 A 
ATOM     81  F   UNL     1     -14.954  11.317   6.509  1.00  0.00    -0.203 F 
ATOM     82  F   UNL     1     -18.286   9.373  10.366  1.00  0.00    -0.200 F 
ATOM     83  C   UNL     1     -16.419  10.687   9.761  1.00  0.00     0.200 A 
ATOM     84  F   UNL     1     -14.570  11.998   9.102  1.00  0.00    -0.200 F 
ATOM     85  F   UNL     1     -16.246  11.056  11.038  1.00  0.00    -0.200 F 
ENDBRANCH  51  75
BRANCH  63  86
ATOM     86  C   UNL     1     -21.958  11.273   2.583  1.00  0.00     0.064 A 
ATOM     87  C   UNL     1     -22.009  12.670   2.692  1.00  0.00     0.173 A 
ATOM     88  C   UNL     1     -23.172  10.568   2.565  1.00  0.00     0.173 A 
ATOM     89  F   UNL     1     -20.876  13.386   2.729  1.00  0.00    -0.203 F 
ATOM     90  C   UNL     1     -23.228  13.333   2.802  1.00  0.00     0.198 A 
ATOM     91  C   UNL     1     -24.389  11.238   2.645  1.00  0.00     0.198 A 
ATOM     92  F   UNL     1     -23.177   9.231   2.456  1.00  0.00    -0.203 F 
ATOM     93  F   UNL     1     -23.253  14.665   2.951  1.00  0.00    -0.200 F 
ATOM     94  C   UNL     1     -24.416  12.618   2.770  1.00  0.00     0.200 A 
ATOM     95  F   UNL     1     -25.537  10.546   2.600  1.00  0.00    -0.200 F 
ATOM     96  F   UNL     1     -25.589  13.260   2.868  1.00  0.00    -0.200 F 
ENDBRANCH  63  86
ENDBRANCH  37  38
ENDBRANCH  29  32
ENDBRANCH  27  28
ENDBRANCH  26  27
ENDBRANCH  25  26
ENDBRANCH   1  25
TORSDOF 15
