REMARK SMILES Cc1nn([C@H]2CCS(=O)(=O)C2)c(C)c1[C@@H]([NH3+])C(=O)NCCCCNC(=O)c1ccc(-c2c3nc(c(-c4c(F)c(F)c(F)c(F)c4F)c4ccc([nH]4)c(-c4c(F)c(F)c(F)c(F)c4F)c4nc(c(-c5c(F)c(F)c(F)c(F)c5F)c5ccc2[nH]5)C=C4)C=C3)cc1
REMARK SMILES IDX 21 1 20 2 19 3 17 4 18 5 15 7 14 8 1 9 2 10 3 11 4 12 12 13
REMARK SMILES IDX 13 14 5 15 6 16 11 17 7 18 8 19 9 20 10 21 16 22 22 26 23 27
REMARK SMILES IDX 24 28 25 29 26 31 27 32 28 33 89 34 29 35 88 36 30 37 31 38
REMARK SMILES IDX 32 39 82 40 33 41 87 42 81 43 83 44 34 45 86 46 80 47 79 48
REMARK SMILES IDX 35 50 67 51 47 52 66 53 48 54 51 55 65 56 84 57 49 58 50 59
REMARK SMILES IDX 64 61 85 62 52 63 36 64 37 65 45 66 38 67 39 68 43 69 46 70
REMARK SMILES IDX 40 71 41 72 44 73 42 74 68 75 69 76 77 77 70 78 71 79 75 80
REMARK SMILES IDX 78 81 72 82 73 83 76 84 74 85 53 86 54 87 62 88 55 89 56 90
REMARK SMILES IDX 60 91 63 92 57 93 58 94 61 95 59 96
REMARK H PARENT 19 6 16 23 16 24 16 25 24 30 83 49 51 60
REMARK Flexibility Score: inf
ROOT
ATOM      1  C   UNL     1       1.921  -8.672   2.397  1.00  0.00     0.023 C 
ENDROOT
BRANCH   1   2
ATOM      2  C   UNL     1       3.415  -8.997   2.327  1.00  0.00     0.116 C 
BRANCH   2   3
ATOM      3  N   UNL     1       3.789  -9.628   1.079  1.00  0.00    -0.351 N 
ATOM      4  C   UNL     1       4.295  -9.080  -0.070  1.00  0.00     0.283 C 
ATOM      5  O   UNL     1       4.575  -9.874  -0.979  1.00  0.00    -0.268 OA
ATOM      6  H   UNL     1       3.660 -10.604   1.052  1.00  0.00     0.163 HD
BRANCH   4   7
ATOM      7  C   UNL     1       4.573  -7.557  -0.260  1.00  0.00     0.306 C 
BRANCH   7   8
ATOM      8  C   UNL     1       3.327  -6.709  -0.251  1.00  0.00     0.063 A 
ATOM      9  C   UNL     1       2.807  -6.734  -2.828  1.00  0.00     0.069 C 
ATOM     10  C   UNL     1       2.510  -6.458  -1.396  1.00  0.00     0.069 A 
ATOM     11  N   UNL     1       1.385  -5.812  -1.075  1.00  0.00    -0.177 NA
ATOM     12  N   UNL     1       1.477  -5.614   0.252  1.00  0.00    -0.265 N 
ATOM     13  C   UNL     1       2.750  -5.882   0.718  1.00  0.00     0.046 A 
ATOM     14  C   UNL     1       3.297  -5.336   1.988  1.00  0.00     0.067 C 
BRANCH  12  15
ATOM     15  C   UNL     1       0.278  -5.138   0.947  1.00  0.00     0.123 C 
ATOM     16  C   UNL     1      -1.000  -5.868   0.458  1.00  0.00     0.044 C 
ATOM     17  C   UNL     1       0.285  -5.364   2.450  1.00  0.00     0.164 C 
ATOM     18  C   UNL     1      -2.139  -5.519   1.405  1.00  0.00     0.139 C 
ATOM     19  S   UNL     1      -1.387  -5.272   2.994  1.00  0.00     0.152 S 
ATOM     20  O   UNL     1      -1.646  -3.927   3.435  1.00  0.00    -0.229 OA
ATOM     21  O   UNL     1      -1.636  -6.447   3.819  1.00  0.00    -0.229 OA
ENDBRANCH  12  15
ENDBRANCH   7   8
BRANCH   7  22
ATOM     22  N   UNL     1       5.598  -7.080   0.681  1.00  0.00    -0.343 N 
ATOM     23  H   UNL     1       5.253  -7.176   1.636  1.00  0.00     0.345 HD
ATOM     24  H   UNL     1       5.805  -6.100   0.491  1.00  0.00     0.345 HD
ATOM     25  H   UNL     1       6.447  -7.635   0.569  1.00  0.00     0.345 HD
ENDBRANCH   7  22
ENDBRANCH   4   7
ENDBRANCH   2   3
ENDBRANCH   1   2
BRANCH   1  26
ATOM     26  C   UNL     1       0.992  -9.665   3.106  1.00  0.00     0.023 C 
BRANCH  26  27
ATOM     27  C   UNL     1       1.066  -9.582   4.629  1.00  0.00     0.116 C 
BRANCH  27  28
ATOM     28  N   UNL     1       0.490  -8.356   5.212  1.00  0.00    -0.352 N 
ATOM     29  C   UNL     1       0.587  -7.933   6.533  1.00  0.00     0.251 C 
ATOM     30  H   UNL     1      -0.017  -7.775   4.600  1.00  0.00     0.163 HD
ATOM     31  O   UNL     1      -0.157  -7.093   7.021  1.00  0.00    -0.269 OA
BRANCH  29  32
ATOM     32  C   UNL     1       1.658  -8.517   7.350  1.00  0.00     0.039 A 
ATOM     33  C   UNL     1       1.422  -9.114   8.595  1.00  0.00     0.014 A 
ATOM     34  C   UNL     1       2.899  -8.575   6.734  1.00  0.00     0.014 A 
ATOM     35  C   UNL     1       2.439  -9.870   9.174  1.00  0.00     0.010 A 
ATOM     36  C   UNL     1       3.800  -9.489   7.190  1.00  0.00     0.010 A 
ATOM     37  C   UNL     1       3.616 -10.069   8.445  1.00  0.00    -0.014 A 
BRANCH  37  38
ATOM     38  C   UNL     1       4.684 -10.958   8.879  1.00  0.00     0.031 A 
ATOM     39  C   UNL     1       4.319 -12.401   8.941  1.00  0.00     0.074 A 
ATOM     40  C   UNL     1       5.960 -10.508   8.847  1.00  0.00     0.049 A 
ATOM     41  N   UNL     1       4.359 -13.188   9.965  1.00  0.00    -0.248 NA
ATOM     42  C   UNL     1       3.714 -13.024   7.749  1.00  0.00     0.031 C 
ATOM     43  C   UNL     1       6.435  -9.171   8.457  1.00  0.00     0.029 A 
ATOM     44  N   UNL     1       7.120 -11.200   8.988  1.00  0.00    -0.354 N 
ATOM     45  C   UNL     1       3.989 -14.450   9.499  1.00  0.00     0.074 A 
ATOM     46  C   UNL     1       3.398 -14.236   8.207  1.00  0.00     0.031 C 
ATOM     47  C   UNL     1       7.747  -9.224   8.150  1.00  0.00     0.029 A 
ATOM     48  C   UNL     1       8.242 -10.543   8.483  1.00  0.00     0.049 A 
ATOM     49  H   UNL     1       7.166 -12.088   9.410  1.00  0.00     0.167 HD
ATOM     50  C   UNL     1       4.459 -15.582  10.098  1.00  0.00     0.037 A 
ATOM     51  C   UNL     1       9.470 -11.091   8.303  1.00  0.00     0.037 A 
ATOM     52  C   UNL     1       5.017 -15.271  11.394  1.00  0.00     0.049 A 
ATOM     53  C   UNL     1       9.520 -12.314   9.150  1.00  0.00     0.074 A 
ATOM     54  C   UNL     1       4.524 -14.696  12.550  1.00  0.00     0.029 A 
ATOM     55  N   UNL     1       6.386 -15.192  11.498  1.00  0.00    -0.354 N 
ATOM     56  N   UNL     1       9.476 -12.283  10.456  1.00  0.00    -0.248 NA
ATOM     57  C   UNL     1       9.094 -13.565   8.539  1.00  0.00     0.031 C 
ATOM     58  C   UNL     1       5.580 -13.857  13.018  1.00  0.00     0.029 A 
ATOM     59  C   UNL     1       6.681 -14.043  12.182  1.00  0.00     0.049 A 
ATOM     60  H   UNL     1       7.035 -15.843  11.145  1.00  0.00     0.167 HD
ATOM     61  C   UNL     1       8.623 -13.321  10.805  1.00  0.00     0.074 A 
ATOM     62  C   UNL     1       8.467 -14.113   9.585  1.00  0.00     0.031 C 
ATOM     63  C   UNL     1       7.875 -13.266  11.948  1.00  0.00     0.037 A 
BRANCH  50  64
ATOM     64  C   UNL     1       4.804 -16.877   9.384  1.00  0.00     0.064 A 
ATOM     65  C   UNL     1       5.279 -17.962  10.155  1.00  0.00     0.173 A 
ATOM     66  C   UNL     1       4.998 -17.004   7.992  1.00  0.00     0.173 A 
ATOM     67  F   UNL     1       5.134 -17.970  11.489  1.00  0.00    -0.203 F 
ATOM     68  C   UNL     1       6.009 -19.011   9.591  1.00  0.00     0.198 A 
ATOM     69  C   UNL     1       5.683 -18.081   7.427  1.00  0.00     0.198 A 
ATOM     70  F   UNL     1       4.638 -16.056   7.122  1.00  0.00    -0.203 F 
ATOM     71  F   UNL     1       6.569 -19.933  10.386  1.00  0.00    -0.200 F 
ATOM     72  C   UNL     1       6.225 -19.061   8.228  1.00  0.00     0.200 A 
ATOM     73  F   UNL     1       5.885 -18.107   6.102  1.00  0.00    -0.200 F 
ATOM     74  F   UNL     1       6.990 -20.020   7.692  1.00  0.00    -0.200 F 
ENDBRANCH  50  64
BRANCH  51  75
ATOM     75  C   UNL     1      10.435 -10.821   7.207  1.00  0.00     0.064 A 
ATOM     76  C   UNL     1      11.772 -11.242   7.293  1.00  0.00     0.173 A 
ATOM     77  C   UNL     1      10.005 -10.377   5.939  1.00  0.00     0.173 A 
ATOM     78  F   UNL     1      12.252 -11.724   8.448  1.00  0.00    -0.203 F 
ATOM     79  C   UNL     1      12.619 -11.238   6.177  1.00  0.00     0.198 A 
ATOM     80  C   UNL     1      10.851 -10.366   4.829  1.00  0.00     0.198 A 
ATOM     81  F   UNL     1       8.727 -10.031   5.727  1.00  0.00    -0.203 F 
ATOM     82  F   UNL     1      13.872 -11.703   6.285  1.00  0.00    -0.200 F 
ATOM     83  C   UNL     1      12.155 -10.809   4.944  1.00  0.00     0.200 A 
ATOM     84  F   UNL     1      10.377  -9.982   3.635  1.00  0.00    -0.200 F 
ATOM     85  F   UNL     1      12.946 -10.860   3.864  1.00  0.00    -0.200 F 
ENDBRANCH  51  75
BRANCH  63  86
ATOM     86  C   UNL     1       8.164 -12.169  12.937  1.00  0.00     0.064 A 
ATOM     87  C   UNL     1       7.994 -10.799  12.669  1.00  0.00     0.173 A 
ATOM     88  C   UNL     1       8.451 -12.530  14.258  1.00  0.00     0.173 A 
ATOM     89  F   UNL     1       7.617 -10.374  11.459  1.00  0.00    -0.203 F 
ATOM     90  C   UNL     1       8.145  -9.838  13.668  1.00  0.00     0.198 A 
ATOM     91  C   UNL     1       8.565 -11.573  15.263  1.00  0.00     0.198 A 
ATOM     92  F   UNL     1       8.564 -13.826  14.589  1.00  0.00    -0.203 F 
ATOM     93  F   UNL     1       7.981  -8.537  13.380  1.00  0.00    -0.200 F 
ATOM     94  C   UNL     1       8.421 -10.227  14.966  1.00  0.00     0.200 A 
ATOM     95  F   UNL     1       8.780 -11.959  16.527  1.00  0.00    -0.200 F 
ATOM     96  F   UNL     1       8.522  -9.309  15.937  1.00  0.00    -0.200 F 
ENDBRANCH  63  86
ENDBRANCH  37  38
ENDBRANCH  29  32
ENDBRANCH  27  28
ENDBRANCH  26  27
ENDBRANCH   1  26
TORSDOF 14
