REMARK SMILES O=C(NCCCCNC(=O)[C@@H](F)[C@H]1CCCc2cccnc21)c1ccc(-c2c3nc(c(-c4c(F)c(F)c(F)c(F)c4F)c4ccc([nH]4)c(-c4c(F)c(F)c(F)c(F)c4F)c4nc(c(-c5c(F)c(F)c(F)c(F)c5F)c5ccc2[nH]5)C=C4)C=C3)cc1
REMARK SMILES IDX 5 1 4 2 3 3 1 4 2 5 23 7 24 8 85 9 25 10 84 11 26 12 27 13
REMARK SMILES IDX 28 14 78 15 29 16 83 17 77 18 79 19 30 20 82 21 76 22 75 23
REMARK SMILES IDX 31 25 63 26 43 27 62 28 44 29 47 30 61 31 80 32 45 33 46 34
REMARK SMILES IDX 60 36 81 37 48 38 32 39 33 40 41 41 34 42 35 43 39 44 42 45
REMARK SMILES IDX 36 46 37 47 40 48 38 49 64 50 65 51 73 52 66 53 67 54 71 55
REMARK SMILES IDX 74 56 68 57 69 58 72 59 70 60 49 61 50 62 58 63 51 64 52 65
REMARK SMILES IDX 56 66 59 67 53 68 54 69 57 70 55 71 6 72 7 73 8 74 9 75
REMARK SMILES IDX 10 77 11 78 12 79 13 80 14 81 22 82 15 83 17 84 21 85 16 86
REMARK SMILES IDX 18 87 20 88 19 89
REMARK H PARENT 3 6 79 24 47 35 8 76
REMARK Flexibility Score: inf
ROOT
ATOM      1  C   UNL     1       1.678   9.653  -1.809  1.00  0.00     0.023 C 
ENDROOT
BRANCH   1   2
ATOM      2  C   UNL     1       2.632   9.735  -0.624  1.00  0.00     0.116 C 
BRANCH   2   3
ATOM      3  N   UNL     1       3.629  10.794  -0.727  1.00  0.00    -0.352 N 
ATOM      4  O   UNL     1       4.758  12.657  -0.107  1.00  0.00    -0.269 OA
ATOM      5  C   UNL     1       3.922  11.806   0.165  1.00  0.00     0.251 C 
ATOM      6  H   UNL     1       4.170  10.786  -1.549  1.00  0.00     0.163 HD
BRANCH   5   7
ATOM      7  C   UNL     1       3.177  11.878   1.441  1.00  0.00     0.039 A 
ATOM      8  C   UNL     1       3.015  10.734   2.220  1.00  0.00     0.014 A 
ATOM      9  C   UNL     1       2.566  13.079   1.815  1.00  0.00     0.014 A 
ATOM     10  C   UNL     1       2.073  10.734   3.239  1.00  0.00     0.010 A 
ATOM     11  C   UNL     1       1.700  13.103   2.915  1.00  0.00     0.010 A 
ATOM     12  C   UNL     1       1.401  11.916   3.600  1.00  0.00    -0.014 A 
BRANCH  12  13
ATOM     13  C   UNL     1       0.415  11.858   4.712  1.00  0.00     0.031 A 
ATOM     14  C   UNL     1      -1.049  12.130   4.487  1.00  0.00     0.074 A 
ATOM     15  C   UNL     1       0.845  11.457   5.924  1.00  0.00     0.049 A 
ATOM     16  N   UNL     1      -2.045  12.024   5.333  1.00  0.00    -0.248 NA
ATOM     17  C   UNL     1      -1.453  12.588   3.149  1.00  0.00     0.031 C 
ATOM     18  C   UNL     1       2.243  11.186   6.268  1.00  0.00     0.029 A 
ATOM     19  N   UNL     1       0.158  11.164   7.074  1.00  0.00    -0.354 N 
ATOM     20  C   UNL     1      -3.183  12.415   4.639  1.00  0.00     0.074 A 
ATOM     21  C   UNL     1      -2.755  12.786   3.307  1.00  0.00     0.031 C 
ATOM     22  C   UNL     1       2.303  10.695   7.513  1.00  0.00     0.029 A 
ATOM     23  C   UNL     1       0.959  10.679   8.078  1.00  0.00     0.049 A 
ATOM     24  H   UNL     1      -0.814  11.289   7.169  1.00  0.00     0.167 HD
ATOM     25  C   UNL     1      -4.467  12.452   5.073  1.00  0.00     0.037 A 
ATOM     26  C   UNL     1       0.649  10.268   9.322  1.00  0.00     0.037 A 
ATOM     27  C   UNL     1      -4.894  12.063   6.394  1.00  0.00     0.049 A 
ATOM     28  C   UNL     1      -0.784  10.297   9.763  1.00  0.00     0.074 A 
ATOM     29  C   UNL     1      -6.173  12.060   6.924  1.00  0.00     0.029 A 
ATOM     30  N   UNL     1      -4.050  11.600   7.392  1.00  0.00    -0.354 N 
ATOM     31  N   UNL     1      -1.847  10.664   9.091  1.00  0.00    -0.248 NA
ATOM     32  C   UNL     1      -1.059   9.858  11.137  1.00  0.00     0.031 C 
ATOM     33  C   UNL     1      -6.099  11.625   8.252  1.00  0.00     0.029 A 
ATOM     34  C   UNL     1      -4.780  11.317   8.537  1.00  0.00     0.049 A 
ATOM     35  H   UNL     1      -3.076  11.487   7.302  1.00  0.00     0.167 HD
ATOM     36  C   UNL     1      -2.916  10.508   9.959  1.00  0.00     0.074 A 
ATOM     37  C   UNL     1      -2.378   9.971  11.193  1.00  0.00     0.031 C 
ATOM     38  C   UNL     1      -4.225  10.799   9.760  1.00  0.00     0.037 A 
BRANCH  25  39
ATOM     39  C   UNL     1      -5.518  12.934   4.114  1.00  0.00     0.064 A 
ATOM     40  C   UNL     1      -5.958  12.139   3.046  1.00  0.00     0.173 A 
ATOM     41  C   UNL     1      -6.145  14.175   4.310  1.00  0.00     0.173 A 
ATOM     42  F   UNL     1      -5.385  10.950   2.809  1.00  0.00    -0.203 F 
ATOM     43  C   UNL     1      -6.979  12.573   2.203  1.00  0.00     0.198 A 
ATOM     44  C   UNL     1      -7.181  14.595   3.479  1.00  0.00     0.198 A 
ATOM     45  F   UNL     1      -5.767  14.971   5.321  1.00  0.00    -0.203 F 
ATOM     46  F   UNL     1      -7.364  11.808   1.172  1.00  0.00    -0.200 F 
ATOM     47  C   UNL     1      -7.595  13.795   2.425  1.00  0.00     0.200 A 
ATOM     48  F   UNL     1      -7.784  15.771   3.703  1.00  0.00    -0.200 F 
ATOM     49  F   UNL     1      -8.587  14.204   1.621  1.00  0.00    -0.200 F 
ENDBRANCH  25  39
BRANCH  26  50
ATOM     50  C   UNL     1       1.728   9.804  10.230  1.00  0.00     0.064 A 
ATOM     51  C   UNL     1       1.829   8.460  10.610  1.00  0.00     0.173 A 
ATOM     52  C   UNL     1       2.694  10.697  10.718  1.00  0.00     0.173 A 
ATOM     53  F   UNL     1       0.919   7.572  10.182  1.00  0.00    -0.203 F 
ATOM     54  C   UNL     1       2.849   8.028  11.456  1.00  0.00     0.198 A 
ATOM     55  C   UNL     1       3.731  10.259  11.537  1.00  0.00     0.198 A 
ATOM     56  F   UNL     1       2.645  11.993  10.376  1.00  0.00    -0.203 F 
ATOM     57  F   UNL     1       2.902   6.744  11.836  1.00  0.00    -0.200 F 
ATOM     58  C   UNL     1       3.803   8.926  11.911  1.00  0.00     0.200 A 
ATOM     59  F   UNL     1       4.661  11.126  11.957  1.00  0.00    -0.200 F 
ATOM     60  F   UNL     1       4.790   8.507  12.714  1.00  0.00    -0.200 F 
ENDBRANCH  26  50
BRANCH  38  61
ATOM     61  C   UNL     1      -5.153  10.544  10.909  1.00  0.00     0.064 A 
ATOM     62  C   UNL     1      -5.147  11.367  12.045  1.00  0.00     0.173 A 
ATOM     63  C   UNL     1      -6.053   9.470  10.877  1.00  0.00     0.173 A 
ATOM     64  F   UNL     1      -4.291  12.397  12.128  1.00  0.00    -0.203 F 
ATOM     65  C   UNL     1      -5.986  11.103  13.123  1.00  0.00     0.198 A 
ATOM     66  C   UNL     1      -6.909   9.223  11.947  1.00  0.00     0.198 A 
ATOM     67  F   UNL     1      -6.098   8.656   9.811  1.00  0.00    -0.203 F 
ATOM     68  F   UNL     1      -5.924  11.868  14.222  1.00  0.00    -0.200 F 
ATOM     69  C   UNL     1      -6.868  10.033  13.072  1.00  0.00     0.200 A 
ATOM     70  F   UNL     1      -7.766   8.194  11.894  1.00  0.00    -0.200 F 
ATOM     71  F   UNL     1      -7.670   9.775  14.114  1.00  0.00    -0.200 F 
ENDBRANCH  38  61
ENDBRANCH  12  13
ENDBRANCH   5   7
ENDBRANCH   2   3
ENDBRANCH   1   2
BRANCH   1  72
ATOM     72  C   UNL     1       2.317   9.360  -3.161  1.00  0.00     0.023 C 
BRANCH  72  73
ATOM     73  C   UNL     1       3.246   8.156  -3.193  1.00  0.00     0.116 C 
BRANCH  73  74
ATOM     74  N   UNL     1       2.601   6.883  -3.029  1.00  0.00    -0.354 N 
ATOM     75  C   UNL     1       3.010   5.684  -3.546  1.00  0.00     0.255 C 
ATOM     76  H   UNL     1       1.778   6.872  -2.487  1.00  0.00     0.163 HD
ATOM     77  O   UNL     1       2.348   4.687  -3.244  1.00  0.00    -0.272 OA
BRANCH  75  78
ATOM     78  C   UNL     1       4.217   5.601  -4.504  1.00  0.00     0.264 C 
ATOM     79  F   UNL     1       4.107   6.507  -5.528  1.00  0.00    -0.236 F 
BRANCH  78  80
ATOM     80  C   UNL     1       5.654   5.648  -3.925  1.00  0.00     0.082 C 
ATOM     81  C   UNL     1       6.540   6.842  -4.338  1.00  0.00     0.014 C 
ATOM     82  C   UNL     1       5.722   5.335  -2.457  1.00  0.00     0.050 A 
ATOM     83  C   UNL     1       6.609   8.001  -3.353  1.00  0.00     0.006 C 
ATOM     84  C   UNL     1       6.194   6.253  -1.520  1.00  0.00    -0.026 A 
ATOM     85  N   UNL     1       5.307   4.091  -2.116  1.00  0.00    -0.261 NA
ATOM     86  C   UNL     1       6.789   7.579  -1.898  1.00  0.00     0.037 C 
ATOM     87  C   UNL     1       6.188   5.867  -0.173  1.00  0.00     0.007 A 
ATOM     88  C   UNL     1       5.325   3.750  -0.812  1.00  0.00     0.111 A 
ATOM     89  C   UNL     1       5.745   4.600   0.190  1.00  0.00     0.020 A 
ENDBRANCH  78  80
ENDBRANCH  75  78
ENDBRANCH  73  74
ENDBRANCH  72  73
ENDBRANCH   1  72
TORSDOF 12
