REMARK SMILES Cc1cc(Br)cc2c1O[C@H](C(F)(F)F)C(C(=O)NCCCCNC(=O)c1ccc(-c3c4nc(c(-c5c(F)c(F)c(F)c(F)c5F)c5ccc([nH]5)c(-c5c(F)c(F)c(F)c(F)c5F)c5nc(c(-c6c(F)c(F)c(F)c(F)c6F)c6ccc3[nH]6)C=C5)C=C4)cc1)=C2
REMARK SMILES IDX 21 1 20 2 19 3 18 4 16 5 17 6 15 8 1 9 2 10 3 11 8 12 4 13
REMARK SMILES IDX 7 14 9 15 5 16 6 17 89 18 10 19 11 20 12 21 13 22 14 23
REMARK SMILES IDX 22 24 23 25 24 26 25 28 26 29 27 30 88 31 28 32 87 33 29 34
REMARK SMILES IDX 30 35 31 36 81 37 32 38 86 39 80 40 82 41 33 42 85 43 79 44
REMARK SMILES IDX 78 45 34 47 66 48 46 49 65 50 47 51 50 52 64 53 83 54 48 55
REMARK SMILES IDX 49 56 63 58 84 59 51 60 35 61 36 62 44 63 37 64 38 65 42 66
REMARK SMILES IDX 45 67 39 68 40 69 43 70 41 71 67 72 68 73 76 74 69 75 70 76
REMARK SMILES IDX 74 77 77 78 71 79 72 80 75 81 73 82 52 83 53 84 61 85 54 86
REMARK SMILES IDX 55 87 59 88 62 89 56 90 57 91 60 92 58 93
REMARK H PARENT 18 7 23 27 82 46 50 57
REMARK Flexibility Score: inf
ROOT
ATOM      1  C   UNL     1       0.213  -8.864  -0.128  1.00  0.00     0.023 C 
ENDROOT
BRANCH   1   2
ATOM      2  C   UNL     1       0.383  -7.344  -0.076  1.00  0.00     0.023 C 
BRANCH   2   3
ATOM      3  C   UNL     1       1.436  -6.803  -1.039  1.00  0.00     0.116 C 
BRANCH   3   4
ATOM      4  N   UNL     1       0.891  -6.572  -2.364  1.00  0.00    -0.352 N 
ATOM      5  C   UNL     1       0.501  -5.504  -3.099  1.00  0.00     0.251 C 
ATOM      6  O   UNL     1       0.072  -5.774  -4.225  1.00  0.00    -0.270 OA
ATOM      7  H   UNL     1       0.773  -7.415  -2.859  1.00  0.00     0.163 HD
BRANCH   5   8
ATOM      8  C   UNL     1       0.555  -4.081  -2.651  1.00  0.00     0.067 C 
ATOM      9  C   UNL     1       0.879   0.361  -0.081  1.00  0.00     0.048 C 
ATOM     10  C   UNL     1       0.422  -0.046  -1.453  1.00  0.00    -0.007 A 
ATOM     11  C   UNL     1       0.029   0.926  -2.382  1.00  0.00     0.023 A 
ATOM     12  C   UNL     1       0.425  -1.393  -1.844  1.00  0.00     0.130 A 
ATOM     13  C   UNL     1      -0.376   0.546  -3.663  1.00  0.00     0.019 A 
ATOM     14  C   UNL     1       0.012  -1.774  -3.125  1.00  0.00     0.019 A 
ATOM     15  O   UNL     1       0.799  -2.314  -0.906  1.00  0.00    -0.475 OA
ATOM     16  Br  UNL     1      -0.917   1.870  -4.900  1.00  0.00    -0.051 Br
ATOM     17  C   UNL     1      -0.392  -0.796  -4.038  1.00  0.00     0.027 A 
ATOM     18  C   UNL     1      -0.025  -3.189  -3.476  1.00  0.00     0.025 C 
ATOM     19  C   UNL     1       1.237  -3.608  -1.399  1.00  0.00     0.314 C 
BRANCH  19  20
ATOM     20  C   UNL     1       2.772  -3.612  -1.518  1.00  0.00     0.429 C 
ATOM     21  F   UNL     1       3.342  -3.504  -0.291  1.00  0.00    -0.167 F 
ATOM     22  F   UNL     1       3.247  -4.760  -2.058  1.00  0.00    -0.167 F 
ATOM     23  F   UNL     1       3.242  -2.597  -2.275  1.00  0.00    -0.167 F 
ENDBRANCH  19  20
ENDBRANCH   5   8
ENDBRANCH   3   4
ENDBRANCH   2   3
ENDBRANCH   1   2
BRANCH   1  24
ATOM     24  C   UNL     1       1.489  -9.674   0.094  1.00  0.00     0.116 C 
BRANCH  24  25
ATOM     25  N   UNL     1       2.226  -9.297   1.292  1.00  0.00    -0.352 N 
ATOM     26  C   UNL     1       2.990 -10.101   2.103  1.00  0.00     0.251 C 
ATOM     27  H   UNL     1       2.170  -8.350   1.554  1.00  0.00     0.163 HD
ATOM     28  O   UNL     1       3.500  -9.663   3.128  1.00  0.00    -0.269 OA
BRANCH  26  29
ATOM     29  C   UNL     1       3.146 -11.521   1.742  1.00  0.00     0.039 A 
ATOM     30  C   UNL     1       2.767 -12.495   2.668  1.00  0.00     0.014 A 
ATOM     31  C   UNL     1       3.590 -11.879   0.466  1.00  0.00     0.014 A 
ATOM     32  C   UNL     1       2.763 -13.836   2.286  1.00  0.00     0.010 A 
ATOM     33  C   UNL     1       3.529 -13.209   0.069  1.00  0.00     0.010 A 
ATOM     34  C   UNL     1       3.107 -14.196   0.973  1.00  0.00    -0.014 A 
BRANCH  34  35
ATOM     35  C   UNL     1       3.034 -15.606   0.526  1.00  0.00     0.031 A 
ATOM     36  C   UNL     1       4.293 -16.346   0.183  1.00  0.00     0.074 A 
ATOM     37  C   UNL     1       1.833 -16.197   0.380  1.00  0.00     0.049 A 
ATOM     38  N   UNL     1       4.438 -17.560  -0.283  1.00  0.00    -0.248 NA
ATOM     39  C   UNL     1       5.558 -15.616   0.365  1.00  0.00     0.031 C 
ATOM     40  C   UNL     1       0.541 -15.564   0.645  1.00  0.00     0.029 A 
ATOM     41  N   UNL     1       1.505 -17.464  -0.033  1.00  0.00    -0.354 N 
ATOM     42  C   UNL     1       5.803 -17.734  -0.456  1.00  0.00     0.074 A 
ATOM     43  C   UNL     1       6.442 -16.487  -0.097  1.00  0.00     0.031 C 
ATOM     44  C   UNL     1      -0.439 -16.454   0.419  1.00  0.00     0.029 A 
ATOM     45  C   UNL     1       0.154 -17.708  -0.036  1.00  0.00     0.049 A 
ATOM     46  H   UNL     1       2.175 -18.134  -0.300  1.00  0.00     0.167 HD
ATOM     47  C   UNL     1       6.465 -18.846  -0.854  1.00  0.00     0.037 A 
ATOM     48  C   UNL     1      -0.527 -18.822  -0.367  1.00  0.00     0.037 A 
ATOM     49  C   UNL     1       5.828 -20.092  -1.182  1.00  0.00     0.049 A 
ATOM     50  C   UNL     1       0.233 -20.041  -0.812  1.00  0.00     0.074 A 
ATOM     51  C   UNL     1       6.415 -21.289  -1.552  1.00  0.00     0.029 A 
ATOM     52  N   UNL     1       4.457 -20.302  -1.173  1.00  0.00    -0.354 N 
ATOM     53  N   UNL     1       1.527 -20.209  -0.932  1.00  0.00    -0.248 NA
ATOM     54  C   UNL     1      -0.562 -21.225  -1.170  1.00  0.00     0.031 C 
ATOM     55  C   UNL     1       5.397 -22.216  -1.795  1.00  0.00     0.029 A 
ATOM     56  C   UNL     1       4.178 -21.607  -1.543  1.00  0.00     0.049 A 
ATOM     57  H   UNL     1       3.783 -19.624  -0.938  1.00  0.00     0.167 HD
ATOM     58  C   UNL     1       1.704 -21.518  -1.358  1.00  0.00     0.074 A 
ATOM     59  C   UNL     1       0.385 -22.105  -1.464  1.00  0.00     0.031 C 
ATOM     60  C   UNL     1       2.857 -22.172  -1.637  1.00  0.00     0.037 A 
BRANCH  47  61
ATOM     61  C   UNL     1       7.959 -18.766  -0.935  1.00  0.00     0.064 A 
ATOM     62  C   UNL     1       8.749 -18.723   0.224  1.00  0.00     0.173 A 
ATOM     63  C   UNL     1       8.610 -18.772  -2.176  1.00  0.00     0.173 A 
ATOM     64  F   UNL     1       8.171 -18.700   1.434  1.00  0.00    -0.203 F 
ATOM     65  C   UNL     1      10.137 -18.666   0.141  1.00  0.00     0.198 A 
ATOM     66  C   UNL     1       9.999 -18.741  -2.255  1.00  0.00     0.198 A 
ATOM     67  F   UNL     1       7.898 -18.815  -3.313  1.00  0.00    -0.203 F 
ATOM     68  F   UNL     1      10.871 -18.584   1.260  1.00  0.00    -0.200 F 
ATOM     69  C   UNL     1      10.761 -18.683  -1.097  1.00  0.00     0.200 A 
ATOM     70  F   UNL     1      10.602 -18.766  -3.452  1.00  0.00    -0.200 F 
ATOM     71  F   UNL     1      12.098 -18.636  -1.175  1.00  0.00    -0.200 F 
ENDBRANCH  47  61
BRANCH  48  72
ATOM     72  C   UNL     1      -2.006 -18.847  -0.244  1.00  0.00     0.064 A 
ATOM     73  C   UNL     1      -2.624 -19.571   0.784  1.00  0.00     0.173 A 
ATOM     74  C   UNL     1      -2.828 -18.139  -1.132  1.00  0.00     0.173 A 
ATOM     75  F   UNL     1      -1.878 -20.278   1.646  1.00  0.00    -0.203 F 
ATOM     76  C   UNL     1      -4.011 -19.594   0.915  1.00  0.00     0.198 A 
ATOM     77  C   UNL     1      -4.214 -18.146  -0.988  1.00  0.00     0.198 A 
ATOM     78  F   UNL     1      -2.283 -17.428  -2.130  1.00  0.00    -0.203 F 
ATOM     79  F   UNL     1      -4.577 -20.317   1.890  1.00  0.00    -0.200 F 
ATOM     80  C   UNL     1      -4.804 -18.876   0.033  1.00  0.00     0.200 A 
ATOM     81  F   UNL     1      -4.978 -17.442  -1.835  1.00  0.00    -0.200 F 
ATOM     82  F   UNL     1      -6.138 -18.892   0.164  1.00  0.00    -0.200 F 
ENDBRANCH  48  72
BRANCH  60  83
ATOM     83  C   UNL     1       2.752 -23.603  -2.071  1.00  0.00     0.064 A 
ATOM     84  C   UNL     1       2.336 -23.943  -3.365  1.00  0.00     0.173 A 
ATOM     85  C   UNL     1       3.144 -24.637  -1.208  1.00  0.00     0.173 A 
ATOM     86  F   UNL     1       1.938 -22.987  -4.219  1.00  0.00    -0.203 F 
ATOM     87  C   UNL     1       2.308 -25.271  -3.779  1.00  0.00     0.198 A 
ATOM     88  C   UNL     1       3.137 -25.962  -1.634  1.00  0.00     0.198 A 
ATOM     89  F   UNL     1       3.556 -24.360   0.038  1.00  0.00    -0.203 F 
ATOM     90  F   UNL     1       1.883 -25.578  -5.013  1.00  0.00    -0.200 F 
ATOM     91  C   UNL     1       2.718 -26.278  -2.917  1.00  0.00     0.200 A 
ATOM     92  F   UNL     1       3.544 -26.933  -0.804  1.00  0.00    -0.200 F 
ATOM     93  F   UNL     1       2.705 -27.555  -3.324  1.00  0.00    -0.200 F 
ENDBRANCH  60  83
ENDBRANCH  34  35
ENDBRANCH  26  29
ENDBRANCH  24  25
ENDBRANCH   1  24
TORSDOF 12
