REMARK SMILES O=C(NCCCCNC(=O)c1c(S(=O)(=O)N2CCO[C@@H](CCO)C2)sc2c1CC[NH2+]C2)c1ccc(-c2c3nc(c(-c4c(F)c(F)c(F)c(F)c4F)c4ccc([nH]4)c(-c4c(F)c(F)c(F)c(F)c4F)c4nc(c(-c5c(F)c(F)c(F)c(F)c5F)c5ccc2[nH]5)C=C4)C=C3)cc1
REMARK SMILES IDX 7 1 6 2 5 3 4 4 3 5 1 6 2 7 32 9 33 10 94 11 34 12 93 13
REMARK SMILES IDX 35 14 36 15 37 16 87 17 38 18 92 19 86 20 88 21 39 22 91 23
REMARK SMILES IDX 85 24 84 25 40 27 72 28 52 29 71 30 53 31 56 32 70 33 89 34
REMARK SMILES IDX 54 35 55 36 69 38 90 39 57 40 41 41 42 42 50 43 43 44 44 45
REMARK SMILES IDX 48 46 51 47 45 48 46 49 49 50 47 51 73 52 74 53 82 54 75 55
REMARK SMILES IDX 76 56 80 57 83 58 77 59 78 60 81 61 79 62 58 63 59 64 67 65
REMARK SMILES IDX 60 66 61 67 65 68 68 69 62 70 63 71 66 72 64 73 8 74 9 75
REMARK SMILES IDX 10 77 11 78 12 79 27 80 25 81 26 82 28 83 31 84 29 85 30 86
REMARK SMILES IDX 13 89 14 90 15 91 16 92 17 93 24 94 18 95 20 96 19 97 21 98
REMARK SMILES IDX 22 99 23 100
REMARK H PARENT 3 8 88 26 56 37 8 76 30 87 30 88 23 101
REMARK Flexibility Score: inf
ROOT
ATOM      1  C   UNL     1       4.850   3.303   2.358  1.00  0.00     0.116 C 
ENDROOT
BRANCH   1   2
ATOM      2  C   UNL     1       4.699   3.248   0.845  1.00  0.00     0.023 C 
BRANCH   2   3
ATOM      3  C   UNL     1       5.201   1.982   0.154  1.00  0.00     0.023 C 
BRANCH   3   4
ATOM      4  C   UNL     1       4.764   0.650   0.768  1.00  0.00     0.116 C 
BRANCH   4   5
ATOM      5  N   UNL     1       3.337   0.490   0.972  1.00  0.00    -0.352 N 
ATOM      6  O   UNL     1       1.196  -0.020   0.751  1.00  0.00    -0.269 OA
ATOM      7  C   UNL     1       2.268   0.181   0.175  1.00  0.00     0.251 C 
ATOM      8  H   UNL     1       3.074   0.638   1.909  1.00  0.00     0.163 HD
BRANCH   7   9
ATOM      9  C   UNL     1       2.293   0.112  -1.313  1.00  0.00     0.039 A 
ATOM     10  C   UNL     1       3.439   0.082  -2.105  1.00  0.00     0.014 A 
ATOM     11  C   UNL     1       1.042   0.073  -1.959  1.00  0.00     0.014 A 
ATOM     12  C   UNL     1       3.344   0.094  -3.498  1.00  0.00     0.010 A 
ATOM     13  C   UNL     1       0.941   0.048  -3.352  1.00  0.00     0.010 A 
ATOM     14  C   UNL     1       2.097   0.089  -4.130  1.00  0.00    -0.014 A 
BRANCH  14  15
ATOM     15  C   UNL     1       2.075   0.040  -5.596  1.00  0.00     0.031 A 
ATOM     16  C   UNL     1       2.682  -1.158  -6.256  1.00  0.00     0.074 A 
ATOM     17  C   UNL     1       1.416   0.911  -6.386  1.00  0.00     0.049 A 
ATOM     18  N   UNL     1       3.575  -1.203  -7.198  1.00  0.00    -0.248 NA
ATOM     19  C   UNL     1       2.206  -2.478  -5.818  1.00  0.00     0.031 C 
ATOM     20  C   UNL     1       0.467   1.952  -5.991  1.00  0.00     0.029 A 
ATOM     21  N   UNL     1       1.396   0.963  -7.754  1.00  0.00    -0.354 N 
ATOM     22  C   UNL     1       3.686  -2.544  -7.563  1.00  0.00     0.074 A 
ATOM     23  C   UNL     1       2.855  -3.292  -6.652  1.00  0.00     0.031 C 
ATOM     24  C   UNL     1      -0.182   2.394  -7.091  1.00  0.00     0.029 A 
ATOM     25  C   UNL     1       0.396   1.766  -8.269  1.00  0.00     0.049 A 
ATOM     26  H   UNL     1       2.037   0.474  -8.319  1.00  0.00     0.167 HD
ATOM     27  C   UNL     1       4.359  -2.968  -8.668  1.00  0.00     0.037 A 
ATOM     28  C   UNL     1       0.022   1.872  -9.564  1.00  0.00     0.037 A 
ATOM     29  C   UNL     1       5.269  -1.990  -9.185  1.00  0.00     0.049 A 
ATOM     30  C   UNL     1       1.117   1.371 -10.426  1.00  0.00     0.074 A 
ATOM     31  C   UNL     1       6.401  -1.358  -8.710  1.00  0.00     0.029 A 
ATOM     32  N   UNL     1       4.942  -1.332 -10.342  1.00  0.00    -0.354 N 
ATOM     33  N   UNL     1       2.248   1.983 -10.632  1.00  0.00    -0.248 NA
ATOM     34  C   UNL     1       1.056  -0.003 -10.905  1.00  0.00     0.031 C 
ATOM     35  C   UNL     1       6.430  -0.088  -9.356  1.00  0.00     0.029 A 
ATOM     36  C   UNL     1       5.294  -0.019 -10.162  1.00  0.00     0.049 A 
ATOM     37  H   UNL     1       4.534  -1.726 -11.146  1.00  0.00     0.167 HD
ATOM     38  C   UNL     1       3.152   0.971 -10.903  1.00  0.00     0.074 A 
ATOM     39  C   UNL     1       2.338  -0.193 -11.217  1.00  0.00     0.031 C 
ATOM     40  C   UNL     1       4.468   1.094 -10.565  1.00  0.00     0.037 A 
BRANCH  27  41
ATOM     41  C   UNL     1       4.039  -4.232  -9.415  1.00  0.00     0.064 A 
ATOM     42  C   UNL     1       4.998  -4.834 -10.250  1.00  0.00     0.173 A 
ATOM     43  C   UNL     1       2.725  -4.732  -9.522  1.00  0.00     0.173 A 
ATOM     44  F   UNL     1       6.264  -4.391 -10.265  1.00  0.00    -0.203 F 
ATOM     45  C   UNL     1       4.662  -5.864 -11.134  1.00  0.00     0.198 A 
ATOM     46  C   UNL     1       2.401  -5.790 -10.372  1.00  0.00     0.198 A 
ATOM     47  F   UNL     1       1.706  -4.150  -8.874  1.00  0.00    -0.203 F 
ATOM     48  F   UNL     1       5.588  -6.356 -11.968  1.00  0.00    -0.200 F 
ATOM     49  C   UNL     1       3.366  -6.345 -11.189  1.00  0.00     0.200 A 
ATOM     50  F   UNL     1       1.135  -6.226 -10.434  1.00  0.00    -0.200 F 
ATOM     51  F   UNL     1       3.036  -7.311 -12.057  1.00  0.00    -0.200 F 
ENDBRANCH  27  41
BRANCH  28  52
ATOM     52  C   UNL     1      -1.306   2.221 -10.109  1.00  0.00     0.064 A 
ATOM     53  C   UNL     1      -1.452   2.730 -11.408  1.00  0.00     0.173 A 
ATOM     54  C   UNL     1      -2.487   1.838  -9.445  1.00  0.00     0.173 A 
ATOM     55  F   UNL     1      -0.373   3.067 -12.129  1.00  0.00    -0.203 F 
ATOM     56  C   UNL     1      -2.708   2.848 -12.009  1.00  0.00     0.198 A 
ATOM     57  C   UNL     1      -3.741   1.969 -10.040  1.00  0.00     0.198 A 
ATOM     58  F   UNL     1      -2.438   1.251  -8.241  1.00  0.00    -0.203 F 
ATOM     59  F   UNL     1      -2.806   3.288 -13.271  1.00  0.00    -0.200 F 
ATOM     60  C   UNL     1      -3.851   2.464 -11.326  1.00  0.00     0.200 A 
ATOM     61  F   UNL     1      -4.835   1.562  -9.381  1.00  0.00    -0.200 F 
ATOM     62  F   UNL     1      -5.051   2.536 -11.918  1.00  0.00    -0.200 F 
ENDBRANCH  28  52
BRANCH  40  63
ATOM     63  C   UNL     1       4.978   2.471 -10.263  1.00  0.00     0.064 A 
ATOM     64  C   UNL     1       4.530   3.238  -9.174  1.00  0.00     0.173 A 
ATOM     65  C   UNL     1       6.037   2.982 -11.025  1.00  0.00     0.173 A 
ATOM     66  F   UNL     1       3.598   2.763  -8.336  1.00  0.00    -0.203 F 
ATOM     67  C   UNL     1       5.078   4.489  -8.901  1.00  0.00     0.198 A 
ATOM     68  C   UNL     1       6.608   4.217 -10.727  1.00  0.00     0.198 A 
ATOM     69  F   UNL     1       6.549   2.262 -12.036  1.00  0.00    -0.203 F 
ATOM     70  F   UNL     1       4.621   5.212  -7.868  1.00  0.00    -0.200 F 
ATOM     71  C   UNL     1       6.119   4.975  -9.675  1.00  0.00     0.200 A 
ATOM     72  F   UNL     1       7.650   4.661 -11.444  1.00  0.00    -0.200 F 
ATOM     73  F   UNL     1       6.672   6.162  -9.388  1.00  0.00    -0.200 F 
ENDBRANCH  40  63
ENDBRANCH  14  15
ENDBRANCH   7   9
ENDBRANCH   4   5
ENDBRANCH   3   4
ENDBRANCH   2   3
ENDBRANCH   1   2
BRANCH   1  74
ATOM     74  N   UNL     1       6.212   3.211   2.845  1.00  0.00    -0.352 N 
ATOM     75  C   UNL     1       6.828   3.895   3.866  1.00  0.00     0.253 C 
ATOM     76  H   UNL     1       6.781   2.561   2.373  1.00  0.00     0.163 HD
ATOM     77  O   UNL     1       8.002   3.626   4.115  1.00  0.00    -0.269 OA
BRANCH  75  78
ATOM     78  C   UNL     1       6.141   4.999   4.532  1.00  0.00     0.074 A 
ATOM     79  C   UNL     1       4.899   4.927   5.166  1.00  0.00     0.148 A 
ATOM     80  C   UNL     1       6.731   6.306   4.757  1.00  0.00    -0.009 A 
ATOM     81  S   UNL     1       4.311   6.498   5.497  1.00  0.00    -0.120 S 
ATOM     82  C   UNL     1       5.855   7.162   5.391  1.00  0.00     0.064 A 
ATOM     83  C   UNL     1       8.107   6.794   4.389  1.00  0.00     0.099 C 
ATOM     84  C   UNL     1       6.196   8.523   5.910  1.00  0.00     0.308 C 
ATOM     85  C   UNL     1       8.454   8.109   5.133  1.00  0.00     0.265 C 
ATOM     86  N   UNL     1       7.342   9.084   5.175  1.00  0.00    -0.342 N 
ATOM     87  H   UNL     1       7.054   9.308   4.223  1.00  0.00     0.346 HD
ATOM     88  H   UNL     1       7.660   9.928   5.653  1.00  0.00     0.346 HD
BRANCH  79  89
ATOM     89  S   UNL     1       3.802   3.584   5.596  1.00  0.00     0.253 S 
ATOM     90  O   UNL     1       2.845   3.531   4.506  1.00  0.00    -0.206 OA
ATOM     91  O   UNL     1       4.696   2.479   5.851  1.00  0.00    -0.206 OA
BRANCH  89  92
ATOM     92  N   UNL     1       2.936   3.889   7.000  1.00  0.00    -0.192 NA
ATOM     93  C   UNL     1       1.668   4.652   6.989  1.00  0.00     0.131 C 
ATOM     94  C   UNL     1       3.591   3.837   8.323  1.00  0.00     0.134 C 
ATOM     95  C   UNL     1       1.751   5.965   7.785  1.00  0.00     0.177 C 
ATOM     96  C   UNL     1       3.750   5.260   8.873  1.00  0.00     0.135 C 
ATOM     97  O   UNL     1       2.440   5.847   9.038  1.00  0.00    -0.375 OA
BRANCH  96  98
ATOM     98  C   UNL     1       4.473   5.348  10.220  1.00  0.00     0.061 C 
BRANCH  98  99
ATOM     99  C   UNL     1       5.728   4.491  10.321  1.00  0.00     0.159 C 
BRANCH  99 100
ATOM    100  O   UNL     1       6.490   4.597   9.128  1.00  0.00    -0.396 OA
ATOM    101  H   UNL     1       5.960   4.289   8.377  1.00  0.00     0.210 HD
ENDBRANCH  99 100
ENDBRANCH  98  99
ENDBRANCH  96  98
ENDBRANCH  89  92
ENDBRANCH  79  89
ENDBRANCH  75  78
ENDBRANCH   1  74
TORSDOF 16
