REMARK SMILES C[C@H](NC(=O)c1cc(Br)nn1-c1ncccc1Cl)C(=O)NCCCCNC(=O)c1ccc(-c2c3nc(c(-c4c(F)c(F)c(F)c(F)c4F)c4ccc([nH]4)c(-c4c(F)c(F)c(F)c(F)c4F)c4nc(c(-c5c(F)c(F)c(F)c(F)c5F)c5ccc2[nH]5)C=C4)C=C3)cc1
REMARK SMILES IDX 23 1 22 2 21 3 19 4 20 5 2 7 1 8 3 9 4 10 5 12 6 13 7 14
REMARK SMILES IDX 11 15 8 16 10 17 9 18 12 19 13 20 17 21 14 22 16 23 18 24
REMARK SMILES IDX 15 25 24 26 25 27 26 28 27 29 28 31 29 32 30 33 91 34 31 35
REMARK SMILES IDX 90 36 32 37 33 38 34 39 84 40 35 41 89 42 83 43 85 44 36 45
REMARK SMILES IDX 88 46 82 47 81 48 37 50 69 51 49 52 68 53 50 54 53 55 67 56
REMARK SMILES IDX 86 57 51 58 52 59 66 61 87 62 54 63 38 64 39 65 47 66 40 67
REMARK SMILES IDX 41 68 45 69 48 70 42 71 43 72 46 73 44 74 70 75 71 76 79 77
REMARK SMILES IDX 72 78 73 79 77 80 80 81 74 82 75 83 78 84 76 85 55 86 56 87
REMARK SMILES IDX 64 88 57 89 58 90 62 91 65 92 59 93 60 94 63 95 61 96
REMARK H PARENT 21 6 3 11 26 30 85 49 53 60
REMARK Flexibility Score: inf
ROOT
ATOM      1  C   UNL     1      -1.374   2.538  -0.153  1.00  0.00     0.023 C 
ENDROOT
BRANCH   1   2
ATOM      2  C   UNL     1      -1.133   1.656   1.072  1.00  0.00     0.116 C 
BRANCH   2   3
ATOM      3  N   UNL     1      -1.647   0.307   0.908  1.00  0.00    -0.354 N 
ATOM      4  C   UNL     1      -1.012  -0.899   1.045  1.00  0.00     0.242 C 
ATOM      5  O   UNL     1      -1.712  -1.915   1.049  1.00  0.00    -0.273 OA
ATOM      6  H   UNL     1      -2.599   0.251   0.661  1.00  0.00     0.163 HD
BRANCH   4   7
ATOM      7  C   UNL     1       0.507  -0.977   1.336  1.00  0.00     0.168 C 
ATOM      8  C   UNL     1       0.721  -0.628   2.808  1.00  0.00     0.041 C 
BRANCH   7   9
ATOM      9  N   UNL     1       1.214  -0.153   0.348  1.00  0.00    -0.339 N 
ATOM     10  C   UNL     1       2.455   0.414   0.284  1.00  0.00     0.270 C 
ATOM     11  H   UNL     1       0.669   0.034  -0.451  1.00  0.00     0.164 HD
ATOM     12  O   UNL     1       2.661   1.185  -0.647  1.00  0.00    -0.267 OA
BRANCH  10  13
ATOM     13  C   UNL     1       3.444   0.120   1.280  1.00  0.00     0.135 A 
ATOM     14  C   UNL     1       3.793  -1.100   1.835  1.00  0.00     0.072 A 
ATOM     15  N   UNL     1       4.397   1.029   1.741  1.00  0.00    -0.207 N 
ATOM     16  C   UNL     1       4.901  -0.830   2.639  1.00  0.00     0.129 A 
ATOM     17  N   UNL     1       5.299   0.432   2.573  1.00  0.00    -0.159 NA
ATOM     18  Br  UNL     1       5.750  -2.132   3.691  1.00  0.00    -0.027 Br
BRANCH  15  19
ATOM     19  C   UNL     1       4.558   2.412   1.417  1.00  0.00     0.173 A 
ATOM     20  N   UNL     1       5.803   2.797   1.006  1.00  0.00    -0.236 NA
ATOM     21  C   UNL     1       3.503   3.318   1.540  1.00  0.00     0.085 A 
ATOM     22  C   UNL     1       5.971   4.084   0.634  1.00  0.00     0.113 A 
ATOM     23  C   UNL     1       3.713   4.639   1.138  1.00  0.00     0.026 A 
ATOM     24  Cl  UNL     1       2.021   2.987   2.350  1.00  0.00    -0.080 Cl
ATOM     25  C   UNL     1       4.962   5.029   0.666  1.00  0.00     0.022 A 
ENDBRANCH  15  19
ENDBRANCH  10  13
ENDBRANCH   7   9
ENDBRANCH   4   7
ENDBRANCH   2   3
ENDBRANCH   1   2
BRANCH   1  26
ATOM     26  C   UNL     1      -2.841   2.901  -0.413  1.00  0.00     0.023 C 
BRANCH  26  27
ATOM     27  C   UNL     1      -3.496   3.725   0.693  1.00  0.00     0.116 C 
BRANCH  27  28
ATOM     28  N   UNL     1      -2.888   5.041   0.846  1.00  0.00    -0.352 N 
ATOM     29  C   UNL     1      -3.147   5.991   1.811  1.00  0.00     0.251 C 
ATOM     30  H   UNL     1      -2.208   5.281   0.177  1.00  0.00     0.163 HD
ATOM     31  O   UNL     1      -2.843   7.163   1.634  1.00  0.00    -0.269 OA
BRANCH  29  32
ATOM     32  C   UNL     1      -3.822   5.584   3.057  1.00  0.00     0.039 A 
ATOM     33  C   UNL     1      -4.916   6.317   3.523  1.00  0.00     0.014 A 
ATOM     34  C   UNL     1      -3.375   4.455   3.744  1.00  0.00     0.014 A 
ATOM     35  C   UNL     1      -5.624   5.851   4.629  1.00  0.00     0.010 A 
ATOM     36  C   UNL     1      -4.123   3.952   4.793  1.00  0.00     0.010 A 
ATOM     37  C   UNL     1      -5.251   4.644   5.244  1.00  0.00    -0.014 A 
BRANCH  37  38
ATOM     38  C   UNL     1      -6.169   4.021   6.212  1.00  0.00     0.031 A 
ATOM     39  C   UNL     1      -7.563   3.806   5.713  1.00  0.00     0.074 A 
ATOM     40  C   UNL     1      -5.776   3.438   7.367  1.00  0.00     0.049 A 
ATOM     41  N   UNL     1      -8.677   4.160   6.268  1.00  0.00    -0.248 NA
ATOM     42  C   UNL     1      -7.737   3.164   4.398  1.00  0.00     0.031 C 
ATOM     43  C   UNL     1      -4.399   3.276   7.841  1.00  0.00     0.029 A 
ATOM     44  N   UNL     1      -6.505   2.741   8.296  1.00  0.00    -0.354 N 
ATOM     45  C   UNL     1      -9.694   3.644   5.464  1.00  0.00     0.074 A 
ATOM     46  C   UNL     1      -9.064   3.158   4.267  1.00  0.00     0.031 C 
ATOM     47  C   UNL     1      -4.367   2.339   8.810  1.00  0.00     0.029 A 
ATOM     48  C   UNL     1      -5.729   1.951   9.135  1.00  0.00     0.049 A 
ATOM     49  H   UNL     1      -7.486   2.796   8.362  1.00  0.00     0.167 HD
ATOM     50  C   UNL     1     -10.944   3.434   5.962  1.00  0.00     0.037 A 
ATOM     51  C   UNL     1      -6.146   1.016  10.021  1.00  0.00     0.037 A 
ATOM     52  C   UNL     1     -11.140   4.150   7.193  1.00  0.00     0.049 A 
ATOM     53  C   UNL     1      -7.557   1.292  10.367  1.00  0.00     0.074 A 
ATOM     54  C   UNL     1     -11.396   5.445   7.583  1.00  0.00     0.029 A 
ATOM     55  N   UNL     1     -10.756   3.457   8.304  1.00  0.00    -0.354 N 
ATOM     56  N   UNL     1      -7.948   2.323  11.060  1.00  0.00    -0.248 NA
ATOM     57  C   UNL     1      -8.623   0.529   9.726  1.00  0.00     0.031 C 
ATOM     58  C   UNL     1     -10.980   5.540   8.945  1.00  0.00     0.029 A 
ATOM     59  C   UNL     1     -10.494   4.299   9.348  1.00  0.00     0.049 A 
ATOM     60  H   UNL     1     -10.677   2.477   8.348  1.00  0.00     0.167 HD
ATOM     61  C   UNL     1      -9.214   2.586  10.585  1.00  0.00     0.074 A 
ATOM     62  C   UNL     1      -9.649   1.355   9.945  1.00  0.00     0.031 C 
ATOM     63  C   UNL     1      -9.641   3.871  10.433  1.00  0.00     0.037 A 
BRANCH  50  64
ATOM     64  C   UNL     1     -11.818   2.231   5.643  1.00  0.00     0.064 A 
ATOM     65  C   UNL     1     -13.108   2.155   6.216  1.00  0.00     0.173 A 
ATOM     66  C   UNL     1     -11.324   1.019   5.114  1.00  0.00     0.173 A 
ATOM     67  F   UNL     1     -13.681   3.241   6.758  1.00  0.00    -0.203 F 
ATOM     68  C   UNL     1     -13.800   0.945   6.335  1.00  0.00     0.198 A 
ATOM     69  C   UNL     1     -12.040  -0.177   5.191  1.00  0.00     0.198 A 
ATOM     70  F   UNL     1     -10.090   0.911   4.610  1.00  0.00    -0.203 F 
ATOM     71  F   UNL     1     -14.959   0.902   7.007  1.00  0.00    -0.200 F 
ATOM     72  C   UNL     1     -13.260  -0.222   5.832  1.00  0.00     0.200 A 
ATOM     73  F   UNL     1     -11.491  -1.303   4.713  1.00  0.00    -0.200 F 
ATOM     74  F   UNL     1     -13.885  -1.394   6.005  1.00  0.00    -0.200 F 
ENDBRANCH  50  64
BRANCH  51  75
ATOM     75  C   UNL     1      -5.440  -0.186  10.524  1.00  0.00     0.064 A 
ATOM     76  C   UNL     1      -5.854  -0.830  11.702  1.00  0.00     0.173 A 
ATOM     77  C   UNL     1      -4.510  -0.880   9.726  1.00  0.00     0.173 A 
ATOM     78  F   UNL     1      -6.764  -0.257  12.503  1.00  0.00    -0.203 F 
ATOM     79  C   UNL     1      -5.394  -2.105  12.043  1.00  0.00     0.198 A 
ATOM     80  C   UNL     1      -4.039  -2.147  10.076  1.00  0.00     0.198 A 
ATOM     81  F   UNL     1      -4.109  -0.384   8.546  1.00  0.00    -0.203 F 
ATOM     82  F   UNL     1      -5.869  -2.715  13.138  1.00  0.00    -0.200 F 
ATOM     83  C   UNL     1      -4.495  -2.766  11.224  1.00  0.00     0.200 A 
ATOM     84  F   UNL     1      -3.189  -2.787   9.260  1.00  0.00    -0.200 F 
ATOM     85  F   UNL     1      -4.100  -4.013  11.518  1.00  0.00    -0.200 F 
ENDBRANCH  51  75
BRANCH  63  86
ATOM     86  C   UNL     1      -9.028   4.908  11.319  1.00  0.00     0.064 A 
ATOM     87  C   UNL     1      -7.672   5.268  11.304  1.00  0.00     0.173 A 
ATOM     88  C   UNL     1      -9.875   5.598  12.197  1.00  0.00     0.173 A 
ATOM     89  F   UNL     1      -6.818   4.717  10.431  1.00  0.00    -0.203 F 
ATOM     90  C   UNL     1      -7.178   6.236  12.177  1.00  0.00     0.198 A 
ATOM     91  C   UNL     1      -9.388   6.594  13.036  1.00  0.00     0.198 A 
ATOM     92  F   UNL     1     -11.189   5.323  12.222  1.00  0.00    -0.203 F 
ATOM     93  F   UNL     1      -5.872   6.539  12.175  1.00  0.00    -0.200 F 
ATOM     94  C   UNL     1      -8.037   6.900  13.038  1.00  0.00     0.200 A 
ATOM     95  F   UNL     1     -10.231   7.262  13.835  1.00  0.00    -0.200 F 
ATOM     96  F   UNL     1      -7.567   7.850  13.859  1.00  0.00    -0.200 F 
ENDBRANCH  63  86
ENDBRANCH  37  38
ENDBRANCH  29  32
ENDBRANCH  27  28
ENDBRANCH  26  27
ENDBRANCH   1  26
TORSDOF 14
