REMARK SMILES CN1C(=O)/C(=C\c2cccc(Cl)c2)Sc2ccc(C(=O)NCCCCNC(=O)c3ccc(-c4c5nc(c(-c6c(F)c(F)c(F)c(F)c6F)c6ccc([nH]6)c(-c6c(F)c(F)c(F)c(F)c6F)c6nc(c(-c7c(F)c(F)c(F)c(F)c7F)c7ccc4[nH]7)C=C6)C=C5)cc3)cc21
REMARK SMILES IDX 24 1 23 2 22 3 21 4 19 5 20 6 18 8 1 9 2 10 3 11 93 12 4 13
REMARK SMILES IDX 5 14 15 15 92 16 6 17 14 18 16 19 17 20 7 21 8 22 13 23 9 24
REMARK SMILES IDX 11 25 10 26 12 27 25 28 26 29 27 30 28 32 29 33 30 34 91 35
REMARK SMILES IDX 31 36 90 37 32 38 33 39 34 40 84 41 35 42 89 43 83 44 85 45
REMARK SMILES IDX 36 46 88 47 82 48 81 49 37 51 69 52 49 53 68 54 50 55 53 56
REMARK SMILES IDX 67 57 86 58 51 59 52 60 66 62 87 63 54 64 38 65 39 66 47 67
REMARK SMILES IDX 40 68 41 69 45 70 48 71 42 72 43 73 46 74 44 75 70 76 71 77
REMARK SMILES IDX 79 78 72 79 73 80 77 81 80 82 74 83 75 84 78 85 76 86 55 87
REMARK SMILES IDX 56 88 64 89 57 90 58 91 62 92 65 93 59 94 60 95 63 96 61 97
REMARK H PARENT 21 7 26 31 85 50 53 61
REMARK Flexibility Score: inf
ROOT
ATOM      1  C   UNL     1      -1.855  -8.880  -1.184  1.00  0.00     0.023 C 
ENDROOT
BRANCH   1   2
ATOM      2  C   UNL     1      -1.105  -8.023  -0.164  1.00  0.00     0.023 C 
BRANCH   2   3
ATOM      3  C   UNL     1       0.203  -7.411  -0.674  1.00  0.00     0.116 C 
BRANCH   3   4
ATOM      4  N   UNL     1      -0.048  -6.273  -1.533  1.00  0.00    -0.352 N 
ATOM      5  C   UNL     1      -0.115  -4.927  -1.285  1.00  0.00     0.251 C 
ATOM      6  O   UNL     1      -0.273  -4.190  -2.261  1.00  0.00    -0.269 OA
ATOM      7  H   UNL     1      -0.198  -6.512  -2.476  1.00  0.00     0.163 HD
BRANCH   5   8
ATOM      8  C   UNL     1       0.005  -4.308   0.071  1.00  0.00     0.041 A 
ATOM      9  C   UNL     1       0.479  -0.071   0.025  1.00  0.00     0.153 C 
ATOM     10  N   UNL     1       0.500  -0.779   1.300  1.00  0.00    -0.310 N 
ATOM     11  C   UNL     1       0.561   0.006   2.450  1.00  0.00     0.264 C 
ATOM     12  C   UNL     1       0.353  -2.203   1.317  1.00  0.00     0.058 A 
ATOM     13  O   UNL     1       0.335   1.216   2.435  1.00  0.00    -0.268 OA
ATOM     14  C   UNL     1       0.983  -0.668   3.718  1.00  0.00     0.078 C 
ATOM     15  C   UNL     1       0.165  -2.901   2.519  1.00  0.00     0.036 A 
ATOM     16  C   UNL     1       0.297  -2.931   0.111  1.00  0.00     0.041 A 
ATOM     17  C   UNL     1       1.899  -0.129   4.544  1.00  0.00     0.029 C 
ATOM     18  S   UNL     1       0.214  -2.151   4.126  1.00  0.00    -0.082 SA
ATOM     19  C   UNL     1      -0.129  -4.269   2.488  1.00  0.00     0.018 A 
ATOM     20  C   UNL     1      -0.232  -4.957   1.278  1.00  0.00     0.015 A 
BRANCH  17  21
ATOM     21  C   UNL     1       2.599   1.136   4.307  1.00  0.00    -0.023 A 
ATOM     22  C   UNL     1       1.991   2.346   4.664  1.00  0.00     0.008 A 
ATOM     23  C   UNL     1       3.847   1.149   3.677  1.00  0.00     0.028 A 
ATOM     24  C   UNL     1       2.609   3.561   4.371  1.00  0.00     0.002 A 
ATOM     25  C   UNL     1       4.464   2.368   3.394  1.00  0.00     0.041 A 
ATOM     26  C   UNL     1       3.848   3.573   3.733  1.00  0.00     0.020 A 
ATOM     27  Cl  UNL     1       5.993   2.387   2.604  1.00  0.00    -0.084 Cl
ENDBRANCH  17  21
ENDBRANCH   5   8
ENDBRANCH   3   4
ENDBRANCH   2   3
ENDBRANCH   1   2
BRANCH   1  28
ATOM     28  C   UNL     1      -1.099 -10.106  -1.676  1.00  0.00     0.116 C 
BRANCH  28  29
ATOM     29  N   UNL     1      -0.684 -11.010  -0.613  1.00  0.00    -0.352 N 
ATOM     30  C   UNL     1      -0.461 -12.366  -0.700  1.00  0.00     0.251 C 
ATOM     31  H   UNL     1      -0.545 -10.603   0.273  1.00  0.00     0.163 HD
ATOM     32  O   UNL     1      -0.181 -13.026   0.291  1.00  0.00    -0.269 OA
BRANCH  30  33
ATOM     33  C   UNL     1      -0.635 -13.018  -2.012  1.00  0.00     0.039 A 
ATOM     34  C   UNL     1       0.030 -12.519  -3.137  1.00  0.00     0.014 A 
ATOM     35  C   UNL     1      -1.558 -14.057  -2.130  1.00  0.00     0.014 A 
ATOM     36  C   UNL     1      -0.359 -12.944  -4.400  1.00  0.00     0.010 A 
ATOM     37  C   UNL     1      -1.899 -14.530  -3.399  1.00  0.00     0.010 A 
ATOM     38  C   UNL     1      -1.346 -13.935  -4.542  1.00  0.00    -0.014 A 
BRANCH  38  39
ATOM     39  C   UNL     1      -1.824 -14.296  -5.899  1.00  0.00     0.031 A 
ATOM     40  C   UNL     1      -3.222 -13.941  -6.329  1.00  0.00     0.074 A 
ATOM     41  C   UNL     1      -0.978 -14.885  -6.763  1.00  0.00     0.049 A 
ATOM     42  N   UNL     1      -3.823 -14.190  -7.466  1.00  0.00    -0.248 NA
ATOM     43  C   UNL     1      -4.053 -13.211  -5.360  1.00  0.00     0.031 C 
ATOM     44  C   UNL     1       0.408 -15.245  -6.468  1.00  0.00     0.029 A 
ATOM     45  N   UNL     1      -1.153 -15.259  -8.068  1.00  0.00    -0.354 N 
ATOM     46  C   UNL     1      -5.105 -13.671  -7.338  1.00  0.00     0.074 A 
ATOM     47  C   UNL     1      -5.203 -13.105  -6.011  1.00  0.00     0.031 C 
ATOM     48  C   UNL     1       0.975 -15.745  -7.576  1.00  0.00     0.029 A 
ATOM     49  C   UNL     1      -0.024 -15.793  -8.639  1.00  0.00     0.049 A 
ATOM     50  H   UNL     1      -2.005 -15.155  -8.550  1.00  0.00     0.167 HD
ATOM     51  C   UNL     1      -6.105 -13.662  -8.252  1.00  0.00     0.037 A 
ATOM     52  C   UNL     1       0.178 -16.279  -9.878  1.00  0.00     0.037 A 
ATOM     53  C   UNL     1      -5.995 -14.198  -9.583  1.00  0.00     0.049 A 
ATOM     54  C   UNL     1      -0.958 -16.285 -10.859  1.00  0.00     0.074 A 
ATOM     55  C   UNL     1      -6.953 -14.231 -10.582  1.00  0.00     0.029 A 
ATOM     56  N   UNL     1      -4.853 -14.785 -10.104  1.00  0.00    -0.354 N 
ATOM     57  N   UNL     1      -2.176 -15.827 -10.714  1.00  0.00    -0.248 NA
ATOM     58  C   UNL     1      -0.694 -16.894 -12.170  1.00  0.00     0.031 C 
ATOM     59  C   UNL     1      -6.397 -14.863 -11.700  1.00  0.00     0.029 A 
ATOM     60  C   UNL     1      -5.084 -15.194 -11.407  1.00  0.00     0.049 A 
ATOM     61  H   UNL     1      -4.003 -14.895  -9.620  1.00  0.00     0.167 HD
ATOM     62  C   UNL     1      -2.826 -16.091 -11.910  1.00  0.00     0.074 A 
ATOM     63  C   UNL     1      -1.860 -16.728 -12.780  1.00  0.00     0.031 C 
ATOM     64  C   UNL     1      -4.112 -15.837 -12.252  1.00  0.00     0.037 A 
BRANCH  51  65
ATOM     65  C   UNL     1      -7.417 -13.062  -7.843  1.00  0.00     0.064 A 
ATOM     66  C   UNL     1      -7.596 -11.674  -7.766  1.00  0.00     0.173 A 
ATOM     67  C   UNL     1      -8.524 -13.886  -7.587  1.00  0.00     0.173 A 
ATOM     68  F   UNL     1      -6.563 -10.847  -7.987  1.00  0.00    -0.203 F 
ATOM     69  C   UNL     1      -8.836 -11.131  -7.436  1.00  0.00     0.198 A 
ATOM     70  C   UNL     1      -9.766 -13.339  -7.277  1.00  0.00     0.198 A 
ATOM     71  F   UNL     1      -8.403 -15.220  -7.651  1.00  0.00    -0.203 F 
ATOM     72  F   UNL     1      -8.979  -9.802  -7.342  1.00  0.00    -0.200 F 
ATOM     73  C   UNL     1      -9.921 -11.963  -7.201  1.00  0.00     0.200 A 
ATOM     74  F   UNL     1     -10.815 -14.143  -7.057  1.00  0.00    -0.200 F 
ATOM     75  F   UNL     1     -11.115 -11.438  -6.894  1.00  0.00    -0.200 F 
ENDBRANCH  51  65
BRANCH  52  76
ATOM     76  C   UNL     1       1.517 -16.799 -10.247  1.00  0.00     0.064 A 
ATOM     77  C   UNL     1       2.347 -16.085 -11.120  1.00  0.00     0.173 A 
ATOM     78  C   UNL     1       2.006 -17.997  -9.706  1.00  0.00     0.173 A 
ATOM     79  F   UNL     1       1.912 -14.944 -11.675  1.00  0.00    -0.203 F 
ATOM     80  C   UNL     1       3.620 -16.551 -11.440  1.00  0.00     0.198 A 
ATOM     81  C   UNL     1       3.287 -18.450 -10.009  1.00  0.00     0.198 A 
ATOM     82  F   UNL     1       1.246 -18.712  -8.864  1.00  0.00    -0.203 F 
ATOM     83  F   UNL     1       4.388 -15.862 -12.294  1.00  0.00    -0.200 F 
ATOM     84  C   UNL     1       4.092 -17.729 -10.877  1.00  0.00     0.200 A 
ATOM     85  F   UNL     1       3.744 -19.580  -9.453  1.00  0.00    -0.200 F 
ATOM     86  F   UNL     1       5.322 -18.169 -11.174  1.00  0.00    -0.200 F 
ENDBRANCH  52  76
BRANCH  64  87
ATOM     87  C   UNL     1      -4.548 -16.253 -13.623  1.00  0.00     0.064 A 
ATOM     88  C   UNL     1      -4.814 -17.596 -13.922  1.00  0.00     0.173 A 
ATOM     89  C   UNL     1      -4.743 -15.298 -14.631  1.00  0.00     0.173 A 
ATOM     90  F   UNL     1      -4.628 -18.544 -12.992  1.00  0.00    -0.203 F 
ATOM     91  C   UNL     1      -5.247 -17.972 -15.191  1.00  0.00     0.198 A 
ATOM     92  C   UNL     1      -5.194 -15.675 -15.893  1.00  0.00     0.198 A 
ATOM     93  F   UNL     1      -4.504 -14.001 -14.389  1.00  0.00    -0.203 F 
ATOM     94  F   UNL     1      -5.465 -19.265 -15.467  1.00  0.00    -0.200 F 
ATOM     95  C   UNL     1      -5.442 -17.011 -16.172  1.00  0.00     0.200 A 
ATOM     96  F   UNL     1      -5.390 -14.746 -16.838  1.00  0.00    -0.200 F 
ATOM     97  F   UNL     1      -5.863 -17.374 -17.392  1.00  0.00    -0.200 F 
ENDBRANCH  64  87
ENDBRANCH  38  39
ENDBRANCH  30  33
ENDBRANCH  28  29
ENDBRANCH   1  28
TORSDOF 12
