REMARK SMILES C[C@H](C(=O)Nc1ccc(C(=O)NCCCCNC(=O)c2ccc(-c3c4nc(c(-c5c(F)c(F)c(F)c(F)c5F)c5ccc([nH]5)c(-c5c(F)c(F)c(F)c(F)c5F)c5nc(c(-c6c(F)c(F)c(F)c(F)c6F)c6ccc3[nH]6)C=C5)C=C4)cc2)cc1)N1C(=O)/C(=C\c2ccco2)SC1=S
REMARK SMILES IDX 13 1 12 2 10 3 11 4 9 6 6 7 7 8 84 9 8 10 83 11 5 12 3 13
REMARK SMILES IDX 4 14 2 16 1 17 85 18 86 19 96 20 87 21 88 22 95 23 97 24
REMARK SMILES IDX 89 25 90 26 91 27 94 28 92 29 93 30 14 31 15 32 16 33 17 34
REMARK SMILES IDX 18 35 19 37 20 38 21 39 82 40 22 41 81 42 23 43 24 44 25 45
REMARK SMILES IDX 75 46 26 47 80 48 74 49 76 50 27 51 79 52 73 53 72 54 28 56
REMARK SMILES IDX 60 57 40 58 59 59 41 60 44 61 58 62 77 63 42 64 43 65 57 67
REMARK SMILES IDX 78 68 45 69 29 70 30 71 38 72 31 73 32 74 36 75 39 76 33 77
REMARK SMILES IDX 34 78 37 79 35 80 61 81 62 82 70 83 63 84 64 85 68 86 71 87
REMARK SMILES IDX 65 88 66 89 69 90 67 91 46 92 47 93 55 94 48 95 49 96 53 97
REMARK SMILES IDX 56 98 50 99 51 100 54 101 52 102
REMARK H PARENT 12 5 5 15 17 36 76 55 44 66
REMARK Flexibility Score: inf
ROOT
ATOM      1  C   UNL     1      -2.515   4.972  -3.144  1.00  0.00     0.116 C 
ENDROOT
BRANCH   1   2
ATOM      2  N   UNL     1      -1.782   6.087  -2.574  1.00  0.00    -0.352 N 
ATOM      3  C   UNL     1      -0.763   6.102  -1.651  1.00  0.00     0.251 C 
ATOM      4  O   UNL     1      -0.192   7.165  -1.416  1.00  0.00    -0.269 OA
ATOM      5  H   UNL     1      -2.058   6.974  -2.900  1.00  0.00     0.163 HD
BRANCH   3   6
ATOM      6  C   UNL     1      -0.292   4.859  -0.981  1.00  0.00     0.039 A 
ATOM      7  C   UNL     1       0.731   2.470   0.059  1.00  0.00     0.041 A 
ATOM      8  C   UNL     1       1.587   3.544  -0.175  1.00  0.00     0.027 A 
ATOM      9  C   UNL     1      -0.644   2.635  -0.086  1.00  0.00     0.027 A 
ATOM     10  C   UNL     1       1.080   4.726  -0.726  1.00  0.00     0.016 A 
ATOM     11  C   UNL     1      -1.155   3.840  -0.572  1.00  0.00     0.016 A 
BRANCH   7  12
ATOM     12  N   UNL     1       1.255   1.262   0.522  1.00  0.00    -0.324 N 
ATOM     13  C   UNL     1       0.983  -0.013   0.083  1.00  0.00     0.247 C 
ATOM     14  O   UNL     1       1.283  -0.951   0.822  1.00  0.00    -0.272 OA
ATOM     15  H   UNL     1       1.903   1.332   1.260  1.00  0.00     0.170 HD
BRANCH  13  16
ATOM     16  C   UNL     1       0.445  -0.218  -1.363  1.00  0.00     0.178 C 
ATOM     17  C   UNL     1       1.193  -1.375  -2.035  1.00  0.00     0.042 C 
BRANCH  16  18
ATOM     18  N   UNL     1      -1.016  -0.369  -1.492  1.00  0.00    -0.280 N 
ATOM     19  C   UNL     1      -1.672  -1.436  -0.899  1.00  0.00     0.267 C 
ATOM     20  C   UNL     1      -1.791   0.374  -2.356  1.00  0.00     0.149 C 
ATOM     21  O   UNL     1      -1.156  -2.283  -0.190  1.00  0.00    -0.268 OA
ATOM     22  C   UNL     1      -3.122  -1.421  -1.266  1.00  0.00     0.084 C 
ATOM     23  S   UNL     1      -3.487   0.115  -1.977  1.00  0.00    -0.054 SA
ATOM     24  S   UNL     1      -1.306   1.327  -3.634  1.00  0.00    -0.052 S 
ATOM     25  C   UNL     1      -4.017  -2.418  -1.302  1.00  0.00     0.068 C 
BRANCH  25  26
ATOM     26  C   UNL     1      -3.690  -3.788  -1.144  1.00  0.00     0.127 A 
ATOM     27  C   UNL     1      -3.049  -4.494  -0.135  1.00  0.00     0.050 A 
ATOM     28  O   UNL     1      -4.021  -4.695  -2.130  1.00  0.00    -0.465 OA
ATOM     29  C   UNL     1      -2.926  -5.841  -0.556  1.00  0.00     0.042 A 
ATOM     30  C   UNL     1      -3.536  -5.908  -1.781  1.00  0.00     0.195 A 
ENDBRANCH  25  26
ENDBRANCH  16  18
ENDBRANCH  13  16
ENDBRANCH   7  12
ENDBRANCH   3   6
ENDBRANCH   1   2
BRANCH   1  31
ATOM     31  C   UNL     1      -3.936   4.887  -2.587  1.00  0.00     0.023 C 
BRANCH  31  32
ATOM     32  C   UNL     1      -4.909   5.880  -3.222  1.00  0.00     0.023 C 
BRANCH  32  33
ATOM     33  C   UNL     1      -5.188   5.638  -4.700  1.00  0.00     0.116 C 
BRANCH  33  34
ATOM     34  N   UNL     1      -5.829   4.359  -4.965  1.00  0.00    -0.352 N 
ATOM     35  C   UNL     1      -6.807   4.068  -5.887  1.00  0.00     0.251 C 
ATOM     36  H   UNL     1      -5.523   3.603  -4.412  1.00  0.00     0.163 HD
ATOM     37  O   UNL     1      -7.330   2.959  -5.913  1.00  0.00    -0.269 OA
BRANCH  35  38
ATOM     38  C   UNL     1      -7.253   5.120  -6.825  1.00  0.00     0.039 A 
ATOM     39  C   UNL     1      -8.622   5.336  -6.996  1.00  0.00     0.014 A 
ATOM     40  C   UNL     1      -6.324   5.909  -7.508  1.00  0.00     0.014 A 
ATOM     41  C   UNL     1      -9.060   6.387  -7.805  1.00  0.00     0.010 A 
ATOM     42  C   UNL     1      -6.759   7.002  -8.250  1.00  0.00     0.010 A 
ATOM     43  C   UNL     1      -8.131   7.249  -8.411  1.00  0.00    -0.014 A 
BRANCH  43  44
ATOM     44  C   UNL     1      -8.571   8.400  -9.240  1.00  0.00     0.031 A 
ATOM     45  C   UNL     1      -8.233   8.439 -10.704  1.00  0.00     0.074 A 
ATOM     46  C   UNL     1      -9.218   9.434  -8.667  1.00  0.00     0.049 A 
ATOM     47  N   UNL     1      -8.451   9.386 -11.582  1.00  0.00    -0.248 NA
ATOM     48  C   UNL     1      -7.530   7.267 -11.250  1.00  0.00     0.031 C 
ATOM     49  C   UNL     1      -9.569   9.534  -7.250  1.00  0.00     0.029 A 
ATOM     50  N   UNL     1      -9.688  10.604  -9.209  1.00  0.00    -0.354 N 
ATOM     51  C   UNL     1      -7.903   8.929 -12.773  1.00  0.00     0.074 A 
ATOM     52  C   UNL     1      -7.287   7.650 -12.494  1.00  0.00     0.031 C 
ATOM     53  C   UNL     1     -10.221  10.689  -7.039  1.00  0.00     0.029 A 
ATOM     54  C   UNL     1     -10.300  11.428  -8.295  1.00  0.00     0.049 A 
ATOM     55  H   UNL     1      -9.595  10.832 -10.162  1.00  0.00     0.167 HD
ATOM     56  C   UNL     1      -7.936   9.508 -13.997  1.00  0.00     0.037 A 
ATOM     57  C   UNL     1     -10.858  12.643  -8.456  1.00  0.00     0.037 A 
ATOM     58  C   UNL     1      -8.569  10.769 -14.278  1.00  0.00     0.049 A 
ATOM     59  C   UNL     1     -10.867  13.271  -9.825  1.00  0.00     0.074 A 
ATOM     60  C   UNL     1      -8.684  11.428 -15.490  1.00  0.00     0.029 A 
ATOM     61  N   UNL     1      -9.199  11.562 -13.331  1.00  0.00    -0.354 N 
ATOM     62  N   UNL     1     -10.393  12.806 -10.955  1.00  0.00    -0.248 NA
ATOM     63  C   UNL     1     -11.499  14.594  -9.941  1.00  0.00     0.031 C 
ATOM     64  C   UNL     1      -9.352  12.636 -15.269  1.00  0.00     0.029 A 
ATOM     65  C   UNL     1      -9.698  12.708 -13.930  1.00  0.00     0.049 A 
ATOM     66  H   UNL     1      -9.280  11.344 -12.374  1.00  0.00     0.167 HD
ATOM     67  C   UNL     1     -10.706  13.753 -11.920  1.00  0.00     0.074 A 
ATOM     68  C   UNL     1     -11.418  14.818 -11.245  1.00  0.00     0.031 C 
ATOM     69  C   UNL     1     -10.430  13.743 -13.247  1.00  0.00     0.037 A 
BRANCH  56  70
ATOM     70  C   UNL     1      -7.277   8.772 -15.128  1.00  0.00     0.064 A 
ATOM     71  C   UNL     1      -7.815   7.580 -15.638  1.00  0.00     0.173 A 
ATOM     72  C   UNL     1      -6.116   9.277 -15.731  1.00  0.00     0.173 A 
ATOM     73  F   UNL     1      -8.917   7.047 -15.089  1.00  0.00    -0.203 F 
ATOM     74  C   UNL     1      -7.197   6.906 -16.688  1.00  0.00     0.198 A 
ATOM     75  C   UNL     1      -5.519   8.617 -16.802  1.00  0.00     0.198 A 
ATOM     76  F   UNL     1      -5.563  10.416 -15.287  1.00  0.00    -0.203 F 
ATOM     77  F   UNL     1      -7.700   5.742 -17.122  1.00  0.00    -0.200 F 
ATOM     78  C   UNL     1      -6.055   7.428 -17.274  1.00  0.00     0.200 A 
ATOM     79  F   UNL     1      -4.422   9.130 -17.376  1.00  0.00    -0.200 F 
ATOM     80  F   UNL     1      -5.465   6.782 -18.289  1.00  0.00    -0.200 F 
ENDBRANCH  56  70
BRANCH  57  81
ATOM     81  C   UNL     1     -11.487  13.339  -7.302  1.00  0.00     0.064 A 
ATOM     82  C   UNL     1     -12.875  13.532  -7.251  1.00  0.00     0.173 A 
ATOM     83  C   UNL     1     -10.719  13.848  -6.245  1.00  0.00     0.173 A 
ATOM     84  F   UNL     1     -13.650  13.081  -8.249  1.00  0.00    -0.203 F 
ATOM     85  C   UNL     1     -13.468  14.234  -6.204  1.00  0.00     0.198 A 
ATOM     86  C   UNL     1     -11.316  14.524  -5.183  1.00  0.00     0.198 A 
ATOM     87  F   UNL     1      -9.388  13.687  -6.242  1.00  0.00    -0.203 F 
ATOM     88  F   UNL     1     -14.790  14.454  -6.211  1.00  0.00    -0.200 F 
ATOM     89  C   UNL     1     -12.688  14.727  -5.169  1.00  0.00     0.200 A 
ATOM     90  F   UNL     1     -10.561  14.988  -4.177  1.00  0.00    -0.200 F 
ATOM     91  F   UNL     1     -13.258  15.406  -4.163  1.00  0.00    -0.200 F 
ENDBRANCH  57  81
BRANCH  69  92
ATOM     92  C   UNL     1     -10.955  14.883 -14.070  1.00  0.00     0.064 A 
ATOM     93  C   UNL     1     -10.414  16.174 -13.979  1.00  0.00     0.173 A 
ATOM     94  C   UNL     1     -11.993  14.668 -14.990  1.00  0.00     0.173 A 
ATOM     95  F   UNL     1      -9.431  16.434 -13.105  1.00  0.00    -0.203 F 
ATOM     96  C   UNL     1     -10.913  17.214 -14.759  1.00  0.00     0.198 A 
ATOM     97  C   UNL     1     -12.467  15.703 -15.791  1.00  0.00     0.198 A 
ATOM     98  F   UNL     1     -12.539  13.450 -15.121  1.00  0.00    -0.203 F 
ATOM     99  F   UNL     1     -10.416  18.451 -14.620  1.00  0.00    -0.200 F 
ATOM    100  C   UNL     1     -11.933  16.977 -15.669  1.00  0.00     0.200 A 
ATOM    101  F   UNL     1     -13.442  15.468 -16.680  1.00  0.00    -0.200 F 
ATOM    102  F   UNL     1     -12.406  17.978 -16.424  1.00  0.00    -0.200 F 
ENDBRANCH  69  92
ENDBRANCH  43  44
ENDBRANCH  35  38
ENDBRANCH  33  34
ENDBRANCH  32  33
ENDBRANCH  31  32
ENDBRANCH   1  31
TORSDOF 15
