REMARK SMILES CC(C)([NH2+]C[C@@H]1CCCO1)C(=O)NCCCCNC(=O)c1ccc(-c2c3nc(c(-c4c(F)c(F)c(F)c(F)c4F)c4ccc([nH]4)c(-c4c(F)c(F)c(F)c(F)c4F)c4nc(c(-c5c(F)c(F)c(F)c(F)c5F)c5ccc2[nH]5)C=C4)C=C3)cc1
REMARK SMILES IDX 15 1 14 2 13 3 11 4 12 5 2 7 1 8 3 9 4 10 5 13 6 14 7 15
REMARK SMILES IDX 10 16 8 17 9 18 16 19 17 20 18 21 19 22 20 24 21 25 22 26
REMARK SMILES IDX 83 27 23 28 82 29 24 30 25 31 26 32 76 33 27 34 81 35 75 36
REMARK SMILES IDX 77 37 28 38 80 39 74 40 73 41 29 43 61 44 41 45 60 46 42 47
REMARK SMILES IDX 45 48 59 49 78 50 43 51 44 52 58 54 79 55 46 56 30 57 31 58
REMARK SMILES IDX 39 59 32 60 33 61 37 62 40 63 34 64 35 65 38 66 36 67 62 68
REMARK SMILES IDX 63 69 71 70 64 71 65 72 69 73 72 74 66 75 67 76 70 77 68 78
REMARK SMILES IDX 47 79 48 80 56 81 49 82 50 83 54 84 57 85 51 86 52 87 55 88
REMARK SMILES IDX 53 89
REMARK H PARENT 13 6 4 11 4 12 18 23 77 42 45 53
REMARK Flexibility Score: inf
ROOT
ATOM      1  C   UNL     1      -1.221   3.641  -3.572  1.00  0.00     0.023 C 
ENDROOT
BRANCH   1   2
ATOM      2  C   UNL     1       0.136   2.951  -3.412  1.00  0.00     0.116 C 
BRANCH   2   3
ATOM      3  N   UNL     1       0.609   3.057  -2.051  1.00  0.00    -0.351 N 
ATOM      4  C   UNL     1       0.737   2.161  -1.034  1.00  0.00     0.280 C 
ATOM      5  O   UNL     1       1.044   2.682   0.048  1.00  0.00    -0.268 OA
ATOM      6  H   UNL     1       0.899   3.966  -1.809  1.00  0.00     0.163 HD
BRANCH   4   7
ATOM      7  C   UNL     1       0.590   0.603  -1.181  1.00  0.00     0.169 C 
ATOM      8  C   UNL     1       1.126   0.009   0.159  1.00  0.00     0.090 C 
ATOM      9  C   UNL     1       1.498   0.015  -2.270  1.00  0.00     0.090 C 
BRANCH   7  10
ATOM     10  N   UNL     1      -0.814   0.118  -1.186  1.00  0.00    -0.332 N 
ATOM     11  H   UNL     1      -1.248   0.501  -0.346  1.00  0.00     0.347 HD
ATOM     12  H   UNL     1      -0.684  -0.890  -1.273  1.00  0.00     0.347 HD
BRANCH  10  13
ATOM     13  C   UNL     1      -1.738   0.393  -2.279  1.00  0.00     0.293 C 
BRANCH  13  14
ATOM     14  C   UNL     1      -1.488  -0.351  -3.598  1.00  0.00     0.173 C 
ATOM     15  C   UNL     1      -2.534  -0.065  -4.664  1.00  0.00     0.040 C 
ATOM     16  O   UNL     1      -1.519  -1.777  -3.412  1.00  0.00    -0.372 OA
ATOM     17  C   UNL     1      -2.318  -1.235  -5.592  1.00  0.00     0.031 C 
ATOM     18  C   UNL     1      -2.014  -2.366  -4.628  1.00  0.00     0.161 C 
ENDBRANCH  13  14
ENDBRANCH  10  13
ENDBRANCH   7  10
ENDBRANCH   4   7
ENDBRANCH   2   3
ENDBRANCH   1   2
BRANCH   1  19
ATOM     19  C   UNL     1      -1.151   5.114  -3.953  1.00  0.00     0.023 C 
BRANCH  19  20
ATOM     20  C   UNL     1      -0.525   5.395  -5.311  1.00  0.00     0.116 C 
BRANCH  20  21
ATOM     21  N   UNL     1      -1.183   4.717  -6.421  1.00  0.00    -0.352 N 
ATOM     22  C   UNL     1      -1.397   5.186  -7.698  1.00  0.00     0.251 C 
ATOM     23  H   UNL     1      -1.517   3.810  -6.234  1.00  0.00     0.163 HD
ATOM     24  O   UNL     1      -2.025   4.527  -8.514  1.00  0.00    -0.269 OA
BRANCH  22  25
ATOM     25  C   UNL     1      -0.895   6.530  -8.046  1.00  0.00     0.039 A 
ATOM     26  C   UNL     1      -1.788   7.470  -8.565  1.00  0.00     0.014 A 
ATOM     27  C   UNL     1       0.425   6.883  -7.758  1.00  0.00     0.014 A 
ATOM     28  C   UNL     1      -1.379   8.796  -8.708  1.00  0.00     0.010 A 
ATOM     29  C   UNL     1       0.803   8.218  -7.822  1.00  0.00     0.010 A 
ATOM     30  C   UNL     1      -0.097   9.188  -8.290  1.00  0.00    -0.014 A 
BRANCH  30  31
ATOM     31  C   UNL     1       0.330  10.608  -8.325  1.00  0.00     0.031 A 
ATOM     32  C   UNL     1       1.483  11.018  -9.196  1.00  0.00     0.074 A 
ATOM     33  C   UNL     1      -0.258  11.505  -7.510  1.00  0.00     0.049 A 
ATOM     34  N   UNL     1       2.082  12.178  -9.286  1.00  0.00    -0.248 NA
ATOM     35  C   UNL     1       2.065   9.972 -10.053  1.00  0.00     0.031 C 
ATOM     36  C   UNL     1      -1.345  11.217  -6.572  1.00  0.00     0.029 A 
ATOM     37  N   UNL     1      -0.012  12.844  -7.330  1.00  0.00    -0.354 N 
ATOM     38  C   UNL     1       3.124  11.992 -10.184  1.00  0.00     0.074 A 
ATOM     39  C   UNL     1       3.109  10.599 -10.573  1.00  0.00     0.031 C 
ATOM     40  C   UNL     1      -1.688  12.348  -5.934  1.00  0.00     0.029 A 
ATOM     41  C   UNL     1      -0.826  13.433  -6.393  1.00  0.00     0.049 A 
ATOM     42  H   UNL     1       0.682  13.335  -7.825  1.00  0.00     0.167 HD
ATOM     43  C   UNL     1       4.000  12.908 -10.661  1.00  0.00     0.037 A 
ATOM     44  C   UNL     1      -0.867  14.705  -5.954  1.00  0.00     0.037 A 
ATOM     45  C   UNL     1       3.982  14.302 -10.311  1.00  0.00     0.049 A 
ATOM     46  C   UNL     1       0.091  15.711  -6.531  1.00  0.00     0.074 A 
ATOM     47  C   UNL     1       4.780  15.324 -10.793  1.00  0.00     0.029 A 
ATOM     48  N   UNL     1       3.109  14.871  -9.396  1.00  0.00    -0.354 N 
ATOM     49  N   UNL     1       1.032  15.538  -7.426  1.00  0.00    -0.248 NA
ATOM     50  C   UNL     1      -0.023  17.092  -6.039  1.00  0.00     0.031 C 
ATOM     51  C   UNL     1       4.406  16.509 -10.151  1.00  0.00     0.029 A 
ATOM     52  C   UNL     1       3.354  16.230  -9.293  1.00  0.00     0.049 A 
ATOM     53  H   UNL     1       2.418  14.382  -8.893  1.00  0.00     0.167 HD
ATOM     54  C   UNL     1       1.604  16.787  -7.624  1.00  0.00     0.074 A 
ATOM     55  C   UNL     1       0.896  17.713  -6.765  1.00  0.00     0.031 C 
ATOM     56  C   UNL     1       2.627  17.135  -8.442  1.00  0.00     0.037 A 
BRANCH  43  57
ATOM     57  C   UNL     1       5.040  12.428 -11.628  1.00  0.00     0.064 A 
ATOM     58  C   UNL     1       4.705  12.055 -12.938  1.00  0.00     0.173 A 
ATOM     59  C   UNL     1       6.389  12.359 -11.249  1.00  0.00     0.173 A 
ATOM     60  F   UNL     1       3.427  12.087 -13.343  1.00  0.00    -0.203 F 
ATOM     61  C   UNL     1       5.678  11.604 -13.825  1.00  0.00     0.198 A 
ATOM     62  C   UNL     1       7.364  11.934 -12.147  1.00  0.00     0.198 A 
ATOM     63  F   UNL     1       6.762  12.706 -10.008  1.00  0.00    -0.203 F 
ATOM     64  F   UNL     1       5.328  11.205 -15.056  1.00  0.00    -0.200 F 
ATOM     65  C   UNL     1       7.007  11.550 -13.431  1.00  0.00     0.200 A 
ATOM     66  F   UNL     1       8.649  11.890 -11.769  1.00  0.00    -0.200 F 
ATOM     67  F   UNL     1       7.943  11.118 -14.288  1.00  0.00    -0.200 F 
ENDBRANCH  43  57
BRANCH  44  68
ATOM     68  C   UNL     1      -1.875  15.111  -4.942  1.00  0.00     0.064 A 
ATOM     69  C   UNL     1      -2.963  15.919  -5.301  1.00  0.00     0.173 A 
ATOM     70  C   UNL     1      -1.770  14.713  -3.602  1.00  0.00     0.173 A 
ATOM     71  F   UNL     1      -3.093  16.341  -6.568  1.00  0.00    -0.203 F 
ATOM     72  C   UNL     1      -3.898  16.331  -4.354  1.00  0.00     0.198 A 
ATOM     73  C   UNL     1      -2.719  15.107  -2.660  1.00  0.00     0.198 A 
ATOM     74  F   UNL     1      -0.750  13.936  -3.210  1.00  0.00    -0.203 F 
ATOM     75  F   UNL     1      -4.904  17.138  -4.716  1.00  0.00    -0.200 F 
ATOM     76  C   UNL     1      -3.777  15.921  -3.035  1.00  0.00     0.200 A 
ATOM     77  F   UNL     1      -2.606  14.700  -1.388  1.00  0.00    -0.200 F 
ATOM     78  F   UNL     1      -4.676  16.318  -2.124  1.00  0.00    -0.200 F 
ENDBRANCH  44  68
BRANCH  56  79
ATOM     79  C   UNL     1       3.017  18.582  -8.472  1.00  0.00     0.064 A 
ATOM     80  C   UNL     1       3.734  19.169  -7.420  1.00  0.00     0.173 A 
ATOM     81  C   UNL     1       2.709  19.376  -9.587  1.00  0.00     0.173 A 
ATOM     82  F   UNL     1       4.037  18.451  -6.328  1.00  0.00    -0.203 F 
ATOM     83  C   UNL     1       4.114  20.507  -7.475  1.00  0.00     0.198 A 
ATOM     84  C   UNL     1       3.111  20.707  -9.648  1.00  0.00     0.198 A 
ATOM     85  F   UNL     1       2.028  18.857 -10.620  1.00  0.00    -0.203 F 
ATOM     86  F   UNL     1       4.766  21.059  -6.443  1.00  0.00    -0.200 F 
ATOM     87  C   UNL     1       3.808  21.272  -8.591  1.00  0.00     0.200 A 
ATOM     88  F   UNL     1       2.823  21.443 -10.731  1.00  0.00    -0.200 F 
ATOM     89  F   UNL     1       4.180  22.558  -8.644  1.00  0.00    -0.200 F 
ENDBRANCH  56  79
ENDBRANCH  30  31
ENDBRANCH  22  25
ENDBRANCH  20  21
ENDBRANCH  19  20
ENDBRANCH   1  19
TORSDOF 14
