REMARK SMILES O=C(Nc1nc(C2CC2)cs1)N[C@@H]1C=C[C@@H](C(=O)NCCCCNC(=O)c2ccc(-c3c4nc(c(-c5c(F)c(F)c(F)c(F)c5F)c5ccc([nH]5)c(-c5c(F)c(F)c(F)c(F)c5F)c5nc(c(-c6c(F)c(F)c(F)c(F)c6F)c6ccc3[nH]6)C=C5)C=C4)cc2)C1
REMARK SMILES IDX 21 1 20 2 19 3 17 4 18 5 16 7 13 8 14 9 90 10 15 11 12 12
REMARK SMILES IDX 1 13 2 14 3 15 4 18 5 19 11 20 6 21 10 22 7 23 8 24 9 25
REMARK SMILES IDX 22 26 23 27 24 28 25 29 26 31 27 32 28 33 89 34 29 35 88 36
REMARK SMILES IDX 30 37 31 38 32 39 82 40 33 41 87 42 81 43 83 44 34 45 86 46
REMARK SMILES IDX 80 47 79 48 35 50 67 51 47 52 66 53 48 54 51 55 65 56 84 57
REMARK SMILES IDX 49 58 50 59 64 61 85 62 52 63 36 64 37 65 45 66 38 67 39 68
REMARK SMILES IDX 43 69 46 70 40 71 41 72 44 73 42 74 68 75 69 76 77 77 70 78
REMARK SMILES IDX 71 79 75 80 78 81 72 82 73 83 76 84 74 85 53 86 54 87 62 88
REMARK SMILES IDX 55 89 56 90 60 91 63 92 57 93 58 94 61 95 59 96
REMARK H PARENT 19 6 3 16 12 17 24 30 83 49 51 60
REMARK Flexibility Score: inf
ROOT
ATOM      1  C   UNL     1       4.978  -2.919   3.264  1.00  0.00     0.023 C 
ENDROOT
BRANCH   1   2
ATOM      2  C   UNL     1       4.379  -4.069   2.463  1.00  0.00     0.116 C 
BRANCH   2   3
ATOM      3  N   UNL     1       3.269  -4.689   3.157  1.00  0.00    -0.356 N 
ATOM      4  C   UNL     1       1.998  -4.949   2.737  1.00  0.00     0.227 C 
ATOM      5  O   UNL     1       1.253  -5.519   3.540  1.00  0.00    -0.274 OA
ATOM      6  H   UNL     1       3.464  -4.968   4.081  1.00  0.00     0.163 HD
BRANCH   4   7
ATOM      7  C   UNL     1       1.495  -4.562   1.341  1.00  0.00     0.103 C 
ATOM      8  C   UNL     1       2.208  -2.862  -0.286  1.00  0.00     0.107 C 
ATOM      9  C   UNL     1       2.717  -4.220  -0.642  1.00  0.00    -0.006 C 
ATOM     10  C   UNL     1       1.489  -3.052   1.061  1.00  0.00     0.047 C 
ATOM     11  C   UNL     1       2.328  -5.149   0.240  1.00  0.00    -0.016 C 
BRANCH   8  12
ATOM     12  N   UNL     1       1.388  -2.341  -1.352  1.00  0.00    -0.332 N 
ATOM     13  O   UNL     1      -0.196  -3.990  -1.437  1.00  0.00    -0.248 OA
ATOM     14  C   UNL     1       0.253  -2.917  -1.833  1.00  0.00     0.321 C 
ATOM     15  N   UNL     1      -0.452  -2.227  -2.766  1.00  0.00    -0.284 N 
ATOM     16  H   UNL     1      -1.260  -2.664  -3.120  1.00  0.00     0.174 HD
ATOM     17  H   UNL     1       1.674  -1.495  -1.767  1.00  0.00     0.165 HD
BRANCH  15  18
ATOM     18  C   UNL     1      -0.157  -0.994  -3.262  1.00  0.00     0.191 A 
ATOM     19  N   UNL     1       0.954  -0.305  -3.151  1.00  0.00    -0.225 NA
ATOM     20  S   UNL     1      -1.455  -0.248  -4.077  1.00  0.00    -0.105 S 
ATOM     21  C   UNL     1       0.746   0.949  -3.698  1.00  0.00     0.057 A 
ATOM     22  C   UNL     1      -0.524   1.188  -4.183  1.00  0.00     0.092 A 
BRANCH  21  23
ATOM     23  C   UNL     1       1.835   2.010  -3.770  1.00  0.00     0.039 C 
ATOM     24  C   UNL     1       3.139   1.792  -3.035  1.00  0.00     0.011 C 
ATOM     25  C   UNL     1       3.102   1.671  -4.523  1.00  0.00     0.011 C 
ENDBRANCH  21  23
ENDBRANCH  15  18
ENDBRANCH   8  12
ENDBRANCH   4   7
ENDBRANCH   2   3
ENDBRANCH   1   2
BRANCH   1  26
ATOM     26  C   UNL     1       5.755  -3.348   4.507  1.00  0.00     0.023 C 
BRANCH  26  27
ATOM     27  C   UNL     1       6.884  -4.342   4.254  1.00  0.00     0.116 C 
BRANCH  27  28
ATOM     28  N   UNL     1       7.854  -3.868   3.278  1.00  0.00    -0.352 N 
ATOM     29  C   UNL     1       9.225  -3.874   3.336  1.00  0.00     0.251 C 
ATOM     30  H   UNL     1       7.471  -3.487   2.455  1.00  0.00     0.163 HD
ATOM     31  O   UNL     1       9.877  -3.302   2.465  1.00  0.00    -0.269 OA
BRANCH  29  32
ATOM     32  C   UNL     1       9.920  -4.537   4.459  1.00  0.00     0.039 A 
ATOM     33  C   UNL     1      11.007  -3.887   5.049  1.00  0.00     0.014 A 
ATOM     34  C   UNL     1       9.511  -5.787   4.932  1.00  0.00     0.014 A 
ATOM     35  C   UNL     1      11.640  -4.462   6.151  1.00  0.00     0.010 A 
ATOM     36  C   UNL     1      10.089  -6.318   6.083  1.00  0.00     0.010 A 
ATOM     37  C   UNL     1      11.163  -5.664   6.702  1.00  0.00    -0.014 A 
BRANCH  37  38
ATOM     38  C   UNL     1      11.787  -6.234   7.925  1.00  0.00     0.031 A 
ATOM     39  C   UNL     1      12.483  -7.566   7.877  1.00  0.00     0.074 A 
ATOM     40  C   UNL     1      11.708  -5.554   9.086  1.00  0.00     0.049 A 
ATOM     41  N   UNL     1      13.097  -8.213   8.837  1.00  0.00    -0.248 NA
ATOM     42  C   UNL     1      12.474  -8.277   6.589  1.00  0.00     0.031 C 
ATOM     43  C   UNL     1      11.009  -4.281   9.275  1.00  0.00     0.029 A 
ATOM     44  N   UNL     1      12.223  -5.835  10.327  1.00  0.00    -0.354 N 
ATOM     45  C   UNL     1      13.552  -9.395   8.266  1.00  0.00     0.074 A 
ATOM     46  C   UNL     1      13.081  -9.413   6.899  1.00  0.00     0.031 C 
ATOM     47  C   UNL     1      11.171  -3.873  10.544  1.00  0.00     0.029 A 
ATOM     48  C   UNL     1      11.953  -4.870  11.267  1.00  0.00     0.049 A 
ATOM     49  H   UNL     1      12.737  -6.651  10.524  1.00  0.00     0.167 HD
ATOM     50  C   UNL     1      14.325 -10.360   8.820  1.00  0.00     0.037 A 
ATOM     51  C   UNL     1      12.301  -4.798  12.566  1.00  0.00     0.037 A 
ATOM     52  C   UNL     1      14.799 -10.339  10.179  1.00  0.00     0.049 A 
ATOM     53  C   UNL     1      13.143  -5.898  13.159  1.00  0.00     0.074 A 
ATOM     54  C   UNL     1      15.600 -11.261  10.830  1.00  0.00     0.029 A 
ATOM     55  N   UNL     1      14.513  -9.340  11.098  1.00  0.00    -0.354 N 
ATOM     56  N   UNL     1      13.625  -6.974  12.587  1.00  0.00    -0.248 NA
ATOM     57  C   UNL     1      13.502  -5.762  14.577  1.00  0.00     0.031 C 
ATOM     58  C   UNL     1      15.768 -10.841  12.153  1.00  0.00     0.029 A 
ATOM     59  C   UNL     1      15.115  -9.630  12.313  1.00  0.00     0.049 A 
ATOM     60  H   UNL     1      13.964  -8.544  10.915  1.00  0.00     0.167 HD
ATOM     61  C   UNL     1      14.369  -7.624  13.563  1.00  0.00     0.074 A 
ATOM     62  C   UNL     1      14.297  -6.805  14.755  1.00  0.00     0.031 C 
ATOM     63  C   UNL     1      15.046  -8.796  13.485  1.00  0.00     0.037 A 
BRANCH  50  64
ATOM     64  C   UNL     1      14.734 -11.509   7.944  1.00  0.00     0.064 A 
ATOM     65  C   UNL     1      15.650 -11.335   6.894  1.00  0.00     0.173 A 
ATOM     66  C   UNL     1      14.256 -12.806   8.187  1.00  0.00     0.173 A 
ATOM     67  F   UNL     1      16.128 -10.113   6.612  1.00  0.00    -0.203 F 
ATOM     68  C   UNL     1      16.055 -12.410   6.109  1.00  0.00     0.198 A 
ATOM     69  C   UNL     1      14.688 -13.884   7.419  1.00  0.00     0.198 A 
ATOM     70  F   UNL     1      13.384 -13.030   9.181  1.00  0.00    -0.203 F 
ATOM     71  F   UNL     1      16.898 -12.210   5.086  1.00  0.00    -0.200 F 
ATOM     72  C   UNL     1      15.582 -13.685   6.377  1.00  0.00     0.200 A 
ATOM     73  F   UNL     1      14.240 -15.118   7.688  1.00  0.00    -0.200 F 
ATOM     74  F   UNL     1      15.984 -14.722   5.630  1.00  0.00    -0.200 F 
ENDBRANCH  50  64
BRANCH  51  75
ATOM     75  C   UNL     1      11.879  -3.639  13.399  1.00  0.00     0.064 A 
ATOM     76  C   UNL     1      12.822  -2.740  13.918  1.00  0.00     0.173 A 
ATOM     77  C   UNL     1      10.533  -3.436  13.735  1.00  0.00     0.173 A 
ATOM     78  F   UNL     1      14.124  -2.901  13.641  1.00  0.00    -0.203 F 
ATOM     79  C   UNL     1      12.441  -1.710  14.776  1.00  0.00     0.198 A 
ATOM     80  C   UNL     1      10.148  -2.384  14.564  1.00  0.00     0.198 A 
ATOM     81  F   UNL     1       9.588  -4.261  13.260  1.00  0.00    -0.203 F 
ATOM     82  F   UNL     1      13.372  -0.912  15.315  1.00  0.00    -0.200 F 
ATOM     83  C   UNL     1      11.104  -1.531  15.096  1.00  0.00     0.200 A 
ATOM     84  F   UNL     1       8.853  -2.204  14.858  1.00  0.00    -0.200 F 
ATOM     85  F   UNL     1      10.738  -0.547  15.929  1.00  0.00    -0.200 F 
ENDBRANCH  51  75
BRANCH  63  86
ATOM     86  C   UNL     1      15.799  -9.234  14.709  1.00  0.00     0.064 A 
ATOM     87  C   UNL     1      15.137  -9.654  15.873  1.00  0.00     0.173 A 
ATOM     88  C   UNL     1      17.202  -9.241  14.714  1.00  0.00     0.173 A 
ATOM     89  F   UNL     1      13.796  -9.653  15.925  1.00  0.00    -0.203 F 
ATOM     90  C   UNL     1      15.851 -10.022  17.009  1.00  0.00     0.198 A 
ATOM     91  C   UNL     1      17.913  -9.645  15.840  1.00  0.00     0.198 A 
ATOM     92  F   UNL     1      17.885  -8.858  13.624  1.00  0.00    -0.203 F 
ATOM     93  F   UNL     1      15.197 -10.354  18.131  1.00  0.00    -0.200 F 
ATOM     94  C   UNL     1      17.238 -10.023  16.990  1.00  0.00     0.200 A 
ATOM     95  F   UNL     1      19.253  -9.659  15.815  1.00  0.00    -0.200 F 
ATOM     96  F   UNL     1      17.924 -10.376  18.086  1.00  0.00    -0.200 F 
ENDBRANCH  63  86
ENDBRANCH  37  38
ENDBRANCH  29  32
ENDBRANCH  27  28
ENDBRANCH  26  27
ENDBRANCH   1  26
TORSDOF 14
