REMARK SMILES CC[C@H](C(=O)NCCCCNC(=O)c1ccc(-c2c3nc(c(-c4c(F)c(F)c(F)c(F)c4F)c4ccc([nH]4)c(-c4c(F)c(F)c(F)c(F)c4F)c4nc(c(-c5c(F)c(F)c(F)c(F)c5F)c5ccc2[nH]5)C=C4)C=C3)cc1)C1=CCCc2c(C)ccc(C)c21
REMARK SMILES IDX 9 1 8 2 7 3 6 4 4 5 5 6 3 8 2 9 1 10 77 11 78 12 88 13 79 14
REMARK SMILES IDX 81 15 86 16 80 17 82 18 85 19 87 20 83 21 84 22 10 23 11 24
REMARK SMILES IDX 12 25 13 27 14 28 15 29 76 30 16 31 75 32 17 33 18 34 19 35
REMARK SMILES IDX 69 36 20 37 74 38 68 39 70 40 21 41 73 42 67 43 66 44 22 46
REMARK SMILES IDX 54 47 34 48 53 49 35 50 38 51 52 52 71 53 36 54 37 55 51 57
REMARK SMILES IDX 72 58 39 59 23 60 24 61 32 62 25 63 26 64 30 65 33 66 27 67
REMARK SMILES IDX 28 68 31 69 29 70 55 71 56 72 64 73 57 74 58 75 62 76 65 77
REMARK SMILES IDX 59 78 60 79 63 80 61 81 40 82 41 83 49 84 42 85 43 86 47 87
REMARK SMILES IDX 50 88 44 89 45 90 48 91 46 92
REMARK H PARENT 6 7 11 26 70 45 38 56
REMARK Flexibility Score: inf
ROOT
ATOM      1  C   UNL     1       0.774   2.816  -0.406  1.00  0.00     0.023 C 
ENDROOT
BRANCH   1   2
ATOM      2  C   UNL     1       1.538   1.779   0.415  1.00  0.00     0.023 C 
BRANCH   2   3
ATOM      3  C   UNL     1       0.809   0.486   0.799  1.00  0.00     0.116 C 
BRANCH   3   4
ATOM      4  N   UNL     1       0.512  -0.461  -0.265  1.00  0.00    -0.356 N 
ATOM      5  C   UNL     1       0.105  -1.773  -0.281  1.00  0.00     0.227 C 
ATOM      6  O   UNL     1      -0.200  -2.188  -1.410  1.00  0.00    -0.274 OA
ATOM      7  H   UNL     1       0.628  -0.080  -1.165  1.00  0.00     0.163 HD
BRANCH   5   8
ATOM      8  C   UNL     1       0.054  -2.776   0.938  1.00  0.00     0.108 C 
BRANCH   8   9
ATOM      9  C   UNL     1       0.811  -2.341   2.232  1.00  0.00     0.015 C 
ATOM     10  C   UNL     1       0.125  -1.330   3.158  1.00  0.00     0.005 C 
ENDBRANCH   8   9
BRANCH   8  11
ATOM     11  C   UNL     1      -1.260  -3.535   1.259  1.00  0.00    -0.032 C 
ATOM     12  C   UNL     1      -1.955  -3.247   2.391  1.00  0.00    -0.022 C 
ATOM     13  C   UNL     1      -2.259  -4.083   0.261  1.00  0.00    -0.016 A 
ATOM     14  C   UNL     1      -2.997  -2.119   2.213  1.00  0.00     0.032 C 
ATOM     15  C   UNL     1      -3.393  -3.217   0.085  1.00  0.00    -0.037 A 
ATOM     16  C   UNL     1      -2.415  -5.458  -0.018  1.00  0.00    -0.043 A 
ATOM     17  C   UNL     1      -3.257  -1.842   0.721  1.00  0.00     0.040 C 
ATOM     18  C   UNL     1      -4.656  -3.715  -0.294  1.00  0.00    -0.047 A 
ATOM     19  C   UNL     1      -3.697  -5.940  -0.363  1.00  0.00     0.004 A 
ATOM     20  C   UNL     1      -1.346  -6.495   0.181  1.00  0.00     0.045 C 
ATOM     21  C   UNL     1      -5.881  -2.845  -0.287  1.00  0.00     0.044 C 
ATOM     22  C   UNL     1      -4.797  -5.089  -0.484  1.00  0.00     0.004 A 
ENDBRANCH   8  11
ENDBRANCH   5   8
ENDBRANCH   3   4
ENDBRANCH   2   3
ENDBRANCH   1   2
BRANCH   1  23
ATOM     23  C   UNL     1      -0.594   3.255   0.114  1.00  0.00     0.116 C 
BRANCH  23  24
ATOM     24  N   UNL     1      -0.559   3.998   1.366  1.00  0.00    -0.352 N 
ATOM     25  C   UNL     1      -1.057   5.243   1.696  1.00  0.00     0.251 C 
ATOM     26  H   UNL     1      -0.102   3.533   2.104  1.00  0.00     0.163 HD
ATOM     27  O   UNL     1      -0.862   5.684   2.823  1.00  0.00    -0.269 OA
BRANCH  25  28
ATOM     28  C   UNL     1      -1.785   6.083   0.708  1.00  0.00     0.039 A 
ATOM     29  C   UNL     1      -1.547   7.463   0.704  1.00  0.00     0.014 A 
ATOM     30  C   UNL     1      -2.705   5.551  -0.197  1.00  0.00     0.014 A 
ATOM     31  C   UNL     1      -2.156   8.281  -0.256  1.00  0.00     0.010 A 
ATOM     32  C   UNL     1      -3.236   6.350  -1.213  1.00  0.00     0.010 A 
ATOM     33  C   UNL     1      -2.968   7.726  -1.258  1.00  0.00    -0.014 A 
BRANCH  33  34
ATOM     34  C   UNL     1      -3.514   8.573  -2.357  1.00  0.00     0.031 A 
ATOM     35  C   UNL     1      -5.000   8.729  -2.554  1.00  0.00     0.074 A 
ATOM     36  C   UNL     1      -2.667   9.178  -3.215  1.00  0.00     0.049 A 
ATOM     37  N   UNL     1      -5.648   9.438  -3.447  1.00  0.00    -0.248 NA
ATOM     38  C   UNL     1      -5.874   7.970  -1.648  1.00  0.00     0.031 C 
ATOM     39  C   UNL     1      -1.208   9.057  -3.186  1.00  0.00     0.029 A 
ATOM     40  N   UNL     1      -2.906  10.017  -4.276  1.00  0.00    -0.354 N 
ATOM     41  C   UNL     1      -6.998   9.205  -3.212  1.00  0.00     0.074 A 
ATOM     42  C   UNL     1      -7.075   8.238  -2.139  1.00  0.00     0.031 C 
ATOM     43  C   UNL     1      -0.682   9.826  -4.152  1.00  0.00     0.029 A 
ATOM     44  C   UNL     1      -1.764  10.467  -4.893  1.00  0.00     0.049 A 
ATOM     45  H   UNL     1      -3.812  10.272  -4.568  1.00  0.00     0.167 HD
ATOM     46  C   UNL     1      -8.076   9.764  -3.814  1.00  0.00     0.037 A 
ATOM     47  C   UNL     1      -1.602  11.307  -5.934  1.00  0.00     0.037 A 
ATOM     48  C   UNL     1      -8.002  10.736  -4.876  1.00  0.00     0.049 A 
ATOM     49  C   UNL     1      -2.814  11.922  -6.580  1.00  0.00     0.074 A 
ATOM     50  C   UNL     1      -9.036  11.400  -5.514  1.00  0.00     0.029 A 
ATOM     51  N   UNL     1      -6.825  11.179  -5.463  1.00  0.00    -0.354 N 
ATOM     52  N   UNL     1      -4.082  11.758  -6.291  1.00  0.00    -0.248 NA
ATOM     53  C   UNL     1      -2.569  12.855  -7.689  1.00  0.00     0.031 C 
ATOM     54  C   UNL     1      -8.489  12.203  -6.521  1.00  0.00     0.029 A 
ATOM     55  C   UNL     1      -7.110  12.091  -6.468  1.00  0.00     0.049 A 
ATOM     56  H   UNL     1      -5.921  10.889  -5.203  1.00  0.00     0.167 HD
ATOM     57  C   UNL     1      -4.782  12.589  -7.156  1.00  0.00     0.074 A 
ATOM     58  C   UNL     1      -3.795  13.273  -7.965  1.00  0.00     0.031 C 
ATOM     59  C   UNL     1      -6.121  12.771  -7.268  1.00  0.00     0.037 A 
BRANCH  46  60
ATOM     60  C   UNL     1      -9.437   9.342  -3.333  1.00  0.00     0.064 A 
ATOM     61  C   UNL     1      -9.905   9.681  -2.054  1.00  0.00     0.173 A 
ATOM     62  C   UNL     1     -10.300   8.620  -4.172  1.00  0.00     0.173 A 
ATOM     63  F   UNL     1      -9.119  10.363  -1.206  1.00  0.00    -0.203 F 
ATOM     64  C   UNL     1     -11.167   9.284  -1.620  1.00  0.00     0.198 A 
ATOM     65  C   UNL     1     -11.576   8.255  -3.749  1.00  0.00     0.198 A 
ATOM     66  F   UNL     1      -9.911   8.275  -5.409  1.00  0.00    -0.203 F 
ATOM     67  F   UNL     1     -11.567   9.571  -0.374  1.00  0.00    -0.200 F 
ATOM     68  C   UNL     1     -12.005   8.578  -2.470  1.00  0.00     0.200 A 
ATOM     69  F   UNL     1     -12.390   7.586  -4.577  1.00  0.00    -0.200 F 
ATOM     70  F   UNL     1     -13.222   8.202  -2.055  1.00  0.00    -0.200 F 
ENDBRANCH  46  60
BRANCH  47  71
ATOM     71  C   UNL     1      -0.234  11.655  -6.405  1.00  0.00     0.064 A 
ATOM     72  C   UNL     1       0.280  12.949  -6.238  1.00  0.00     0.173 A 
ATOM     73  C   UNL     1       0.583  10.708  -7.041  1.00  0.00     0.173 A 
ATOM     74  F   UNL     1      -0.470  13.897  -5.655  1.00  0.00    -0.203 F 
ATOM     75  C   UNL     1       1.545  13.290  -6.712  1.00  0.00     0.198 A 
ATOM     76  C   UNL     1       1.861  11.041  -7.484  1.00  0.00     0.198 A 
ATOM     77  F   UNL     1       0.143   9.454  -7.221  1.00  0.00    -0.203 F 
ATOM     78  F   UNL     1       1.988  14.549  -6.587  1.00  0.00    -0.200 F 
ATOM     79  C   UNL     1       2.337  12.334  -7.329  1.00  0.00     0.200 A 
ATOM     80  F   UNL     1       2.630  10.111  -8.065  1.00  0.00    -0.200 F 
ATOM     81  F   UNL     1       3.555  12.661  -7.781  1.00  0.00    -0.200 F 
ENDBRANCH  47  71
BRANCH  59  82
ATOM     82  C   UNL     1      -6.595  13.786  -8.271  1.00  0.00     0.064 A 
ATOM     83  C   UNL     1      -6.459  13.584  -9.654  1.00  0.00     0.173 A 
ATOM     84  C   UNL     1      -7.196  14.979  -7.841  1.00  0.00     0.173 A 
ATOM     85  F   UNL     1      -5.881  12.466 -10.120  1.00  0.00    -0.203 F 
ATOM     86  C   UNL     1      -6.864  14.558 -10.564  1.00  0.00     0.198 A 
ATOM     87  C   UNL     1      -7.634  15.934  -8.755  1.00  0.00     0.198 A 
ATOM     88  F   UNL     1      -7.361  15.221  -6.532  1.00  0.00    -0.203 F 
ATOM     89  F   UNL     1      -6.657  14.373 -11.875  1.00  0.00    -0.200 F 
ATOM     90  C   UNL     1      -7.454  15.729 -10.114  1.00  0.00     0.200 A 
ATOM     91  F   UNL     1      -8.220  17.057  -8.319  1.00  0.00    -0.200 F 
ATOM     92  F   UNL     1      -7.840  16.666 -10.991  1.00  0.00    -0.200 F 
ENDBRANCH  59  82
ENDBRANCH  33  34
ENDBRANCH  25  28
ENDBRANCH  23  24
ENDBRANCH   1  23
TORSDOF 13
