REMARK SMILES O=C(CCCOc1ccc(Cl)cc1Cl)Nc1cccc(C(=O)NCCCCNC(=O)c2ccc(-c3c4nc(c(-c5c(F)c(F)c(F)c(F)c5F)c5ccc([nH]5)c(-c5c(F)c(F)c(F)c(F)c5F)c5nc(c(-c6c(F)c(F)c(F)c(F)c6F)c6ccc3[nH]6)C=C5)C=C4)cc2)c1
REMARK SMILES IDX 21 1 22 2 23 3 20 5 16 6 17 7 94 8 18 9 19 10 15 11 1 12
REMARK SMILES IDX 2 13 3 15 4 16 5 17 6 18 7 19 8 20 13 21 9 22 12 23 14 24
REMARK SMILES IDX 10 25 11 26 24 27 25 28 26 29 27 30 28 31 29 32 30 34 31 35
REMARK SMILES IDX 32 36 93 37 33 38 92 39 34 40 35 41 36 42 86 43 37 44 91 45
REMARK SMILES IDX 85 46 87 47 38 48 90 49 84 50 83 51 39 53 71 54 51 55 70 56
REMARK SMILES IDX 52 57 55 58 69 59 88 60 53 61 54 62 68 64 89 65 56 66 40 67
REMARK SMILES IDX 41 68 49 69 42 70 43 71 47 72 50 73 44 74 45 75 48 76 46 77
REMARK SMILES IDX 72 78 73 79 81 80 74 81 75 82 79 83 82 84 76 85 77 86 80 87
REMARK SMILES IDX 78 88 57 89 58 90 66 91 59 92 60 93 64 94 67 95 61 96 62 97
REMARK SMILES IDX 65 98 63 99
REMARK H PARENT 23 4 15 14 28 33 87 52 55 63
REMARK Flexibility Score: inf
ROOT
ATOM      1  C   UNL     1      -0.633   4.325   0.927  1.00  0.00     0.251 C 
ATOM      2  O   UNL     1      -1.344   5.320   0.813  1.00  0.00    -0.269 OA
ATOM      3  N   UNL     1      -0.780   3.512   2.031  1.00  0.00    -0.352 N 
ATOM      4  H   UNL     1      -1.488   3.786   2.657  1.00  0.00     0.163 HD
ENDROOT
BRANCH   1   5
ATOM      5  C   UNL     1       0.422   4.060  -0.085  1.00  0.00     0.041 A 
ATOM      6  C   UNL     1       1.888   2.503  -1.228  1.00  0.00     0.041 A 
ATOM      7  C   UNL     1       2.660   3.583  -1.672  1.00  0.00     0.026 A 
ATOM      8  C   UNL     1       0.720   2.763  -0.510  1.00  0.00     0.040 A 
ATOM      9  C   UNL     1       2.280   4.897  -1.379  1.00  0.00     0.003 A 
ATOM     10  C   UNL     1       1.171   5.136  -0.567  1.00  0.00     0.014 A 
BRANCH   6  11
ATOM     11  N   UNL     1       2.403   1.196  -1.393  1.00  0.00    -0.326 N 
ATOM     12  O   UNL     1       0.549  -0.099  -0.910  1.00  0.00    -0.275 OA
ATOM     13  C   UNL     1       1.767   0.026  -1.032  1.00  0.00     0.224 C 
ATOM     14  H   UNL     1       3.295   1.114  -1.802  1.00  0.00     0.169 HD
BRANCH  13  15
ATOM     15  C   UNL     1       2.669  -1.119  -0.592  1.00  0.00     0.104 C 
BRANCH  15  16
ATOM     16  C   UNL     1       3.954  -1.396  -1.367  1.00  0.00     0.051 C 
BRANCH  16  17
ATOM     17  C   UNL     1       5.191  -0.622  -0.890  1.00  0.00     0.230 C 
BRANCH  17  18
ATOM     18  O   UNL     1       5.760  -1.187   0.299  1.00  0.00    -0.492 OA
BRANCH  18  19
ATOM     19  C   UNL     1       5.356  -0.583   1.459  1.00  0.00     0.137 A 
ATOM     20  C   UNL     1       4.611  -1.388   2.327  1.00  0.00     0.049 A 
ATOM     21  C   UNL     1       5.686   0.725   1.838  1.00  0.00     0.084 A 
ATOM     22  C   UNL     1       4.106  -0.862   3.515  1.00  0.00     0.024 A 
ATOM     23  C   UNL     1       5.189   1.250   3.034  1.00  0.00     0.045 A 
ATOM     24  Cl  UNL     1       6.737   1.721   0.896  1.00  0.00    -0.080 Cl
ATOM     25  C   UNL     1       4.391   0.458   3.858  1.00  0.00     0.042 A 
ATOM     26  Cl  UNL     1       3.767   1.109   5.323  1.00  0.00    -0.084 Cl
ENDBRANCH  18  19
ENDBRANCH  17  18
ENDBRANCH  16  17
ENDBRANCH  15  16
ENDBRANCH  13  15
ENDBRANCH   6  11
ENDBRANCH   1   5
BRANCH   3  27
ATOM     27  C   UNL     1      -0.052   2.312   2.418  1.00  0.00     0.116 C 
BRANCH  27  28
ATOM     28  C   UNL     1       0.386   2.285   3.876  1.00  0.00     0.023 C 
BRANCH  28  29
ATOM     29  C   UNL     1      -0.725   2.293   4.918  1.00  0.00     0.023 C 
BRANCH  29  30
ATOM     30  C   UNL     1      -1.799   1.224   4.752  1.00  0.00     0.116 C 
BRANCH  30  31
ATOM     31  N   UNL     1      -1.280  -0.136   4.769  1.00  0.00    -0.352 N 
ATOM     32  C   UNL     1      -1.670  -1.221   5.522  1.00  0.00     0.251 C 
ATOM     33  H   UNL     1      -0.537  -0.306   4.147  1.00  0.00     0.163 HD
ATOM     34  O   UNL     1      -1.041  -2.269   5.461  1.00  0.00    -0.269 OA
BRANCH  32  35
ATOM     35  C   UNL     1      -2.826  -1.108   6.442  1.00  0.00     0.039 A 
ATOM     36  C   UNL     1      -2.704  -1.613   7.740  1.00  0.00     0.014 A 
ATOM     37  C   UNL     1      -4.014  -0.492   6.042  1.00  0.00     0.014 A 
ATOM     38  C   UNL     1      -3.736  -1.415   8.662  1.00  0.00     0.010 A 
ATOM     39  C   UNL     1      -5.005  -0.223   6.983  1.00  0.00     0.010 A 
ATOM     40  C   UNL     1      -4.874  -0.675   8.305  1.00  0.00    -0.014 A 
BRANCH  40  41
ATOM     41  C   UNL     1      -5.926  -0.346   9.303  1.00  0.00     0.031 A 
ATOM     42  C   UNL     1      -7.332  -0.849   9.119  1.00  0.00     0.074 A 
ATOM     43  C   UNL     1      -5.636   0.475  10.332  1.00  0.00     0.049 A 
ATOM     44  N   UNL     1      -8.400  -0.603   9.836  1.00  0.00    -0.248 NA
ATOM     45  C   UNL     1      -7.578  -1.718   7.958  1.00  0.00     0.031 C 
ATOM     46  C   UNL     1      -4.329   1.085  10.585  1.00  0.00     0.029 A 
ATOM     47  N   UNL     1      -6.426   0.954  11.348  1.00  0.00    -0.354 N 
ATOM     48  C   UNL     1      -9.442  -1.266   9.201  1.00  0.00     0.074 A 
ATOM     49  C   UNL     1      -8.891  -1.886   8.016  1.00  0.00     0.031 C 
ATOM     50  C   UNL     1      -4.403   1.842  11.692  1.00  0.00     0.029 A 
ATOM     51  C   UNL     1      -5.767   1.801  12.207  1.00  0.00     0.049 A 
ATOM     52  H   UNL     1      -7.375   0.713  11.452  1.00  0.00     0.167 HD
ATOM     53  C   UNL     1     -10.738  -1.365   9.584  1.00  0.00     0.037 A 
ATOM     54  C   UNL     1      -6.215   2.476  13.284  1.00  0.00     0.037 A 
ATOM     55  C   UNL     1     -11.276  -0.782  10.784  1.00  0.00     0.049 A 
ATOM     56  C   UNL     1      -7.653   2.322  13.703  1.00  0.00     0.074 A 
ATOM     57  C   UNL     1     -12.554  -0.902  11.302  1.00  0.00     0.029 A 
ATOM     58  N   UNL     1     -10.566   0.031  11.654  1.00  0.00    -0.354 N 
ATOM     59  N   UNL     1      -8.607   1.619  13.143  1.00  0.00    -0.248 NA
ATOM     60  C   UNL     1      -8.073   3.047  14.910  1.00  0.00     0.031 C 
ATOM     61  C   UNL     1     -12.631  -0.124  12.462  1.00  0.00     0.029 A 
ATOM     62  C   UNL     1     -11.387   0.439  12.694  1.00  0.00     0.049 A 
ATOM     63  H   UNL     1      -9.620   0.282  11.549  1.00  0.00     0.167 HD
ATOM     64  C   UNL     1      -9.729   1.794  13.942  1.00  0.00     0.074 A 
ATOM     65  C   UNL     1      -9.333   2.656  15.036  1.00  0.00     0.031 C 
ATOM     66  C   UNL     1     -10.976   1.289  13.782  1.00  0.00     0.037 A 
BRANCH  53  67
ATOM     67  C   UNL     1     -11.669  -2.144   8.701  1.00  0.00     0.064 A 
ATOM     68  C   UNL     1     -11.589  -3.541   8.596  1.00  0.00     0.173 A 
ATOM     69  C   UNL     1     -12.693  -1.491   7.997  1.00  0.00     0.173 A 
ATOM     70  F   UNL     1     -10.623  -4.211   9.242  1.00  0.00    -0.203 F 
ATOM     71  C   UNL     1     -12.483  -4.252   7.801  1.00  0.00     0.198 A 
ATOM     72  C   UNL     1     -13.603  -2.209   7.226  1.00  0.00     0.198 A 
ATOM     73  F   UNL     1     -12.818  -0.157   8.068  1.00  0.00    -0.203 F 
ATOM     74  F   UNL     1     -12.362  -5.582   7.685  1.00  0.00    -0.200 F 
ATOM     75  C   UNL     1     -13.495  -3.587   7.125  1.00  0.00     0.200 A 
ATOM     76  F   UNL     1     -14.589  -1.566   6.584  1.00  0.00    -0.200 F 
ATOM     77  F   UNL     1     -14.363  -4.276   6.371  1.00  0.00    -0.200 F 
ENDBRANCH  53  67
BRANCH  54  78
ATOM     78  C   UNL     1      -5.290   3.347  14.057  1.00  0.00     0.064 A 
ATOM     79  C   UNL     1      -4.891   3.001  15.355  1.00  0.00     0.173 A 
ATOM     80  C   UNL     1      -4.804   4.549  13.523  1.00  0.00     0.173 A 
ATOM     81  F   UNL     1      -5.347   1.872  15.918  1.00  0.00    -0.203 F 
ATOM     82  C   UNL     1      -4.063   3.838  16.101  1.00  0.00     0.198 A 
ATOM     83  C   UNL     1      -3.952   5.370  14.259  1.00  0.00     0.198 A 
ATOM     84  F   UNL     1      -5.151   4.923  12.283  1.00  0.00    -0.203 F 
ATOM     85  F   UNL     1      -3.741   3.509  17.360  1.00  0.00    -0.200 F 
ATOM     86  C   UNL     1      -3.590   5.019  15.551  1.00  0.00     0.200 A 
ATOM     87  F   UNL     1      -3.486   6.505  13.718  1.00  0.00    -0.200 F 
ATOM     88  F   UNL     1      -2.795   5.824  16.268  1.00  0.00    -0.200 F 
ENDBRANCH  54  78
BRANCH  66  89
ATOM     89  C   UNL     1     -11.995   1.624  14.831  1.00  0.00     0.064 A 
ATOM     90  C   UNL     1     -12.543   2.910  14.942  1.00  0.00     0.173 A 
ATOM     91  C   UNL     1     -12.457   0.634  15.713  1.00  0.00     0.173 A 
ATOM     92  F   UNL     1     -12.123   3.894  14.132  1.00  0.00    -0.203 F 
ATOM     93  C   UNL     1     -13.497   3.200  15.913  1.00  0.00     0.198 A 
ATOM     94  C   UNL     1     -13.433   0.920  16.663  1.00  0.00     0.198 A 
ATOM     95  F   UNL     1     -11.970  -0.614  15.644  1.00  0.00    -0.203 F 
ATOM     96  F   UNL     1     -13.971   4.448  16.032  1.00  0.00    -0.200 F 
ATOM     97  C   UNL     1     -13.947   2.204  16.767  1.00  0.00     0.200 A 
ATOM     98  F   UNL     1     -13.877  -0.047  17.478  1.00  0.00    -0.200 F 
ATOM     99  F   UNL     1     -14.870   2.483  17.697  1.00  0.00    -0.200 F 
ENDBRANCH  66  89
ENDBRANCH  40  41
ENDBRANCH  32  35
ENDBRANCH  30  31
ENDBRANCH  29  30
ENDBRANCH  28  29
ENDBRANCH  27  28
ENDBRANCH   3  27
TORSDOF 17
