REMARK SMILES CC[N@@H+](C)Cc1cc2c(cc1Cl)C=C(C(=O)NCCCCNC(=O)c1ccc(-c3c4nc(c(-c5c(F)c(F)c(F)c(F)c5F)c5ccc([nH]5)c(-c5c(F)c(F)c(F)c(F)c5F)c5nc(c(-c6c(F)c(F)c(F)c(F)c6F)c6ccc3[nH]6)C=C5)C=C4)cc1)[C@@H](C(F)(F)F)O2
REMARK SMILES IDX 19 1 18 2 17 3 15 4 16 5 14 7 6 8 7 9 11 10 8 11 10 12 12 13
REMARK SMILES IDX 9 14 93 15 13 16 88 17 5 18 3 19 4 20 2 22 1 23 89 24 90 25
REMARK SMILES IDX 91 26 92 27 20 28 21 29 22 30 23 31 24 33 25 34 26 35 87 36
REMARK SMILES IDX 27 37 86 38 28 39 29 40 30 41 80 42 31 43 85 44 79 45 81 46
REMARK SMILES IDX 32 47 84 48 78 49 77 50 33 52 65 53 45 54 64 55 46 56 49 57
REMARK SMILES IDX 63 58 82 59 47 60 48 61 62 63 83 64 50 65 34 66 35 67 43 68
REMARK SMILES IDX 36 69 37 70 41 71 44 72 38 73 39 74 42 75 40 76 66 77 67 78
REMARK SMILES IDX 75 79 68 80 69 81 73 82 76 83 70 84 71 85 74 86 72 87 51 88
REMARK SMILES IDX 52 89 60 90 53 91 54 92 58 93 61 94 55 95 56 96 59 97 57 98
REMARK H PARENT 17 6 3 21 22 32 81 51 49 62
REMARK Flexibility Score: inf
ROOT
ATOM      1  C   UNL     1       1.135  10.515   0.347  1.00  0.00     0.023 C 
ENDROOT
BRANCH   1   2
ATOM      2  C   UNL     1       2.609  10.275   0.029  1.00  0.00     0.116 C 
BRANCH   2   3
ATOM      3  N   UNL     1       3.310   9.613   1.116  1.00  0.00    -0.352 N 
ATOM      4  C   UNL     1       3.773   8.368   1.382  1.00  0.00     0.251 C 
ATOM      5  O   UNL     1       4.351   8.243   2.466  1.00  0.00    -0.270 OA
ATOM      6  H   UNL     1       3.498  10.234   1.856  1.00  0.00     0.163 HD
BRANCH   4   7
ATOM      7  C   UNL     1       3.620   7.182   0.487  1.00  0.00     0.067 C 
ATOM      8  C   UNL     1       3.103   2.435  -1.188  1.00  0.00     0.029 A 
ATOM      9  C   UNL     1       2.822   3.709  -1.703  1.00  0.00     0.058 A 
ATOM     10  C   UNL     1       3.834   2.366   0.011  1.00  0.00     0.050 A 
ATOM     11  C   UNL     1       3.121   4.861  -0.983  1.00  0.00     0.128 A 
ATOM     12  C   UNL     1       4.158   3.532   0.722  1.00  0.00     0.033 A 
ATOM     13  Cl  UNL     1       4.378   0.872   0.686  1.00  0.00    -0.084 Cl
ATOM     14  C   UNL     1       3.765   4.783   0.245  1.00  0.00     0.019 A 
ATOM     15  O   UNL     1       2.667   6.026  -1.521  1.00  0.00    -0.475 OA
ATOM     16  C   UNL     1       3.944   5.995   1.033  1.00  0.00     0.025 C 
ATOM     17  C   UNL     1       3.157   7.261  -0.940  1.00  0.00     0.314 C 
BRANCH   8  18
ATOM     18  C   UNL     1       2.563   1.222  -1.923  1.00  0.00     0.300 C 
BRANCH  18  19
ATOM     19  N   UNL     1       1.095   1.028  -1.892  1.00  0.00    -0.334 N 
ATOM     20  C   UNL     1       0.351   1.970  -2.724  1.00  0.00     0.333 C 
ATOM     21  H   UNL     1       0.989   0.104  -2.310  1.00  0.00     0.348 HD
BRANCH  19  22
ATOM     22  C   UNL     1       0.509   0.945  -0.549  1.00  0.00     0.258 C 
ATOM     23  C   UNL     1       0.822  -0.373   0.144  1.00  0.00     0.071 C 
ENDBRANCH  19  22
ENDBRANCH  18  19
ENDBRANCH   8  18
BRANCH  17  24
ATOM     24  C   UNL     1       4.229   7.845  -1.877  1.00  0.00     0.429 C 
ATOM     25  F   UNL     1       3.674   8.202  -3.063  1.00  0.00    -0.167 F 
ATOM     26  F   UNL     1       4.808   8.960  -1.375  1.00  0.00    -0.167 F 
ATOM     27  F   UNL     1       5.221   6.966  -2.141  1.00  0.00    -0.167 F 
ENDBRANCH  17  24
ENDBRANCH   4   7
ENDBRANCH   2   3
ENDBRANCH   1   2
BRANCH   1  28
ATOM     28  C   UNL     1       0.852  11.829   1.080  1.00  0.00     0.023 C 
BRANCH  28  29
ATOM     29  C   UNL     1       1.369  13.088   0.387  1.00  0.00     0.116 C 
BRANCH  29  30
ATOM     30  N   UNL     1       0.933  13.246  -0.995  1.00  0.00    -0.352 N 
ATOM     31  C   UNL     1       0.920  14.406  -1.741  1.00  0.00     0.251 C 
ATOM     32  H   UNL     1       0.612  12.433  -1.447  1.00  0.00     0.163 HD
ATOM     33  O   UNL     1       0.451  14.427  -2.873  1.00  0.00    -0.269 OA
BRANCH  31  34
ATOM     34  C   UNL     1       1.423  15.646  -1.115  1.00  0.00     0.039 A 
ATOM     35  C   UNL     1       2.681  15.659  -0.513  1.00  0.00     0.014 A 
ATOM     36  C   UNL     1       0.576  16.752  -1.017  1.00  0.00     0.014 A 
ATOM     37  C   UNL     1       3.004  16.690   0.359  1.00  0.00     0.010 A 
ATOM     38  C   UNL     1       0.943  17.830  -0.206  1.00  0.00     0.010 A 
ATOM     39  C   UNL     1       2.126  17.771   0.547  1.00  0.00    -0.014 A 
BRANCH  39  40
ATOM     40  C   UNL     1       2.450  18.781   1.589  1.00  0.00     0.031 A 
ATOM     41  C   UNL     1       1.601  18.906   2.828  1.00  0.00     0.074 A 
ATOM     42  C   UNL     1       3.580  19.504   1.472  1.00  0.00     0.049 A 
ATOM     43  N   UNL     1       1.798  19.646   3.891  1.00  0.00    -0.248 NA
ATOM     44  C   UNL     1       0.372  18.099   2.887  1.00  0.00     0.031 C 
ATOM     45  C   UNL     1       4.488  19.459   0.325  1.00  0.00     0.029 A 
ATOM     46  N   UNL     1       4.184  20.375   2.343  1.00  0.00    -0.354 N 
ATOM     47  C   UNL     1       0.717  19.407   4.729  1.00  0.00     0.074 A 
ATOM     48  C   UNL     1      -0.152  18.477   4.045  1.00  0.00     0.031 C 
ATOM     49  C   UNL     1       5.571  20.202   0.596  1.00  0.00     0.029 A 
ATOM     50  C   UNL     1       5.409  20.817   1.909  1.00  0.00     0.049 A 
ATOM     51  H   UNL     1       3.778  20.655   3.195  1.00  0.00     0.167 HD
ATOM     52  C   UNL     1       0.480  19.905   5.966  1.00  0.00     0.037 A 
ATOM     53  C   UNL     1       6.307  21.624   2.506  1.00  0.00     0.037 A 
ATOM     54  C   UNL     1       1.365  20.797   6.667  1.00  0.00     0.049 A 
ATOM     55  C   UNL     1       6.001  22.189   3.863  1.00  0.00     0.074 A 
ATOM     56  C   UNL     1       1.232  21.314   7.944  1.00  0.00     0.029 A 
ATOM     57  N   UNL     1       2.550  21.298   6.152  1.00  0.00    -0.354 N 
ATOM     58  N   UNL     1       4.982  21.942   4.648  1.00  0.00    -0.248 NA
ATOM     59  C   UNL     1       6.960  23.162   4.407  1.00  0.00     0.031 C 
ATOM     60  C   UNL     1       2.319  22.159   8.188  1.00  0.00     0.029 A 
ATOM     61  C   UNL     1       3.144  22.142   7.075  1.00  0.00     0.049 A 
ATOM     62  H   UNL     1       2.915  21.086   5.263  1.00  0.00     0.167 HD
ATOM     63  C   UNL     1       5.172  22.729   5.775  1.00  0.00     0.074 A 
ATOM     64  C   UNL     1       6.418  23.442   5.585  1.00  0.00     0.031 C 
ATOM     65  C   UNL     1       4.377  22.854   6.864  1.00  0.00     0.037 A 
BRANCH  52  66
ATOM     66  C   UNL     1      -0.787  19.498   6.657  1.00  0.00     0.064 A 
ATOM     67  C   UNL     1      -0.934  18.225   7.226  1.00  0.00     0.173 A 
ATOM     68  C   UNL     1      -1.834  20.417   6.820  1.00  0.00     0.173 A 
ATOM     69  F   UNL     1       0.036  17.308   7.089  1.00  0.00    -0.203 F 
ATOM     70  C   UNL     1      -2.089  17.884   7.925  1.00  0.00     0.198 A 
ATOM     71  C   UNL     1      -2.978  20.079   7.537  1.00  0.00     0.198 A 
ATOM     72  F   UNL     1      -1.738  21.650   6.299  1.00  0.00    -0.203 F 
ATOM     73  F   UNL     1      -2.219  16.653   8.440  1.00  0.00    -0.200 F 
ATOM     74  C   UNL     1      -3.106  18.813   8.087  1.00  0.00     0.200 A 
ATOM     75  F   UNL     1      -3.956  20.982   7.701  1.00  0.00    -0.200 F 
ATOM     76  F   UNL     1      -4.211  18.487   8.772  1.00  0.00    -0.200 F 
ENDBRANCH  52  66
BRANCH  53  77
ATOM     77  C   UNL     1       7.587  21.929   1.818  1.00  0.00     0.064 A 
ATOM     78  C   UNL     1       8.795  21.395   2.284  1.00  0.00     0.173 A 
ATOM     79  C   UNL     1       7.622  22.725   0.665  1.00  0.00     0.173 A 
ATOM     80  F   UNL     1       8.812  20.644   3.395  1.00  0.00    -0.203 F 
ATOM     81  C   UNL     1       9.994  21.647   1.620  1.00  0.00     0.198 A 
ATOM     82  C   UNL     1       8.817  22.956  -0.012  1.00  0.00     0.198 A 
ATOM     83  F   UNL     1       6.490  23.256   0.180  1.00  0.00    -0.203 F 
ATOM     84  F   UNL     1      11.140  21.144   2.098  1.00  0.00    -0.200 F 
ATOM     85  C   UNL     1      10.002  22.419   0.468  1.00  0.00     0.200 A 
ATOM     86  F   UNL     1       8.819  23.690  -1.133  1.00  0.00    -0.200 F 
ATOM     87  F   UNL     1      11.153  22.648  -0.179  1.00  0.00    -0.200 F 
ENDBRANCH  53  77
BRANCH  65  88
ATOM     88  C   UNL     1       4.811  23.812   7.930  1.00  0.00     0.064 A 
ATOM     89  C   UNL     1       4.642  25.194   7.767  1.00  0.00     0.173 A 
ATOM     90  C   UNL     1       5.315  23.346   9.152  1.00  0.00     0.173 A 
ATOM     91  F   UNL     1       4.175  25.685   6.609  1.00  0.00    -0.203 F 
ATOM     92  C   UNL     1       4.966  26.078   8.792  1.00  0.00     0.198 A 
ATOM     93  C   UNL     1       5.619  24.231  10.183  1.00  0.00     0.198 A 
ATOM     94  F   UNL     1       5.486  22.031   9.355  1.00  0.00    -0.203 F 
ATOM     95  F   UNL     1       4.814  27.397   8.611  1.00  0.00    -0.200 F 
ATOM     96  C   UNL     1       5.444  25.595  10.002  1.00  0.00     0.200 A 
ATOM     97  F   UNL     1       6.070  23.763  11.355  1.00  0.00    -0.200 F 
ATOM     98  F   UNL     1       5.738  26.446  10.994  1.00  0.00    -0.200 F 
ENDBRANCH  65  88
ENDBRANCH  39  40
ENDBRANCH  31  34
ENDBRANCH  29  30
ENDBRANCH  28  29
ENDBRANCH   1  28
TORSDOF 15
