REMARK SMILES CCCCCC(=O)N[C@H](C)C(=O)NCCCCNC(=O)c1ccc(-c2c3nc(c(-c4c(F)c(F)c(F)c(F)c4F)c4ccc([nH]4)c(-c4c(F)c(F)c(F)c(F)c4F)c4nc(c(-c5c(F)c(F)c(F)c(F)c5F)c5ccc2[nH]5)C=C4)C=C3)cc1
REMARK SMILES IDX 14 1 13 2 11 3 12 4 9 6 10 7 8 8 6 9 7 10 5 12 4 13 3 14
REMARK SMILES IDX 2 15 1 16 15 17 16 18 17 19 18 20 19 21 20 23 21 24 22 25
REMARK SMILES IDX 83 26 23 27 82 28 24 29 25 30 26 31 76 32 27 33 81 34 75 35
REMARK SMILES IDX 77 36 28 37 80 38 74 39 73 40 29 42 61 43 41 44 60 45 42 46
REMARK SMILES IDX 45 47 59 48 78 49 43 50 44 51 58 53 79 54 46 55 30 56 31 57
REMARK SMILES IDX 39 58 32 59 33 60 37 61 40 62 34 63 35 64 38 65 36 66 62 67
REMARK SMILES IDX 63 68 71 69 64 70 65 71 69 72 72 73 66 74 67 75 70 76 68 77
REMARK SMILES IDX 47 78 48 79 56 80 49 81 50 82 54 83 57 84 51 85 52 86 55 87
REMARK SMILES IDX 53 88
REMARK H PARENT 13 5 8 11 18 22 77 41 45 52
REMARK Flexibility Score: inf
ROOT
ATOM      1  C   UNL     1      -1.150   4.450   4.624  1.00  0.00     0.116 C 
ENDROOT
BRANCH   1   2
ATOM      2  N   UNL     1      -1.187   3.030   4.371  1.00  0.00    -0.354 N 
ATOM      3  C   UNL     1      -0.987   2.373   3.197  1.00  0.00     0.242 C 
ATOM      4  O   UNL     1      -1.252   1.169   3.161  1.00  0.00    -0.273 OA
ATOM      5  H   UNL     1      -1.382   2.462   5.151  1.00  0.00     0.163 HD
BRANCH   3   6
ATOM      6  C   UNL     1      -0.374   3.090   1.981  1.00  0.00     0.168 C 
ATOM      7  C   UNL     1      -1.181   4.247   1.410  1.00  0.00     0.041 C 
BRANCH   6   8
ATOM      8  N   UNL     1       1.020   3.411   2.256  1.00  0.00    -0.345 N 
ATOM      9  C   UNL     1       2.091   3.366   1.418  1.00  0.00     0.220 C 
ATOM     10  O   UNL     1       3.215   3.485   1.907  1.00  0.00    -0.275 OA
ATOM     11  H   UNL     1       1.214   3.701   3.177  1.00  0.00     0.164 HD
BRANCH   9  12
ATOM     12  C   UNL     1       1.896   3.220  -0.080  1.00  0.00     0.100 C 
BRANCH  12  13
ATOM     13  C   UNL     1       2.011   1.792  -0.621  1.00  0.00     0.010 C 
BRANCH  13  14
ATOM     14  C   UNL     1       0.771   0.892  -0.522  1.00  0.00     0.000 C 
BRANCH  14  15
ATOM     15  C   UNL     1      -0.525   1.452  -1.127  1.00  0.00    -0.003 C 
ATOM     16  C   UNL     1      -0.594   1.359  -2.639  1.00  0.00     0.004 C 
ENDBRANCH  14  15
ENDBRANCH  13  14
ENDBRANCH  12  13
ENDBRANCH   9  12
ENDBRANCH   6   8
ENDBRANCH   3   6
ENDBRANCH   1   2
BRANCH   1  17
ATOM     17  C   UNL     1      -2.534   5.066   4.407  1.00  0.00     0.023 C 
BRANCH  17  18
ATOM     18  C   UNL     1      -3.581   4.630   5.432  1.00  0.00     0.023 C 
BRANCH  18  19
ATOM     19  C   UNL     1      -3.142   4.782   6.879  1.00  0.00     0.116 C 
BRANCH  19  20
ATOM     20  N   UNL     1      -2.610   6.104   7.171  1.00  0.00    -0.352 N 
ATOM     21  C   UNL     1      -2.658   6.800   8.351  1.00  0.00     0.251 C 
ATOM     22  H   UNL     1      -2.156   6.557   6.425  1.00  0.00     0.163 HD
ATOM     23  O   UNL     1      -2.254   7.951   8.415  1.00  0.00    -0.269 OA
BRANCH  21  24
ATOM     24  C   UNL     1      -3.245   6.144   9.533  1.00  0.00     0.039 A 
ATOM     25  C   UNL     1      -4.213   6.832  10.263  1.00  0.00     0.014 A 
ATOM     26  C   UNL     1      -2.864   4.848   9.890  1.00  0.00     0.014 A 
ATOM     27  C   UNL     1      -4.829   6.201  11.341  1.00  0.00     0.010 A 
ATOM     28  C   UNL     1      -3.541   4.190  10.907  1.00  0.00     0.010 A 
ATOM     29  C   UNL     1      -4.511   4.870  11.657  1.00  0.00    -0.014 A 
BRANCH  29  30
ATOM     30  C   UNL     1      -5.147   4.196  12.811  1.00  0.00     0.031 A 
ATOM     31  C   UNL     1      -4.307   3.791  13.990  1.00  0.00     0.074 A 
ATOM     32  C   UNL     1      -6.465   3.924  12.781  1.00  0.00     0.049 A 
ATOM     33  N   UNL     1      -4.666   3.187  15.094  1.00  0.00    -0.248 NA
ATOM     34  C   UNL     1      -2.865   4.073  13.904  1.00  0.00     0.031 C 
ATOM     35  C   UNL     1      -7.364   4.217  11.664  1.00  0.00     0.029 A 
ATOM     36  N   UNL     1      -7.277   3.341  13.719  1.00  0.00    -0.354 N 
ATOM     37  C   UNL     1      -3.497   3.008  15.820  1.00  0.00     0.074 A 
ATOM     38  C   UNL     1      -2.409   3.501  15.007  1.00  0.00     0.031 C 
ATOM     39  C   UNL     1      -8.611   3.844  11.996  1.00  0.00     0.029 A 
ATOM     40  C   UNL     1      -8.592   3.263  13.334  1.00  0.00     0.049 A 
ATOM     41  H   UNL     1      -6.948   3.010  14.586  1.00  0.00     0.167 HD
ATOM     42  C   UNL     1      -3.348   2.509  17.070  1.00  0.00     0.037 A 
ATOM     43  C   UNL     1      -9.661   2.783  13.998  1.00  0.00     0.037 A 
ATOM     44  C   UNL     1      -4.441   2.050  17.885  1.00  0.00     0.049 A 
ATOM     45  C   UNL     1      -9.472   2.256  15.395  1.00  0.00     0.074 A 
ATOM     46  C   UNL     1      -4.411   1.574  19.183  1.00  0.00     0.029 A 
ATOM     47  N   UNL     1      -5.766   2.015  17.474  1.00  0.00    -0.354 N 
ATOM     48  N   UNL     1      -8.373   2.160  16.104  1.00  0.00    -0.248 NA
ATOM     49  C   UNL     1     -10.678   1.788  16.090  1.00  0.00     0.031 C 
ATOM     50  C   UNL     1      -5.714   1.212  19.544  1.00  0.00     0.029 A 
ATOM     51  C   UNL     1      -6.562   1.514  18.491  1.00  0.00     0.049 A 
ATOM     52  H   UNL     1      -6.092   2.304  16.591  1.00  0.00     0.167 HD
ATOM     53  C   UNL     1      -8.758   1.655  17.338  1.00  0.00     0.074 A 
ATOM     54  C   UNL     1     -10.195   1.480  17.285  1.00  0.00     0.031 C 
ATOM     55  C   UNL     1      -7.993   1.361  18.419  1.00  0.00     0.037 A 
BRANCH  42  56
ATOM     56  C   UNL     1      -1.956   2.444  17.628  1.00  0.00     0.064 A 
ATOM     57  C   UNL     1      -1.238   3.606  17.953  1.00  0.00     0.173 A 
ATOM     58  C   UNL     1      -1.335   1.207  17.855  1.00  0.00     0.173 A 
ATOM     59  F   UNL     1      -1.779   4.816  17.740  1.00  0.00    -0.203 F 
ATOM     60  C   UNL     1       0.060   3.533  18.451  1.00  0.00     0.198 A 
ATOM     61  C   UNL     1      -0.049   1.137  18.386  1.00  0.00     0.198 A 
ATOM     62  F   UNL     1      -1.975   0.065  17.564  1.00  0.00    -0.203 F 
ATOM     63  F   UNL     1       0.746   4.658  18.698  1.00  0.00    -0.200 F 
ATOM     64  C   UNL     1       0.650   2.299  18.674  1.00  0.00     0.200 A 
ATOM     65  F   UNL     1       0.516  -0.057  18.611  1.00  0.00    -0.200 F 
ATOM     66  F   UNL     1       1.898   2.229  19.159  1.00  0.00    -0.200 F 
ENDBRANCH  42  56
BRANCH  43  67
ATOM     67  C   UNL     1     -11.007   2.826  13.370  1.00  0.00     0.064 A 
ATOM     68  C   UNL     1     -12.000   3.688  13.856  1.00  0.00     0.173 A 
ATOM     69  C   UNL     1     -11.332   2.005  12.281  1.00  0.00     0.173 A 
ATOM     70  F   UNL     1     -11.743   4.481  14.906  1.00  0.00    -0.203 F 
ATOM     71  C   UNL     1     -13.275   3.708  13.294  1.00  0.00     0.198 A 
ATOM     72  C   UNL     1     -12.598   2.047  11.701  1.00  0.00     0.198 A 
ATOM     73  F   UNL     1     -10.414   1.170  11.772  1.00  0.00    -0.203 F 
ATOM     74  F   UNL     1     -14.220   4.505  13.810  1.00  0.00    -0.200 F 
ATOM     75  C   UNL     1     -13.572   2.891  12.214  1.00  0.00     0.200 A 
ATOM     76  F   UNL     1     -12.876   1.267  10.647  1.00  0.00    -0.200 F 
ATOM     77  F   UNL     1     -14.797   2.911  11.673  1.00  0.00    -0.200 F 
ENDBRANCH  43  67
BRANCH  55  78
ATOM     78  C   UNL     1      -8.704   0.868  19.646  1.00  0.00     0.064 A 
ATOM     79  C   UNL     1      -9.288  -0.406  19.700  1.00  0.00     0.173 A 
ATOM     80  C   UNL     1      -8.777   1.675  20.792  1.00  0.00     0.173 A 
ATOM     81  F   UNL     1      -9.255  -1.210  18.626  1.00  0.00    -0.203 F 
ATOM     82  C   UNL     1      -9.951  -0.840  20.844  1.00  0.00     0.198 A 
ATOM     83  C   UNL     1      -9.412   1.224  21.945  1.00  0.00     0.198 A 
ATOM     84  F   UNL     1      -8.226   2.898  20.795  1.00  0.00    -0.203 F 
ATOM     85  F   UNL     1     -10.553  -2.037  20.853  1.00  0.00    -0.200 F 
ATOM     86  C   UNL     1     -10.008  -0.028  21.967  1.00  0.00     0.200 A 
ATOM     87  F   UNL     1      -9.452   2.004  23.034  1.00  0.00    -0.200 F 
ATOM     88  F   UNL     1     -10.645  -0.448  23.068  1.00  0.00    -0.200 F 
ENDBRANCH  55  78
ENDBRANCH  29  30
ENDBRANCH  21  24
ENDBRANCH  19  20
ENDBRANCH  18  19
ENDBRANCH  17  18
ENDBRANCH   1  17
TORSDOF 16
