REMARK SMILES CC(C)(C(=O)NCCCCNC(=O)c1ccc(-c2c3nc(c(-c4c(F)c(F)c(F)c(F)c4F)c4ccc([nH]4)c(-c4c(F)c(F)c(F)c(F)c4F)c4nc(c(-c5c(F)c(F)c(F)c(F)c5F)c5ccc2[nH]5)C=C4)C=C3)cc1)n1nnnc1C(F)(F)C(F)F
REMARK SMILES IDX 8 1 7 2 6 3 4 4 5 5 2 7 1 8 3 9 77 10 78 11 81 12 79 13
REMARK SMILES IDX 80 14 82 15 83 16 84 17 85 18 86 19 87 20 9 21 10 22 11 23
REMARK SMILES IDX 12 24 13 26 14 27 15 28 76 29 16 30 75 31 17 32 18 33 19 34
REMARK SMILES IDX 69 35 20 36 74 37 68 38 70 39 21 40 73 41 67 42 66 43 22 45
REMARK SMILES IDX 54 46 34 47 53 48 35 49 38 50 52 51 71 52 36 53 37 54 51 56
REMARK SMILES IDX 72 57 39 58 23 59 24 60 32 61 25 62 26 63 30 64 33 65 27 66
REMARK SMILES IDX 28 67 31 68 29 69 55 70 56 71 64 72 57 73 58 74 62 75 65 76
REMARK SMILES IDX 59 77 60 78 63 79 61 80 40 81 41 82 49 83 42 84 43 85 47 86
REMARK SMILES IDX 50 87 44 88 45 89 48 90 46 91
REMARK H PARENT 6 6 11 25 70 44 38 55
REMARK Flexibility Score: inf
ROOT
ATOM      1  C   UNL     1      -1.191  -1.174  -2.337  1.00  0.00     0.023 C 
ENDROOT
BRANCH   1   2
ATOM      2  C   UNL     1      -1.025   0.342  -2.258  1.00  0.00     0.116 C 
BRANCH   2   3
ATOM      3  N   UNL     1      -1.395   0.833  -0.944  1.00  0.00    -0.354 N 
ATOM      4  C   UNL     1      -0.647   1.216   0.130  1.00  0.00     0.247 C 
ATOM      5  O   UNL     1      -1.268   1.337   1.191  1.00  0.00    -0.272 OA
ATOM      6  H   UNL     1      -2.367   0.902  -0.801  1.00  0.00     0.163 HD
BRANCH   4   7
ATOM      7  C   UNL     1       0.870   1.515   0.043  1.00  0.00     0.139 C 
ATOM      8  C   UNL     1       1.706   0.337  -0.471  1.00  0.00     0.047 C 
ATOM      9  C   UNL     1       1.072   2.669  -0.994  1.00  0.00     0.047 C 
BRANCH   7  10
ATOM     10  N   UNL     1       1.319   1.984   1.379  1.00  0.00    -0.209 N 
ATOM     11  N   UNL     1       1.375   3.336   1.532  1.00  0.00    -0.044 NA
ATOM     12  C   UNL     1       1.682   1.408   2.590  1.00  0.00     0.228 A 
ATOM     13  N   UNL     1       1.782   3.571   2.757  1.00  0.00    -0.024 NA
ATOM     14  N   UNL     1       1.990   2.409   3.412  1.00  0.00    -0.107 NA
BRANCH  12  15
ATOM     15  C   UNL     1       1.768   0.011   3.119  1.00  0.00     0.367 C 
ATOM     16  F   UNL     1       3.054  -0.207   3.563  1.00  0.00    -0.191 F 
ATOM     17  F   UNL     1       1.012  -0.056   4.270  1.00  0.00    -0.191 F 
BRANCH  15  18
ATOM     18  C   UNL     1       1.392  -1.208   2.309  1.00  0.00     0.419 C 
ATOM     19  F   UNL     1       0.202  -1.070   1.679  1.00  0.00    -0.203 F 
ATOM     20  F   UNL     1       2.317  -1.487   1.357  1.00  0.00    -0.203 F 
ENDBRANCH  15  18
ENDBRANCH  12  15
ENDBRANCH   7  10
ENDBRANCH   4   7
ENDBRANCH   2   3
ENDBRANCH   1   2
BRANCH   1  21
ATOM     21  C   UNL     1      -2.642  -1.645  -2.458  1.00  0.00     0.023 C 
BRANCH  21  22
ATOM     22  C   UNL     1      -3.390  -1.140  -3.689  1.00  0.00     0.116 C 
BRANCH  22  23
ATOM     23  N   UNL     1      -2.722  -1.455  -4.943  1.00  0.00    -0.352 N 
ATOM     24  C   UNL     1      -3.281  -1.762  -6.159  1.00  0.00     0.251 C 
ATOM     25  H   UNL     1      -1.738  -1.448  -4.915  1.00  0.00     0.163 HD
ATOM     26  O   UNL     1      -2.571  -2.101  -7.101  1.00  0.00    -0.269 OA
BRANCH  24  27
ATOM     27  C   UNL     1      -4.749  -1.722  -6.314  1.00  0.00     0.039 A 
ATOM     28  C   UNL     1      -5.394  -2.824  -6.880  1.00  0.00     0.014 A 
ATOM     29  C   UNL     1      -5.484  -0.619  -5.872  1.00  0.00     0.014 A 
ATOM     30  C   UNL     1      -6.788  -2.850  -6.939  1.00  0.00     0.010 A 
ATOM     31  C   UNL     1      -6.874  -0.675  -5.871  1.00  0.00     0.010 A 
ATOM     32  C   UNL     1      -7.539  -1.792  -6.400  1.00  0.00    -0.014 A 
BRANCH  32  33
ATOM     33  C   UNL     1      -9.021  -1.839  -6.373  1.00  0.00     0.031 A 
ATOM     34  C   UNL     1      -9.821  -0.849  -7.170  1.00  0.00     0.074 A 
ATOM     35  C   UNL     1      -9.643  -2.726  -5.573  1.00  0.00     0.049 A 
ATOM     36  N   UNL     1     -11.117  -0.677  -7.216  1.00  0.00    -0.248 NA
ATOM     37  C   UNL     1      -9.059   0.092  -8.006  1.00  0.00     0.031 C 
ATOM     38  C   UNL     1      -8.974  -3.702  -4.711  1.00  0.00     0.029 A 
ATOM     39  N   UNL     1     -10.979  -2.941  -5.343  1.00  0.00    -0.354 N 
ATOM     40  C   UNL     1     -11.325   0.396  -8.072  1.00  0.00     0.074 A 
ATOM     41  C   UNL     1     -10.020   0.871  -8.480  1.00  0.00     0.031 C 
ATOM     42  C   UNL     1      -9.902  -4.421  -4.059  1.00  0.00     0.029 A 
ATOM     43  C   UNL     1     -11.228  -3.936  -4.430  1.00  0.00     0.049 A 
ATOM     44  H   UNL     1     -11.692  -2.430  -5.791  1.00  0.00     0.167 HD
ATOM     45  C   UNL     1     -12.498   0.922  -8.497  1.00  0.00     0.037 A 
ATOM     46  C   UNL     1     -12.395  -4.399  -3.943  1.00  0.00     0.037 A 
ATOM     47  C   UNL     1     -13.793   0.431  -8.107  1.00  0.00     0.049 A 
ATOM     48  C   UNL     1     -13.684  -3.803  -4.438  1.00  0.00     0.074 A 
ATOM     49  C   UNL     1     -15.041   0.860  -8.525  1.00  0.00     0.029 A 
ATOM     50  N   UNL     1     -14.006  -0.601  -7.205  1.00  0.00    -0.354 N 
ATOM     51  N   UNL     1     -13.870  -2.832  -5.298  1.00  0.00    -0.248 NA
ATOM     52  C   UNL     1     -14.927  -4.372  -3.899  1.00  0.00     0.031 C 
ATOM     53  C   UNL     1     -16.010   0.112  -7.847  1.00  0.00     0.029 A 
ATOM     54  C   UNL     1     -15.366  -0.813  -7.041  1.00  0.00     0.049 A 
ATOM     55  H   UNL     1     -13.296  -1.108  -6.748  1.00  0.00     0.167 HD
ATOM     56  C   UNL     1     -15.245  -2.691  -5.425  1.00  0.00     0.074 A 
ATOM     57  C   UNL     1     -15.847  -3.688  -4.563  1.00  0.00     0.031 C 
ATOM     58  C   UNL     1     -15.946  -1.815  -6.185  1.00  0.00     0.037 A 
BRANCH  45  59
ATOM     59  C   UNL     1     -12.432   2.086  -9.443  1.00  0.00     0.064 A 
ATOM     60  C   UNL     1     -11.994   1.930 -10.767  1.00  0.00     0.173 A 
ATOM     61  C   UNL     1     -12.838   3.364  -9.032  1.00  0.00     0.173 A 
ATOM     62  F   UNL     1     -11.583   0.731 -11.206  1.00  0.00    -0.203 F 
ATOM     63  C   UNL     1     -11.937   3.017 -11.636  1.00  0.00     0.198 A 
ATOM     64  C   UNL     1     -12.808   4.443  -9.912  1.00  0.00     0.198 A 
ATOM     65  F   UNL     1     -13.269   3.567  -7.778  1.00  0.00    -0.203 F 
ATOM     66  F   UNL     1     -11.467   2.853 -12.880  1.00  0.00    -0.200 F 
ATOM     67  C   UNL     1     -12.350   4.270 -11.210  1.00  0.00     0.200 A 
ATOM     68  F   UNL     1     -13.218   5.651  -9.503  1.00  0.00    -0.200 F 
ATOM     69  F   UNL     1     -12.299   5.314 -12.049  1.00  0.00    -0.200 F 
ENDBRANCH  45  59
BRANCH  46  70
ATOM     70  C   UNL     1     -12.397  -5.505  -2.951  1.00  0.00     0.064 A 
ATOM     71  C   UNL     1     -12.849  -6.785  -3.301  1.00  0.00     0.173 A 
ATOM     72  C   UNL     1     -11.949  -5.307  -1.637  1.00  0.00     0.173 A 
ATOM     73  F   UNL     1     -13.305  -7.017  -4.540  1.00  0.00    -0.203 F 
ATOM     74  C   UNL     1     -12.874  -7.819  -2.368  1.00  0.00     0.198 A 
ATOM     75  C   UNL     1     -11.949  -6.350  -0.712  1.00  0.00     0.198 A 
ATOM     76  F   UNL     1     -11.500  -4.103  -1.254  1.00  0.00    -0.203 F 
ATOM     77  F   UNL     1     -13.352  -9.021  -2.717  1.00  0.00    -0.200 F 
ATOM     78  C   UNL     1     -12.418  -7.603  -1.077  1.00  0.00     0.200 A 
ATOM     79  F   UNL     1     -11.494  -6.140   0.531  1.00  0.00    -0.200 F 
ATOM     80  F   UNL     1     -12.438  -8.599  -0.181  1.00  0.00    -0.200 F 
ENDBRANCH  46  70
BRANCH  58  81
ATOM     81  C   UNL     1     -17.443  -1.916  -6.145  1.00  0.00     0.064 A 
ATOM     82  C   UNL     1     -18.178  -1.496  -5.027  1.00  0.00     0.173 A 
ATOM     83  C   UNL     1     -18.151  -2.400  -7.255  1.00  0.00     0.173 A 
ATOM     84  F   UNL     1     -17.545  -1.040  -3.935  1.00  0.00    -0.203 F 
ATOM     85  C   UNL     1     -19.568  -1.578  -5.014  1.00  0.00     0.198 A 
ATOM     86  C   UNL     1     -19.541  -2.454  -7.250  1.00  0.00     0.198 A 
ATOM     87  F   UNL     1     -17.493  -2.808  -8.351  1.00  0.00    -0.203 F 
ATOM     88  F   UNL     1     -20.248  -1.213  -3.919  1.00  0.00    -0.200 F 
ATOM     89  C   UNL     1     -20.248  -2.050  -6.127  1.00  0.00     0.200 A 
ATOM     90  F   UNL     1     -20.198  -2.898  -8.330  1.00  0.00    -0.200 F 
ATOM     91  F   UNL     1     -21.586  -2.121  -6.115  1.00  0.00    -0.200 F 
ENDBRANCH  58  81
ENDBRANCH  32  33
ENDBRANCH  24  27
ENDBRANCH  22  23
ENDBRANCH  21  22
ENDBRANCH   1  21
TORSDOF 14
