REMARK SMILES CC(=O)[C@]1(C)CC[C@@H](C(=O)NCCCCNC(=O)c2ccc(-c3c4nc(c(-c5c(F)c(F)c(F)c(F)c5F)c5ccc([nH]5)c(-c5c(F)c(F)c(F)c(F)c5F)c5nc(c(-c6c(F)c(F)c(F)c(F)c6F)c6ccc3[nH]6)C=C5)C=C4)cc2)C1(C)C
REMARK SMILES IDX 14 1 13 2 12 3 11 4 9 5 10 6 8 8 4 9 6 10 82 11 5 12 7 13
REMARK SMILES IDX 83 14 84 15 2 16 1 17 3 18 15 19 16 20 17 21 18 23 19 24
REMARK SMILES IDX 20 25 81 26 21 27 80 28 22 29 23 30 24 31 74 32 25 33 79 34
REMARK SMILES IDX 73 35 75 36 26 37 78 38 72 39 71 40 27 42 59 43 39 44 58 45
REMARK SMILES IDX 40 46 43 47 57 48 76 49 41 50 42 51 56 53 77 54 44 55 28 56
REMARK SMILES IDX 29 57 37 58 30 59 31 60 35 61 38 62 32 63 33 64 36 65 34 66
REMARK SMILES IDX 60 67 61 68 69 69 62 70 63 71 67 72 70 73 64 74 65 75 68 76
REMARK SMILES IDX 66 77 45 78 46 79 54 80 47 81 48 82 52 83 55 84 49 85 50 86
REMARK SMILES IDX 53 87 51 88
REMARK H PARENT 11 7 16 22 75 41 43 52
REMARK Flexibility Score: inf
ROOT
ATOM      1  C   UNL     1       0.305   1.481   3.790  1.00  0.00     0.023 C 
ENDROOT
BRANCH   1   2
ATOM      2  C   UNL     1       0.493   1.284   2.297  1.00  0.00     0.023 C 
BRANCH   2   3
ATOM      3  C   UNL     1       0.416   2.564   1.473  1.00  0.00     0.116 C 
BRANCH   3   4
ATOM      4  N   UNL     1       1.585   3.391   1.581  1.00  0.00    -0.356 N 
ATOM      5  C   UNL     1       2.388   3.900   0.613  1.00  0.00     0.223 C 
ATOM      6  O   UNL     1       3.333   4.596   1.004  1.00  0.00    -0.275 OA
ATOM      7  H   UNL     1       1.845   3.625   2.501  1.00  0.00     0.163 HD
BRANCH   5   8
ATOM      8  C   UNL     1       2.175   3.689  -0.898  1.00  0.00     0.085 C 
ATOM      9  C   UNL     1       0.962   1.913  -2.239  1.00  0.00     0.032 C 
ATOM     10  C   UNL     1       0.015   3.093  -1.885  1.00  0.00     0.016 C 
ATOM     11  C   UNL     1       2.371   2.284  -1.562  1.00  0.00    -0.012 C 
ATOM     12  C   UNL     1       0.324   0.595  -1.728  1.00  0.00     0.020 C 
ATOM     13  C   UNL     1       0.884   4.264  -1.465  1.00  0.00     0.015 C 
ATOM     14  C   UNL     1       2.914   1.226  -0.584  1.00  0.00     0.013 C 
ATOM     15  C   UNL     1       3.516   2.454  -2.602  1.00  0.00     0.013 C 
BRANCH   9  16
ATOM     16  C   UNL     1       1.051   1.646  -3.769  1.00  0.00     0.136 C 
ATOM     17  C   UNL     1       0.064   2.297  -4.705  1.00  0.00     0.088 C 
ATOM     18  O   UNL     1       1.840   0.813  -4.225  1.00  0.00    -0.299 OA
ENDBRANCH   9  16
ENDBRANCH   5   8
ENDBRANCH   3   4
ENDBRANCH   2   3
ENDBRANCH   1   2
BRANCH   1  19
ATOM     19  C   UNL     1      -0.973   2.209   4.165  1.00  0.00     0.116 C 
BRANCH  19  20
ATOM     20  N   UNL     1      -2.174   1.569   3.641  1.00  0.00    -0.352 N 
ATOM     21  C   UNL     1      -3.283   1.117   4.320  1.00  0.00     0.251 C 
ATOM     22  H   UNL     1      -2.194   1.442   2.665  1.00  0.00     0.163 HD
ATOM     23  O   UNL     1      -4.147   0.470   3.751  1.00  0.00    -0.269 OA
BRANCH  21  24
ATOM     24  C   UNL     1      -3.389   1.405   5.764  1.00  0.00     0.039 A 
ATOM     25  C   UNL     1      -3.700   0.370   6.645  1.00  0.00     0.014 A 
ATOM     26  C   UNL     1      -3.098   2.685   6.240  1.00  0.00     0.014 A 
ATOM     27  C   UNL     1      -3.640   0.604   8.019  1.00  0.00     0.010 A 
ATOM     28  C   UNL     1      -2.921   2.882   7.600  1.00  0.00     0.010 A 
ATOM     29  C   UNL     1      -3.208   1.850   8.505  1.00  0.00    -0.014 A 
BRANCH  29  30
ATOM     30  C   UNL     1      -3.082   2.114   9.958  1.00  0.00     0.031 A 
ATOM     31  C   UNL     1      -3.910   3.201  10.587  1.00  0.00     0.074 A 
ATOM     32  C   UNL     1      -2.179   1.434  10.690  1.00  0.00     0.049 A 
ATOM     33  N   UNL     1      -3.900   3.644  11.818  1.00  0.00    -0.248 NA
ATOM     34  C   UNL     1      -4.845   3.918   9.702  1.00  0.00     0.031 C 
ATOM     35  C   UNL     1      -1.269   0.408  10.176  1.00  0.00     0.029 A 
ATOM     36  N   UNL     1      -1.872   1.509  12.025  1.00  0.00    -0.354 N 
ATOM     37  C   UNL     1      -4.803   4.699  11.844  1.00  0.00     0.074 A 
ATOM     38  C   UNL     1      -5.287   4.880  10.495  1.00  0.00     0.031 C 
ATOM     39  C   UNL     1      -0.533  -0.075  11.190  1.00  0.00     0.029 A 
ATOM     40  C   UNL     1      -0.892   0.629  12.416  1.00  0.00     0.049 A 
ATOM     41  H   UNL     1      -2.313   2.135  12.644  1.00  0.00     0.167 HD
ATOM     42  C   UNL     1      -5.219   5.428  12.905  1.00  0.00     0.037 A 
ATOM     43  C   UNL     1      -0.351   0.417  13.630  1.00  0.00     0.037 A 
ATOM     44  C   UNL     1      -4.769   5.210  14.252  1.00  0.00     0.049 A 
ATOM     45  C   UNL     1      -0.853   1.220  14.800  1.00  0.00     0.074 A 
ATOM     46  C   UNL     1      -5.181   5.838  15.413  1.00  0.00     0.029 A 
ATOM     47  N   UNL     1      -3.803   4.283  14.616  1.00  0.00    -0.354 N 
ATOM     48  N   UNL     1      -1.767   2.160  14.829  1.00  0.00    -0.248 NA
ATOM     49  C   UNL     1      -0.254   0.926  16.109  1.00  0.00     0.031 C 
ATOM     50  C   UNL     1      -4.435   5.319  16.476  1.00  0.00     0.029 A 
ATOM     51  C   UNL     1      -3.592   4.334  15.984  1.00  0.00     0.049 A 
ATOM     52  H   UNL     1      -3.336   3.678  13.995  1.00  0.00     0.167 HD
ATOM     53  C   UNL     1      -1.872   2.550  16.157  1.00  0.00     0.074 A 
ATOM     54  C   UNL     1      -0.941   1.732  16.906  1.00  0.00     0.031 C 
ATOM     55  C   UNL     1      -2.666   3.502  16.708  1.00  0.00     0.037 A 
BRANCH  42  56
ATOM     56  C   UNL     1      -6.223   6.514  12.648  1.00  0.00     0.064 A 
ATOM     57  C   UNL     1      -7.543   6.222  12.269  1.00  0.00     0.173 A 
ATOM     58  C   UNL     1      -5.869   7.863  12.799  1.00  0.00     0.173 A 
ATOM     59  F   UNL     1      -7.929   4.949  12.094  1.00  0.00    -0.203 F 
ATOM     60  C   UNL     1      -8.460   7.239  12.017  1.00  0.00     0.198 A 
ATOM     61  C   UNL     1      -6.798   8.877  12.578  1.00  0.00     0.198 A 
ATOM     62  F   UNL     1      -4.622   8.198  13.161  1.00  0.00    -0.203 F 
ATOM     63  F   UNL     1      -9.696   6.936  11.598  1.00  0.00    -0.200 F 
ATOM     64  C   UNL     1      -8.089   8.565  12.179  1.00  0.00     0.200 A 
ATOM     65  F   UNL     1      -6.441  10.158  12.746  1.00  0.00    -0.200 F 
ATOM     66  F   UNL     1      -8.973   9.543  11.940  1.00  0.00    -0.200 F 
ENDBRANCH  42  56
BRANCH  43  67
ATOM     67  C   UNL     1       0.692  -0.626  13.810  1.00  0.00     0.064 A 
ATOM     68  C   UNL     1       0.414  -1.804  14.518  1.00  0.00     0.173 A 
ATOM     69  C   UNL     1       1.982  -0.471  13.283  1.00  0.00     0.173 A 
ATOM     70  F   UNL     1      -0.800  -1.991  15.057  1.00  0.00    -0.203 F 
ATOM     71  C   UNL     1       1.394  -2.776  14.713  1.00  0.00     0.198 A 
ATOM     72  C   UNL     1       2.953  -1.457  13.454  1.00  0.00     0.198 A 
ATOM     73  F   UNL     1       2.296   0.633  12.590  1.00  0.00    -0.203 F 
ATOM     74  F   UNL     1       1.114  -3.870  15.434  1.00  0.00    -0.200 F 
ATOM     75  C   UNL     1       2.660  -2.604  14.177  1.00  0.00     0.200 A 
ATOM     76  F   UNL     1       4.171  -1.294  12.922  1.00  0.00    -0.200 F 
ATOM     77  F   UNL     1       3.601  -3.540  14.361  1.00  0.00    -0.200 F 
ENDBRANCH  43  67
BRANCH  55  78
ATOM     78  C   UNL     1      -2.583   3.686  18.194  1.00  0.00     0.064 A 
ATOM     79  C   UNL     1      -1.467   4.282  18.800  1.00  0.00     0.173 A 
ATOM     80  C   UNL     1      -3.653   3.301  19.016  1.00  0.00     0.173 A 
ATOM     81  F   UNL     1      -0.414   4.654  18.057  1.00  0.00    -0.203 F 
ATOM     82  C   UNL     1      -1.415   4.461  20.179  1.00  0.00     0.198 A 
ATOM     83  C   UNL     1      -3.610   3.511  20.391  1.00  0.00     0.198 A 
ATOM     84  F   UNL     1      -4.746   2.736  18.483  1.00  0.00    -0.203 F 
ATOM     85  F   UNL     1      -0.319   4.988  20.742  1.00  0.00    -0.200 F 
ATOM     86  C   UNL     1      -2.488   4.083  20.972  1.00  0.00     0.200 A 
ATOM     87  F   UNL     1      -4.654   3.159  21.154  1.00  0.00    -0.200 F 
ATOM     88  F   UNL     1      -2.438   4.264  22.299  1.00  0.00    -0.200 F 
ENDBRANCH  55  78
ENDBRANCH  29  30
ENDBRANCH  21  24
ENDBRANCH  19  20
ENDBRANCH   1  19
TORSDOF 12
