REMARK SMILES Cc1cc(NC(=O)Nc2sc(C)c(C)c2C(=O)NCCCCNC(=O)c2ccc(-c3c4nc(c(-c5c(F)c(F)c(F)c(F)c5F)c5ccc([nH]5)c(-c5c(F)c(F)c(F)c(F)c5F)c5nc(c(-c6c(F)c(F)c(F)c(F)c6F)c6ccc3[nH]6)C=C5)C=C4)cc2)ccn1
REMARK SMILES IDX 20 1 19 2 18 3 16 4 17 5 15 7 9 8 10 9 11 10 13 11 12 12
REMARK SMILES IDX 14 13 8 14 5 15 6 16 7 18 4 20 1 21 2 22 3 23 91 24 90 25
REMARK SMILES IDX 89 26 21 27 22 28 23 29 24 30 25 32 26 33 27 34 88 35 28 36
REMARK SMILES IDX 87 37 29 38 30 39 31 40 81 41 32 42 86 43 80 44 82 45 33 46
REMARK SMILES IDX 85 47 79 48 78 49 34 51 66 52 46 53 65 54 47 55 50 56 64 57
REMARK SMILES IDX 83 58 48 59 49 60 63 62 84 63 51 64 35 65 36 66 44 67 37 68
REMARK SMILES IDX 38 69 42 70 45 71 39 72 40 73 43 74 41 75 67 76 68 77 76 78
REMARK SMILES IDX 69 79 70 80 74 81 77 82 71 83 72 84 75 85 73 86 52 87 53 88
REMARK SMILES IDX 61 89 54 90 55 91 59 92 62 93 56 94 57 95 60 96 58 97
REMARK H PARENT 18 6 5 17 8 19 23 31 82 50 50 61
REMARK Flexibility Score: inf
ROOT
ATOM      1  C   UNL     1      -5.108  -2.166   2.814  1.00  0.00     0.023 C 
ENDROOT
BRANCH   1   2
ATOM      2  C   UNL     1      -4.963  -1.220   1.629  1.00  0.00     0.116 C 
BRANCH   2   3
ATOM      3  N   UNL     1      -5.316   0.163   1.856  1.00  0.00    -0.352 N 
ATOM      4  C   UNL     1      -4.930   1.341   1.248  1.00  0.00     0.254 C 
ATOM      5  O   UNL     1      -5.497   2.349   1.681  1.00  0.00    -0.269 OA
ATOM      6  H   UNL     1      -5.959   0.291   2.590  1.00  0.00     0.163 HD
BRANCH   4   7
ATOM      7  C   UNL     1      -3.886   1.464   0.203  1.00  0.00     0.077 A 
ATOM      8  C   UNL     1      -3.454   0.533  -0.727  1.00  0.00     0.110 A 
ATOM      9  S   UNL     1      -2.350   1.147  -1.866  1.00  0.00    -0.122 S 
ATOM     10  C   UNL     1      -2.112   2.560  -0.956  1.00  0.00     0.007 A 
ATOM     11  C   UNL     1      -3.026   2.662   0.085  1.00  0.00    -0.022 A 
ATOM     12  C   UNL     1      -1.008   3.489  -1.348  1.00  0.00     0.057 C 
ATOM     13  C   UNL     1      -3.078   3.826   1.030  1.00  0.00     0.046 C 
BRANCH   8  14
ATOM     14  N   UNL     1      -3.857  -0.751  -0.962  1.00  0.00    -0.298 N 
ATOM     15  N   UNL     1      -1.785  -1.947  -0.694  1.00  0.00    -0.308 N 
ATOM     16  C   UNL     1      -3.097  -1.871  -1.025  1.00  0.00     0.324 C 
ATOM     17  H   UNL     1      -1.362  -2.756  -1.061  1.00  0.00     0.171 HD
ATOM     18  O   UNL     1      -3.653  -2.910  -1.398  1.00  0.00    -0.248 OA
ATOM     19  H   UNL     1      -4.823  -0.879  -1.103  1.00  0.00     0.172 HD
BRANCH  15  20
ATOM     20  C   UNL     1      -0.869  -1.165   0.043  1.00  0.00     0.046 A 
ATOM     21  C   UNL     1       2.848  -0.499  -0.132  1.00  0.00     0.067 C 
ATOM     22  C   UNL     1       1.417  -0.459   0.308  1.00  0.00     0.039 A 
ATOM     23  C   UNL     1       0.475  -1.282  -0.307  1.00  0.00     0.049 A 
ATOM     24  N   UNL     1       1.093   0.438   1.264  1.00  0.00    -0.261 NA
ATOM     25  C   UNL     1      -0.198   0.485   1.641  1.00  0.00     0.113 A 
ATOM     26  C   UNL     1      -1.191  -0.309   1.088  1.00  0.00     0.046 A 
ENDBRANCH  15  20
ENDBRANCH   8  14
ENDBRANCH   4   7
ENDBRANCH   2   3
ENDBRANCH   1   2
BRANCH   1  27
ATOM     27  C   UNL     1      -6.505  -2.325   3.395  1.00  0.00     0.023 C 
BRANCH  27  28
ATOM     28  C   UNL     1      -7.637  -2.517   2.393  1.00  0.00     0.116 C 
BRANCH  28  29
ATOM     29  N   UNL     1      -7.519  -3.718   1.578  1.00  0.00    -0.352 N 
ATOM     30  C   UNL     1      -8.345  -4.815   1.482  1.00  0.00     0.251 C 
ATOM     31  H   UNL     1      -6.721  -3.750   1.003  1.00  0.00     0.163 HD
ATOM     32  O   UNL     1      -8.026  -5.764   0.771  1.00  0.00    -0.269 OA
BRANCH  30  33
ATOM     33  C   UNL     1      -9.592  -4.889   2.275  1.00  0.00     0.039 A 
ATOM     34  C   UNL     1      -9.880  -6.072   2.964  1.00  0.00     0.014 A 
ATOM     35  C   UNL     1     -10.464  -3.803   2.366  1.00  0.00     0.014 A 
ATOM     36  C   UNL     1     -10.976  -6.124   3.829  1.00  0.00     0.010 A 
ATOM     37  C   UNL     1     -11.496  -3.822   3.299  1.00  0.00     0.010 A 
ATOM     38  C   UNL     1     -11.759  -4.979   4.049  1.00  0.00    -0.014 A 
BRANCH  38  39
ATOM     39  C   UNL     1     -12.842  -4.963   5.067  1.00  0.00     0.031 A 
ATOM     40  C   UNL     1     -14.264  -4.699   4.656  1.00  0.00     0.074 A 
ATOM     41  C   UNL     1     -12.535  -5.100   6.373  1.00  0.00     0.049 A 
ATOM     42  N   UNL     1     -15.328  -4.544   5.402  1.00  0.00    -0.248 NA
ATOM     43  C   UNL     1     -14.519  -4.559   3.213  1.00  0.00     0.031 C 
ATOM     44  C   UNL     1     -11.188  -5.305   6.910  1.00  0.00     0.029 A 
ATOM     45  N   UNL     1     -13.334  -5.074   7.489  1.00  0.00    -0.354 N 
ATOM     46  C   UNL     1     -16.368  -4.267   4.525  1.00  0.00     0.074 A 
ATOM     47  C   UNL     1     -15.800  -4.222   3.196  1.00  0.00     0.031 C 
ATOM     48  C   UNL     1     -11.258  -5.410   8.247  1.00  0.00     0.029 A 
ATOM     49  C   UNL     1     -12.645  -5.240   8.666  1.00  0.00     0.049 A 
ATOM     50  H   UNL     1     -14.310  -4.949   7.450  1.00  0.00     0.167 HD
ATOM     51  C   UNL     1     -17.683  -4.093   4.799  1.00  0.00     0.037 A 
ATOM     52  C   UNL     1     -13.081  -5.245   9.941  1.00  0.00     0.037 A 
ATOM     53  C   UNL     1     -18.254  -4.174   6.118  1.00  0.00     0.049 A 
ATOM     54  C   UNL     1     -14.548  -5.058  10.217  1.00  0.00     0.074 A 
ATOM     55  C   UNL     1     -19.584  -4.078   6.490  1.00  0.00     0.029 A 
ATOM     56  N   UNL     1     -17.527  -4.375   7.281  1.00  0.00    -0.354 N 
ATOM     57  N   UNL     1     -15.531  -4.864   9.373  1.00  0.00    -0.248 NA
ATOM     58  C   UNL     1     -14.967  -5.094  11.626  1.00  0.00     0.031 C 
ATOM     59  C   UNL     1     -19.657  -4.180   7.883  1.00  0.00     0.029 A 
ATOM     60  C   UNL     1     -18.378  -4.388   8.374  1.00  0.00     0.049 A 
ATOM     61  H   UNL     1     -16.550  -4.492   7.324  1.00  0.00     0.167 HD
ATOM     62  C   UNL     1     -16.685  -4.786  10.141  1.00  0.00     0.074 A 
ATOM     63  C   UNL     1     -16.282  -4.967  11.520  1.00  0.00     0.031 C 
ATOM     64  C   UNL     1     -17.963  -4.582   9.740  1.00  0.00     0.037 A 
BRANCH  51  65
ATOM     65  C   UNL     1     -18.600  -3.805   3.646  1.00  0.00     0.064 A 
ATOM     66  C   UNL     1     -18.906  -4.785   2.689  1.00  0.00     0.173 A 
ATOM     67  C   UNL     1     -19.208  -2.547   3.514  1.00  0.00     0.173 A 
ATOM     68  F   UNL     1     -18.342  -6.000   2.763  1.00  0.00    -0.203 F 
ATOM     69  C   UNL     1     -19.763  -4.507   1.627  1.00  0.00     0.198 A 
ATOM     70  C   UNL     1     -20.088  -2.283   2.469  1.00  0.00     0.198 A 
ATOM     71  F   UNL     1     -18.954  -1.577   4.405  1.00  0.00    -0.203 F 
ATOM     72  F   UNL     1     -20.000  -5.443   0.698  1.00  0.00    -0.200 F 
ATOM     73  C   UNL     1     -20.359  -3.260   1.522  1.00  0.00     0.200 A 
ATOM     74  F   UNL     1     -20.674  -1.081   2.375  1.00  0.00    -0.200 F 
ATOM     75  F   UNL     1     -21.189  -2.997   0.504  1.00  0.00    -0.200 F 
ENDBRANCH  51  65
BRANCH  52  76
ATOM     76  C   UNL     1     -12.121  -5.463  11.056  1.00  0.00     0.064 A 
ATOM     77  C   UNL     1     -12.145  -6.649  11.802  1.00  0.00     0.173 A 
ATOM     78  C   UNL     1     -11.173  -4.491  11.406  1.00  0.00     0.173 A 
ATOM     79  F   UNL     1     -13.049  -7.599  11.518  1.00  0.00    -0.203 F 
ATOM     80  C   UNL     1     -11.273  -6.847  12.870  1.00  0.00     0.198 A 
ATOM     81  C   UNL     1     -10.283  -4.701  12.457  1.00  0.00     0.198 A 
ATOM     82  F   UNL     1     -11.106  -3.340  10.721  1.00  0.00    -0.203 F 
ATOM     83  F   UNL     1     -11.351  -7.970  13.597  1.00  0.00    -0.200 F 
ATOM     84  C   UNL     1     -10.339  -5.874  13.194  1.00  0.00     0.200 A 
ATOM     85  F   UNL     1      -9.373  -3.765  12.759  1.00  0.00    -0.200 F 
ATOM     86  F   UNL     1      -9.500  -6.065  14.221  1.00  0.00    -0.200 F 
ENDBRANCH  52  76
BRANCH  64  87
ATOM     87  C   UNL     1     -19.026  -4.583  10.799  1.00  0.00     0.064 A 
ATOM     88  C   UNL     1     -19.163  -3.521  11.705  1.00  0.00     0.173 A 
ATOM     89  C   UNL     1     -19.943  -5.642  10.881  1.00  0.00     0.173 A 
ATOM     90  F   UNL     1     -18.301  -2.494  11.677  1.00  0.00    -0.203 F 
ATOM     91  C   UNL     1     -20.167  -3.531  12.669  1.00  0.00     0.198 A 
ATOM     92  C   UNL     1     -20.963  -5.634  11.828  1.00  0.00     0.198 A 
ATOM     93  F   UNL     1     -19.858  -6.678  10.034  1.00  0.00    -0.203 F 
ATOM     94  F   UNL     1     -20.253  -2.527  13.554  1.00  0.00    -0.200 F 
ATOM     95  C   UNL     1     -21.070  -4.582  12.725  1.00  0.00     0.200 A 
ATOM     96  F   UNL     1     -21.843  -6.644  11.872  1.00  0.00    -0.200 F 
ATOM     97  F   UNL     1     -22.041  -4.585  13.650  1.00  0.00    -0.200 F 
ENDBRANCH  64  87
ENDBRANCH  38  39
ENDBRANCH  30  33
ENDBRANCH  28  29
ENDBRANCH  27  28
ENDBRANCH   1  27
TORSDOF 13
