REMARK SMILES CCOC(=O)NC(=O)COc1csc(C(=O)NCCCCNC(=O)c2ccc(-c3c4nc(c(-c5c(F)c(F)c(F)c(F)c5F)c5ccc([nH]5)c(-c5c(F)c(F)c(F)c(F)c5F)c5nc(c(-c6c(F)c(F)c(F)c(F)c6F)c6ccc3[nH]6)C=C5)C=C4)cc2)c1
REMARK SMILES IDX 18 1 17 2 15 3 16 4 14 6 11 7 12 8 88 9 13 10 10 11 9 12
REMARK SMILES IDX 7 13 4 14 5 15 6 16 8 18 3 19 2 20 1 21 19 22 20 23 21 24
REMARK SMILES IDX 22 25 23 26 24 28 25 29 26 30 87 31 27 32 86 33 28 34 29 35
REMARK SMILES IDX 30 36 80 37 31 38 85 39 79 40 81 41 32 42 84 43 78 44 77 45
REMARK SMILES IDX 33 47 65 48 45 49 64 50 46 51 49 52 63 53 82 54 47 55 48 56
REMARK SMILES IDX 62 58 83 59 50 60 34 61 35 62 43 63 36 64 37 65 41 66 44 67
REMARK SMILES IDX 38 68 39 69 42 70 40 71 66 72 67 73 75 74 68 75 69 76 73 77
REMARK SMILES IDX 76 78 70 79 71 80 74 81 72 82 51 83 52 84 60 85 53 86 54 87
REMARK SMILES IDX 58 88 61 89 55 90 56 91 59 92 57 93
REMARK H PARENT 17 5 6 17 22 27 81 46 49 57
REMARK Flexibility Score: inf
ROOT
ATOM      1  C   UNL     1      -2.795  -1.708   4.956  1.00  0.00     0.116 C 
ENDROOT
BRANCH   1   2
ATOM      2  N   UNL     1      -1.989  -2.122   6.085  1.00  0.00    -0.351 N 
ATOM      3  C   UNL     1      -0.813  -2.833   6.158  1.00  0.00     0.261 C 
ATOM      4  O   UNL     1      -0.371  -2.989   7.299  1.00  0.00    -0.268 OA
ATOM      5  H   UNL     1      -2.347  -1.843   6.959  1.00  0.00     0.163 HD
BRANCH   3   6
ATOM      6  C   UNL     1      -0.142  -3.322   4.959  1.00  0.00     0.096 A 
ATOM      7  C   UNL     1       0.468  -3.848   2.762  1.00  0.00     0.131 A 
ATOM      8  C   UNL     1       1.666  -4.038   3.405  1.00  0.00     0.112 A 
ATOM      9  C   UNL     1      -0.578  -3.522   3.663  1.00  0.00     0.072 A 
ATOM     10  S   UNL     1       1.520  -3.769   5.090  1.00  0.00    -0.135 S 
BRANCH   7  11
ATOM     11  O   UNL     1       0.265  -3.820   1.426  1.00  0.00    -0.483 OA
BRANCH  11  12
ATOM     12  C   UNL     1       0.769  -4.920   0.699  1.00  0.00     0.329 C 
BRANCH  12  13
ATOM     13  C   UNL     1       2.271  -4.982   0.437  1.00  0.00     0.267 C 
ATOM     14  C   UNL     1       2.569  -2.676  -0.602  1.00  0.00     0.413 C 
ATOM     15  O   UNL     1       3.413  -1.888  -1.007  1.00  0.00    -0.224 OA
ATOM     16  N   UNL     1       2.940  -3.910  -0.108  1.00  0.00    -0.258 N 
ATOM     17  H   UNL     1       3.912  -4.058  -0.156  1.00  0.00     0.176 HD
ATOM     18  O   UNL     1       2.913  -6.008   0.687  1.00  0.00    -0.271 OA
BRANCH  14  19
ATOM     19  O   UNL     1       1.236  -2.451  -0.607  1.00  0.00    -0.450 OA
BRANCH  19  20
ATOM     20  C   UNL     1       0.807  -1.166  -1.086  1.00  0.00     0.231 C 
ATOM     21  C   UNL     1       1.052  -0.075  -0.057  1.00  0.00     0.049 C 
ENDBRANCH  19  20
ENDBRANCH  14  19
ENDBRANCH  12  13
ENDBRANCH  11  12
ENDBRANCH   7  11
ENDBRANCH   3   6
ENDBRANCH   1   2
BRANCH   1  22
ATOM     22  C   UNL     1      -3.924  -2.708   4.701  1.00  0.00     0.023 C 
BRANCH  22  23
ATOM     23  C   UNL     1      -5.113  -2.549   5.653  1.00  0.00     0.023 C 
BRANCH  23  24
ATOM     24  C   UNL     1      -5.792  -1.185   5.604  1.00  0.00     0.116 C 
BRANCH  24  25
ATOM     25  N   UNL     1      -6.255  -0.820   4.274  1.00  0.00    -0.352 N 
ATOM     26  C   UNL     1      -7.371  -0.101   3.925  1.00  0.00     0.251 C 
ATOM     27  H   UNL     1      -5.694  -1.130   3.526  1.00  0.00     0.163 HD
ATOM     28  O   UNL     1      -7.693   0.016   2.748  1.00  0.00    -0.269 OA
BRANCH  26  29
ATOM     29  C   UNL     1      -8.205   0.495   4.987  1.00  0.00     0.039 A 
ATOM     30  C   UNL     1      -9.586   0.299   4.945  1.00  0.00     0.014 A 
ATOM     31  C   UNL     1      -7.622   1.210   6.037  1.00  0.00     0.014 A 
ATOM     32  C   UNL     1     -10.378   0.769   5.993  1.00  0.00     0.010 A 
ATOM     33  C   UNL     1      -8.402   1.602   7.120  1.00  0.00     0.010 A 
ATOM     34  C   UNL     1      -9.788   1.390   7.108  1.00  0.00    -0.014 A 
BRANCH  34  35
ATOM     35  C   UNL     1     -10.615   1.810   8.267  1.00  0.00     0.031 A 
ATOM     36  C   UNL     1     -10.715   3.262   8.644  1.00  0.00     0.074 A 
ATOM     37  C   UNL     1     -11.243   0.874   9.005  1.00  0.00     0.049 A 
ATOM     38  N   UNL     1     -11.385   3.818   9.622  1.00  0.00    -0.248 NA
ATOM     39  C   UNL     1      -9.938   4.214   7.835  1.00  0.00     0.031 C 
ATOM     40  C   UNL     1     -11.170  -0.570   8.778  1.00  0.00     0.029 A 
ATOM     41  N   UNL     1     -12.065   0.996  10.097  1.00  0.00    -0.354 N 
ATOM     42  C   UNL     1     -11.105   5.176   9.549  1.00  0.00     0.074 A 
ATOM     43  C   UNL     1     -10.155   5.355   8.473  1.00  0.00     0.031 C 
ATOM     44  C   UNL     1     -11.943  -1.198   9.678  1.00  0.00     0.029 A 
ATOM     45  C   UNL     1     -12.535  -0.206  10.570  1.00  0.00     0.049 A 
ATOM     46  H   UNL     1     -12.297   1.862  10.503  1.00  0.00     0.167 HD
ATOM     47  C   UNL     1     -11.614   6.185  10.295  1.00  0.00     0.037 A 
ATOM     48  C   UNL     1     -13.349  -0.476  11.607  1.00  0.00     0.037 A 
ATOM     49  C   UNL     1     -12.574   6.002  11.353  1.00  0.00     0.049 A 
ATOM     50  C   UNL     1     -13.899   0.665  12.420  1.00  0.00     0.074 A 
ATOM     51  C   UNL     1     -13.203   6.965  12.122  1.00  0.00     0.029 A 
ATOM     52  N   UNL     1     -13.034   4.771  11.798  1.00  0.00    -0.354 N 
ATOM     53  N   UNL     1     -13.700   1.954  12.282  1.00  0.00    -0.248 NA
ATOM     54  C   UNL     1     -14.798   0.314  13.528  1.00  0.00     0.031 C 
ATOM     55  C   UNL     1     -13.995   6.315  13.074  1.00  0.00     0.029 A 
ATOM     56  C   UNL     1     -13.915   4.949  12.853  1.00  0.00     0.049 A 
ATOM     57  H   UNL     1     -12.774   3.900  11.420  1.00  0.00     0.167 HD
ATOM     58  C   UNL     1     -14.469   2.567  13.262  1.00  0.00     0.074 A 
ATOM     59  C   UNL     1     -15.157   1.509  13.973  1.00  0.00     0.031 C 
ATOM     60  C   UNL     1     -14.594   3.886  13.551  1.00  0.00     0.037 A 
BRANCH  47  61
ATOM     61  C   UNL     1     -11.143   7.581   9.997  1.00  0.00     0.064 A 
ATOM     62  C   UNL     1     -11.478   8.235   8.801  1.00  0.00     0.173 A 
ATOM     63  C   UNL     1     -10.382   8.290  10.938  1.00  0.00     0.173 A 
ATOM     64  F   UNL     1     -12.194   7.600   7.861  1.00  0.00    -0.203 F 
ATOM     65  C   UNL     1     -11.045   9.534   8.547  1.00  0.00     0.198 A 
ATOM     66  C   UNL     1      -9.980   9.601  10.696  1.00  0.00     0.198 A 
ATOM     67  F   UNL     1     -10.037   7.716  12.101  1.00  0.00    -0.203 F 
ATOM     68  F   UNL     1     -11.334  10.118   7.376  1.00  0.00    -0.200 F 
ATOM     69  C   UNL     1     -10.305  10.219   9.498  1.00  0.00     0.200 A 
ATOM     70  F   UNL     1      -9.278  10.267  11.624  1.00  0.00    -0.200 F 
ATOM     71  F   UNL     1      -9.898  11.473   9.258  1.00  0.00    -0.200 F 
ENDBRANCH  47  61
BRANCH  48  72
ATOM     72  C   UNL     1     -13.711  -1.884  11.926  1.00  0.00     0.064 A 
ATOM     73  C   UNL     1     -15.026  -2.346  11.772  1.00  0.00     0.173 A 
ATOM     74  C   UNL     1     -12.756  -2.790  12.409  1.00  0.00     0.173 A 
ATOM     75  F   UNL     1     -15.981  -1.513  11.331  1.00  0.00    -0.203 F 
ATOM     76  C   UNL     1     -15.377  -3.649  12.118  1.00  0.00     0.198 A 
ATOM     77  C   UNL     1     -13.101  -4.103  12.721  1.00  0.00     0.198 A 
ATOM     78  F   UNL     1     -11.482  -2.403  12.568  1.00  0.00    -0.203 F 
ATOM     79  F   UNL     1     -16.653  -4.046  12.016  1.00  0.00    -0.200 F 
ATOM     80  C   UNL     1     -14.414  -4.529  12.587  1.00  0.00     0.200 A 
ATOM     81  F   UNL     1     -12.162  -4.955  13.157  1.00  0.00    -0.200 F 
ATOM     82  F   UNL     1     -14.752  -5.782  12.918  1.00  0.00    -0.200 F 
ENDBRANCH  48  72
BRANCH  60  83
ATOM     83  C   UNL     1     -15.537   4.261  14.660  1.00  0.00     0.064 A 
ATOM     84  C   UNL     1     -15.263   3.951  16.001  1.00  0.00     0.173 A 
ATOM     85  C   UNL     1     -16.722   4.957  14.377  1.00  0.00     0.173 A 
ATOM     86  F   UNL     1     -14.150   3.275  16.325  1.00  0.00    -0.203 F 
ATOM     87  C   UNL     1     -16.159   4.290  17.011  1.00  0.00     0.198 A 
ATOM     88  C   UNL     1     -17.597   5.328  15.395  1.00  0.00     0.198 A 
ATOM     89  F   UNL     1     -17.029   5.287  13.114  1.00  0.00    -0.203 F 
ATOM     90  F   UNL     1     -15.908   3.925  18.276  1.00  0.00    -0.200 F 
ATOM     91  C   UNL     1     -17.321   4.983  16.709  1.00  0.00     0.200 A 
ATOM     92  F   UNL     1     -18.710   6.015  15.102  1.00  0.00    -0.200 F 
ATOM     93  F   UNL     1     -18.181   5.311  17.683  1.00  0.00    -0.200 F 
ENDBRANCH  60  83
ENDBRANCH  34  35
ENDBRANCH  26  29
ENDBRANCH  24  25
ENDBRANCH  23  24
ENDBRANCH  22  23
ENDBRANCH   1  22
TORSDOF 16
