REMARK SMILES O=C(NCCCCNC(=O)C1CCN(c2ccc(C(F)(F)F)cc2[N+](=O)[O-])CC1)c1ccc(-c2c3nc(c(-c4c(F)c(F)c(F)c(F)c4F)c4ccc([nH]4)c(-c4c(F)c(F)c(F)c(F)c4F)c4nc(c(-c5c(F)c(F)c(F)c(F)c5F)c5ccc2[nH]5)C=C4)C=C3)cc1
REMARK SMILES IDX 5 1 4 2 3 3 1 4 2 5 30 7 31 8 92 9 32 10 91 11 33 12 34 13
REMARK SMILES IDX 35 14 85 15 36 16 90 17 84 18 86 19 37 20 89 21 83 22 82 23
REMARK SMILES IDX 38 25 70 26 50 27 69 28 51 29 54 30 68 31 87 32 52 33 53 34
REMARK SMILES IDX 67 36 88 37 55 38 39 39 40 40 48 41 41 42 42 43 46 44 49 45
REMARK SMILES IDX 43 46 44 47 47 48 45 49 71 50 72 51 80 52 73 53 74 54 78 55
REMARK SMILES IDX 81 56 75 57 76 58 79 59 77 60 56 61 57 62 65 63 58 64 59 65
REMARK SMILES IDX 63 66 66 67 60 68 61 69 64 70 62 71 6 72 7 73 8 74 9 75
REMARK SMILES IDX 10 77 11 78 12 79 29 80 13 81 28 82 14 83 15 84 16 85 24 86
REMARK SMILES IDX 17 87 23 88 18 89 25 90 26 91 27 92 19 93 20 94 21 95 22 96
REMARK H PARENT 3 6 86 24 54 35 8 76
REMARK Flexibility Score: inf
ROOT
ATOM      1  C   UNL     1       5.012   1.733  -2.058  1.00  0.00     0.023 C 
ENDROOT
BRANCH   1   2
ATOM      2  C   UNL     1       4.662   0.995  -0.771  1.00  0.00     0.116 C 
BRANCH   2   3
ATOM      3  N   UNL     1       3.233   0.964  -0.489  1.00  0.00    -0.352 N 
ATOM      4  O   UNL     1       1.245   0.007   0.010  1.00  0.00    -0.269 OA
ATOM      5  C   UNL     1       2.463  -0.099  -0.081  1.00  0.00     0.251 C 
ATOM      6  H   UNL     1       2.756   1.817  -0.606  1.00  0.00     0.163 HD
BRANCH   5   7
ATOM      7  C   UNL     1       3.123  -1.385   0.218  1.00  0.00     0.039 A 
ATOM      8  C   UNL     1       4.259  -1.416   1.028  1.00  0.00     0.014 A 
ATOM      9  C   UNL     1       2.625  -2.558  -0.353  1.00  0.00     0.014 A 
ATOM     10  C   UNL     1       4.984  -2.594   1.146  1.00  0.00     0.010 A 
ATOM     11  C   UNL     1       3.307  -3.762  -0.160  1.00  0.00     0.010 A 
ATOM     12  C   UNL     1       4.508  -3.782   0.565  1.00  0.00    -0.014 A 
BRANCH  12  13
ATOM     13  C   UNL     1       5.254  -5.042   0.797  1.00  0.00     0.031 A 
ATOM     14  C   UNL     1       5.923  -5.775  -0.330  1.00  0.00     0.074 A 
ATOM     15  C   UNL     1       5.350  -5.500   2.060  1.00  0.00     0.049 A 
ATOM     16  N   UNL     1       6.631  -6.876  -0.290  1.00  0.00    -0.248 NA
ATOM     17  C   UNL     1       5.774  -5.207  -1.679  1.00  0.00     0.031 C 
ATOM     18  C   UNL     1       4.729  -4.873   3.229  1.00  0.00     0.029 A 
ATOM     19  N   UNL     1       6.017  -6.580   2.577  1.00  0.00    -0.354 N 
ATOM     20  C   UNL     1       6.997  -7.143  -1.603  1.00  0.00     0.074 A 
ATOM     21  C   UNL     1       6.415  -6.101  -2.422  1.00  0.00     0.031 C 
ATOM     22  C   UNL     1       5.083  -5.548   4.330  1.00  0.00     0.029 A 
ATOM     23  C   UNL     1       5.900  -6.690   3.940  1.00  0.00     0.049 A 
ATOM     24  H   UNL     1       6.530  -7.213   2.025  1.00  0.00     0.167 HD
ATOM     25  C   UNL     1       7.756  -8.162  -2.074  1.00  0.00     0.037 A 
ATOM     26  C   UNL     1       6.382  -7.620   4.784  1.00  0.00     0.037 A 
ATOM     27  C   UNL     1       8.345  -9.185  -1.246  1.00  0.00     0.049 A 
ATOM     28  C   UNL     1       7.204  -8.746   4.228  1.00  0.00     0.074 A 
ATOM     29  C   UNL     1       9.160 -10.239  -1.624  1.00  0.00     0.029 A 
ATOM     30  N   UNL     1       8.180  -9.283   0.128  1.00  0.00    -0.354 N 
ATOM     31  N   UNL     1       7.568  -8.970   2.989  1.00  0.00    -0.248 NA
ATOM     32  C   UNL     1       7.678  -9.751   5.188  1.00  0.00     0.031 C 
ATOM     33  C   UNL     1       9.450 -10.999  -0.486  1.00  0.00     0.029 A 
ATOM     34  C   UNL     1       8.857 -10.393   0.609  1.00  0.00     0.049 A 
ATOM     35  H   UNL     1       7.658  -8.656   0.680  1.00  0.00     0.167 HD
ATOM     36  C   UNL     1       8.322 -10.133   3.019  1.00  0.00     0.074 A 
ATOM     37  C   UNL     1       8.385 -10.554   4.404  1.00  0.00     0.031 C 
ATOM     38  C   UNL     1       8.903 -10.797   1.991  1.00  0.00     0.037 A 
BRANCH  25  39
ATOM     39  C   UNL     1       7.987  -8.238  -3.555  1.00  0.00     0.064 A 
ATOM     40  C   UNL     1       8.839  -7.342  -4.217  1.00  0.00     0.173 A 
ATOM     41  C   UNL     1       7.396  -9.261  -4.314  1.00  0.00     0.173 A 
ATOM     42  F   UNL     1       9.421  -6.340  -3.541  1.00  0.00    -0.203 F 
ATOM     43  C   UNL     1       9.078  -7.457  -5.585  1.00  0.00     0.198 A 
ATOM     44  C   UNL     1       7.656  -9.388  -5.676  1.00  0.00     0.198 A 
ATOM     45  F   UNL     1       6.577 -10.149  -3.729  1.00  0.00    -0.203 F 
ATOM     46  F   UNL     1       9.869  -6.568  -6.202  1.00  0.00    -0.200 F 
ATOM     47  C   UNL     1       8.493  -8.483  -6.311  1.00  0.00     0.200 A 
ATOM     48  F   UNL     1       7.099 -10.388  -6.373  1.00  0.00    -0.200 F 
ATOM     49  F   UNL     1       8.733  -8.598  -7.625  1.00  0.00    -0.200 F 
ENDBRANCH  25  39
BRANCH  26  50
ATOM     50  C   UNL     1       6.088  -7.520   6.235  1.00  0.00     0.064 A 
ATOM     51  C   UNL     1       7.098  -7.223   7.158  1.00  0.00     0.173 A 
ATOM     52  C   UNL     1       4.785  -7.698   6.724  1.00  0.00     0.173 A 
ATOM     53  F   UNL     1       8.362  -7.061   6.739  1.00  0.00    -0.203 F 
ATOM     54  C   UNL     1       6.819  -7.122   8.519  1.00  0.00     0.198 A 
ATOM     55  C   UNL     1       4.502  -7.566   8.081  1.00  0.00     0.198 A 
ATOM     56  F   UNL     1       3.781  -7.976   5.879  1.00  0.00    -0.203 F 
ATOM     57  F   UNL     1       7.810  -6.876   9.387  1.00  0.00    -0.200 F 
ATOM     58  C   UNL     1       5.521  -7.286   8.979  1.00  0.00     0.200 A 
ATOM     59  F   UNL     1       3.243  -7.706   8.517  1.00  0.00    -0.200 F 
ATOM     60  F   UNL     1       5.252  -7.178  10.287  1.00  0.00    -0.200 F 
ENDBRANCH  26  50
BRANCH  38  61
ATOM     61  C   UNL     1       9.671 -12.038   2.336  1.00  0.00     0.064 A 
ATOM     62  C   UNL     1       9.020 -13.220   2.718  1.00  0.00     0.173 A 
ATOM     63  C   UNL     1      11.072 -12.049   2.270  1.00  0.00     0.173 A 
ATOM     64  F   UNL     1       7.682 -13.253   2.814  1.00  0.00    -0.203 F 
ATOM     65  C   UNL     1       9.746 -14.361   3.048  1.00  0.00     0.198 A 
ATOM     66  C   UNL     1      11.793 -13.200   2.574  1.00  0.00     0.198 A 
ATOM     67  F   UNL     1      11.741 -10.945   1.907  1.00  0.00    -0.203 F 
ATOM     68  F   UNL     1       9.105 -15.464   3.461  1.00  0.00    -0.200 F 
ATOM     69  C   UNL     1      11.130 -14.352   2.970  1.00  0.00     0.200 A 
ATOM     70  F   UNL     1      13.131 -13.193   2.489  1.00  0.00    -0.200 F 
ATOM     71  F   UNL     1      11.828 -15.451   3.288  1.00  0.00    -0.200 F 
ENDBRANCH  38  61
ENDBRANCH  12  13
ENDBRANCH   5   7
ENDBRANCH   2   3
ENDBRANCH   1   2
BRANCH   1  72
ATOM     72  C   UNL     1       4.522   3.177  -2.126  1.00  0.00     0.023 C 
BRANCH  72  73
ATOM     73  C   UNL     1       4.995   4.055  -0.973  1.00  0.00     0.116 C 
BRANCH  73  74
ATOM     74  N   UNL     1       6.390   4.439  -1.111  1.00  0.00    -0.356 N 
ATOM     75  C   UNL     1       6.914   5.695  -1.270  1.00  0.00     0.223 C 
ATOM     76  H   UNL     1       7.042   3.702  -1.086  1.00  0.00     0.163 HD
ATOM     77  O   UNL     1       8.131   5.825  -1.378  1.00  0.00    -0.275 OA
BRANCH  75  78
ATOM     78  C   UNL     1       5.952   6.875  -1.276  1.00  0.00     0.082 C 
ATOM     79  C   UNL     1       6.543   8.121  -1.957  1.00  0.00     0.035 C 
ATOM     80  C   UNL     1       5.442   7.140   0.153  1.00  0.00     0.035 C 
ATOM     81  C   UNL     1       7.377   9.014  -1.040  1.00  0.00     0.117 C 
ATOM     82  C   UNL     1       6.429   7.957   0.979  1.00  0.00     0.117 C 
ATOM     83  N   UNL     1       6.717   9.184   0.251  1.00  0.00    -0.366 N 
BRANCH  83  84
ATOM     84  C   UNL     1       6.087  10.358   0.613  1.00  0.00     0.116 A 
ATOM     85  C   UNL     1       5.097  10.912  -0.215  1.00  0.00     0.034 A 
ATOM     86  C   UNL     1       6.332  11.037   1.823  1.00  0.00     0.293 A 
ATOM     87  C   UNL     1       4.380  12.063   0.146  1.00  0.00     0.016 A 
ATOM     88  C   UNL     1       5.624  12.196   2.198  1.00  0.00     0.101 A 
ATOM     89  C   UNL     1       4.636  12.718   1.357  1.00  0.00     0.062 A 
BRANCH  86  90
ATOM     90  N   UNL     1       7.365  10.574   2.744  1.00  0.00     0.064 N 
ATOM     91  O   UNL     1       7.047  10.499   3.941  1.00  0.00    -0.258 OA
ATOM     92  O   UNL     1       8.495  10.339   2.296  1.00  0.00    -0.258 OA
ENDBRANCH  86  90
BRANCH  89  93
ATOM     93  C   UNL     1       3.855  13.955   1.732  1.00  0.00     0.416 C 
ATOM     94  F   UNL     1       3.978  14.945   0.807  1.00  0.00    -0.166 F 
ATOM     95  F   UNL     1       2.521  13.711   1.845  1.00  0.00    -0.166 F 
ATOM     96  F   UNL     1       4.239  14.500   2.918  1.00  0.00    -0.166 F 
ENDBRANCH  89  93
ENDBRANCH  83  84
ENDBRANCH  75  78
ENDBRANCH  73  74
ENDBRANCH  72  73
ENDBRANCH   1  72
TORSDOF 14
