REMARK SMILES C[C@@H](Oc1ccc2c(c1)OCO2)C(=O)N1CCn2nc(C(=O)NCCCCNC(=O)c3ccc(-c4c5nc(c(-c6c(F)c(F)c(F)c(F)c6F)c6ccc([nH]6)c(-c6c(F)c(F)c(F)c(F)c6F)c6nc(c(-c7c(F)c(F)c(F)c(F)c7F)c7ccc4[nH]7)C=C6)C=C5)cc3)cc2C1
REMARK SMILES IDX 24 1 23 2 21 3 22 4 20 6 15 7 16 8 96 9 17 10 95 11 18 12
REMARK SMILES IDX 94 13 19 14 13 15 14 16 2 17 1 18 3 19 4 20 5 21 9 22 6 23
REMARK SMILES IDX 8 24 7 25 10 26 12 27 11 28 25 29 26 30 27 31 28 32 29 33
REMARK SMILES IDX 30 35 31 36 32 37 93 38 33 39 92 40 34 41 35 42 36 43 86 44
REMARK SMILES IDX 37 45 91 46 85 47 87 48 38 49 90 50 84 51 83 52 39 54 71 55
REMARK SMILES IDX 51 56 70 57 52 58 55 59 69 60 88 61 53 62 54 63 68 65 89 66
REMARK SMILES IDX 56 67 40 68 41 69 49 70 42 71 43 72 47 73 50 74 44 75 45 76
REMARK SMILES IDX 48 77 46 78 72 79 73 80 81 81 74 82 75 83 79 84 82 85 76 86
REMARK SMILES IDX 77 87 80 88 78 89 57 90 58 91 66 92 59 93 60 94 64 95 67 96
REMARK SMILES IDX 61 97 62 98 65 99 63 100
REMARK H PARENT 23 5 28 34 87 53 55 64
REMARK Flexibility Score: inf
ROOT
ATOM      1  C   UNL     1      -7.010   4.462  -2.715  1.00  0.00     0.116 C 
ENDROOT
BRANCH   1   2
ATOM      2  N   UNL     1      -6.710   3.865  -3.998  1.00  0.00    -0.351 N 
ATOM      3  C   UNL     1      -5.714   3.006  -4.414  1.00  0.00     0.271 C 
ATOM      4  O   UNL     1      -5.797   2.631  -5.587  1.00  0.00    -0.267 OA
ATOM      5  H   UNL     1      -7.338   4.120  -4.712  1.00  0.00     0.163 HD
BRANCH   3   6
ATOM      6  C   UNL     1      -4.644   2.542  -3.503  1.00  0.00     0.150 A 
ATOM      7  N   UNL     1      -1.487   1.167  -0.450  1.00  0.00    -0.332 N 
ATOM      8  C   UNL     1      -1.043   0.465  -1.666  1.00  0.00     0.143 C 
ATOM      9  C   UNL     1      -2.749   1.884  -0.413  1.00  0.00     0.175 C 
ATOM     10  C   UNL     1      -2.038   0.291  -2.813  1.00  0.00     0.166 C 
ATOM     11  C   UNL     1      -3.341   2.092  -1.743  1.00  0.00     0.059 A 
ATOM     12  N   UNL     1      -3.058   1.302  -2.801  1.00  0.00    -0.265 N 
ATOM     13  C   UNL     1      -4.249   3.008  -2.217  1.00  0.00     0.061 A 
ATOM     14  N   UNL     1      -3.857   1.499  -3.855  1.00  0.00    -0.167 NA
BRANCH   7  15
ATOM     15  C   UNL     1      -0.746   1.251   0.732  1.00  0.00     0.263 C 
ATOM     16  O   UNL     1      -1.291   1.560   1.798  1.00  0.00    -0.271 OA
BRANCH  15  17
ATOM     17  C   UNL     1       0.777   1.038   0.699  1.00  0.00     0.259 C 
ATOM     18  C   UNL     1       1.153  -0.416   0.438  1.00  0.00     0.064 C 
BRANCH  17  19
ATOM     19  O   UNL     1       1.261   1.954  -0.297  1.00  0.00    -0.481 OA
BRANCH  19  20
ATOM     20  C   UNL     1       2.583   2.273  -0.174  1.00  0.00     0.124 A 
ATOM     21  C   UNL     1       3.548   1.399  -0.697  1.00  0.00     0.050 A 
ATOM     22  C   UNL     1       2.940   3.537   0.304  1.00  0.00     0.097 A 
ATOM     23  C   UNL     1       4.896   1.753  -0.706  1.00  0.00     0.054 A 
ATOM     24  C   UNL     1       4.279   3.869   0.265  1.00  0.00     0.169 A 
ATOM     25  C   UNL     1       5.229   2.998  -0.223  1.00  0.00     0.166 A 
ATOM     26  O   UNL     1       4.824   5.054   0.652  1.00  0.00    -0.453 OA
ATOM     27  O   UNL     1       6.482   3.521  -0.197  1.00  0.00    -0.454 OA
ATOM     28  C   UNL     1       6.216   4.833   0.339  1.00  0.00     0.468 C 
ENDBRANCH  19  20
ENDBRANCH  17  19
ENDBRANCH  15  17
ENDBRANCH   7  15
ENDBRANCH   3   6
ENDBRANCH   1   2
BRANCH   1  29
ATOM     29  C   UNL     1      -6.502   5.903  -2.624  1.00  0.00     0.023 C 
BRANCH  29  30
ATOM     30  C   UNL     1      -7.330   6.928  -3.416  1.00  0.00     0.023 C 
BRANCH  30  31
ATOM     31  C   UNL     1      -8.796   7.034  -3.001  1.00  0.00     0.116 C 
BRANCH  31  32
ATOM     32  N   UNL     1      -8.967   7.434  -1.609  1.00  0.00    -0.352 N 
ATOM     33  C   UNL     1     -10.138   7.467  -0.877  1.00  0.00     0.251 C 
ATOM     34  H   UNL     1      -8.151   7.714  -1.135  1.00  0.00     0.163 HD
ATOM     35  O   UNL     1     -10.250   8.203   0.091  1.00  0.00    -0.269 OA
BRANCH  33  36
ATOM     36  C   UNL     1     -11.259   6.594  -1.277  1.00  0.00     0.039 A 
ATOM     37  C   UNL     1     -12.570   7.072  -1.261  1.00  0.00     0.014 A 
ATOM     38  C   UNL     1     -10.989   5.282  -1.669  1.00  0.00     0.014 A 
ATOM     39  C   UNL     1     -13.590   6.248  -1.727  1.00  0.00     0.010 A 
ATOM     40  C   UNL     1     -11.980   4.503  -2.230  1.00  0.00     0.010 A 
ATOM     41  C   UNL     1     -13.288   4.973  -2.245  1.00  0.00    -0.014 A 
BRANCH  41  42
ATOM     42  C   UNL     1     -14.322   4.229  -2.967  1.00  0.00     0.031 A 
ATOM     43  C   UNL     1     -15.002   5.034  -4.021  1.00  0.00     0.074 A 
ATOM     44  C   UNL     1     -14.562   2.904  -2.852  1.00  0.00     0.049 A 
ATOM     45  N   UNL     1     -16.237   5.410  -4.031  1.00  0.00    -0.248 NA
ATOM     46  C   UNL     1     -14.195   5.614  -5.107  1.00  0.00     0.031 C 
ATOM     47  C   UNL     1     -13.809   1.899  -2.100  1.00  0.00     0.029 A 
ATOM     48  N   UNL     1     -15.515   2.150  -3.474  1.00  0.00    -0.354 N 
ATOM     49  C   UNL     1     -16.420   6.117  -5.215  1.00  0.00     0.074 A 
ATOM     50  C   UNL     1     -15.105   6.349  -5.752  1.00  0.00     0.031 C 
ATOM     51  C   UNL     1     -14.185   0.661  -2.494  1.00  0.00     0.029 A 
ATOM     52  C   UNL     1     -15.307   0.775  -3.409  1.00  0.00     0.049 A 
ATOM     53  H   UNL     1     -16.290   2.548  -3.933  1.00  0.00     0.167 HD
ATOM     54  C   UNL     1     -17.663   6.236  -5.760  1.00  0.00     0.037 A 
ATOM     55  C   UNL     1     -15.990  -0.190  -4.083  1.00  0.00     0.037 A 
ATOM     56  C   UNL     1     -18.682   5.975  -4.770  1.00  0.00     0.049 A 
ATOM     57  C   UNL     1     -17.291   0.400  -4.493  1.00  0.00     0.074 A 
ATOM     58  C   UNL     1     -18.977   6.512  -3.529  1.00  0.00     0.029 A 
ATOM     59  N   UNL     1     -19.336   4.768  -4.807  1.00  0.00    -0.354 N 
ATOM     60  N   UNL     1     -18.241   0.709  -3.656  1.00  0.00    -0.248 NA
ATOM     61  C   UNL     1     -17.337   1.080  -5.779  1.00  0.00     0.031 C 
ATOM     62  C   UNL     1     -19.319   5.390  -2.718  1.00  0.00     0.029 A 
ATOM     63  C   UNL     1     -19.312   4.260  -3.534  1.00  0.00     0.049 A 
ATOM     64  H   UNL     1     -19.744   4.347  -5.598  1.00  0.00     0.167 HD
ATOM     65  C   UNL     1     -18.709   1.932  -4.108  1.00  0.00     0.074 A 
ATOM     66  C   UNL     1     -18.166   2.076  -5.459  1.00  0.00     0.031 C 
ATOM     67  C   UNL     1     -19.240   2.848  -3.248  1.00  0.00     0.037 A 
BRANCH  54  68
ATOM     68  C   UNL     1     -17.948   6.181  -7.243  1.00  0.00     0.064 A 
ATOM     69  C   UNL     1     -19.279   6.338  -7.685  1.00  0.00     0.173 A 
ATOM     70  C   UNL     1     -17.050   5.667  -8.204  1.00  0.00     0.173 A 
ATOM     71  F   UNL     1     -20.223   6.811  -6.858  1.00  0.00    -0.203 F 
ATOM     72  C   UNL     1     -19.694   5.910  -8.948  1.00  0.00     0.198 A 
ATOM     73  C   UNL     1     -17.459   5.290  -9.482  1.00  0.00     0.198 A 
ATOM     74  F   UNL     1     -15.771   5.398  -7.921  1.00  0.00    -0.203 F 
ATOM     75  F   UNL     1     -20.996   5.944  -9.266  1.00  0.00    -0.200 F 
ATOM     76  C   UNL     1     -18.786   5.376  -9.842  1.00  0.00     0.200 A 
ATOM     77  F   UNL     1     -16.564   4.758 -10.327  1.00  0.00    -0.200 F 
ATOM     78  F   UNL     1     -19.192   4.899 -11.025  1.00  0.00    -0.200 F 
ENDBRANCH  54  68
BRANCH  55  79
ATOM     79  C   UNL     1     -15.505  -1.476  -4.651  1.00  0.00     0.064 A 
ATOM     80  C   UNL     1     -16.407  -2.420  -5.181  1.00  0.00     0.173 A 
ATOM     81  C   UNL     1     -14.147  -1.682  -4.961  1.00  0.00     0.173 A 
ATOM     82  F   UNL     1     -17.725  -2.288  -4.970  1.00  0.00    -0.203 F 
ATOM     83  C   UNL     1     -15.982  -3.469  -6.005  1.00  0.00     0.198 A 
ATOM     84  C   UNL     1     -13.723  -2.734  -5.778  1.00  0.00     0.198 A 
ATOM     85  F   UNL     1     -13.209  -0.812  -4.562  1.00  0.00    -0.203 F 
ATOM     86  F   UNL     1     -16.883  -4.298  -6.551  1.00  0.00    -0.200 F 
ATOM     87  C   UNL     1     -14.642  -3.616  -6.315  1.00  0.00     0.200 A 
ATOM     88  F   UNL     1     -12.426  -2.847  -6.095  1.00  0.00    -0.200 F 
ATOM     89  F   UNL     1     -14.241  -4.577  -7.160  1.00  0.00    -0.200 F 
ENDBRANCH  55  79
BRANCH  67  90
ATOM     90  C   UNL     1     -19.567   2.424  -1.844  1.00  0.00     0.064 A 
ATOM     91  C   UNL     1     -18.633   1.915  -0.923  1.00  0.00     0.173 A 
ATOM     92  C   UNL     1     -20.856   2.700  -1.364  1.00  0.00     0.173 A 
ATOM     93  F   UNL     1     -17.355   1.715  -1.269  1.00  0.00    -0.203 F 
ATOM     94  C   UNL     1     -18.991   1.663   0.402  1.00  0.00     0.198 A 
ATOM     95  C   UNL     1     -21.197   2.488  -0.033  1.00  0.00     0.198 A 
ATOM     96  F   UNL     1     -21.778   3.232  -2.184  1.00  0.00    -0.203 F 
ATOM     97  F   UNL     1     -18.086   1.168   1.259  1.00  0.00    -0.200 F 
ATOM     98  C   UNL     1     -20.268   1.960   0.848  1.00  0.00     0.200 A 
ATOM     99  F   UNL     1     -22.418   2.825   0.403  1.00  0.00    -0.200 F 
ATOM    100  F   UNL     1     -20.597   1.763   2.132  1.00  0.00    -0.200 F 
ENDBRANCH  67  90
ENDBRANCH  41  42
ENDBRANCH  33  36
ENDBRANCH  31  32
ENDBRANCH  30  31
ENDBRANCH  29  30
ENDBRANCH   1  29
TORSDOF 15
