REMARK SMILES CC[C@](C)([NH3+])C(=O)N1CC[NH+]([C@H](C)C(=O)NCCCCNC(=O)c2ccc(-c3c4nc(c(-c5c(F)c(F)c(F)c(F)c5F)c5ccc([nH]5)c(-c5c(F)c(F)c(F)c(F)c5F)c5nc(c(-c6c(F)c(F)c(F)c(F)c6F)c6ccc3[nH]6)C=C5)C=C4)cc2)CC1
REMARK SMILES IDX 18 1 17 2 16 3 14 4 15 5 12 7 13 8 11 9 6 10 7 11 8 12 9 13
REMARK SMILES IDX 88 14 10 15 87 16 3 18 4 19 2 20 1 21 5 22 19 26 20 27 21 28
REMARK SMILES IDX 22 29 23 31 24 32 25 33 86 34 26 35 85 36 27 37 28 38 29 39
REMARK SMILES IDX 79 40 30 41 84 42 78 43 80 44 31 45 83 46 77 47 76 48 32 50
REMARK SMILES IDX 64 51 44 52 63 53 45 54 48 55 62 56 81 57 46 58 47 59 61 61
REMARK SMILES IDX 82 62 49 63 33 64 34 65 42 66 35 67 36 68 40 69 43 70 37 71
REMARK SMILES IDX 38 72 41 73 39 74 65 75 66 76 74 77 67 78 68 79 72 80 75 81
REMARK SMILES IDX 69 82 70 83 73 84 71 85 50 86 51 87 59 88 52 89 53 90 57 91
REMARK SMILES IDX 60 92 54 93 55 94 58 95 56 96
REMARK H PARENT 16 6 11 17 5 23 5 24 5 25 21 30 80 49 48 60
REMARK Flexibility Score: inf
ROOT
ATOM      1  C   UNL     1       5.499   0.676  -5.227  1.00  0.00     0.023 C 
ENDROOT
BRANCH   1   2
ATOM      2  C   UNL     1       5.651   1.874  -4.300  1.00  0.00     0.116 C 
BRANCH   2   3
ATOM      3  N   UNL     1       6.366   2.989  -4.886  1.00  0.00    -0.351 N 
ATOM      4  C   UNL     1       6.264   4.332  -4.644  1.00  0.00     0.278 C 
ATOM      5  O   UNL     1       7.167   5.041  -5.104  1.00  0.00    -0.268 OA
ATOM      6  H   UNL     1       7.032   2.741  -5.568  1.00  0.00     0.163 HD
BRANCH   4   7
ATOM      7  C   UNL     1       5.084   4.960  -3.857  1.00  0.00     0.271 C 
ATOM      8  C   UNL     1       3.713   4.495  -4.365  1.00  0.00     0.086 C 
BRANCH   7   9
ATOM      9  N   UNL     1       5.295   5.018  -2.380  1.00  0.00    -0.322 N 
ATOM     10  C   UNL     1       3.969   3.234   1.028  1.00  0.00     0.283 C 
ATOM     11  O   UNL     1       4.609   2.307   1.548  1.00  0.00    -0.268 OA
ATOM     12  N   UNL     1       4.662   4.210   0.330  1.00  0.00    -0.326 N 
ATOM     13  C   UNL     1       5.964   3.864  -0.226  1.00  0.00     0.181 C 
ATOM     14  C   UNL     1       4.235   5.532  -0.124  1.00  0.00     0.181 C 
ATOM     15  C   UNL     1       5.811   3.784  -1.760  1.00  0.00     0.284 C 
ATOM     16  C   UNL     1       4.116   5.561  -1.662  1.00  0.00     0.284 C 
ATOM     17  H   UNL     1       6.061   5.683  -2.270  1.00  0.00     0.348 HD
BRANCH  10  18
ATOM     18  C   UNL     1       2.400   3.114   0.977  1.00  0.00     0.171 C 
ATOM     19  C   UNL     1       1.925   2.232   2.149  1.00  0.00     0.090 C 
BRANCH  18  20
ATOM     20  C   UNL     1       1.979   2.497  -0.384  1.00  0.00     0.075 C 
ATOM     21  C   UNL     1       2.409   1.050  -0.613  1.00  0.00     0.011 C 
ENDBRANCH  18  20
BRANCH  18  22
ATOM     22  N   UNL     1       1.709   4.417   1.129  1.00  0.00    -0.345 N 
ATOM     23  H   UNL     1       1.973   4.839   2.019  1.00  0.00     0.345 HD
ATOM     24  H   UNL     1       0.700   4.271   1.108  1.00  0.00     0.345 HD
ATOM     25  H   UNL     1       1.979   5.036   0.365  1.00  0.00     0.345 HD
ENDBRANCH  18  22
ENDBRANCH  10  18
ENDBRANCH   7   9
ENDBRANCH   4   7
ENDBRANCH   2   3
ENDBRANCH   1   2
BRANCH   1  26
ATOM     26  C   UNL     1       6.804   0.000  -5.640  1.00  0.00     0.023 C 
BRANCH  26  27
ATOM     27  C   UNL     1       7.788  -0.294  -4.511  1.00  0.00     0.116 C 
BRANCH  27  28
ATOM     28  N   UNL     1       7.239  -1.146  -3.466  1.00  0.00    -0.352 N 
ATOM     29  C   UNL     1       7.666  -2.373  -3.012  1.00  0.00     0.251 C 
ATOM     30  H   UNL     1       6.440  -0.789  -3.014  1.00  0.00     0.163 HD
ATOM     31  O   UNL     1       7.004  -2.992  -2.188  1.00  0.00    -0.269 OA
BRANCH  29  32
ATOM     32  C   UNL     1       8.901  -2.968  -3.562  1.00  0.00     0.039 A 
ATOM     33  C   UNL     1       8.865  -4.288  -4.018  1.00  0.00     0.014 A 
ATOM     34  C   UNL     1      10.073  -2.216  -3.671  1.00  0.00     0.014 A 
ATOM     35  C   UNL     1       9.973  -4.818  -4.682  1.00  0.00     0.010 A 
ATOM     36  C   UNL     1      11.143  -2.716  -4.405  1.00  0.00     0.010 A 
ATOM     37  C   UNL     1      11.098  -4.016  -4.932  1.00  0.00    -0.014 A 
BRANCH  37  38
ATOM     38  C   UNL     1      12.224  -4.504  -5.769  1.00  0.00     0.031 A 
ATOM     39  C   UNL     1      13.600  -4.640  -5.183  1.00  0.00     0.074 A 
ATOM     40  C   UNL     1      12.023  -4.738  -7.081  1.00  0.00     0.049 A 
ATOM     41  N   UNL     1      14.725  -4.951  -5.775  1.00  0.00    -0.248 NA
ATOM     42  C   UNL     1      13.735  -4.358  -3.745  1.00  0.00     0.031 C 
ATOM     43  C   UNL     1      10.747  -4.588  -7.783  1.00  0.00     0.029 A 
ATOM     44  N   UNL     1      12.895  -5.137  -8.064  1.00  0.00    -0.354 N 
ATOM     45  C   UNL     1      15.700  -4.883  -4.790  1.00  0.00     0.074 A 
ATOM     46  C   UNL     1      15.045  -4.453  -3.573  1.00  0.00     0.031 C 
ATOM     47  C   UNL     1      10.914  -4.911  -9.076  1.00  0.00     0.029 A 
ATOM     48  C   UNL     1      12.314  -5.251  -9.304  1.00  0.00     0.049 A 
ATOM     49  H   UNL     1      13.847  -5.323  -7.896  1.00  0.00     0.167 HD
ATOM     50  C   UNL     1      17.019  -5.174  -4.886  1.00  0.00     0.037 A 
ATOM     51  C   UNL     1      12.853  -5.584 -10.492  1.00  0.00     0.037 A 
ATOM     52  C   UNL     1      17.663  -5.633  -6.088  1.00  0.00     0.049 A 
ATOM     53  C   UNL     1      14.319  -5.909 -10.570  1.00  0.00     0.074 A 
ATOM     54  C   UNL     1      18.978  -6.025  -6.268  1.00  0.00     0.029 A 
ATOM     55  N   UNL     1      17.035  -5.762  -7.319  1.00  0.00    -0.354 N 
ATOM     56  N   UNL     1      15.217  -5.910  -9.616  1.00  0.00    -0.248 NA
ATOM     57  C   UNL     1      14.846  -6.281 -11.891  1.00  0.00     0.031 C 
ATOM     58  C   UNL     1      19.157  -6.352  -7.616  1.00  0.00     0.029 A 
ATOM     59  C   UNL     1      17.942  -6.207  -8.267  1.00  0.00     0.049 A 
ATOM     60  H   UNL     1      16.086  -5.566  -7.492  1.00  0.00     0.167 HD
ATOM     61  C   UNL     1      16.407  -6.306 -10.212  1.00  0.00     0.074 A 
ATOM     62  C   UNL     1      16.113  -6.550 -11.609  1.00  0.00     0.031 C 
ATOM     63  C   UNL     1      17.632  -6.452  -9.652  1.00  0.00     0.037 A 
BRANCH  50  64
ATOM     64  C   UNL     1      17.855  -5.013  -3.650  1.00  0.00     0.064 A 
ATOM     65  C   UNL     1      17.726  -5.884  -2.558  1.00  0.00     0.173 A 
ATOM     66  C   UNL     1      18.821  -3.998  -3.570  1.00  0.00     0.173 A 
ATOM     67  F   UNL     1      16.810  -6.864  -2.580  1.00  0.00    -0.203 F 
ATOM     68  C   UNL     1      18.512  -5.726  -1.419  1.00  0.00     0.198 A 
ATOM     69  C   UNL     1      19.625  -3.862  -2.442  1.00  0.00     0.198 A 
ATOM     70  F   UNL     1      18.989  -3.143  -4.590  1.00  0.00    -0.203 F 
ATOM     71  F   UNL     1      18.337  -6.540  -0.369  1.00  0.00    -0.200 F 
ATOM     72  C   UNL     1      19.465  -4.721  -1.365  1.00  0.00     0.200 A 
ATOM     73  F   UNL     1      20.554  -2.897  -2.396  1.00  0.00    -0.200 F 
ATOM     74  F   UNL     1      20.225  -4.575  -0.271  1.00  0.00    -0.200 F 
ENDBRANCH  50  64
BRANCH  51  75
ATOM     75  C   UNL     1      11.994  -5.651 -11.703  1.00  0.00     0.064 A 
ATOM     76  C   UNL     1      11.685  -6.883 -12.295  1.00  0.00     0.173 A 
ATOM     77  C   UNL     1      11.469  -4.492 -12.293  1.00  0.00     0.173 A 
ATOM     78  F   UNL     1      12.181  -8.017 -11.779  1.00  0.00    -0.203 F 
ATOM     79  C   UNL     1      10.898  -6.953 -13.443  1.00  0.00     0.198 A 
ATOM     80  C   UNL     1      10.661  -4.565 -13.426  1.00  0.00     0.198 A 
ATOM     81  F   UNL     1      11.732  -3.289 -11.762  1.00  0.00    -0.203 F 
ATOM     82  F   UNL     1      10.652  -8.141 -14.013  1.00  0.00    -0.200 F 
ATOM     83  C   UNL     1      10.382  -5.795 -14.004  1.00  0.00     0.200 A 
ATOM     84  F   UNL     1      10.152  -3.445 -13.957  1.00  0.00    -0.200 F 
ATOM     85  F   UNL     1       9.621  -5.863 -15.105  1.00  0.00    -0.200 F 
ENDBRANCH  51  75
BRANCH  63  86
ATOM     86  C   UNL     1      18.743  -6.925 -10.543  1.00  0.00     0.064 A 
ATOM     87  C   UNL     1      19.319  -6.085 -11.507  1.00  0.00     0.173 A 
ATOM     88  C   UNL     1      19.266  -8.219 -10.399  1.00  0.00     0.173 A 
ATOM     89  F   UNL     1      18.843  -4.845 -11.694  1.00  0.00    -0.203 F 
ATOM     90  C   UNL     1      20.366  -6.532 -12.309  1.00  0.00     0.198 A 
ATOM     91  C   UNL     1      20.330  -8.652 -11.183  1.00  0.00     0.198 A 
ATOM     92  F   UNL     1      18.752  -9.058  -9.487  1.00  0.00    -0.203 F 
ATOM     93  F   UNL     1      20.874  -5.728 -13.253  1.00  0.00    -0.200 F 
ATOM     94  C   UNL     1      20.875  -7.811 -12.142  1.00  0.00     0.200 A 
ATOM     95  F   UNL     1      20.829  -9.884 -11.012  1.00  0.00    -0.200 F 
ATOM     96  F   UNL     1      21.889  -8.236 -12.909  1.00  0.00    -0.200 F 
ENDBRANCH  63  86
ENDBRANCH  37  38
ENDBRANCH  29  32
ENDBRANCH  27  28
ENDBRANCH  26  27
ENDBRANCH   1  26
TORSDOF 15
