REMARK SMILES O=C(NCCCCNC(=O)c1ccc(-c2c3nc(c(-c4c(F)c(F)c(F)c(F)c4F)c4ccc([nH]4)c(-c4c(F)c(F)c(F)c(F)c4F)c4nc(c(-c5c(F)c(F)c(F)c(F)c5F)c5ccc2[nH]5)C=C4)C=C3)cc1)c1ccc(/[NH+]=C2\S[C@@H](Cc3ccc(F)cc3)C(=O)N2Cc2ccccc2)cc1
REMARK SMILES IDX 5 1 4 2 3 3 1 4 2 5 74 7 75 8 101 9 76 10 100 11 77 12 78 13
REMARK SMILES IDX 79 14 80 16 92 17 81 18 90 19 91 20 93 21 94 22 95 23 99 24
REMARK SMILES IDX 96 25 98 26 97 27 82 28 83 29 84 30 89 31 85 32 88 33 86 34
REMARK SMILES IDX 87 35 6 36 7 37 8 38 9 39 10 41 11 42 12 43 73 44 13 45
REMARK SMILES IDX 72 46 14 47 15 48 16 49 66 50 17 51 71 52 65 53 67 54 18 55
REMARK SMILES IDX 70 56 64 57 63 58 19 60 51 61 31 62 50 63 32 64 35 65 49 66
REMARK SMILES IDX 68 67 33 68 34 69 48 71 69 72 36 73 20 74 21 75 29 76 22 77
REMARK SMILES IDX 23 78 27 79 30 80 24 81 25 82 28 83 26 84 52 85 53 86 61 87
REMARK SMILES IDX 54 88 55 89 59 90 62 91 56 92 57 93 60 94 58 95 37 96 38 97
REMARK SMILES IDX 46 98 39 99 40 100 44 101 47 102 41 103 42 104 45 105 43 106
REMARK H PARENT 3 6 78 15 8 40 67 59 35 70
REMARK Flexibility Score: inf
ROOT
ATOM      1  C   UNL     1       5.015   2.481  -0.027  1.00  0.00     0.023 C 
ENDROOT
BRANCH   1   2
ATOM      2  C   UNL     1       4.621   1.111   0.509  1.00  0.00     0.116 C 
BRANCH   2   3
ATOM      3  N   UNL     1       3.178   0.935   0.573  1.00  0.00    -0.352 N 
ATOM      4  O   UNL     1       1.162   0.147  -0.074  1.00  0.00    -0.269 OA
ATOM      5  C   UNL     1       2.386   0.046  -0.111  1.00  0.00     0.251 C 
ATOM      6  H   UNL     1       2.704   1.537   1.191  1.00  0.00     0.163 HD
BRANCH   5   7
ATOM      7  C   UNL     1       3.015  -1.033  -0.896  1.00  0.00     0.040 A 
ATOM      8  C   UNL     1       3.993  -1.839  -0.312  1.00  0.00     0.018 A 
ATOM      9  C   UNL     1       2.609  -1.258  -2.215  1.00  0.00     0.018 A 
ATOM     10  C   UNL     1       4.632  -2.801  -1.082  1.00  0.00     0.052 A 
ATOM     11  C   UNL     1       3.229  -2.260  -2.971  1.00  0.00     0.052 A 
ATOM     12  C   UNL     1       4.261  -3.017  -2.414  1.00  0.00     0.125 A 
BRANCH  12  13
ATOM     13  N   UNL     1       4.840  -4.104  -3.063  1.00  0.00    -0.235 N 
ATOM     14  C   UNL     1       5.731  -3.996  -3.986  1.00  0.00     0.320 C 
ATOM     15  H   UNL     1       4.551  -5.008  -2.801  1.00  0.00     0.313 HD
ATOM     16  S   UNL     1       6.276  -2.552  -4.789  1.00  0.00    -0.022 SA
ATOM     17  N   UNL     1       6.407  -5.095  -4.439  1.00  0.00    -0.186 N 
ATOM     18  C   UNL     1       7.135  -3.507  -6.088  1.00  0.00     0.178 C 
ATOM     19  C   UNL     1       7.252  -4.913  -5.511  1.00  0.00     0.324 C 
ATOM     20  O   UNL     1       7.944  -5.801  -5.997  1.00  0.00    -0.245 OA
BRANCH  17  21
ATOM     21  C   UNL     1       6.250  -6.411  -3.824  1.00  0.00     0.283 C 
BRANCH  21  22
ATOM     22  C   UNL     1       6.995  -6.569  -2.510  1.00  0.00    -0.006 A 
ATOM     23  C   UNL     1       8.253  -7.184  -2.456  1.00  0.00     0.008 A 
ATOM     24  C   UNL     1       6.426  -6.123  -1.306  1.00  0.00     0.008 A 
ATOM     25  C   UNL     1       8.916  -7.338  -1.233  1.00  0.00     0.000 A 
ATOM     26  C   UNL     1       7.104  -6.238  -0.092  1.00  0.00     0.000 A 
ATOM     27  C   UNL     1       8.350  -6.853  -0.055  1.00  0.00     0.000 A 
ENDBRANCH  21  22
ENDBRANCH  17  21
BRANCH  18  28
ATOM     28  C   UNL     1       8.467  -2.855  -6.465  1.00  0.00     0.063 C 
BRANCH  28  29
ATOM     29  C   UNL     1       9.191  -3.555  -7.596  1.00  0.00    -0.046 A 
ATOM     30  C   UNL     1      10.418  -4.193  -7.350  1.00  0.00     0.007 A 
ATOM     31  C   UNL     1       8.641  -3.612  -8.886  1.00  0.00     0.007 A 
ATOM     32  C   UNL     1      11.064  -4.902  -8.362  1.00  0.00     0.039 A 
ATOM     33  C   UNL     1       9.289  -4.325  -9.898  1.00  0.00     0.039 A 
ATOM     34  C   UNL     1      10.489  -4.969  -9.624  1.00  0.00     0.123 A 
ATOM     35  F   UNL     1      11.100  -5.666 -10.591  1.00  0.00    -0.207 F 
ENDBRANCH  28  29
ENDBRANCH  18  28
ENDBRANCH  12  13
ENDBRANCH   5   7
ENDBRANCH   2   3
ENDBRANCH   1   2
BRANCH   1  36
ATOM     36  C   UNL     1       4.564   3.663   0.828  1.00  0.00     0.023 C 
BRANCH  36  37
ATOM     37  C   UNL     1       4.949   3.589   2.301  1.00  0.00     0.116 C 
BRANCH  37  38
ATOM     38  N   UNL     1       6.383   3.471   2.511  1.00  0.00    -0.352 N 
ATOM     39  C   UNL     1       7.219   4.194   3.326  1.00  0.00     0.251 C 
ATOM     40  H   UNL     1       6.823   2.762   1.988  1.00  0.00     0.163 HD
ATOM     41  O   UNL     1       8.432   4.018   3.261  1.00  0.00    -0.269 OA
BRANCH  39  42
ATOM     42  C   UNL     1       6.674   5.212   4.252  1.00  0.00     0.039 A 
ATOM     43  C   UNL     1       7.347   6.431   4.369  1.00  0.00     0.014 A 
ATOM     44  C   UNL     1       5.519   4.980   5.005  1.00  0.00     0.014 A 
ATOM     45  C   UNL     1       6.824   7.437   5.183  1.00  0.00     0.010 A 
ATOM     46  C   UNL     1       4.952   6.013   5.749  1.00  0.00     0.010 A 
ATOM     47  C   UNL     1       5.599   7.254   5.847  1.00  0.00    -0.014 A 
BRANCH  47  48
ATOM     48  C   UNL     1       4.984   8.372   6.609  1.00  0.00     0.031 A 
ATOM     49  C   UNL     1       4.780   8.279   8.095  1.00  0.00     0.074 A 
ATOM     50  C   UNL     1       4.581   9.473   5.945  1.00  0.00     0.049 A 
ATOM     51  N   UNL     1       4.318   9.183   8.924  1.00  0.00    -0.248 NA
ATOM     52  C   UNL     1       5.114   6.998   8.734  1.00  0.00     0.031 C 
ATOM     53  C   UNL     1       4.656   9.657   4.495  1.00  0.00     0.029 A 
ATOM     54  N   UNL     1       4.038  10.648   6.401  1.00  0.00    -0.354 N 
ATOM     55  C   UNL     1       4.299   8.578  10.174  1.00  0.00     0.074 A 
ATOM     56  C   UNL     1       4.740   7.213   9.986  1.00  0.00     0.031 C 
ATOM     57  C   UNL     1       4.229  10.891   4.185  1.00  0.00     0.029 A 
ATOM     58  C   UNL     1       3.819  11.572   5.408  1.00  0.00     0.049 A 
ATOM     59  H   UNL     1       3.826  10.813   7.348  1.00  0.00     0.167 HD
ATOM     60  C   UNL     1       3.968   9.119  11.372  1.00  0.00     0.037 A 
ATOM     61  C   UNL     1       3.354  12.834   5.478  1.00  0.00     0.037 A 
ATOM     62  C   UNL     1       3.542  10.483  11.556  1.00  0.00     0.049 A 
ATOM     63  C   UNL     1       3.006  13.413   6.821  1.00  0.00     0.074 A 
ATOM     64  C   UNL     1       3.257  11.148  12.736  1.00  0.00     0.029 A 
ATOM     65  N   UNL     1       3.327  11.390  10.528  1.00  0.00    -0.354 N 
ATOM     66  N   UNL     1       3.089  12.866   8.009  1.00  0.00    -0.248 NA
ATOM     67  C   UNL     1       2.509  14.796   6.830  1.00  0.00     0.031 C 
ATOM     68  C   UNL     1       2.812  12.437  12.419  1.00  0.00     0.029 A 
ATOM     69  C   UNL     1       2.881  12.598  11.044  1.00  0.00     0.049 A 
ATOM     70  H   UNL     1       3.470  11.204   9.572  1.00  0.00     0.167 HD
ATOM     71  C   UNL     1       2.683  13.842   8.908  1.00  0.00     0.074 A 
ATOM     72  C   UNL     1       2.378  15.024   8.128  1.00  0.00     0.031 C 
ATOM     73  C   UNL     1       2.570  13.766  10.258  1.00  0.00     0.037 A 
BRANCH  60  74
ATOM     74  C   UNL     1       4.046   8.228  12.581  1.00  0.00     0.064 A 
ATOM     75  C   UNL     1       5.273   7.755  13.074  1.00  0.00     0.173 A 
ATOM     76  C   UNL     1       2.881   7.863  13.273  1.00  0.00     0.173 A 
ATOM     77  F   UNL     1       6.418   8.064  12.447  1.00  0.00    -0.203 F 
ATOM     78  C   UNL     1       5.326   6.922  14.190  1.00  0.00     0.198 A 
ATOM     79  C   UNL     1       2.941   7.059  14.409  1.00  0.00     0.198 A 
ATOM     80  F   UNL     1       1.682   8.291  12.852  1.00  0.00    -0.203 F 
ATOM     81  F   UNL     1       6.504   6.436  14.605  1.00  0.00    -0.200 F 
ATOM     82  C   UNL     1       4.162   6.580  14.860  1.00  0.00     0.200 A 
ATOM     83  F   UNL     1       1.816   6.742  15.064  1.00  0.00    -0.200 F 
ATOM     84  F   UNL     1       4.215   5.783  15.935  1.00  0.00    -0.200 F 
ENDBRANCH  60  74
BRANCH  61  85
ATOM     85  C   UNL     1       3.244  13.653   4.242  1.00  0.00     0.064 A 
ATOM     86  C   UNL     1       4.093  14.749   4.031  1.00  0.00     0.173 A 
ATOM     87  C   UNL     1       2.296  13.361   3.252  1.00  0.00     0.173 A 
ATOM     88  F   UNL     1       5.003  15.081   4.958  1.00  0.00    -0.203 F 
ATOM     89  C   UNL     1       3.983  15.535   2.885  1.00  0.00     0.198 A 
ATOM     90  C   UNL     1       2.208  14.129   2.092  1.00  0.00     0.198 A 
ATOM     91  F   UNL     1       1.465  12.319   3.403  1.00  0.00    -0.203 F 
ATOM     92  F   UNL     1       4.775  16.604   2.731  1.00  0.00    -0.200 F 
ATOM     93  C   UNL     1       3.045  15.220   1.914  1.00  0.00     0.200 A 
ATOM     94  F   UNL     1       1.311  13.811   1.148  1.00  0.00    -0.200 F 
ATOM     95  F   UNL     1       2.943  15.971   0.809  1.00  0.00    -0.200 F 
ENDBRANCH  61  85
BRANCH  73  96
ATOM     96  C   UNL     1       2.123  15.010  10.975  1.00  0.00     0.064 A 
ATOM     97  C   UNL     1       0.820  15.513  10.838  1.00  0.00     0.173 A 
ATOM     98  C   UNL     1       3.012  15.712  11.802  1.00  0.00     0.173 A 
ATOM     99  F   UNL     1      -0.067  14.889  10.048  1.00  0.00    -0.203 F 
ATOM    100  C   UNL     1       0.440  16.698  11.463  1.00  0.00     0.198 A 
ATOM    101  C   UNL     1       2.617  16.876  12.456  1.00  0.00     0.198 A 
ATOM    102  F   UNL     1       4.267  15.272  11.977  1.00  0.00    -0.203 F 
ATOM    103  F   UNL     1      -0.786  17.199  11.257  1.00  0.00    -0.200 F 
ATOM    104  C   UNL     1       1.337  17.376  12.275  1.00  0.00     0.200 A 
ATOM    105  F   UNL     1       3.481  17.521  13.252  1.00  0.00    -0.200 F 
ATOM    106  F   UNL     1       0.972  18.520  12.871  1.00  0.00    -0.200 F 
ENDBRANCH  73  96
ENDBRANCH  47  48
ENDBRANCH  39  42
ENDBRANCH  37  38
ENDBRANCH  36  37
ENDBRANCH   1  36
TORSDOF 16
