REMARK SMILES Cc1nsc(NC(=O)C2([NH3+])CCCCC2)c1C(=O)NCCCCNC(=O)c1ccc(-c2c3nc(c(-c4c(F)c(F)c(F)c(F)c4F)c4ccc([nH]4)c(-c4c(F)c(F)c(F)c(F)c4F)c4nc(c(-c5c(F)c(F)c(F)c(F)c5F)c5ccc2[nH]5)C=C4)C=C3)cc1
REMARK SMILES IDX 21 1 20 2 19 3 17 4 18 5 16 7 1 8 2 9 3 10 4 11 5 12 6 13
REMARK SMILES IDX 7 14 8 16 9 17 11 18 15 19 12 20 14 21 13 22 10 23 22 27
REMARK SMILES IDX 23 28 24 29 25 30 26 32 27 33 28 34 89 35 29 36 88 37 30 38
REMARK SMILES IDX 31 39 32 40 82 41 33 42 87 43 81 44 83 45 34 46 86 47 80 48
REMARK SMILES IDX 79 49 35 51 67 52 47 53 66 54 48 55 51 56 65 57 84 58 49 59
REMARK SMILES IDX 50 60 64 62 85 63 52 64 36 65 37 66 45 67 38 68 39 69 43 70
REMARK SMILES IDX 46 71 40 72 41 73 44 74 42 75 68 76 69 77 77 78 70 79 71 80
REMARK SMILES IDX 75 81 78 82 72 83 73 84 76 85 74 86 53 87 54 88 62 89 55 90
REMARK SMILES IDX 56 91 60 92 63 93 57 94 58 95 61 96 59 97
REMARK H PARENT 19 6 6 15 10 24 10 25 10 26 24 31 83 50 51 61
REMARK Flexibility Score: inf
ROOT
ATOM      1  C   UNL     1       1.256   2.554  -0.389  1.00  0.00     0.023 C 
ENDROOT
BRANCH   1   2
ATOM      2  C   UNL     1      -0.189   2.065  -0.493  1.00  0.00     0.116 C 
BRANCH   2   3
ATOM      3  N   UNL     1      -0.612   1.762  -1.835  1.00  0.00    -0.352 N 
ATOM      4  C   UNL     1      -0.549   0.655  -2.635  1.00  0.00     0.256 C 
ATOM      5  O   UNL     1      -1.281   0.736  -3.630  1.00  0.00    -0.269 OA
ATOM      6  H   UNL     1      -1.046   2.527  -2.278  1.00  0.00     0.163 HD
BRANCH   4   7
ATOM      7  C   UNL     1       0.357  -0.493  -2.484  1.00  0.00     0.097 A 
ATOM      8  C   UNL     1       1.333  -0.803   0.021  1.00  0.00     0.069 C 
ATOM      9  C   UNL     1       1.260  -1.007  -1.451  1.00  0.00     0.066 A 
ATOM     10  N   UNL     1       2.156  -1.905  -1.875  1.00  0.00    -0.195 NA
ATOM     11  S   UNL     1       1.839  -2.289  -3.426  1.00  0.00    -0.017 S 
ATOM     12  C   UNL     1       0.361  -1.468  -3.503  1.00  0.00     0.129 A 
BRANCH  12  13
ATOM     13  N   UNL     1      -0.556  -1.661  -4.528  1.00  0.00    -0.310 N 
ATOM     14  C   UNL     1      -0.995  -2.775  -5.212  1.00  0.00     0.286 C 
ATOM     15  H   UNL     1      -0.983  -0.826  -4.829  1.00  0.00     0.171 HD
ATOM     16  O   UNL     1      -1.905  -2.575  -6.030  1.00  0.00    -0.267 OA
BRANCH  14  17
ATOM     17  C   UNL     1      -0.468  -4.239  -4.960  1.00  0.00     0.174 C 
ATOM     18  C   UNL     1      -0.603  -4.645  -3.470  1.00  0.00     0.079 C 
ATOM     19  C   UNL     1      -1.173  -5.291  -5.866  1.00  0.00     0.079 C 
ATOM     20  C   UNL     1      -2.023  -5.048  -3.072  1.00  0.00     0.007 C 
ATOM     21  C   UNL     1      -2.537  -5.788  -5.385  1.00  0.00     0.007 C 
ATOM     22  C   UNL     1      -2.503  -6.207  -3.924  1.00  0.00     0.001 C 
BRANCH  17  23
ATOM     23  N   UNL     1       0.930  -4.301  -5.457  1.00  0.00    -0.345 N 
ATOM     24  H   UNL     1       1.508  -3.643  -4.933  1.00  0.00     0.345 HD
ATOM     25  H   UNL     1       0.950  -4.056  -6.447  1.00  0.00     0.345 HD
ATOM     26  H   UNL     1       1.294  -5.246  -5.334  1.00  0.00     0.345 HD
ENDBRANCH  17  23
ENDBRANCH  14  17
ENDBRANCH  12  13
ENDBRANCH   4   7
ENDBRANCH   2   3
ENDBRANCH   1   2
BRANCH   1  27
ATOM     27  C   UNL     1       1.479   4.044  -0.667  1.00  0.00     0.023 C 
BRANCH  27  28
ATOM     28  C   UNL     1       0.833   4.989   0.346  1.00  0.00     0.116 C 
BRANCH  28  29
ATOM     29  N   UNL     1       1.296   4.762   1.712  1.00  0.00    -0.352 N 
ATOM     30  C   UNL     1       0.711   5.171   2.893  1.00  0.00     0.251 C 
ATOM     31  H   UNL     1       2.133   4.252   1.802  1.00  0.00     0.163 HD
ATOM     32  O   UNL     1       1.359   5.253   3.924  1.00  0.00    -0.269 OA
BRANCH  30  33
ATOM     33  C   UNL     1      -0.724   5.506   2.896  1.00  0.00     0.039 A 
ATOM     34  C   UNL     1      -1.171   6.689   3.489  1.00  0.00     0.014 A 
ATOM     35  C   UNL     1      -1.617   4.633   2.277  1.00  0.00     0.014 A 
ATOM     36  C   UNL     1      -2.512   7.040   3.365  1.00  0.00     0.010 A 
ATOM     37  C   UNL     1      -2.927   5.018   2.083  1.00  0.00     0.010 A 
ATOM     38  C   UNL     1      -3.382   6.218   2.632  1.00  0.00    -0.014 A 
BRANCH  38  39
ATOM     39  C   UNL     1      -4.725   6.695   2.300  1.00  0.00     0.031 A 
ATOM     40  C   UNL     1      -4.782   7.993   1.563  1.00  0.00     0.074 A 
ATOM     41  C   UNL     1      -5.832   5.933   2.428  1.00  0.00     0.049 A 
ATOM     42  N   UNL     1      -5.415   9.068   1.904  1.00  0.00    -0.248 NA
ATOM     43  C   UNL     1      -3.979   8.145   0.339  1.00  0.00     0.031 C 
ATOM     44  C   UNL     1      -5.921   4.539   2.869  1.00  0.00     0.029 A 
ATOM     45  N   UNL     1      -7.114   6.219   2.064  1.00  0.00    -0.354 N 
ATOM     46  C   UNL     1      -5.218   9.990   0.877  1.00  0.00     0.074 A 
ATOM     47  C   UNL     1      -4.229   9.413   0.004  1.00  0.00     0.031 C 
ATOM     48  C   UNL     1      -7.128   4.039   2.529  1.00  0.00     0.029 A 
ATOM     49  C   UNL     1      -7.943   5.107   1.977  1.00  0.00     0.049 A 
ATOM     50  H   UNL     1      -7.426   7.134   1.878  1.00  0.00     0.167 HD
ATOM     51  C   UNL     1      -6.030  11.077   0.735  1.00  0.00     0.037 A 
ATOM     52  C   UNL     1      -9.194   5.058   1.454  1.00  0.00     0.037 A 
ATOM     53  C   UNL     1      -6.776  11.326   1.942  1.00  0.00     0.049 A 
ATOM     54  C   UNL     1      -9.726   6.443   1.454  1.00  0.00     0.074 A 
ATOM     55  C   UNL     1      -6.432  11.608   3.250  1.00  0.00     0.029 A 
ATOM     56  N   UNL     1      -8.096  10.953   1.978  1.00  0.00    -0.354 N 
ATOM     57  N   UNL     1     -10.045   7.095   2.537  1.00  0.00    -0.248 NA
ATOM     58  C   UNL     1      -9.500   7.265   0.274  1.00  0.00     0.031 C 
ATOM     59  C   UNL     1      -7.390  10.907   4.039  1.00  0.00     0.029 A 
ATOM     60  C   UNL     1      -8.294  10.301   3.167  1.00  0.00     0.049 A 
ATOM     61  H   UNL     1      -8.773  11.121   1.283  1.00  0.00     0.167 HD
ATOM     62  C   UNL     1      -9.615   8.390   2.298  1.00  0.00     0.074 A 
ATOM     63  C   UNL     1      -9.396   8.462   0.856  1.00  0.00     0.031 C 
ATOM     64  C   UNL     1      -9.197   9.188   3.323  1.00  0.00     0.037 A 
BRANCH  51  65
ATOM     65  C   UNL     1      -6.420  11.716  -0.579  1.00  0.00     0.064 A 
ATOM     66  C   UNL     1      -7.205  12.890  -0.563  1.00  0.00     0.173 A 
ATOM     67  C   UNL     1      -6.335  11.063  -1.825  1.00  0.00     0.173 A 
ATOM     68  F   UNL     1      -7.359  13.597   0.567  1.00  0.00    -0.203 F 
ATOM     69  C   UNL     1      -7.934  13.310  -1.679  1.00  0.00     0.198 A 
ATOM     70  C   UNL     1      -7.022  11.516  -2.952  1.00  0.00     0.198 A 
ATOM     71  F   UNL     1      -5.683   9.905  -1.980  1.00  0.00    -0.203 F 
ATOM     72  F   UNL     1      -8.777  14.346  -1.573  1.00  0.00    -0.200 F 
ATOM     73  C   UNL     1      -7.851  12.615  -2.870  1.00  0.00     0.200 A 
ATOM     74  F   UNL     1      -6.938  10.822  -4.096  1.00  0.00    -0.200 F 
ATOM     75  F   UNL     1      -8.602  12.970  -3.920  1.00  0.00    -0.200 F 
ENDBRANCH  51  65
BRANCH  52  76
ATOM     76  C   UNL     1      -9.887   3.936   0.776  1.00  0.00     0.064 A 
ATOM     77  C   UNL     1     -11.270   3.983   0.526  1.00  0.00     0.173 A 
ATOM     78  C   UNL     1      -9.174   2.912   0.121  1.00  0.00     0.173 A 
ATOM     79  F   UNL     1     -12.024   4.946   1.076  1.00  0.00    -0.203 F 
ATOM     80  C   UNL     1     -11.891   3.087  -0.350  1.00  0.00     0.198 A 
ATOM     81  C   UNL     1      -9.797   2.010  -0.742  1.00  0.00     0.198 A 
ATOM     82  F   UNL     1      -7.841   2.821   0.229  1.00  0.00    -0.203 F 
ATOM     83  F   UNL     1     -13.199   3.211  -0.616  1.00  0.00    -0.200 F 
ATOM     84  C   UNL     1     -11.153   2.107  -0.992  1.00  0.00     0.200 A 
ATOM     85  F   UNL     1      -9.063   1.085  -1.378  1.00  0.00    -0.200 F 
ATOM     86  F   UNL     1     -11.735   1.288  -1.878  1.00  0.00    -0.200 F 
ENDBRANCH  52  76
BRANCH  64  87
ATOM     87  C   UNL     1      -9.473   8.738   4.729  1.00  0.00     0.064 A 
ATOM     88  C   UNL     1      -8.960   7.557   5.294  1.00  0.00     0.173 A 
ATOM     89  C   UNL     1     -10.154   9.617   5.583  1.00  0.00     0.173 A 
ATOM     90  F   UNL     1      -8.209   6.715   4.575  1.00  0.00    -0.203 F 
ATOM     91  C   UNL     1      -9.162   7.252   6.638  1.00  0.00     0.198 A 
ATOM     92  C   UNL     1     -10.318   9.328   6.934  1.00  0.00     0.198 A 
ATOM     93  F   UNL     1     -10.615  10.787   5.114  1.00  0.00    -0.203 F 
ATOM     94  F   UNL     1      -8.672   6.111   7.148  1.00  0.00    -0.200 F 
ATOM     95  C   UNL     1      -9.833   8.142   7.459  1.00  0.00     0.200 A 
ATOM     96  F   UNL     1     -10.922  10.217   7.735  1.00  0.00    -0.200 F 
ATOM     97  F   UNL     1      -9.987   7.870   8.762  1.00  0.00    -0.200 F 
ENDBRANCH  64  87
ENDBRANCH  38  39
ENDBRANCH  30  33
ENDBRANCH  28  29
ENDBRANCH  27  28
ENDBRANCH   1  27
TORSDOF 14
