REMARK SMILES O=C(NCCCCNC(=O)[C@H]1C[N@H+](Cc2cccc(Cl)c2)CC12CCCCC2)c1ccc(-c2c3nc(c(-c4c(F)c(F)c(F)c(F)c4F)c4ccc([nH]4)c(-c4c(F)c(F)c(F)c(F)c4F)c4nc(c(-c5c(F)c(F)c(F)c(F)c5F)c5ccc2[nH]5)C=C4)C=C3)cc1
REMARK SMILES IDX 5 1 4 2 3 3 1 4 2 5 29 7 30 8 91 9 31 10 90 11 32 12 33 13
REMARK SMILES IDX 34 14 84 15 35 16 89 17 83 18 85 19 36 20 88 21 82 22 81 23
REMARK SMILES IDX 37 25 69 26 49 27 68 28 50 29 53 30 67 31 86 32 51 33 52 34
REMARK SMILES IDX 66 36 87 37 54 38 38 39 39 40 47 41 40 42 41 43 45 44 48 45
REMARK SMILES IDX 42 46 43 47 46 48 44 49 70 50 71 51 79 52 72 53 73 54 77 55
REMARK SMILES IDX 80 56 74 57 75 58 78 59 76 60 55 61 56 62 64 63 57 64 58 65
REMARK SMILES IDX 62 66 65 67 59 68 60 69 63 70 61 71 6 72 7 73 8 74 9 75
REMARK SMILES IDX 10 77 11 78 12 79 23 80 13 81 22 82 24 83 28 84 25 86 27 87
REMARK SMILES IDX 26 88 14 89 15 90 16 91 21 92 17 93 19 94 18 95 20 96
REMARK H PARENT 3 6 85 24 53 35 8 76 13 85
REMARK Flexibility Score: inf
ROOT
ATOM      1  C   UNL     1       5.015   2.607  -0.317  1.00  0.00     0.023 C 
ENDROOT
BRANCH   1   2
ATOM      2  C   UNL     1       4.677   1.230   0.241  1.00  0.00     0.116 C 
BRANCH   2   3
ATOM      3  N   UNL     1       3.248   1.019   0.414  1.00  0.00    -0.352 N 
ATOM      4  O   UNL     1       1.256   0.014   0.043  1.00  0.00    -0.269 OA
ATOM      5  C   UNL     1       2.468   0.008  -0.094  1.00  0.00     0.251 C 
ATOM      6  H   UNL     1       2.780   1.687   0.966  1.00  0.00     0.163 HD
BRANCH   5   7
ATOM      7  C   UNL     1       3.132  -1.077  -0.840  1.00  0.00     0.039 A 
ATOM      8  C   UNL     1       4.206  -1.763  -0.267  1.00  0.00     0.014 A 
ATOM      9  C   UNL     1       2.704  -1.369  -2.136  1.00  0.00     0.014 A 
ATOM     10  C   UNL     1       4.930  -2.663  -1.037  1.00  0.00     0.010 A 
ATOM     11  C   UNL     1       3.384  -2.333  -2.881  1.00  0.00     0.010 A 
ATOM     12  C   UNL     1       4.510  -2.975  -2.341  1.00  0.00    -0.014 A 
BRANCH  12  13
ATOM     13  C   UNL     1       5.186  -4.068  -3.076  1.00  0.00     0.031 A 
ATOM     14  C   UNL     1       5.969  -3.807  -4.328  1.00  0.00     0.074 A 
ATOM     15  C   UNL     1       5.060  -5.318  -2.590  1.00  0.00     0.049 A 
ATOM     16  N   UNL     1       6.580  -4.664  -5.106  1.00  0.00    -0.248 NA
ATOM     17  C   UNL     1       6.078  -2.409  -4.774  1.00  0.00     0.031 C 
ATOM     18  C   UNL     1       4.299  -5.679  -1.390  1.00  0.00     0.029 A 
ATOM     19  N   UNL     1       5.561  -6.513  -3.036  1.00  0.00    -0.354 N 
ATOM     20  C   UNL     1       7.126  -3.918  -6.141  1.00  0.00     0.074 A 
ATOM     21  C   UNL     1       6.768  -2.536  -5.901  1.00  0.00     0.031 C 
ATOM     22  C   UNL     1       4.401  -6.998  -1.183  1.00  0.00     0.029 A 
ATOM     23  C   UNL     1       5.174  -7.585  -2.270  1.00  0.00     0.049 A 
ATOM     24  H   UNL     1       6.140  -6.594  -3.828  1.00  0.00     0.167 HD
ATOM     25  C   UNL     1       7.860  -4.358  -7.191  1.00  0.00     0.037 A 
ATOM     26  C   UNL     1       5.386  -8.901  -2.444  1.00  0.00     0.037 A 
ATOM     27  C   UNL     1       8.233  -5.735  -7.398  1.00  0.00     0.049 A 
ATOM     28  C   UNL     1       6.181  -9.353  -3.633  1.00  0.00     0.074 A 
ATOM     29  C   UNL     1       9.052  -6.268  -8.379  1.00  0.00     0.029 A 
ATOM     30  N   UNL     1       7.802  -6.797  -6.617  1.00  0.00    -0.354 N 
ATOM     31  N   UNL     1       6.748  -8.631  -4.568  1.00  0.00    -0.248 NA
ATOM     32  C   UNL     1       6.357 -10.801  -3.798  1.00  0.00     0.031 C 
ATOM     33  C   UNL     1       9.071  -7.657  -8.225  1.00  0.00     0.029 A 
ATOM     34  C   UNL     1       8.302  -7.987  -7.121  1.00  0.00     0.049 A 
ATOM     35  H   UNL     1       7.227  -6.718  -5.822  1.00  0.00     0.167 HD
ATOM     36  C   UNL     1       7.349  -9.534  -5.431  1.00  0.00     0.074 A 
ATOM     37  C   UNL     1       7.105 -10.855  -4.890  1.00  0.00     0.031 C 
ATOM     38  C   UNL     1       8.033  -9.292  -6.575  1.00  0.00     0.037 A 
BRANCH  25  39
ATOM     39  C   UNL     1       8.308  -3.361  -8.218  1.00  0.00     0.064 A 
ATOM     40  C   UNL     1       9.361  -2.469  -7.971  1.00  0.00     0.173 A 
ATOM     41  C   UNL     1       7.746  -3.374  -9.504  1.00  0.00     0.173 A 
ATOM     42  F   UNL     1       9.928  -2.413  -6.756  1.00  0.00    -0.203 F 
ATOM     43  C   UNL     1       9.835  -1.626  -8.974  1.00  0.00     0.198 A 
ATOM     44  C   UNL     1       8.236  -2.545 -10.510  1.00  0.00     0.198 A 
ATOM     45  F   UNL     1       6.741  -4.214  -9.793  1.00  0.00    -0.203 F 
ATOM     46  F   UNL     1      10.834  -0.772  -8.713  1.00  0.00    -0.200 F 
ATOM     47  C   UNL     1       9.279  -1.672 -10.245  1.00  0.00     0.200 A 
ATOM     48  F   UNL     1       7.706  -2.600 -11.740  1.00  0.00    -0.200 F 
ATOM     49  F   UNL     1       9.752  -0.876 -11.214  1.00  0.00    -0.200 F 
ENDBRANCH  25  39
BRANCH  26  50
ATOM     50  C   UNL     1       4.795  -9.876  -1.493  1.00  0.00     0.064 A 
ATOM     51  C   UNL     1       5.603 -10.640  -0.643  1.00  0.00     0.173 A 
ATOM     52  C   UNL     1       3.405 -10.059  -1.415  1.00  0.00     0.173 A 
ATOM     53  F   UNL     1       6.937 -10.513  -0.694  1.00  0.00    -0.203 F 
ATOM     54  C   UNL     1       5.045 -11.566   0.237  1.00  0.00     0.198 A 
ATOM     55  C   UNL     1       2.847 -10.960  -0.513  1.00  0.00     0.198 A 
ATOM     56  F   UNL     1       2.588  -9.346  -2.204  1.00  0.00    -0.203 F 
ATOM     57  F   UNL     1       5.843 -12.319   1.006  1.00  0.00    -0.200 F 
ATOM     58  C   UNL     1       3.668 -11.720   0.305  1.00  0.00     0.200 A 
ATOM     59  F   UNL     1       1.516 -11.092  -0.438  1.00  0.00    -0.200 F 
ATOM     60  F   UNL     1       3.133 -12.607   1.155  1.00  0.00    -0.200 F 
ENDBRANCH  26  50
BRANCH  38  61
ATOM     61  C   UNL     1       8.555 -10.486  -7.316  1.00  0.00     0.064 A 
ATOM     62  C   UNL     1       7.693 -11.331  -8.030  1.00  0.00     0.173 A 
ATOM     63  C   UNL     1       9.927 -10.774  -7.332  1.00  0.00     0.173 A 
ATOM     64  F   UNL     1       6.370 -11.106  -8.026  1.00  0.00    -0.203 F 
ATOM     65  C   UNL     1       8.185 -12.436  -8.716  1.00  0.00     0.198 A 
ATOM     66  C   UNL     1      10.418 -11.865  -8.043  1.00  0.00     0.198 A 
ATOM     67  F   UNL     1      10.790  -9.993  -6.665  1.00  0.00    -0.203 F 
ATOM     68  F   UNL     1       7.339 -13.258  -9.354  1.00  0.00    -0.200 F 
ATOM     69  C   UNL     1       9.547 -12.698  -8.728  1.00  0.00     0.200 A 
ATOM     70  F   UNL     1      11.735 -12.111  -8.062  1.00  0.00    -0.200 F 
ATOM     71  F   UNL     1      10.020 -13.761  -9.394  1.00  0.00    -0.200 F 
ENDBRANCH  38  61
ENDBRANCH  12  13
ENDBRANCH   5   7
ENDBRANCH   2   3
ENDBRANCH   1   2
BRANCH   1  72
ATOM     72  C   UNL     1       4.581   3.794   0.543  1.00  0.00     0.023 C 
BRANCH  72  73
ATOM     73  C   UNL     1       4.826   3.611   2.035  1.00  0.00     0.116 C 
BRANCH  73  74
ATOM     74  N   UNL     1       6.221   3.356   2.357  1.00  0.00    -0.356 N 
ATOM     75  C   UNL     1       6.953   3.594   3.476  1.00  0.00     0.229 C 
ATOM     76  H   UNL     1       6.730   2.933   1.628  1.00  0.00     0.163 HD
ATOM     77  O   UNL     1       8.083   3.095   3.510  1.00  0.00    -0.275 OA
BRANCH  75  78
ATOM     78  C   UNL     1       6.466   4.442   4.639  1.00  0.00     0.145 C 
ATOM     79  C   UNL     1       6.043   5.834   4.168  1.00  0.00     0.276 C 
ATOM     80  C   UNL     1       5.356   3.894   5.587  1.00  0.00     0.037 C 
ATOM     81  N   UNL     1       4.905   6.223   4.982  1.00  0.00    -0.330 N 
ATOM     82  C   UNL     1       4.278   5.006   5.503  1.00  0.00     0.270 C 
ATOM     83  C   UNL     1       4.824   2.486   5.229  1.00  0.00     0.014 C 
ATOM     84  C   UNL     1       5.917   3.732   7.029  1.00  0.00     0.014 C 
ATOM     85  H   UNL     1       4.205   6.681   4.398  1.00  0.00     0.348 HD
ATOM     86  C   UNL     1       3.785   1.933   6.205  1.00  0.00     0.001 C 
ATOM     87  C   UNL     1       4.877   3.251   8.046  1.00  0.00     0.001 C 
ATOM     88  C   UNL     1       4.293   1.908   7.638  1.00  0.00     0.000 C 
BRANCH  81  89
ATOM     89  C   UNL     1       5.104   7.360   5.885  1.00  0.00     0.299 C 
BRANCH  89  90
ATOM     90  C   UNL     1       6.085   7.186   7.026  1.00  0.00     0.008 A 
ATOM     91  C   UNL     1       7.473   7.177   6.806  1.00  0.00     0.009 A 
ATOM     92  C   UNL     1       5.616   6.977   8.333  1.00  0.00     0.030 A 
ATOM     93  C   UNL     1       8.363   6.849   7.832  1.00  0.00     0.002 A 
ATOM     94  C   UNL     1       6.511   6.671   9.361  1.00  0.00     0.041 A 
ATOM     95  C   UNL     1       7.879   6.581   9.110  1.00  0.00     0.020 A 
ATOM     96  Cl  UNL     1       5.912   6.336  10.939  1.00  0.00    -0.084 Cl
ENDBRANCH  89  90
ENDBRANCH  81  89
ENDBRANCH  75  78
ENDBRANCH  73  74
ENDBRANCH  72  73
ENDBRANCH   1  72
TORSDOF 13
