REMARK SMILES O=C(NCCCCNC(=O)c1ccc(NS(=O)(=O)c2ccc3c(c2)CCC3)cc1Cl)c1ccc(-c2c3nc(c(-c4c(F)c(F)c(F)c(F)c4F)c4ccc([nH]4)c(-c4c(F)c(F)c(F)c(F)c4F)c4nc(c(-c5c(F)c(F)c(F)c(F)c5F)c5ccc2[nH]5)C=C4)C=C3)cc1
REMARK SMILES IDX 6 1 5 2 4 3 3 4 1 5 2 6 31 8 32 9 93 10 33 11 92 12 34 13
REMARK SMILES IDX 35 14 36 15 86 16 37 17 91 18 85 19 87 20 38 21 90 22 84 23
REMARK SMILES IDX 83 24 39 26 71 27 51 28 70 29 52 30 55 31 69 32 88 33 53 34
REMARK SMILES IDX 54 35 68 37 89 38 56 39 40 40 41 41 49 42 42 43 43 44 47 45
REMARK SMILES IDX 50 46 44 47 45 48 48 49 46 50 72 51 73 52 81 53 74 54 75 55
REMARK SMILES IDX 79 56 82 57 76 58 77 59 80 60 78 61 57 62 58 63 66 64 59 65
REMARK SMILES IDX 60 66 64 67 67 68 61 69 62 70 65 71 63 72 7 73 8 74 9 75
REMARK SMILES IDX 10 77 11 78 12 79 29 80 13 81 28 82 30 83 14 84 15 85 16 87
REMARK SMILES IDX 17 88 18 89 19 90 20 91 24 92 21 93 23 94 22 95 25 96 27 97
REMARK SMILES IDX 26 98
REMARK H PARENT 3 7 87 25 55 36 8 76 15 86
REMARK Flexibility Score: inf
ROOT
ATOM      1  C   UNL     1       4.564  -1.066   3.592  1.00  0.00     0.023 C 
ENDROOT
BRANCH   1   2
ATOM      2  C   UNL     1       5.034  -0.172   2.446  1.00  0.00     0.023 C 
BRANCH   2   3
ATOM      3  C   UNL     1       4.678  -0.662   1.048  1.00  0.00     0.116 C 
BRANCH   3   4
ATOM      4  N   UNL     1       3.243  -0.772   0.841  1.00  0.00    -0.352 N 
ATOM      5  O   UNL     1       1.214  -0.204   0.034  1.00  0.00    -0.269 OA
ATOM      6  C   UNL     1       2.434  -0.099  -0.041  1.00  0.00     0.251 C 
ATOM      7  H   UNL     1       2.784  -1.425   1.417  1.00  0.00     0.163 HD
BRANCH   6   8
ATOM      8  C   UNL     1       3.037   0.776  -1.066  1.00  0.00     0.039 A 
ATOM      9  C   UNL     1       4.116   0.339  -1.839  1.00  0.00     0.014 A 
ATOM     10  C   UNL     1       2.503   2.053  -1.258  1.00  0.00     0.014 A 
ATOM     11  C   UNL     1       4.749   1.222  -2.707  1.00  0.00     0.010 A 
ATOM     12  C   UNL     1       3.089   2.911  -2.189  1.00  0.00     0.010 A 
ATOM     13  C   UNL     1       4.233   2.512  -2.901  1.00  0.00    -0.014 A 
BRANCH  13  14
ATOM     14  C   UNL     1       4.855   3.428  -3.887  1.00  0.00     0.031 A 
ATOM     15  C   UNL     1       5.479   4.719  -3.446  1.00  0.00     0.074 A 
ATOM     16  C   UNL     1       4.809   3.108  -5.193  1.00  0.00     0.049 A 
ATOM     17  N   UNL     1       5.963   5.695  -4.172  1.00  0.00    -0.248 NA
ATOM     18  C   UNL     1       5.557   4.951  -1.997  1.00  0.00     0.031 C 
ATOM     19  C   UNL     1       4.227   1.880  -5.737  1.00  0.00     0.029 A 
ATOM     20  N   UNL     1       5.236   3.795  -6.300  1.00  0.00    -0.354 N 
ATOM     21  C   UNL     1       6.379   6.667  -3.272  1.00  0.00     0.074 A 
ATOM     22  C   UNL     1       6.066   6.173  -1.947  1.00  0.00     0.031 C 
ATOM     23  C   UNL     1       4.332   1.900  -7.072  1.00  0.00     0.029 A 
ATOM     24  C   UNL     1       4.925   3.169  -7.481  1.00  0.00     0.049 A 
ATOM     25  H   UNL     1       5.719   4.652  -6.253  1.00  0.00     0.167 HD
ATOM     26  C   UNL     1       6.968   7.859  -3.534  1.00  0.00     0.037 A 
ATOM     27  C   UNL     1       5.056   3.587  -8.753  1.00  0.00     0.037 A 
ATOM     28  C   UNL     1       7.272   8.335  -4.860  1.00  0.00     0.049 A 
ATOM     29  C   UNL     1       5.666   4.932  -9.023  1.00  0.00     0.074 A 
ATOM     30  C   UNL     1       7.909   9.505  -5.232  1.00  0.00     0.029 A 
ATOM     31  N   UNL     1       6.942   7.669  -6.034  1.00  0.00    -0.354 N 
ATOM     32  N   UNL     1       6.095   5.828  -8.168  1.00  0.00    -0.248 NA
ATOM     33  C   UNL     1       5.814   5.324 -10.430  1.00  0.00     0.031 C 
ATOM     34  C   UNL     1       7.902   9.582  -6.629  1.00  0.00     0.029 A 
ATOM     35  C   UNL     1       7.330   8.423  -7.131  1.00  0.00     0.049 A 
ATOM     36  H   UNL     1       6.498   6.792  -6.080  1.00  0.00     0.167 HD
ATOM     37  C   UNL     1       6.589   6.878  -8.928  1.00  0.00     0.074 A 
ATOM     38  C   UNL     1       6.407   6.506 -10.317  1.00  0.00     0.031 C 
ATOM     39  C   UNL     1       7.151   8.038  -8.510  1.00  0.00     0.037 A 
BRANCH  26  40
ATOM     40  C   UNL     1       7.280   8.750  -2.364  1.00  0.00     0.064 A 
ATOM     41  C   UNL     1       8.255   8.417  -1.410  1.00  0.00     0.173 A 
ATOM     42  C   UNL     1       6.596   9.965  -2.197  1.00  0.00     0.173 A 
ATOM     43  F   UNL     1       8.937   7.266  -1.515  1.00  0.00    -0.203 F 
ATOM     44  C   UNL     1       8.496   9.239  -0.312  1.00  0.00     0.198 A 
ATOM     45  C   UNL     1       6.865  10.802  -1.118  1.00  0.00     0.198 A 
ATOM     46  F   UNL     1       5.662  10.343  -3.083  1.00  0.00    -0.203 F 
ATOM     47  F   UNL     1       9.382   8.863   0.622  1.00  0.00    -0.200 F 
ATOM     48  C   UNL     1       7.805  10.432  -0.168  1.00  0.00     0.200 A 
ATOM     49  F   UNL     1       6.208  11.963  -0.991  1.00  0.00    -0.200 F 
ATOM     50  F   UNL     1       8.035  11.219   0.891  1.00  0.00    -0.200 F 
ENDBRANCH  26  40
BRANCH  27  51
ATOM     51  C   UNL     1       4.578   2.710  -9.851  1.00  0.00     0.064 A 
ATOM     52  C   UNL     1       5.479   2.054 -10.697  1.00  0.00     0.173 A 
ATOM     53  C   UNL     1       3.208   2.459 -10.032  1.00  0.00     0.173 A 
ATOM     54  F   UNL     1       6.796   2.273 -10.572  1.00  0.00    -0.203 F 
ATOM     55  C   UNL     1       5.030   1.180 -11.685  1.00  0.00     0.198 A 
ATOM     56  C   UNL     1       2.762   1.563 -10.999  1.00  0.00     0.198 A 
ATOM     57  F   UNL     1       2.306   3.055  -9.238  1.00  0.00    -0.203 F 
ATOM     58  F   UNL     1       5.911   0.581 -12.498  1.00  0.00    -0.200 F 
ATOM     59  C   UNL     1       3.673   0.927 -11.828  1.00  0.00     0.200 A 
ATOM     60  F   UNL     1       1.453   1.305 -11.118  1.00  0.00    -0.200 F 
ATOM     61  F   UNL     1       3.244   0.068 -12.763  1.00  0.00    -0.200 F 
ENDBRANCH  27  51
BRANCH  39  62
ATOM     62  C   UNL     1       7.664   8.981  -9.559  1.00  0.00     0.064 A 
ATOM     63  C   UNL     1       6.800   9.744 -10.357  1.00  0.00     0.173 A 
ATOM     64  C   UNL     1       9.045   9.184  -9.706  1.00  0.00     0.173 A 
ATOM     65  F   UNL     1       5.472   9.575 -10.268  1.00  0.00    -0.203 F 
ATOM     66  C   UNL     1       7.301  10.671 -11.268  1.00  0.00     0.198 A 
ATOM     67  C   UNL     1       9.541  10.132 -10.595  1.00  0.00     0.198 A 
ATOM     68  F   UNL     1       9.914   8.480  -8.964  1.00  0.00    -0.203 F 
ATOM     69  F   UNL     1       6.458  11.369 -12.042  1.00  0.00    -0.200 F 
ATOM     70  C   UNL     1       8.669  10.873 -11.377  1.00  0.00     0.200 A 
ATOM     71  F   UNL     1      10.862  10.337 -10.686  1.00  0.00    -0.200 F 
ATOM     72  F   UNL     1       9.147  11.784 -12.236  1.00  0.00    -0.200 F 
ENDBRANCH  39  62
ENDBRANCH  13  14
ENDBRANCH   6   8
ENDBRANCH   3   4
ENDBRANCH   2   3
ENDBRANCH   1   2
BRANCH   1  73
ATOM     73  C   UNL     1       4.878  -2.549   3.431  1.00  0.00     0.116 C 
BRANCH  73  74
ATOM     74  N   UNL     1       6.290  -2.817   3.236  1.00  0.00    -0.352 N 
ATOM     75  C   UNL     1       7.057  -3.820   3.768  1.00  0.00     0.252 C 
ATOM     76  H   UNL     1       6.762  -2.193   2.640  1.00  0.00     0.163 HD
ATOM     77  O   UNL     1       8.255  -3.881   3.504  1.00  0.00    -0.269 OA
BRANCH  75  78
ATOM     78  C   UNL     1       6.481  -4.761   4.745  1.00  0.00     0.058 A 
ATOM     79  C   UNL     1       7.129  -4.827   5.976  1.00  0.00     0.017 A 
ATOM     80  C   UNL     1       5.412  -5.623   4.497  1.00  0.00     0.055 A 
ATOM     81  C   UNL     1       6.674  -5.709   6.956  1.00  0.00     0.027 A 
ATOM     82  C   UNL     1       4.911  -6.439   5.528  1.00  0.00     0.048 A 
ATOM     83  Cl  UNL     1       4.726  -5.823   2.923  1.00  0.00    -0.083 Cl
ATOM     84  C   UNL     1       5.510  -6.457   6.793  1.00  0.00     0.050 A 
BRANCH  84  85
ATOM     85  N   UNL     1       5.097  -7.475   7.727  1.00  0.00    -0.280 N 
ATOM     86  H   UNL     1       4.925  -8.379   7.378  1.00  0.00     0.180 HD
BRANCH  85  87
ATOM     87  S   UNL     1       4.887  -7.209   9.401  1.00  0.00     0.261 S 
ATOM     88  O   UNL     1       3.682  -6.411   9.533  1.00  0.00    -0.201 OA
ATOM     89  O   UNL     1       4.969  -8.508  10.028  1.00  0.00    -0.201 OA
BRANCH  87  90
ATOM     90  C   UNL     1       6.254  -6.242   9.969  1.00  0.00     0.088 A 
ATOM     91  C   UNL     1       7.498  -6.863  10.198  1.00  0.00     0.022 A 
ATOM     92  C   UNL     1       6.097  -4.854  10.074  1.00  0.00     0.026 A 
ATOM     93  C   UNL     1       8.633  -6.079  10.428  1.00  0.00     0.005 A 
ATOM     94  C   UNL     1       7.236  -4.095  10.262  1.00  0.00    -0.043 A 
ATOM     95  C   UNL     1       8.491  -4.698  10.417  1.00  0.00    -0.045 A 
ATOM     96  C   UNL     1       7.349  -2.604  10.288  1.00  0.00     0.036 C 
ATOM     97  C   UNL     1       9.560  -3.657  10.550  1.00  0.00     0.036 C 
ATOM     98  C   UNL     1       8.842  -2.422   9.984  1.00  0.00     0.010 C 
ENDBRANCH  87  90
ENDBRANCH  85  87
ENDBRANCH  84  85
ENDBRANCH  75  78
ENDBRANCH  73  74
ENDBRANCH   1  73
TORSDOF 14
