REMARK SMILES COc1ccc2c(c1)c(CC(=O)NCCCCNC(=O)c1ccc(-c3c4nc(c(-c5c(F)c(F)c(F)c(F)c5F)c5ccc([nH]5)c(-c5c(F)c(F)c(F)c(F)c5F)c5nc(c(-c6c(F)c(F)c(F)c(F)c6F)c6ccc3[nH]6)C=C5)C=C4)cc1)c(C)n2Cc1ccn(C(F)F)c(=O)c1
REMARK SMILES IDX 14 1 13 2 11 3 12 4 10 6 9 7 3 8 4 9 8 10 5 11 7 12 6 13
REMARK SMILES IDX 86 14 84 15 85 16 2 17 1 18 87 19 88 20 89 21 97 22 90 23
REMARK SMILES IDX 95 24 91 25 96 26 92 27 93 28 94 29 15 30 16 31 17 32 18 33
REMARK SMILES IDX 19 34 20 36 21 37 22 38 83 39 23 40 82 41 24 42 25 43 26 44
REMARK SMILES IDX 76 45 27 46 81 47 75 48 77 49 28 50 80 51 74 52 73 53 29 55
REMARK SMILES IDX 61 56 41 57 60 58 42 59 45 60 59 61 78 62 43 63 44 64 58 66
REMARK SMILES IDX 79 67 46 68 30 69 31 70 39 71 32 72 33 73 37 74 40 75 34 76
REMARK SMILES IDX 35 77 38 78 36 79 62 80 63 81 71 82 64 83 65 84 69 85 72 86
REMARK SMILES IDX 66 87 67 88 70 89 68 90 47 91 48 92 56 93 49 94 50 95 54 96
REMARK SMILES IDX 57 97 51 98 52 99 55 100 53 101
REMARK H PARENT 13 5 18 35 77 54 45 65
REMARK Flexibility Score: inf
ROOT
ATOM      1  C   UNL     1      -0.720  -3.441   7.168  1.00  0.00     0.116 C 
ENDROOT
BRANCH   1   2
ATOM      2  N   UNL     1      -1.621  -2.575   6.435  1.00  0.00    -0.356 N 
ATOM      3  C   UNL     1      -2.217  -2.778   5.221  1.00  0.00     0.224 C 
ATOM      4  O   UNL     1      -2.979  -1.904   4.800  1.00  0.00    -0.275 OA
ATOM      5  H   UNL     1      -1.835  -1.720   6.873  1.00  0.00     0.163 HD
BRANCH   3   6
ATOM      6  C   UNL     1      -2.007  -4.077   4.455  1.00  0.00     0.138 C 
BRANCH   6   7
ATOM      7  C   UNL     1      -0.577  -4.316   4.073  1.00  0.00    -0.010 A 
ATOM      8  C   UNL     1       1.054  -1.548   2.020  1.00  0.00     0.119 A 
ATOM      9  C   UNL     1       2.325  -2.112   1.989  1.00  0.00     0.048 A 
ATOM     10  C   UNL     1       0.028  -2.181   2.720  1.00  0.00     0.057 A 
ATOM     11  C   UNL     1       2.594  -3.329   2.638  1.00  0.00     0.031 A 
ATOM     12  C   UNL     1       0.260  -3.424   3.345  1.00  0.00     0.007 A 
ATOM     13  C   UNL     1       1.541  -3.983   3.305  1.00  0.00     0.049 A 
ATOM     14  N   UNL     1       1.486  -5.172   4.025  1.00  0.00    -0.340 N 
ATOM     15  C   UNL     1       0.162  -5.469   4.308  1.00  0.00     0.020 A 
ATOM     16  C   UNL     1      -0.336  -6.774   4.826  1.00  0.00     0.065 C 
BRANCH   8  17
ATOM     17  O   UNL     1       0.733  -0.341   1.460  1.00  0.00    -0.497 OA
ATOM     18  C   UNL     1       1.214  -0.164   0.131  1.00  0.00     0.278 C 
ENDBRANCH   8  17
BRANCH  14  19
ATOM     19  C   UNL     1       2.650  -6.001   4.370  1.00  0.00     0.158 C 
BRANCH  19  20
ATOM     20  C   UNL     1       3.092  -5.871   5.816  1.00  0.00    -0.021 A 
ATOM     21  C   UNL     1       2.352  -6.563   6.856  1.00  0.00     0.024 A 
ATOM     22  C   UNL     1       4.197  -5.190   6.176  1.00  0.00     0.077 A 
ATOM     23  C   UNL     1       2.664  -6.409   8.147  1.00  0.00     0.095 A 
ATOM     24  C   UNL     1       4.608  -5.081   7.606  1.00  0.00     0.255 A 
ATOM     25  N   UNL     1       3.748  -5.644   8.529  1.00  0.00    -0.258 N 
ATOM     26  O   UNL     1       5.665  -4.500   7.868  1.00  0.00    -0.269 OA
BRANCH  25  27
ATOM     27  C   UNL     1       4.081  -5.506   9.924  1.00  0.00     0.451 C 
ATOM     28  F   UNL     1       5.152  -6.277  10.238  1.00  0.00    -0.185 F 
ATOM     29  F   UNL     1       4.396  -4.225  10.223  1.00  0.00    -0.185 F 
ENDBRANCH  25  27
ENDBRANCH  19  20
ENDBRANCH  14  19
ENDBRANCH   6   7
ENDBRANCH   3   6
ENDBRANCH   1   2
BRANCH   1  30
ATOM     30  C   UNL     1       0.681  -2.842   7.307  1.00  0.00     0.023 C 
BRANCH  30  31
ATOM     31  C   UNL     1       0.778  -1.610   8.220  1.00  0.00     0.023 C 
BRANCH  31  32
ATOM     32  C   UNL     1       0.129  -1.772   9.597  1.00  0.00     0.116 C 
BRANCH  32  33
ATOM     33  N   UNL     1       0.595  -2.933  10.331  1.00  0.00    -0.352 N 
ATOM     34  C   UNL     1       1.551  -3.167  11.277  1.00  0.00     0.251 C 
ATOM     35  H   UNL     1       0.103  -3.751  10.087  1.00  0.00     0.163 HD
ATOM     36  O   UNL     1       1.552  -4.306  11.759  1.00  0.00    -0.269 OA
BRANCH  34  37
ATOM     37  C   UNL     1       2.610  -2.211  11.701  1.00  0.00     0.039 A 
ATOM     38  C   UNL     1       2.771  -0.913  11.221  1.00  0.00     0.014 A 
ATOM     39  C   UNL     1       3.579  -2.724  12.589  1.00  0.00     0.014 A 
ATOM     40  C   UNL     1       3.916  -0.189  11.537  1.00  0.00     0.010 A 
ATOM     41  C   UNL     1       4.729  -2.008  12.902  1.00  0.00     0.010 A 
ATOM     42  C   UNL     1       4.916  -0.755  12.335  1.00  0.00    -0.014 A 
BRANCH  42  43
ATOM     43  C   UNL     1       6.093   0.059  12.623  1.00  0.00     0.031 A 
ATOM     44  C   UNL     1       5.799   1.312  13.368  1.00  0.00     0.074 A 
ATOM     45  C   UNL     1       7.359  -0.303  12.326  1.00  0.00     0.049 A 
ATOM     46  N   UNL     1       5.974   2.529  12.971  1.00  0.00    -0.248 NA
ATOM     47  C   UNL     1       5.130   1.200  14.674  1.00  0.00     0.031 C 
ATOM     48  C   UNL     1       7.827  -1.613  11.868  1.00  0.00     0.029 A 
ATOM     49  N   UNL     1       8.519   0.410  12.462  1.00  0.00    -0.354 N 
ATOM     50  C   UNL     1       5.596   3.340  14.038  1.00  0.00     0.074 A 
ATOM     51  C   UNL     1       4.969   2.482  15.008  1.00  0.00     0.031 C 
ATOM     52  C   UNL     1       9.172  -1.674  11.991  1.00  0.00     0.029 A 
ATOM     53  C   UNL     1       9.669  -0.364  12.380  1.00  0.00     0.049 A 
ATOM     54  H   UNL     1       8.537   1.384  12.605  1.00  0.00     0.167 HD
ATOM     55  C   UNL     1       6.047   4.620  14.139  1.00  0.00     0.037 A 
ATOM     56  C   UNL     1      10.933   0.034  12.661  1.00  0.00     0.037 A 
ATOM     57  C   UNL     1       6.622   5.077  12.905  1.00  0.00     0.049 A 
ATOM     58  C   UNL     1      10.994   1.506  12.508  1.00  0.00     0.074 A 
ATOM     59  C   UNL     1       6.173   5.615  11.721  1.00  0.00     0.029 A 
ATOM     60  N   UNL     1       7.901   4.641  12.699  1.00  0.00    -0.354 N 
ATOM     61  N   UNL     1      10.858   2.124  11.368  1.00  0.00    -0.248 NA
ATOM     62  C   UNL     1      10.926   2.357  13.693  1.00  0.00     0.031 C 
ATOM     63  C   UNL     1       7.188   5.355  10.751  1.00  0.00     0.029 A 
ATOM     64  C   UNL     1       8.240   4.689  11.374  1.00  0.00     0.049 A 
ATOM     65  H   UNL     1       8.503   4.332  13.414  1.00  0.00     0.167 HD
ATOM     66  C   UNL     1      10.271   3.325  11.705  1.00  0.00     0.074 A 
ATOM     67  C   UNL     1      10.513   3.494  13.130  1.00  0.00     0.031 C 
ATOM     68  C   UNL     1       9.350   3.906  10.886  1.00  0.00     0.037 A 
BRANCH  55  69
ATOM     69  C   UNL     1       6.391   5.301  15.440  1.00  0.00     0.064 A 
ATOM     70  C   UNL     1       6.640   6.689  15.461  1.00  0.00     0.173 A 
ATOM     71  C   UNL     1       6.794   4.591  16.591  1.00  0.00     0.173 A 
ATOM     72  F   UNL     1       6.338   7.452  14.400  1.00  0.00    -0.203 F 
ATOM     73  C   UNL     1       7.277   7.308  16.541  1.00  0.00     0.198 A 
ATOM     74  C   UNL     1       7.383   5.220  17.687  1.00  0.00     0.198 A 
ATOM     75  F   UNL     1       6.742   3.255  16.648  1.00  0.00    -0.203 F 
ATOM     76  F   UNL     1       7.585   8.611  16.478  1.00  0.00    -0.200 F 
ATOM     77  C   UNL     1       7.646   6.574  17.654  1.00  0.00     0.200 A 
ATOM     78  F   UNL     1       7.763   4.486  18.742  1.00  0.00    -0.200 F 
ATOM     79  F   UNL     1       8.295   7.155  18.671  1.00  0.00    -0.200 F 
ENDBRANCH  55  69
BRANCH  56  80
ATOM     80  C   UNL     1      12.008  -0.723  13.348  1.00  0.00     0.064 A 
ATOM     81  C   UNL     1      13.329  -0.240  13.358  1.00  0.00     0.173 A 
ATOM     82  C   UNL     1      11.709  -1.744  14.270  1.00  0.00     0.173 A 
ATOM     83  F   UNL     1      13.693   0.751  12.531  1.00  0.00    -0.203 F 
ATOM     84  C   UNL     1      14.273  -0.703  14.280  1.00  0.00     0.198 A 
ATOM     85  C   UNL     1      12.655  -2.210  15.184  1.00  0.00     0.198 A 
ATOM     86  F   UNL     1      10.466  -2.233  14.377  1.00  0.00    -0.203 F 
ATOM     87  F   UNL     1      15.495  -0.153  14.319  1.00  0.00    -0.200 F 
ATOM     88  C   UNL     1      13.929  -1.674  15.205  1.00  0.00     0.200 A 
ATOM     89  F   UNL     1      12.301  -3.128  16.095  1.00  0.00    -0.200 F 
ATOM     90  F   UNL     1      14.806  -2.058  16.143  1.00  0.00    -0.200 F 
ENDBRANCH  56  80
BRANCH  68  91
ATOM     91  C   UNL     1       9.395   3.556   9.434  1.00  0.00     0.064 A 
ATOM     92  C   UNL     1       9.099   2.287   8.912  1.00  0.00     0.173 A 
ATOM     93  C   UNL     1       9.681   4.584   8.525  1.00  0.00     0.173 A 
ATOM     94  F   UNL     1       8.747   1.276   9.717  1.00  0.00    -0.203 F 
ATOM     95  C   UNL     1       9.122   2.055   7.538  1.00  0.00     0.198 A 
ATOM     96  C   UNL     1       9.667   4.359   7.154  1.00  0.00     0.198 A 
ATOM     97  F   UNL     1       9.937   5.824   8.972  1.00  0.00    -0.203 F 
ATOM     98  F   UNL     1       8.854   0.833   7.056  1.00  0.00    -0.200 F 
ATOM     99  C   UNL     1       9.398   3.093   6.661  1.00  0.00     0.200 A 
ATOM    100  F   UNL     1       9.895   5.375   6.311  1.00  0.00    -0.200 F 
ATOM    101  F   UNL     1       9.383   2.879   5.338  1.00  0.00    -0.200 F 
ENDBRANCH  68  91
ENDBRANCH  42  43
ENDBRANCH  34  37
ENDBRANCH  32  33
ENDBRANCH  31  32
ENDBRANCH  30  31
ENDBRANCH   1  30
TORSDOF 16
