REMARK SMILES COc1ccc(/C=C2/C(=O)N(c3ccccc3)C(=O)[NH+]=C2NCCCCNC(=O)c2ccc(-c3c4nc(c(-c5c(F)c(F)c(F)c(F)c5F)c5ccc([nH]5)c(-c5c(F)c(F)c(F)c(F)c5F)c5nc(c(-c6c(F)c(F)c(F)c(F)c6F)c6ccc3[nH]6)C=C5)C=C4)cc2)cc1C(=O)[O-]
REMARK SMILES IDX 25 1 24 2 23 3 22 4 7 5 8 6 9 7 21 8 10 9 11 10 20 11 18 12
REMARK SMILES IDX 19 15 6 16 3 17 4 18 94 19 5 20 93 21 2 22 1 23 95 24 96 25
REMARK SMILES IDX 97 26 12 27 13 28 17 29 14 30 16 31 15 32 26 33 27 34 28 35
REMARK SMILES IDX 29 37 30 38 31 39 92 40 32 41 91 42 33 43 34 44 35 45 85 46
REMARK SMILES IDX 36 47 90 48 84 49 86 50 37 51 89 52 83 53 82 54 38 56 70 57
REMARK SMILES IDX 50 58 69 59 51 60 54 61 68 62 87 63 52 64 53 65 67 67 88 68
REMARK SMILES IDX 55 69 39 70 40 71 48 72 41 73 42 74 46 75 49 76 43 77 44 78
REMARK SMILES IDX 47 79 45 80 71 81 72 82 80 83 73 84 74 85 78 86 81 87 75 88
REMARK SMILES IDX 76 89 79 90 77 91 56 92 57 93 65 94 58 95 59 96 63 97 66 98
REMARK SMILES IDX 60 99 61 100 64 101 62 102
REMARK H PARENT 20 13 22 14 27 36 86 55 54 66
REMARK Flexibility Score: inf
ROOT
ATOM      1  C   UNL     1      -0.861   1.783   1.897  1.00  0.00     0.024 C 
ENDROOT
BRANCH   1   2
ATOM      2  C   UNL     1       0.678   2.514   2.501  1.00  0.00     0.039 C 
BRANCH   2   3
ATOM      3  C   UNL     1       1.802   4.345   2.077  1.00  0.00     0.194 C 
BRANCH   3   4
ATOM      4  N   UNL     1       1.289   5.902   2.073  1.00  0.00    -0.305 N 
ATOM      5  C   UNL     1       1.050   5.080   4.980  1.00  0.00     0.030 C 
ATOM      6  C   UNL     1       1.276   6.331   4.560  1.00  0.00     0.129 C 
ATOM      7  C   UNL     1       1.674   7.426   5.461  1.00  0.00     0.328 C 
ATOM      8  C   UNL     1       1.027   6.723   3.154  1.00  0.00     0.236 C 
ATOM      9  O   UNL     1       2.411   7.218   6.420  1.00  0.00    -0.249 OA
ATOM     10  N   UNL     1       1.099   8.627   5.090  1.00  0.00    -0.155 N 
ATOM     11  N   UNL     1       0.476   7.885   2.942  1.00  0.00    -0.209 N 
ATOM     12  C   UNL     1       0.174   8.662   4.049  1.00  0.00     0.448 C 
ATOM     13  H   UNL     1       0.281   8.199   2.029  1.00  0.00     0.270 HD
ATOM     14  H   UNL     1       1.148   6.304   1.185  1.00  0.00     0.256 HD
ATOM     15  O   UNL     1      -0.865   9.314   4.101  1.00  0.00    -0.212 OA
BRANCH   5  16
ATOM     16  C   UNL     1       0.870   4.073   3.937  1.00  0.00    -0.024 A 
ATOM     17  C   UNL     1       1.775   2.673   0.748  1.00  0.00     0.127 A 
ATOM     18  C   UNL     1       0.276   3.705   0.886  1.00  0.00     0.048 A 
ATOM     19  C   UNL     1       2.839   2.444   2.159  1.00  0.00     0.040 A 
ATOM     20  C   UNL     1      -0.248   4.318   2.524  1.00  0.00     0.012 A 
ATOM     21  C   UNL     1       2.353   3.080   3.745  1.00  0.00     0.022 A 
BRANCH  17  22
ATOM     22  O   UNL     1       1.955   1.915  -0.381  1.00  0.00    -0.496 OA
ATOM     23  C   UNL     1       2.043   0.495  -0.082  1.00  0.00     0.278 C 
ENDBRANCH  17  22
BRANCH  19  24
ATOM     24  C   UNL     1       4.154   1.787   2.079  1.00  0.00     0.075 C 
ATOM     25  O   UNL     1       4.847   1.510   3.037  1.00  0.00    -0.545 OA
ATOM     26  O   UNL     1       4.526   1.531   0.819  1.00  0.00    -0.545 OA
ENDBRANCH  19  24
ENDBRANCH   5  16
BRANCH  10  27
ATOM     27  C   UNL     1       1.245   9.735   5.953  1.00  0.00     0.111 A 
ATOM     28  C   UNL     1       0.282  10.041   6.919  1.00  0.00     0.044 A 
ATOM     29  C   UNL     1       2.408  10.507   5.852  1.00  0.00     0.044 A 
ATOM     30  C   UNL     1       0.492  11.115   7.786  1.00  0.00     0.004 A 
ATOM     31  C   UNL     1       2.603  11.592   6.706  1.00  0.00     0.004 A 
ATOM     32  C   UNL     1       1.648  11.891   7.676  1.00  0.00     0.000 A 
ENDBRANCH  10  27
ENDBRANCH   3   4
ENDBRANCH   2   3
ENDBRANCH   1   2
BRANCH   1  33
ATOM     33  C   UNL     1      -1.538   1.757   0.479  1.00  0.00     0.116 C 
BRANCH  33  34
ATOM     34  N   UNL     1      -0.657   1.502  -0.652  1.00  0.00    -0.352 N 
ATOM     35  C   UNL     1      -0.809   0.851  -1.831  1.00  0.00     0.251 C 
ATOM     36  H   UNL     1       0.242   1.884  -0.534  1.00  0.00     0.163 HD
ATOM     37  O   UNL     1       0.138   0.530  -2.538  1.00  0.00    -0.269 OA
BRANCH  35  38
ATOM     38  C   UNL     1      -2.150   0.643  -2.307  1.00  0.00     0.039 A 
ATOM     39  C   UNL     1      -2.584  -0.648  -2.590  1.00  0.00     0.014 A 
ATOM     40  C   UNL     1      -2.909   1.791  -2.538  1.00  0.00     0.014 A 
ATOM     41  C   UNL     1      -3.853  -0.799  -3.106  1.00  0.00     0.010 A 
ATOM     42  C   UNL     1      -4.183   1.636  -3.016  1.00  0.00     0.010 A 
ATOM     43  C   UNL     1      -4.641   0.344  -3.309  1.00  0.00    -0.014 A 
BRANCH  43  44
ATOM     44  C   UNL     1      -5.981   0.232  -3.873  1.00  0.00     0.031 A 
ATOM     45  C   UNL     1      -6.200   0.732  -5.261  1.00  0.00     0.074 A 
ATOM     46  C   UNL     1      -6.956  -0.180  -3.050  1.00  0.00     0.049 A 
ATOM     47  N   UNL     1      -7.319   0.902  -5.904  1.00  0.00    -0.248 NA
ATOM     48  C   UNL     1      -4.999   1.150  -6.011  1.00  0.00     0.031 C 
ATOM     49  C   UNL     1      -6.764  -0.597  -1.656  1.00  0.00     0.029 A 
ATOM     50  N   UNL     1      -8.299  -0.283  -3.250  1.00  0.00    -0.354 N 
ATOM     51  C   UNL     1      -6.964   1.473  -7.117  1.00  0.00     0.074 A 
ATOM     52  C   UNL     1      -5.533   1.667  -7.108  1.00  0.00     0.031 C 
ATOM     53  C   UNL     1      -7.955  -0.914  -1.127  1.00  0.00     0.029 A 
ATOM     54  C   UNL     1      -8.983  -0.691  -2.134  1.00  0.00     0.049 A 
ATOM     55  H   UNL     1      -8.735  -0.085  -4.110  1.00  0.00     0.167 HD
ATOM     56  C   UNL     1      -7.784   1.783  -8.145  1.00  0.00     0.037 A 
ATOM     57  C   UNL     1     -10.306  -0.849  -1.968  1.00  0.00     0.037 A 
ATOM     58  C   UNL     1      -9.198   1.529  -8.101  1.00  0.00     0.049 A 
ATOM     59  C   UNL     1     -11.179  -0.570  -3.159  1.00  0.00     0.074 A 
ATOM     60  C   UNL     1     -10.145   1.714  -9.088  1.00  0.00     0.029 A 
ATOM     61  N   UNL     1      -9.862   1.019  -6.989  1.00  0.00    -0.354 N 
ATOM     62  N   UNL     1     -10.839  -0.104  -4.340  1.00  0.00    -0.248 NA
ATOM     63  C   UNL     1     -12.608  -0.854  -3.010  1.00  0.00     0.031 C 
ATOM     64  C   UNL     1     -11.388   1.343  -8.562  1.00  0.00     0.029 A 
ATOM     65  C   UNL     1     -11.209   0.885  -7.264  1.00  0.00     0.049 A 
ATOM     66  H   UNL     1      -9.435   0.787  -6.133  1.00  0.00     0.167 HD
ATOM     67  C   UNL     1     -12.005  -0.062  -5.086  1.00  0.00     0.074 A 
ATOM     68  C   UNL     1     -13.057  -0.572  -4.225  1.00  0.00     0.031 C 
ATOM     69  C   UNL     1     -12.202   0.359  -6.360  1.00  0.00     0.037 A 
BRANCH  56  70
ATOM     70  C   UNL     1      -7.178   2.401  -9.369  1.00  0.00     0.064 A 
ATOM     71  C   UNL     1      -6.312   1.682 -10.209  1.00  0.00     0.173 A 
ATOM     72  C   UNL     1      -7.483   3.723  -9.726  1.00  0.00     0.173 A 
ATOM     73  F   UNL     1      -5.970   0.421  -9.905  1.00  0.00    -0.203 F 
ATOM     74  C   UNL     1      -5.760   2.268 -11.346  1.00  0.00     0.198 A 
ATOM     75  C   UNL     1      -6.953   4.297 -10.880  1.00  0.00     0.198 A 
ATOM     76  F   UNL     1      -8.298   4.461  -8.957  1.00  0.00    -0.203 F 
ATOM     77  F   UNL     1      -4.901   1.575 -12.105  1.00  0.00    -0.200 F 
ATOM     78  C   UNL     1      -6.088   3.572 -11.685  1.00  0.00     0.200 A 
ATOM     79  F   UNL     1      -7.277   5.555 -11.210  1.00  0.00    -0.200 F 
ATOM     80  F   UNL     1      -5.566   4.131 -12.786  1.00  0.00    -0.200 F 
ENDBRANCH  56  70
BRANCH  57  81
ATOM     81  C   UNL     1     -10.846  -1.329  -0.673  1.00  0.00     0.064 A 
ATOM     82  C   UNL     1     -11.406  -2.608  -0.559  1.00  0.00     0.173 A 
ATOM     83  C   UNL     1     -10.787  -0.540   0.486  1.00  0.00     0.173 A 
ATOM     84  F   UNL     1     -11.481  -3.403  -1.637  1.00  0.00    -0.203 F 
ATOM     85  C   UNL     1     -11.919  -3.067   0.652  1.00  0.00     0.198 A 
ATOM     86  C   UNL     1     -11.273  -1.010   1.704  1.00  0.00     0.198 A 
ATOM     87  F   UNL     1     -10.234   0.682   0.440  1.00  0.00    -0.203 F 
ATOM     88  F   UNL     1     -12.490  -4.277   0.720  1.00  0.00    -0.200 F 
ATOM     89  C   UNL     1     -11.850  -2.269   1.784  1.00  0.00     0.200 A 
ATOM     90  F   UNL     1     -11.181  -0.246   2.801  1.00  0.00    -0.200 F 
ATOM     91  F   UNL     1     -12.339  -2.712   2.950  1.00  0.00    -0.200 F 
ENDBRANCH  57  81
BRANCH  69  92
ATOM     92  C   UNL     1     -13.599   0.250  -6.885  1.00  0.00     0.064 A 
ATOM     93  C   UNL     1     -14.609   1.120  -6.455  1.00  0.00     0.173 A 
ATOM     94  C   UNL     1     -13.912  -0.708  -7.859  1.00  0.00     0.173 A 
ATOM     95  F   UNL     1     -14.354   2.040  -5.512  1.00  0.00    -0.203 F 
ATOM     96  C   UNL     1     -15.898   1.016  -6.966  1.00  0.00     0.198 A 
ATOM     97  C   UNL     1     -15.193  -0.786  -8.392  1.00  0.00     0.198 A 
ATOM     98  F   UNL     1     -12.970  -1.554  -8.304  1.00  0.00    -0.203 F 
ATOM     99  F   UNL     1     -16.864   1.823  -6.506  1.00  0.00    -0.200 F 
ATOM    100  C   UNL     1     -16.186   0.070  -7.939  1.00  0.00     0.200 A 
ATOM    101  F   UNL     1     -15.466  -1.689  -9.343  1.00  0.00    -0.200 F 
ATOM    102  F   UNL     1     -17.426  -0.022  -8.436  1.00  0.00    -0.200 F 
ENDBRANCH  69  92
ENDBRANCH  43  44
ENDBRANCH  35  38
ENDBRANCH  33  34
ENDBRANCH   1  33
TORSDOF 14
