REMARK SMILES O=C(NCCCCNC(=O)c1ccc(S(=O)(=O)N[C@@H]2CC[N@H+]3CCC[C@H]23)cc1)c1ccc(-c2c3nc(c(-c4c(F)c(F)c(F)c(F)c4F)c4ccc([nH]4)c(-c4c(F)c(F)c(F)c(F)c4F)c4nc(c(-c5c(F)c(F)c(F)c(F)c5F)c5ccc2[nH]5)C=C4)C=C3)cc1
REMARK SMILES IDX 6 1 5 2 4 3 3 4 1 5 2 6 29 8 30 9 91 10 31 11 90 12 32 13
REMARK SMILES IDX 33 14 34 15 84 16 35 17 89 18 83 19 85 20 36 21 88 22 82 23
REMARK SMILES IDX 81 24 37 26 69 27 49 28 68 29 50 30 53 31 67 32 86 33 51 34
REMARK SMILES IDX 52 35 66 37 87 38 54 39 38 40 39 41 47 42 40 43 41 44 45 45
REMARK SMILES IDX 48 46 42 47 43 48 46 49 44 50 70 51 71 52 79 53 72 54 73 55
REMARK SMILES IDX 77 56 80 57 74 58 75 59 78 60 76 61 55 62 56 63 64 64 57 65
REMARK SMILES IDX 58 66 62 67 65 68 59 69 60 70 63 71 61 72 7 73 8 74 9 75
REMARK SMILES IDX 10 77 11 78 12 79 28 80 13 81 27 82 14 83 15 84 16 85 17 86
REMARK SMILES IDX 18 87 19 89 20 90 26 91 21 92 22 93 25 94 23 95 24 97
REMARK H PARENT 3 7 85 25 53 36 8 76 18 88 22 96
REMARK Flexibility Score: inf
ROOT
ATOM      1  C   UNL     1       4.396  -3.794  -0.223  1.00  0.00     0.023 C 
ENDROOT
BRANCH   1   2
ATOM      2  C   UNL     1       4.872  -2.500   0.424  1.00  0.00     0.023 C 
BRANCH   2   3
ATOM      3  C   UNL     1       4.565  -1.230  -0.358  1.00  0.00     0.116 C 
BRANCH   3   4
ATOM      4  N   UNL     1       3.139  -0.993  -0.542  1.00  0.00    -0.352 N 
ATOM      5  O   UNL     1       1.134   0.007  -0.246  1.00  0.00    -0.269 OA
ATOM      6  C   UNL     1       2.350   0.038  -0.086  1.00  0.00     0.251 C 
ATOM      7  H   UNL     1       2.668  -1.674  -1.075  1.00  0.00     0.163 HD
BRANCH   6   8
ATOM      8  C   UNL     1       2.969   1.166   0.642  1.00  0.00     0.039 A 
ATOM      9  C   UNL     1       4.126   1.773   0.155  1.00  0.00     0.014 A 
ATOM     10  C   UNL     1       2.409   1.587   1.851  1.00  0.00     0.014 A 
ATOM     11  C   UNL     1       4.835   2.646   0.970  1.00  0.00     0.010 A 
ATOM     12  C   UNL     1       3.072   2.545   2.624  1.00  0.00     0.010 A 
ATOM     13  C   UNL     1       4.322   3.036   2.219  1.00  0.00    -0.014 A 
BRANCH  13  14
ATOM     14  C   UNL     1       5.120   3.953   3.073  1.00  0.00     0.031 A 
ATOM     15  C   UNL     1       5.660   3.502   4.404  1.00  0.00     0.074 A 
ATOM     16  C   UNL     1       5.412   5.184   2.610  1.00  0.00     0.049 A 
ATOM     17  N   UNL     1       6.422   4.152   5.249  1.00  0.00    -0.248 NA
ATOM     18  C   UNL     1       5.293   2.150   4.852  1.00  0.00     0.031 C 
ATOM     19  C   UNL     1       4.940   5.737   1.340  1.00  0.00     0.029 A 
ATOM     20  N   UNL     1       6.199   6.177   3.134  1.00  0.00    -0.354 N 
ATOM     21  C   UNL     1       6.595   3.307   6.337  1.00  0.00     0.074 A 
ATOM     22  C   UNL     1       5.848   2.100   6.056  1.00  0.00     0.031 C 
ATOM     23  C   UNL     1       5.497   6.942   1.151  1.00  0.00     0.029 A 
ATOM     24  C   UNL     1       6.319   7.269   2.312  1.00  0.00     0.049 A 
ATOM     25  H   UNL     1       6.635   6.112   4.014  1.00  0.00     0.167 HD
ATOM     26  C   UNL     1       7.318   3.516   7.464  1.00  0.00     0.037 A 
ATOM     27  C   UNL     1       7.013   8.410   2.473  1.00  0.00     0.037 A 
ATOM     28  C   UNL     1       8.097   4.700   7.724  1.00  0.00     0.049 A 
ATOM     29  C   UNL     1       7.821   8.606   3.722  1.00  0.00     0.074 A 
ATOM     30  C   UNL     1       8.897   4.986   8.817  1.00  0.00     0.029 A 
ATOM     31  N   UNL     1       8.177   5.793   6.874  1.00  0.00    -0.354 N 
ATOM     32  N   UNL     1       7.996   7.787   4.730  1.00  0.00    -0.248 NA
ATOM     33  C   UNL     1       8.527   9.887   3.856  1.00  0.00     0.031 C 
ATOM     34  C   UNL     1       9.434   6.267   8.645  1.00  0.00     0.029 A 
ATOM     35  C   UNL     1       9.001   6.762   7.426  1.00  0.00     0.049 A 
ATOM     36  H   UNL     1       7.716   5.871   6.008  1.00  0.00     0.167 HD
ATOM     37  C   UNL     1       8.845   8.443   5.609  1.00  0.00     0.074 A 
ATOM     38  C   UNL     1       9.165   9.721   5.006  1.00  0.00     0.031 C 
ATOM     39  C   UNL     1       9.315   8.024   6.809  1.00  0.00     0.037 A 
BRANCH  26  40
ATOM     40  C   UNL     1       7.291   2.448   8.519  1.00  0.00     0.064 A 
ATOM     41  C   UNL     1       7.974   1.234   8.360  1.00  0.00     0.173 A 
ATOM     42  C   UNL     1       6.607   2.664   9.725  1.00  0.00     0.173 A 
ATOM     43  F   UNL     1       8.633   0.973   7.221  1.00  0.00    -0.203 F 
ATOM     44  C   UNL     1       7.957   0.266   9.363  1.00  0.00     0.198 A 
ATOM     45  C   UNL     1       6.612   1.705  10.735  1.00  0.00     0.198 A 
ATOM     46  F   UNL     1       5.943   3.811   9.930  1.00  0.00    -0.203 F 
ATOM     47  F   UNL     1       8.584  -0.903   9.174  1.00  0.00    -0.200 F 
ATOM     48  C   UNL     1       7.282   0.505  10.551  1.00  0.00     0.200 A 
ATOM     49  F   UNL     1       5.968   1.942  11.886  1.00  0.00    -0.200 F 
ATOM     50  F   UNL     1       7.271  -0.425  11.516  1.00  0.00    -0.200 F 
ENDBRANCH  26  40
BRANCH  27  51
ATOM     51  C   UNL     1       6.987   9.441   1.406  1.00  0.00     0.064 A 
ATOM     52  C   UNL     1       8.120   9.690   0.619  1.00  0.00     0.173 A 
ATOM     53  C   UNL     1       5.827  10.181   1.136  1.00  0.00     0.173 A 
ATOM     54  F   UNL     1       9.257   9.018   0.853  1.00  0.00    -0.203 F 
ATOM     55  C   UNL     1       8.096  10.648  -0.391  1.00  0.00     0.198 A 
ATOM     56  C   UNL     1       5.796  11.120   0.108  1.00  0.00     0.198 A 
ATOM     57  F   UNL     1       4.716   9.974   1.857  1.00  0.00    -0.203 F 
ATOM     58  F   UNL     1       9.202  10.890  -1.108  1.00  0.00    -0.200 F 
ATOM     59  C   UNL     1       6.933  11.356  -0.651  1.00  0.00     0.200 A 
ATOM     60  F   UNL     1       4.665  11.790  -0.151  1.00  0.00    -0.200 F 
ATOM     61  F   UNL     1       6.907  12.270  -1.631  1.00  0.00    -0.200 F 
ENDBRANCH  27  51
BRANCH  39  62
ATOM     62  C   UNL     1      10.252   8.946   7.530  1.00  0.00     0.064 A 
ATOM     63  C   UNL     1       9.794  10.114   8.156  1.00  0.00     0.173 A 
ATOM     64  C   UNL     1      11.620   8.646   7.609  1.00  0.00     0.173 A 
ATOM     65  F   UNL     1       8.498  10.451   8.092  1.00  0.00    -0.203 F 
ATOM     66  C   UNL     1      10.679  10.965   8.813  1.00  0.00     0.198 A 
ATOM     67  C   UNL     1      12.497   9.486   8.288  1.00  0.00     0.198 A 
ATOM     68  F   UNL     1      12.104   7.537   7.029  1.00  0.00    -0.203 F 
ATOM     69  F   UNL     1      10.229  12.101   9.363  1.00  0.00    -0.200 F 
ATOM     70  C   UNL     1      12.028  10.648   8.882  1.00  0.00     0.200 A 
ATOM     71  F   UNL     1      13.799   9.175   8.361  1.00  0.00    -0.200 F 
ATOM     72  F   UNL     1      12.878  11.469   9.514  1.00  0.00    -0.200 F 
ENDBRANCH  39  62
ENDBRANCH  13  14
ENDBRANCH   6   8
ENDBRANCH   3   4
ENDBRANCH   2   3
ENDBRANCH   1   2
BRANCH   1  73
ATOM     73  C   UNL     1       4.792  -3.975  -1.681  1.00  0.00     0.116 C 
BRANCH  73  74
ATOM     74  N   UNL     1       6.230  -3.983  -1.903  1.00  0.00    -0.352 N 
ATOM     75  C   UNL     1       6.965  -4.805  -2.727  1.00  0.00     0.251 C 
ATOM     76  H   UNL     1       6.745  -3.313  -1.397  1.00  0.00     0.163 HD
ATOM     77  O   UNL     1       8.190  -4.745  -2.733  1.00  0.00    -0.269 OA
BRANCH  75  78
ATOM     78  C   UNL     1       6.267  -5.782  -3.591  1.00  0.00     0.039 A 
ATOM     79  C   UNL     1       6.722  -7.105  -3.649  1.00  0.00     0.015 A 
ATOM     80  C   UNL     1       5.141  -5.393  -4.320  1.00  0.00     0.015 A 
ATOM     81  C   UNL     1       6.017  -8.049  -4.402  1.00  0.00     0.022 A 
ATOM     82  C   UNL     1       4.391  -6.348  -4.991  1.00  0.00     0.022 A 
ATOM     83  C   UNL     1       4.846  -7.664  -5.063  1.00  0.00     0.082 A 
BRANCH  83  84
ATOM     84  S   UNL     1       3.971  -8.856  -6.043  1.00  0.00     0.241 S 
ATOM     85  O   UNL     1       4.865  -9.351  -7.067  1.00  0.00    -0.207 OA
ATOM     86  O   UNL     1       3.301  -9.735  -5.113  1.00  0.00    -0.207 OA
BRANCH  84  87
ATOM     87  N   UNL     1       2.755  -7.978  -6.785  1.00  0.00    -0.202 NA
ATOM     88  H   UNL     1       2.538  -7.209  -6.151  1.00  0.00     0.141 HD
BRANCH  87  89
ATOM     89  C   UNL     1       2.900  -7.370  -8.129  1.00  0.00     0.133 C 
ATOM     90  C   UNL     1       4.149  -6.472  -8.312  1.00  0.00     0.087 C 
ATOM     91  C   UNL     1       1.802  -6.333  -8.388  1.00  0.00     0.202 C 
ATOM     92  C   UNL     1       3.681  -5.008  -8.136  1.00  0.00     0.264 C 
ATOM     93  N   UNL     1       2.323  -5.173  -7.661  1.00  0.00    -0.331 N 
ATOM     94  C   UNL     1       0.401  -6.391  -7.824  1.00  0.00     0.072 C 
ATOM     95  C   UNL     1       1.348  -4.120  -7.836  1.00  0.00     0.262 C 
ATOM     96  H   UNL     1       2.423  -5.227  -6.647  1.00  0.00     0.348 HD
ATOM     97  C   UNL     1       0.030  -4.899  -7.696  1.00  0.00     0.068 C 
ENDBRANCH  87  89
ENDBRANCH  84  87
ENDBRANCH  83  84
ENDBRANCH  75  78
ENDBRANCH  73  74
ENDBRANCH   1  73
TORSDOF 14
