REMARK SMILES O=C(NCCCCNC(=O)c1ccc(-c2c3nc(c(-c4c(F)c(F)c(F)c(F)c4F)c4ccc([nH]4)c(-c4c(F)c(F)c(F)c(F)c4F)c4nc(c(-c5c(F)c(F)c(F)c(F)c5F)c5ccc2[nH]5)C=C4)C=C3)cc1)C1=Cc2cc(Cl)cc(-c3ccc(Cl)cc3)c2O[C@@H]1C(F)(F)F
REMARK SMILES IDX 6 1 5 2 4 3 3 4 1 5 2 6 74 8 75 9 91 10 76 11 90 12 77 13
REMARK SMILES IDX 89 14 78 15 81 16 79 17 80 18 92 19 93 20 94 21 95 22 82 23
REMARK SMILES IDX 83 24 88 25 84 26 87 27 85 28 86 29 7 30 8 31 9 32 10 34
REMARK SMILES IDX 11 35 12 36 73 37 13 38 72 39 14 40 15 41 16 42 66 43 17 44
REMARK SMILES IDX 71 45 65 46 67 47 18 48 70 49 64 50 63 51 19 53 51 54 31 55
REMARK SMILES IDX 50 56 32 57 35 58 49 59 68 60 33 61 34 62 48 64 69 65 36 66
REMARK SMILES IDX 20 67 21 68 29 69 22 70 23 71 27 72 30 73 24 74 25 75 28 76
REMARK SMILES IDX 26 77 52 78 53 79 61 80 54 81 55 82 59 83 62 84 56 85 57 86
REMARK SMILES IDX 60 87 58 88 37 89 38 90 46 91 39 92 40 93 44 94 47 95 41 96
REMARK SMILES IDX 42 97 45 98 43 99
REMARK H PARENT 3 7 8 33 67 52 35 63
REMARK Flexibility Score: inf
ROOT
ATOM      1  C   UNL     1       4.137  -0.119  -4.577  1.00  0.00     0.023 C 
ENDROOT
BRANCH   1   2
ATOM      2  C   UNL     1       4.424  -1.129  -3.469  1.00  0.00     0.023 C 
BRANCH   2   3
ATOM      3  C   UNL     1       4.113  -0.698  -2.039  1.00  0.00     0.116 C 
BRANCH   3   4
ATOM      4  N   UNL     1       2.757  -0.931  -1.577  1.00  0.00    -0.352 N 
ATOM      5  O   UNL     1       1.032  -1.032  -0.153  1.00  0.00    -0.270 OA
ATOM      6  C   UNL     1       2.247  -0.907  -0.306  1.00  0.00     0.251 C 
ATOM      7  H   UNL     1       2.104  -1.137  -2.284  1.00  0.00     0.163 HD
BRANCH   6   8
ATOM      8  C   UNL     1       3.084  -0.665   0.916  1.00  0.00     0.067 C 
ATOM      9  C   UNL     1       4.372  -1.039   1.017  1.00  0.00     0.025 C 
ATOM     10  C   UNL     1       2.689   0.616   1.625  1.00  0.00     0.314 C 
ATOM     11  C   UNL     1       5.274   0.118   0.753  1.00  0.00     0.019 A 
ATOM     12  O   UNL     1       3.468   1.726   1.096  1.00  0.00    -0.475 OA
ATOM     13  C   UNL     1       6.575  -0.155   0.320  1.00  0.00     0.032 A 
ATOM     14  C   UNL     1       4.747   1.426   0.673  1.00  0.00     0.135 A 
ATOM     15  C   UNL     1       7.314   0.856  -0.282  1.00  0.00     0.042 A 
ATOM     16  C   UNL     1       5.479   2.437   0.028  1.00  0.00     0.026 A 
ATOM     17  Cl  UNL     1       8.847   0.488  -0.967  1.00  0.00    -0.084 Cl
ATOM     18  C   UNL     1       6.772   2.131  -0.441  1.00  0.00     0.033 A 
BRANCH  10  19
ATOM     19  C   UNL     1       2.780   0.523   3.160  1.00  0.00     0.429 C 
ATOM     20  F   UNL     1       2.303   1.642   3.755  1.00  0.00    -0.167 F 
ATOM     21  F   UNL     1       2.053  -0.517   3.635  1.00  0.00    -0.167 F 
ATOM     22  F   UNL     1       4.050   0.349   3.599  1.00  0.00    -0.167 F 
ENDBRANCH  10  19
BRANCH  16  23
ATOM     23  C   UNL     1       4.890   3.730  -0.353  1.00  0.00    -0.015 A 
ATOM     24  C   UNL     1       3.941   3.789  -1.390  1.00  0.00     0.010 A 
ATOM     25  C   UNL     1       5.340   4.932   0.208  1.00  0.00     0.010 A 
ATOM     26  C   UNL     1       3.508   5.013  -1.904  1.00  0.00     0.021 A 
ATOM     27  C   UNL     1       4.893   6.160  -0.290  1.00  0.00     0.021 A 
ATOM     28  C   UNL     1       3.999   6.195  -1.359  1.00  0.00     0.041 A 
ATOM     29  Cl  UNL     1       3.515   7.704  -2.028  1.00  0.00    -0.084 Cl
ENDBRANCH  16  23
ENDBRANCH   6   8
ENDBRANCH   3   4
ENDBRANCH   2   3
ENDBRANCH   1   2
BRANCH   1  30
ATOM     30  C   UNL     1       4.767   1.269  -4.459  1.00  0.00     0.116 C 
BRANCH  30  31
ATOM     31  N   UNL     1       6.219   1.311  -4.368  1.00  0.00    -0.352 N 
ATOM     32  C   UNL     1       7.098   2.188  -4.979  1.00  0.00     0.251 C 
ATOM     33  H   UNL     1       6.631   0.624  -3.795  1.00  0.00     0.163 HD
ATOM     34  O   UNL     1       8.300   2.118  -4.770  1.00  0.00    -0.269 OA
BRANCH  32  35
ATOM     35  C   UNL     1       6.579   3.168  -5.963  1.00  0.00     0.039 A 
ATOM     36  C   UNL     1       7.081   3.126  -7.266  1.00  0.00     0.014 A 
ATOM     37  C   UNL     1       5.531   4.033  -5.638  1.00  0.00     0.014 A 
ATOM     38  C   UNL     1       6.431   3.837  -8.278  1.00  0.00     0.010 A 
ATOM     39  C   UNL     1       4.843   4.690  -6.660  1.00  0.00     0.010 A 
ATOM     40  C   UNL     1       5.256   4.555  -7.995  1.00  0.00    -0.014 A 
BRANCH  40  41
ATOM     41  C   UNL     1       4.386   5.043  -9.099  1.00  0.00     0.031 A 
ATOM     42  C   UNL     1       4.136   6.506  -9.311  1.00  0.00     0.074 A 
ATOM     43  C   UNL     1       3.742   4.139  -9.866  1.00  0.00     0.049 A 
ATOM     44  N   UNL     1       3.386   7.092 -10.211  1.00  0.00    -0.248 NA
ATOM     45  C   UNL     1       4.793   7.432  -8.379  1.00  0.00     0.031 C 
ATOM     46  C   UNL     1       3.832   2.685  -9.713  1.00  0.00     0.029 A 
ATOM     47  N   UNL     1       2.873   4.306 -10.917  1.00  0.00    -0.354 N 
ATOM     48  C   UNL     1       3.477   8.452  -9.954  1.00  0.00     0.074 A 
ATOM     49  C   UNL     1       4.317   8.602  -8.783  1.00  0.00     0.031 C 
ATOM     50  C   UNL     1       3.067   2.095 -10.644  1.00  0.00     0.029 A 
ATOM     51  C   UNL     1       2.408   3.124 -11.441  1.00  0.00     0.049 A 
ATOM     52  H   UNL     1       2.608   5.189 -11.262  1.00  0.00     0.167 HD
ATOM     53  C   UNL     1       2.929   9.481 -10.644  1.00  0.00     0.037 A 
ATOM     54  C   UNL     1       1.544   2.889 -12.448  1.00  0.00     0.037 A 
ATOM     55  C   UNL     1       2.105   9.334 -11.816  1.00  0.00     0.049 A 
ATOM     56  C   UNL     1       0.955   4.048 -13.202  1.00  0.00     0.074 A 
ATOM     57  C   UNL     1       1.581  10.322 -12.633  1.00  0.00     0.029 A 
ATOM     58  N   UNL     1       1.671   8.121 -12.330  1.00  0.00    -0.354 N 
ATOM     59  N   UNL     1       1.138   5.332 -13.015  1.00  0.00    -0.248 NA
ATOM     60  C   UNL     1       0.043   3.726 -14.309  1.00  0.00     0.031 C 
ATOM     61  C   UNL     1       0.793   9.709 -13.613  1.00  0.00     0.029 A 
ATOM     62  C   UNL     1       0.859   8.337 -13.434  1.00  0.00     0.049 A 
ATOM     63  H   UNL     1       1.905   7.237 -11.966  1.00  0.00     0.167 HD
ATOM     64  C   UNL     1       0.382   5.970 -13.988  1.00  0.00     0.074 A 
ATOM     65  C   UNL     1      -0.251   4.932 -14.775  1.00  0.00     0.031 C 
ATOM     66  C   UNL     1       0.227   7.298 -14.206  1.00  0.00     0.037 A 
BRANCH  53  67
ATOM     67  C   UNL     1       3.211  10.870 -10.150  1.00  0.00     0.064 A 
ATOM     68  C   UNL     1       4.482  11.449 -10.281  1.00  0.00     0.173 A 
ATOM     69  C   UNL     1       2.192  11.644  -9.576  1.00  0.00     0.173 A 
ATOM     70  F   UNL     1       5.492  10.747 -10.818  1.00  0.00    -0.203 F 
ATOM     71  C   UNL     1       4.730  12.742  -9.828  1.00  0.00     0.198 A 
ATOM     72  C   UNL     1       2.437  12.946  -9.149  1.00  0.00     0.198 A 
ATOM     73  F   UNL     1       0.956  11.140  -9.437  1.00  0.00    -0.203 F 
ATOM     74  F   UNL     1       5.963  13.258  -9.923  1.00  0.00    -0.200 F 
ATOM     75  C   UNL     1       3.707  13.491  -9.268  1.00  0.00     0.200 A 
ATOM     76  F   UNL     1       1.444  13.674  -8.619  1.00  0.00    -0.200 F 
ATOM     77  F   UNL     1       3.946  14.737  -8.836  1.00  0.00    -0.200 F 
ENDBRANCH  53  67
BRANCH  54  78
ATOM     78  C   UNL     1       1.202   1.490 -12.812  1.00  0.00     0.064 A 
ATOM     79  C   UNL     1       1.680   0.918 -13.999  1.00  0.00     0.173 A 
ATOM     80  C   UNL     1       0.404   0.696 -11.977  1.00  0.00     0.173 A 
ATOM     81  F   UNL     1       2.430   1.646 -14.838  1.00  0.00    -0.203 F 
ATOM     82  C   UNL     1       1.362  -0.395 -14.342  1.00  0.00     0.198 A 
ATOM     83  C   UNL     1       0.107  -0.624 -12.310  1.00  0.00     0.198 A 
ATOM     84  F   UNL     1      -0.072   1.197 -10.828  1.00  0.00    -0.203 F 
ATOM     85  F   UNL     1       1.804  -0.908 -15.499  1.00  0.00    -0.200 F 
ATOM     86  C   UNL     1       0.582  -1.167 -13.495  1.00  0.00     0.200 A 
ATOM     87  F   UNL     1      -0.635  -1.371 -11.481  1.00  0.00    -0.200 F 
ATOM     88  F   UNL     1       0.284  -2.431 -13.821  1.00  0.00    -0.200 F 
ENDBRANCH  54  78
BRANCH  66  89
ATOM     89  C   UNL     1      -0.657   7.709 -15.346  1.00  0.00     0.064 A 
ATOM     90  C   UNL     1      -2.053   7.595 -15.268  1.00  0.00     0.173 A 
ATOM     91  C   UNL     1      -0.107   8.261 -16.513  1.00  0.00     0.173 A 
ATOM     92  F   UNL     1      -2.626   7.057 -14.180  1.00  0.00    -0.203 F 
ATOM     93  C   UNL     1      -2.865   8.005 -16.322  1.00  0.00     0.198 A 
ATOM     94  C   UNL     1      -0.923   8.692 -17.555  1.00  0.00     0.198 A 
ATOM     95  F   UNL     1       1.222   8.393 -16.636  1.00  0.00    -0.203 F 
ATOM     96  F   UNL     1      -4.194   7.851 -16.241  1.00  0.00    -0.200 F 
ATOM     97  C   UNL     1      -2.300   8.559 -17.461  1.00  0.00     0.200 A 
ATOM     98  F   UNL     1      -0.376   9.237 -18.651  1.00  0.00    -0.200 F 
ATOM     99  F   UNL     1      -3.083   8.960 -18.472  1.00  0.00    -0.200 F 
ENDBRANCH  66  89
ENDBRANCH  40  41
ENDBRANCH  32  35
ENDBRANCH  30  31
ENDBRANCH   1  30
TORSDOF 13
