REMARK SMILES [NH3+][C@H]1CCCC[C@@H]1C(=O)N1CC(C(=O)NCCCCNC(=O)c2ccc(-c3c4nc(c(-c5c(F)c(F)c(F)c(F)c5F)c5ccc([nH]5)c(-c5c(F)c(F)c(F)c(F)c5F)c5nc(c(-c6c(F)c(F)c(F)c(F)c6F)c6ccc3[nH]6)C=C5)C=C4)cc2)C1
REMARK SMILES IDX 17 1 16 2 15 3 13 4 14 5 12 7 8 8 9 9 10 10 11 11 86 12 7 13
REMARK SMILES IDX 2 14 3 15 4 16 6 17 5 18 1 19 18 23 19 24 20 25 21 26 22 28
REMARK SMILES IDX 23 29 24 30 85 31 25 32 84 33 26 34 27 35 28 36 78 37 29 38
REMARK SMILES IDX 83 39 77 40 79 41 30 42 82 43 76 44 75 45 31 47 63 48 43 49
REMARK SMILES IDX 62 50 44 51 47 52 61 53 80 54 45 55 46 56 60 58 81 59 48 60
REMARK SMILES IDX 32 61 33 62 41 63 34 64 35 65 39 66 42 67 36 68 37 69 40 70
REMARK SMILES IDX 38 71 64 72 65 73 73 74 66 75 67 76 71 77 74 78 68 79 69 80
REMARK SMILES IDX 72 81 70 82 49 83 50 84 58 85 51 86 52 87 56 88 59 89 53 90
REMARK SMILES IDX 54 91 57 92 55 93
REMARK H PARENT 15 6 1 20 1 21 1 22 20 27 79 46 47 57
REMARK Flexibility Score: inf
ROOT
ATOM      1  C   UNL     1      -1.530   1.026  -4.909  1.00  0.00     0.023 C 
ENDROOT
BRANCH   1   2
ATOM      2  C   UNL     1      -2.648   0.329  -4.138  1.00  0.00     0.116 C 
BRANCH   2   3
ATOM      3  N   UNL     1      -3.263  -0.725  -4.919  1.00  0.00    -0.356 N 
ATOM      4  C   UNL     1      -3.288  -2.087  -4.737  1.00  0.00     0.226 C 
ATOM      5  O   UNL     1      -3.883  -2.725  -5.619  1.00  0.00    -0.275 OA
ATOM      6  H   UNL     1      -3.747  -0.412  -5.717  1.00  0.00     0.163 HD
BRANCH   4   7
ATOM      7  C   UNL     1      -2.652  -2.782  -3.528  1.00  0.00     0.117 C 
ATOM      8  C   UNL     1      -1.051  -2.346  -0.650  1.00  0.00     0.231 C 
ATOM      9  O   UNL     1      -0.974  -3.499  -0.229  1.00  0.00    -0.274 OA
ATOM     10  N   UNL     1      -1.646  -2.027  -1.852  1.00  0.00    -0.341 N 
ATOM     11  C   UNL     1      -3.053  -2.369  -2.120  1.00  0.00     0.134 C 
ATOM     12  C   UNL     1      -1.196  -2.557  -3.147  1.00  0.00     0.134 C 
BRANCH   8  13
ATOM     13  C   UNL     1      -0.369  -1.174   0.057  1.00  0.00     0.136 C 
ATOM     14  C   UNL     1      -1.009   0.203  -0.244  1.00  0.00     0.193 C 
ATOM     15  C   UNL     1      -0.188   1.360   0.341  1.00  0.00     0.066 C 
ATOM     16  C   UNL     1       1.264   1.299  -0.119  1.00  0.00     0.006 C 
ATOM     17  C   UNL     1       1.119  -1.204  -0.326  1.00  0.00     0.020 C 
ATOM     18  C   UNL     1       1.898  -0.032   0.261  1.00  0.00     0.001 C 
BRANCH  14  19
ATOM     19  N   UNL     1      -2.385   0.289   0.260  1.00  0.00    -0.354 N 
ATOM     20  H   UNL     1      -2.770   1.208   0.042  1.00  0.00     0.344 HD
ATOM     21  H   UNL     1      -2.387   0.150   1.270  1.00  0.00     0.344 HD
ATOM     22  H   UNL     1      -2.955  -0.431  -0.183  1.00  0.00     0.344 HD
ENDBRANCH  14  19
ENDBRANCH   8  13
ENDBRANCH   4   7
ENDBRANCH   2   3
ENDBRANCH   1   2
BRANCH   1  23
ATOM     23  C   UNL     1      -1.997   1.807  -6.139  1.00  0.00     0.023 C 
BRANCH  23  24
ATOM     24  C   UNL     1      -3.049   2.876  -5.868  1.00  0.00     0.116 C 
BRANCH  24  25
ATOM     25  N   UNL     1      -2.591   3.902  -4.944  1.00  0.00    -0.352 N 
ATOM     26  C   UNL     1      -2.717   5.266  -5.035  1.00  0.00     0.251 C 
ATOM     27  H   UNL     1      -2.124   3.573  -4.143  1.00  0.00     0.163 HD
ATOM     28  O   UNL     1      -2.145   5.992  -4.224  1.00  0.00    -0.269 OA
BRANCH  26  29
ATOM     29  C   UNL     1      -3.520   5.866  -6.122  1.00  0.00     0.039 A 
ATOM     30  C   UNL     1      -3.019   6.982  -6.797  1.00  0.00     0.014 A 
ATOM     31  C   UNL     1      -4.766   5.338  -6.472  1.00  0.00     0.014 A 
ATOM     32  C   UNL     1      -3.745   7.538  -7.853  1.00  0.00     0.010 A 
ATOM     33  C   UNL     1      -5.446   5.839  -7.577  1.00  0.00     0.010 A 
ATOM     34  C   UNL     1      -4.954   6.957  -8.268  1.00  0.00    -0.014 A 
BRANCH  34  35
ATOM     35  C   UNL     1      -5.739   7.529  -9.391  1.00  0.00     0.031 A 
ATOM     36  C   UNL     1      -7.118   8.079  -9.137  1.00  0.00     0.074 A 
ATOM     37  C   UNL     1      -5.240   7.513 -10.642  1.00  0.00     0.049 A 
ATOM     38  N   UNL     1      -7.986   8.569  -9.986  1.00  0.00    -0.248 NA
ATOM     39  C   UNL     1      -7.597   8.044  -7.746  1.00  0.00     0.031 C 
ATOM     40  C   UNL     1      -3.937   6.969 -11.026  1.00  0.00     0.029 A 
ATOM     41  N   UNL     1      -5.775   7.960 -11.825  1.00  0.00    -0.354 N 
ATOM     42  C   UNL     1      -9.111   8.884  -9.235  1.00  0.00     0.074 A 
ATOM     43  C   UNL     1      -8.844   8.469  -7.877  1.00  0.00     0.031 C 
ATOM     44  C   UNL     1      -3.762   7.140 -12.347  1.00  0.00     0.029 A 
ATOM     45  C   UNL     1      -4.953   7.769 -12.909  1.00  0.00     0.049 A 
ATOM     46  H   UNL     1      -6.664   8.379 -11.890  1.00  0.00     0.167 HD
ATOM     47  C   UNL     1     -10.254   9.493  -9.635  1.00  0.00     0.037 A 
ATOM     48  C   UNL     1      -5.143   8.067 -14.209  1.00  0.00     0.037 A 
ATOM     49  C   UNL     1     -10.508   9.927 -10.983  1.00  0.00     0.049 A 
ATOM     50  C   UNL     1      -6.426   8.735 -14.629  1.00  0.00     0.074 A 
ATOM     51  C   UNL     1     -11.612  10.594 -11.482  1.00  0.00     0.029 A 
ATOM     52  N   UNL     1      -9.642   9.733 -12.050  1.00  0.00    -0.354 N 
ATOM     53  N   UNL     1      -7.456   9.088 -13.899  1.00  0.00    -0.248 NA
ATOM     54  C   UNL     1      -6.566   9.056 -16.056  1.00  0.00     0.031 C 
ATOM     55  C   UNL     1     -11.438  10.759 -12.860  1.00  0.00     0.029 A 
ATOM     56  C   UNL     1     -10.196  10.253 -13.209  1.00  0.00     0.049 A 
ATOM     57  H   UNL     1      -8.764   9.291 -11.992  1.00  0.00     0.167 HD
ATOM     58  C   UNL     1      -8.345   9.709 -14.767  1.00  0.00     0.074 A 
ATOM     59  C   UNL     1      -7.728   9.692 -16.077  1.00  0.00     0.031 C 
ATOM     60  C   UNL     1      -9.561  10.247 -14.502  1.00  0.00     0.037 A 
BRANCH  47  61
ATOM     61  C   UNL     1     -11.315   9.727  -8.596  1.00  0.00     0.064 A 
ATOM     62  C   UNL     1     -11.129  10.639  -7.545  1.00  0.00     0.173 A 
ATOM     63  C   UNL     1     -12.542   9.051  -8.665  1.00  0.00     0.173 A 
ATOM     64  F   UNL     1      -9.969  11.304  -7.424  1.00  0.00    -0.203 F 
ATOM     65  C   UNL     1     -12.115  10.837  -6.582  1.00  0.00     0.198 A 
ATOM     66  C   UNL     1     -13.541   9.279  -7.721  1.00  0.00     0.198 A 
ATOM     67  F   UNL     1     -12.777   8.173  -9.651  1.00  0.00    -0.203 F 
ATOM     68  F   UNL     1     -11.889  11.667  -5.555  1.00  0.00    -0.200 F 
ATOM     69  C   UNL     1     -13.323  10.163  -6.675  1.00  0.00     0.200 A 
ATOM     70  F   UNL     1     -14.713   8.637  -7.821  1.00  0.00    -0.200 F 
ATOM     71  F   UNL     1     -14.274  10.359  -5.752  1.00  0.00    -0.200 F 
ENDBRANCH  47  61
BRANCH  48  72
ATOM     72  C   UNL     1      -4.079   7.770 -15.205  1.00  0.00     0.064 A 
ATOM     73  C   UNL     1      -3.380   8.805 -15.841  1.00  0.00     0.173 A 
ATOM     74  C   UNL     1      -3.751   6.452 -15.555  1.00  0.00     0.173 A 
ATOM     75  F   UNL     1      -3.670  10.083 -15.556  1.00  0.00    -0.203 F 
ATOM     76  C   UNL     1      -2.413   8.535 -16.808  1.00  0.00     0.198 A 
ATOM     77  C   UNL     1      -2.762   6.182 -16.499  1.00  0.00     0.198 A 
ATOM     78  F   UNL     1      -4.385   5.424 -14.972  1.00  0.00    -0.203 F 
ATOM     79  F   UNL     1      -1.800   9.546 -17.439  1.00  0.00    -0.200 F 
ATOM     80  C   UNL     1      -2.102   7.224 -17.133  1.00  0.00     0.200 A 
ATOM     81  F   UNL     1      -2.453   4.913 -16.798  1.00  0.00    -0.200 F 
ATOM     82  F   UNL     1      -1.172   6.964 -18.062  1.00  0.00    -0.200 F 
ENDBRANCH  48  72
BRANCH  60  83
ATOM     83  C   UNL     1     -10.281  10.920 -15.636  1.00  0.00     0.064 A 
ATOM     84  C   UNL     1     -10.823  10.196 -16.708  1.00  0.00     0.173 A 
ATOM     85  C   UNL     1     -10.461  12.313 -15.628  1.00  0.00     0.173 A 
ATOM     86  F   UNL     1     -10.669   8.865 -16.771  1.00  0.00    -0.203 F 
ATOM     87  C   UNL     1     -11.490  10.845 -17.745  1.00  0.00     0.198 A 
ATOM     88  C   UNL     1     -11.159  12.953 -16.648  1.00  0.00     0.198 A 
ATOM     89  F   UNL     1      -9.971  13.053 -14.622  1.00  0.00    -0.203 F 
ATOM     90  F   UNL     1     -11.950  10.139 -18.787  1.00  0.00    -0.200 F 
ATOM     91  C   UNL     1     -11.664  12.220 -17.710  1.00  0.00     0.200 A 
ATOM     92  F   UNL     1     -11.340  14.280 -16.602  1.00  0.00    -0.200 F 
ATOM     93  F   UNL     1     -12.312  12.841 -18.706  1.00  0.00    -0.200 F 
ENDBRANCH  60  83
ENDBRANCH  34  35
ENDBRANCH  26  29
ENDBRANCH  24  25
ENDBRANCH  23  24
ENDBRANCH   1  23
TORSDOF 13
