REMARK SMILES CC[C@@](C)(C(=O)NCCCCNC(=O)c1ccc(-c2c3nc(c(-c4c(F)c(F)c(F)c(F)c4F)c4ccc([nH]4)c(-c4c(F)c(F)c(F)c(F)c4F)c4nc(c(-c5c(F)c(F)c(F)c(F)c5F)c5ccc2[nH]5)C=C4)C=C3)cc1)n1nnnc1Cc1cccs1
REMARK SMILES IDX 9 1 8 2 7 3 5 4 6 5 3 7 4 8 2 9 1 10 78 11 79 12 82 13 80 14
REMARK SMILES IDX 81 15 83 16 84 17 85 18 88 19 86 20 87 21 10 22 11 23 12 24
REMARK SMILES IDX 13 25 14 27 15 28 16 29 77 30 17 31 76 32 18 33 19 34 20 35
REMARK SMILES IDX 70 36 21 37 75 38 69 39 71 40 22 41 74 42 68 43 67 44 23 46
REMARK SMILES IDX 55 47 35 48 54 49 36 50 39 51 53 52 72 53 37 54 38 55 52 57
REMARK SMILES IDX 73 58 40 59 24 60 25 61 33 62 26 63 27 64 31 65 34 66 28 67
REMARK SMILES IDX 29 68 32 69 30 70 56 71 57 72 65 73 58 74 59 75 63 76 66 77
REMARK SMILES IDX 60 78 61 79 64 80 62 81 41 82 42 83 50 84 43 85 44 86 48 87
REMARK SMILES IDX 51 88 45 89 46 90 49 91 47 92
REMARK H PARENT 7 6 12 26 71 45 39 56
REMARK Flexibility Score: inf
ROOT
ATOM      1  C   UNL     1      -2.653  -1.530   2.334  1.00  0.00     0.023 C 
ENDROOT
BRANCH   1   2
ATOM      2  C   UNL     1      -1.931  -0.360   2.998  1.00  0.00     0.116 C 
BRANCH   2   3
ATOM      3  N   UNL     1      -0.812  -0.814   3.805  1.00  0.00    -0.354 N 
ATOM      4  C   UNL     1       0.540  -0.718   3.660  1.00  0.00     0.247 C 
ATOM      5  O   UNL     1       1.192  -1.247   4.569  1.00  0.00    -0.272 OA
ATOM      6  H   UNL     1      -1.086  -1.287   4.624  1.00  0.00     0.163 HD
BRANCH   4   7
ATOM      7  C   UNL     1       1.227   0.014   2.476  1.00  0.00     0.142 C 
ATOM      8  C   UNL     1       0.863   1.517   2.625  1.00  0.00     0.048 C 
BRANCH   7   9
ATOM      9  C   UNL     1       0.767  -0.551   1.106  1.00  0.00     0.037 C 
ATOM     10  C   UNL     1       1.329   0.150  -0.125  1.00  0.00     0.007 C 
ENDBRANCH   7   9
BRANCH   7  11
ATOM     11  N   UNL     1       2.696  -0.157   2.597  1.00  0.00    -0.214 N 
ATOM     12  N   UNL     1       3.497   0.934   2.592  1.00  0.00    -0.044 NA
ATOM     13  C   UNL     1       3.496  -1.283   2.634  1.00  0.00     0.157 A 
ATOM     14  N   UNL     1       4.734   0.483   2.678  1.00  0.00    -0.024 NA
ATOM     15  N   UNL     1       4.753  -0.879   2.712  1.00  0.00    -0.113 NA
BRANCH  13  16
ATOM     16  C   UNL     1       3.066  -2.712   2.608  1.00  0.00     0.125 C 
BRANCH  16  17
ATOM     17  C   UNL     1       3.476  -3.401   1.330  1.00  0.00     0.012 A 
ATOM     18  C   UNL     1       4.754  -3.606   0.843  1.00  0.00     0.016 A 
ATOM     19  S   UNL     1       2.300  -4.075   0.277  1.00  0.00    -0.148 S 
ATOM     20  C   UNL     1       4.759  -4.250  -0.427  1.00  0.00     0.012 A 
ATOM     21  C   UNL     1       3.486  -4.542  -0.860  1.00  0.00     0.065 A 
ENDBRANCH  16  17
ENDBRANCH  13  16
ENDBRANCH   7  11
ENDBRANCH   4   7
ENDBRANCH   2   3
ENDBRANCH   1   2
BRANCH   1  22
ATOM     22  C   UNL     1      -3.435  -2.421   3.300  1.00  0.00     0.023 C 
BRANCH  22  23
ATOM     23  C   UNL     1      -4.439  -1.688   4.183  1.00  0.00     0.116 C 
BRANCH  23  24
ATOM     24  N   UNL     1      -5.401  -0.906   3.424  1.00  0.00    -0.352 N 
ATOM     25  C   UNL     1      -6.749  -0.758   3.632  1.00  0.00     0.251 C 
ATOM     26  H   UNL     1      -5.034  -0.414   2.655  1.00  0.00     0.163 HD
ATOM     27  O   UNL     1      -7.435  -0.161   2.806  1.00  0.00    -0.269 OA
BRANCH  25  28
ATOM     28  C   UNL     1      -7.380  -1.341   4.834  1.00  0.00     0.039 A 
ATOM     29  C   UNL     1      -8.604  -2.000   4.697  1.00  0.00     0.014 A 
ATOM     30  C   UNL     1      -6.775  -1.236   6.089  1.00  0.00     0.014 A 
ATOM     31  C   UNL     1      -9.201  -2.586   5.814  1.00  0.00     0.010 A 
ATOM     32  C   UNL     1      -7.325  -1.897   7.182  1.00  0.00     0.010 A 
ATOM     33  C   UNL     1      -8.556  -2.559   7.062  1.00  0.00    -0.014 A 
BRANCH  33  34
ATOM     34  C   UNL     1      -9.179  -3.182   8.256  1.00  0.00     0.031 A 
ATOM     35  C   UNL     1      -9.578  -2.328   9.429  1.00  0.00     0.074 A 
ATOM     36  C   UNL     1      -9.356  -4.516   8.299  1.00  0.00     0.049 A 
ATOM     37  N   UNL     1     -10.133  -2.681  10.562  1.00  0.00    -0.248 NA
ATOM     38  C   UNL     1      -9.289  -0.888   9.331  1.00  0.00     0.031 C 
ATOM     39  C   UNL     1      -8.963  -5.456   7.247  1.00  0.00     0.029 A 
ATOM     40  N   UNL     1      -9.915  -5.314   9.265  1.00  0.00    -0.354 N 
ATOM     41  C   UNL     1     -10.241  -1.516  11.310  1.00  0.00     0.074 A 
ATOM     42  C   UNL     1      -9.637  -0.457  10.533  1.00  0.00     0.031 C 
ATOM     43  C   UNL     1      -9.331  -6.696   7.607  1.00  0.00     0.029 A 
ATOM     44  C   UNL     1      -9.951  -6.645   8.928  1.00  0.00     0.049 A 
ATOM     45  H   UNL     1     -10.258  -4.965  10.120  1.00  0.00     0.167 HD
ATOM     46  C   UNL     1     -10.817  -1.339  12.523  1.00  0.00     0.037 A 
ATOM     47  C   UNL     1     -10.436  -7.701   9.606  1.00  0.00     0.037 A 
ATOM     48  C   UNL     1     -11.443  -2.392  13.278  1.00  0.00     0.049 A 
ATOM     49  C   UNL     1     -11.073  -7.476  10.952  1.00  0.00     0.074 A 
ATOM     50  C   UNL     1     -12.115  -2.307  14.484  1.00  0.00     0.029 A 
ATOM     51  N   UNL     1     -11.467  -3.727  12.900  1.00  0.00    -0.354 N 
ATOM     52  N   UNL     1     -11.247  -6.357  11.612  1.00  0.00    -0.248 NA
ATOM     53  C   UNL     1     -11.594  -8.665  11.641  1.00  0.00     0.031 C 
ATOM     54  C   UNL     1     -12.494  -3.599  14.865  1.00  0.00     0.029 A 
ATOM     55  C   UNL     1     -12.119  -4.480  13.864  1.00  0.00     0.049 A 
ATOM     56  H   UNL     1     -11.078  -4.086  12.070  1.00  0.00     0.167 HD
ATOM     57  C   UNL     1     -11.931  -6.699  12.771  1.00  0.00     0.074 A 
ATOM     58  C   UNL     1     -12.152  -8.129  12.716  1.00  0.00     0.031 C 
ATOM     59  C   UNL     1     -12.342  -5.902  13.788  1.00  0.00     0.037 A 
BRANCH  46  60
ATOM     60  C   UNL     1     -10.793   0.045  13.109  1.00  0.00     0.064 A 
ATOM     61  C   UNL     1     -11.525   1.102  12.546  1.00  0.00     0.173 A 
ATOM     62  C   UNL     1     -10.047   0.312  14.267  1.00  0.00     0.173 A 
ATOM     63  F   UNL     1     -12.246   0.906  11.431  1.00  0.00    -0.203 F 
ATOM     64  C   UNL     1     -11.480   2.381  13.096  1.00  0.00     0.198 A 
ATOM     65  C   UNL     1     -10.034   1.583  14.836  1.00  0.00     0.198 A 
ATOM     66  F   UNL     1      -9.332  -0.661  14.851  1.00  0.00    -0.203 F 
ATOM     67  F   UNL     1     -12.139   3.387  12.504  1.00  0.00    -0.200 F 
ATOM     68  C   UNL     1     -10.742   2.618  14.245  1.00  0.00     0.200 A 
ATOM     69  F   UNL     1      -9.330   1.807  15.955  1.00  0.00    -0.200 F 
ATOM     70  F   UNL     1     -10.704   3.848  14.777  1.00  0.00    -0.200 F 
ENDBRANCH  46  60
BRANCH  47  71
ATOM     71  C   UNL     1     -10.382  -9.062   9.009  1.00  0.00     0.064 A 
ATOM     72  C   UNL     1     -11.556  -9.723   8.619  1.00  0.00     0.173 A 
ATOM     73  C   UNL     1      -9.166  -9.736   8.828  1.00  0.00     0.173 A 
ATOM     74  F   UNL     1     -12.747  -9.128   8.788  1.00  0.00    -0.203 F 
ATOM     75  C   UNL     1     -11.518 -11.015   8.099  1.00  0.00     0.198 A 
ATOM     76  C   UNL     1      -9.126 -11.015   8.278  1.00  0.00     0.198 A 
ATOM     77  F   UNL     1      -8.013  -9.146   9.177  1.00  0.00    -0.203 F 
ATOM     78  F   UNL     1     -12.660 -11.642   7.786  1.00  0.00    -0.200 F 
ATOM     79  C   UNL     1     -10.303 -11.658   7.924  1.00  0.00     0.200 A 
ATOM     80  F   UNL     1      -7.948 -11.627   8.095  1.00  0.00    -0.200 F 
ATOM     81  F   UNL     1     -10.266 -12.900   7.422  1.00  0.00    -0.200 F 
ENDBRANCH  47  71
BRANCH  59  82
ATOM     82  C   UNL     1     -13.122  -6.548  14.898  1.00  0.00     0.064 A 
ATOM     83  C   UNL     1     -12.529  -7.444  15.800  1.00  0.00     0.173 A 
ATOM     84  C   UNL     1     -14.482  -6.248  15.073  1.00  0.00     0.173 A 
ATOM     85  F   UNL     1     -11.235  -7.776  15.671  1.00  0.00    -0.203 F 
ATOM     86  C   UNL     1     -13.277  -8.045  16.810  1.00  0.00     0.198 A 
ATOM     87  C   UNL     1     -15.218  -6.821  16.107  1.00  0.00     0.198 A 
ATOM     88  F   UNL     1     -15.098  -5.390  14.245  1.00  0.00    -0.203 F 
ATOM     89  F   UNL     1     -12.704  -8.946  17.619  1.00  0.00    -0.200 F 
ATOM     90  C   UNL     1     -14.618  -7.728  16.966  1.00  0.00     0.200 A 
ATOM     91  F   UNL     1     -16.509  -6.498  16.267  1.00  0.00    -0.200 F 
ATOM     92  F   UNL     1     -15.335  -8.304  17.940  1.00  0.00    -0.200 F 
ENDBRANCH  59  82
ENDBRANCH  33  34
ENDBRANCH  25  28
ENDBRANCH  23  24
ENDBRANCH  22  23
ENDBRANCH   1  22
TORSDOF 15
