REMARK SMILES O=C(NCCCCNC(=O)c1cc(S(=O)(=O)Nc2cccc(Cl)c2)ccc1O)c1ccc(-c2c3nc(c(-c4c(F)c(F)c(F)c(F)c4F)c4ccc([nH]4)c(-c4c(F)c(F)c(F)c(F)c4F)c4nc(c(-c5c(F)c(F)c(F)c(F)c5F)c5ccc2[nH]5)C=C4)C=C3)cc1
REMARK SMILES IDX 6 1 5 2 4 3 3 4 1 5 2 6 29 8 30 9 91 10 31 11 90 12 32 13
REMARK SMILES IDX 33 14 34 15 84 16 35 17 89 18 83 19 85 20 36 21 88 22 82 23
REMARK SMILES IDX 81 24 37 26 69 27 49 28 68 29 50 30 53 31 67 32 86 33 51 34
REMARK SMILES IDX 52 35 66 37 87 38 54 39 38 40 39 41 47 42 40 43 41 44 45 45
REMARK SMILES IDX 48 46 42 47 43 48 46 49 44 50 70 51 71 52 79 53 72 54 73 55
REMARK SMILES IDX 77 56 80 57 74 58 75 59 78 60 76 61 55 62 56 63 64 64 57 65
REMARK SMILES IDX 58 66 62 67 65 68 59 69 60 70 63 71 61 72 7 73 8 74 9 75
REMARK SMILES IDX 10 77 11 78 12 79 27 80 13 81 26 82 25 83 28 84 14 86 15 87
REMARK SMILES IDX 16 88 17 89 18 91 19 92 24 93 20 94 22 95 21 96 23 97
REMARK H PARENT 3 7 85 25 53 36 8 76 28 85 17 90
REMARK Flexibility Score: inf
ROOT
ATOM      1  C   UNL     1       4.570   3.242   1.940  1.00  0.00     0.023 C 
ENDROOT
BRANCH   1   2
ATOM      2  C   UNL     1       5.009   2.351   0.787  1.00  0.00     0.023 C 
BRANCH   2   3
ATOM      3  C   UNL     1       4.608   0.889   0.916  1.00  0.00     0.116 C 
BRANCH   3   4
ATOM      4  N   UNL     1       3.166   0.691   0.896  1.00  0.00    -0.352 N 
ATOM      5  O   UNL     1       1.181   0.007   0.059  1.00  0.00    -0.269 OA
ATOM      6  C   UNL     1       2.406  -0.046   0.020  1.00  0.00     0.251 C 
ATOM      7  H   UNL     1       2.665   1.149   1.610  1.00  0.00     0.163 HD
BRANCH   6   8
ATOM      8  C   UNL     1       3.077  -0.894  -0.987  1.00  0.00     0.039 A 
ATOM      9  C   UNL     1       4.136  -1.726  -0.615  1.00  0.00     0.014 A 
ATOM     10  C   UNL     1       2.641  -0.858  -2.314  1.00  0.00     0.014 A 
ATOM     11  C   UNL     1       4.842  -2.422  -1.587  1.00  0.00     0.010 A 
ATOM     12  C   UNL     1       3.294  -1.631  -3.277  1.00  0.00     0.010 A 
ATOM     13  C   UNL     1       4.408  -2.409  -2.922  1.00  0.00    -0.014 A 
BRANCH  13  14
ATOM     14  C   UNL     1       5.050  -3.320  -3.901  1.00  0.00     0.031 A 
ATOM     15  C   UNL     1       5.813  -2.794  -5.081  1.00  0.00     0.074 A 
ATOM     16  C   UNL     1       4.915  -4.646  -3.707  1.00  0.00     0.049 A 
ATOM     17  N   UNL     1       6.390  -3.462  -6.047  1.00  0.00    -0.248 NA
ATOM     18  C   UNL     1       5.942  -1.334  -5.201  1.00  0.00     0.031 C 
ATOM     19  C   UNL     1       4.177  -5.263  -2.600  1.00  0.00     0.029 A 
ATOM     20  N   UNL     1       5.381  -5.715  -4.427  1.00  0.00    -0.354 N 
ATOM     21  C   UNL     1       6.930  -2.510  -6.901  1.00  0.00     0.074 A 
ATOM     22  C   UNL     1       6.604  -1.213  -6.346  1.00  0.00     0.031 C 
ATOM     23  C   UNL     1       4.256  -6.596  -2.704  1.00  0.00     0.029 A 
ATOM     24  C   UNL     1       4.985  -6.929  -3.921  1.00  0.00     0.049 A 
ATOM     25  H   UNL     1       5.945  -5.622  -5.229  1.00  0.00     0.167 HD
ATOM     26  C   UNL     1       7.632  -2.712  -8.042  1.00  0.00     0.037 A 
ATOM     27  C   UNL     1       5.149  -8.173  -4.405  1.00  0.00     0.037 A 
ATOM     28  C   UNL     1       7.971  -4.011  -8.565  1.00  0.00     0.049 A 
ATOM     29  C   UNL     1       5.899  -8.355  -5.692  1.00  0.00     0.074 A 
ATOM     30  C   UNL     1       8.758  -4.318  -9.662  1.00  0.00     0.029 A 
ATOM     31  N   UNL     1       7.532  -5.217  -8.039  1.00  0.00    -0.354 N 
ATOM     32  N   UNL     1       6.471  -7.450  -6.448  1.00  0.00    -0.248 NA
ATOM     33  C   UNL     1       6.020  -9.728  -6.200  1.00  0.00     0.031 C 
ATOM     34  C   UNL     1       8.739  -5.704  -9.840  1.00  0.00     0.029 A 
ATOM     35  C   UNL     1       7.988  -6.267  -8.821  1.00  0.00     0.049 A 
ATOM     36  H   UNL     1       6.978  -5.313  -7.231  1.00  0.00     0.167 HD
ATOM     37  C   UNL     1       7.025  -8.142  -7.515  1.00  0.00     0.074 A 
ATOM     38  C   UNL     1       6.748  -9.546  -7.292  1.00  0.00     0.031 C 
ATOM     39  C   UNL     1       7.694  -7.657  -8.588  1.00  0.00     0.037 A 
BRANCH  26  40
ATOM     40  C   UNL     1       8.074  -1.514  -8.831  1.00  0.00     0.064 A 
ATOM     41  C   UNL     1       9.131  -0.697  -8.408  1.00  0.00     0.173 A 
ATOM     42  C   UNL     1       7.500  -1.250 -10.085  1.00  0.00     0.173 A 
ATOM     43  F   UNL     1       9.710  -0.904  -7.216  1.00  0.00    -0.203 F 
ATOM     44  C   UNL     1       9.595   0.345  -9.209  1.00  0.00     0.198 A 
ATOM     45  C   UNL     1       7.982  -0.223 -10.893  1.00  0.00     0.198 A 
ATOM     46  F   UNL     1       6.492  -2.008 -10.541  1.00  0.00    -0.203 F 
ATOM     47  F   UNL     1      10.595   1.125  -8.778  1.00  0.00    -0.200 F 
ATOM     48  C   UNL     1       9.028   0.574 -10.455  1.00  0.00     0.200 A 
ATOM     49  F   UNL     1       7.443  -0.015 -12.103  1.00  0.00    -0.200 F 
ATOM     50  F   UNL     1       9.492   1.561 -11.234  1.00  0.00    -0.200 F 
ENDBRANCH  26  40
BRANCH  27  51
ATOM     51  C   UNL     1       4.544  -9.331  -3.696  1.00  0.00     0.064 A 
ATOM     52  C   UNL     1       5.342 -10.317  -3.103  1.00  0.00     0.173 A 
ATOM     53  C   UNL     1       3.151  -9.478  -3.608  1.00  0.00     0.173 A 
ATOM     54  F   UNL     1       6.678 -10.230  -3.176  1.00  0.00    -0.203 F 
ATOM     55  C   UNL     1       4.770 -11.421  -2.474  1.00  0.00     0.198 A 
ATOM     56  C   UNL     1       2.580 -10.563  -2.948  1.00  0.00     0.198 A 
ATOM     57  F   UNL     1       2.341  -8.559  -4.154  1.00  0.00    -0.203 F 
ATOM     58  F   UNL     1       5.556 -12.379  -1.964  1.00  0.00    -0.200 F 
ATOM     59  C   UNL     1       3.391 -11.540  -2.391  1.00  0.00     0.200 A 
ATOM     60  F   UNL     1       1.248 -10.662  -2.854  1.00  0.00    -0.200 F 
ATOM     61  F   UNL     1       2.842 -12.601  -1.784  1.00  0.00    -0.200 F 
ENDBRANCH  27  51
BRANCH  39  62
ATOM     62  C   UNL     1       8.174  -8.654  -9.600  1.00  0.00     0.064 A 
ATOM     63  C   UNL     1       7.280  -9.304 -10.463  1.00  0.00     0.173 A 
ATOM     64  C   UNL     1       9.542  -8.932  -9.736  1.00  0.00     0.173 A 
ATOM     65  F   UNL     1       5.961  -9.087 -10.357  1.00  0.00    -0.203 F 
ATOM     66  C   UNL     1       7.738 -10.211 -11.414  1.00  0.00     0.198 A 
ATOM     67  C   UNL     1       9.999  -9.816 -10.709  1.00  0.00     0.198 A 
ATOM     68  F   UNL     1      10.437  -8.334  -8.936  1.00  0.00    -0.203 F 
ATOM     69  F   UNL     1       6.862 -10.855 -12.199  1.00  0.00    -0.200 F 
ATOM     70  C   UNL     1       9.096 -10.459 -11.543  1.00  0.00     0.200 A 
ATOM     71  F   UNL     1      11.313 -10.045 -10.841  1.00  0.00    -0.200 F 
ATOM     72  F   UNL     1       9.536 -11.324 -12.467  1.00  0.00    -0.200 F 
ENDBRANCH  39  62
ENDBRANCH  13  14
ENDBRANCH   6   8
ENDBRANCH   3   4
ENDBRANCH   2   3
ENDBRANCH   1   2
BRANCH   1  73
ATOM     73  C   UNL     1       4.959   2.752   3.329  1.00  0.00     0.116 C 
BRANCH  73  74
ATOM     74  N   UNL     1       6.394   2.623   3.541  1.00  0.00    -0.352 N 
ATOM     75  C   UNL     1       7.125   2.968   4.662  1.00  0.00     0.255 C 
ATOM     76  H   UNL     1       6.908   2.242   2.792  1.00  0.00     0.163 HD
ATOM     77  O   UNL     1       8.340   2.798   4.690  1.00  0.00    -0.269 OA
BRANCH  75  78
ATOM     78  C   UNL     1       6.446   3.658   5.781  1.00  0.00     0.082 A 
ATOM     79  C   UNL     1       6.916   4.928   6.145  1.00  0.00     0.040 A 
ATOM     80  C   UNL     1       5.284   3.147   6.368  1.00  0.00     0.128 A 
ATOM     81  C   UNL     1       6.115   5.749   6.945  1.00  0.00     0.088 A 
ATOM     82  C   UNL     1       4.450   3.994   7.085  1.00  0.00     0.048 A 
ATOM     83  C   UNL     1       4.832   5.319   7.287  1.00  0.00     0.026 A 
BRANCH  80  84
ATOM     84  O   UNL     1       4.918   1.846   6.176  1.00  0.00    -0.507 OA
ATOM     85  H   UNL     1       5.476   1.269   5.693  1.00  0.00     0.293 HD
ENDBRANCH  80  84
BRANCH  81  86
ATOM     86  S   UNL     1       6.703   7.370   7.387  1.00  0.00     0.261 S 
ATOM     87  O   UNL     1       8.141   7.362   7.250  1.00  0.00    -0.201 OA
ATOM     88  O   UNL     1       5.896   8.318   6.642  1.00  0.00    -0.201 OA
BRANCH  86  89
ATOM     89  N   UNL     1       6.417   7.702   9.041  1.00  0.00    -0.280 N 
ATOM     90  H   UNL     1       7.041   8.280   9.536  1.00  0.00     0.180 HD
BRANCH  89  91
ATOM     91  C   UNL     1       5.282   7.149   9.711  1.00  0.00     0.050 A 
ATOM     92  C   UNL     1       5.415   5.886  10.296  1.00  0.00     0.027 A 
ATOM     93  C   UNL     1       4.044   7.798   9.708  1.00  0.00     0.047 A 
ATOM     94  C   UNL     1       4.302   5.247  10.844  1.00  0.00     0.004 A 
ATOM     95  C   UNL     1       2.939   7.156  10.274  1.00  0.00     0.043 A 
ATOM     96  C   UNL     1       3.060   5.880  10.828  1.00  0.00     0.020 A 
ATOM     97  Cl  UNL     1       1.399   7.924  10.251  1.00  0.00    -0.084 Cl
ENDBRANCH  89  91
ENDBRANCH  86  89
ENDBRANCH  81  86
ENDBRANCH  75  78
ENDBRANCH  73  74
ENDBRANCH   1  73
TORSDOF 15
