REMARK SMILES COc1cc2c(cc1OC)[C@@H](CC(=O)NCCCCNC(=O)c1ccc(-c3c4nc(c(-c5c(F)c(F)c(F)c(F)c5F)c5ccc([nH]5)c(-c5c(F)c(F)c(F)c(F)c5F)c5nc(c(-c6c(F)c(F)c(F)c(F)c6F)c6ccc3[nH]6)C=C5)C=C4)cc1)N(C(=O)Nc1ccc(Cl)cc1)CC2
REMARK SMILES IDX 17 1 16 2 15 3 13 4 14 5 12 7 11 8 3 9 4 10 8 11 5 12 7 13
REMARK SMILES IDX 6 14 98 15 97 16 86 17 2 18 1 19 9 20 10 21 87 22 88 23
REMARK SMILES IDX 89 24 90 26 91 27 96 28 92 29 95 30 93 31 94 32 18 33 19 34
REMARK SMILES IDX 20 35 21 36 22 38 23 39 24 40 85 41 25 42 84 43 26 44 27 45
REMARK SMILES IDX 28 46 78 47 29 48 83 49 77 50 79 51 30 52 82 53 76 54 75 55
REMARK SMILES IDX 31 57 63 58 43 59 62 60 44 61 47 62 61 63 80 64 45 65 46 66
REMARK SMILES IDX 60 68 81 69 48 70 32 71 33 72 41 73 34 74 35 75 39 76 42 77
REMARK SMILES IDX 36 78 37 79 40 80 38 81 64 82 65 83 73 84 66 85 67 86 71 87
REMARK SMILES IDX 74 88 68 89 69 90 72 91 70 92 49 93 50 94 58 95 51 96 52 97
REMARK SMILES IDX 56 98 59 99 53 100 54 101 57 102 55 103
REMARK H PARENT 15 6 89 25 20 37 79 56 47 67
REMARK Flexibility Score: inf
ROOT
ATOM      1  C   UNL     1       2.122  -6.543   8.277  1.00  0.00     0.023 C 
ENDROOT
BRANCH   1   2
ATOM      2  C   UNL     1       3.373  -5.782   7.829  1.00  0.00     0.116 C 
BRANCH   2   3
ATOM      3  N   UNL     1       3.750  -6.191   6.483  1.00  0.00    -0.356 N 
ATOM      4  C   UNL     1       3.584  -5.596   5.269  1.00  0.00     0.222 C 
ATOM      5  O   UNL     1       3.800  -6.275   4.262  1.00  0.00    -0.275 OA
ATOM      6  H   UNL     1       4.211  -7.061   6.443  1.00  0.00     0.163 HD
BRANCH   4   7
ATOM      7  C   UNL     1       3.246  -4.123   5.138  1.00  0.00     0.130 C 
BRANCH   7   8
ATOM      8  C   UNL     1       1.834  -3.892   4.535  1.00  0.00     0.127 C 
ATOM      9  C   UNL     1       1.336  -0.928   1.366  1.00  0.00     0.161 A 
ATOM     10  C   UNL     1       0.244  -1.435   2.047  1.00  0.00     0.054 A 
ATOM     11  C   UNL     1       2.616  -1.468   1.566  1.00  0.00     0.161 A 
ATOM     12  C   UNL     1       0.440  -2.420   3.011  1.00  0.00    -0.037 A 
ATOM     13  C   UNL     1       2.796  -2.506   2.506  1.00  0.00     0.056 A 
ATOM     14  C   UNL     1       1.726  -2.950   3.302  1.00  0.00    -0.018 A 
ATOM     15  C   UNL     1      -0.677  -2.704   3.971  1.00  0.00     0.057 C 
ATOM     16  C   UNL     1      -0.043  -2.348   5.303  1.00  0.00     0.127 C 
ATOM     17  N   UNL     1       0.956  -3.367   5.637  1.00  0.00    -0.317 N 
BRANCH   9  18
ATOM     18  O   UNL     1       1.095   0.227   0.666  1.00  0.00    -0.493 OA
ATOM     19  C   UNL     1       1.239   0.052  -0.736  1.00  0.00     0.278 C 
ENDBRANCH   9  18
BRANCH  11  20
ATOM     20  O   UNL     1       3.623  -0.871   0.854  1.00  0.00    -0.493 OA
ATOM     21  C   UNL     1       4.923  -1.427   0.954  1.00  0.00     0.278 C 
ENDBRANCH  11  20
BRANCH  17  22
ATOM     22  C   UNL     1       0.507  -4.199   6.650  1.00  0.00     0.322 C 
ATOM     23  O   UNL     1       0.136  -5.346   6.452  1.00  0.00    -0.248 OA
ATOM     24  N   UNL     1       0.434  -3.484   7.833  1.00  0.00    -0.308 N 
ATOM     25  H   UNL     1       1.263  -3.067   8.161  1.00  0.00     0.171 HD
BRANCH  24  26
ATOM     26  C   UNL     1      -0.725  -3.307   8.604  1.00  0.00     0.042 A 
ATOM     27  C   UNL     1      -0.697  -2.285   9.559  1.00  0.00     0.028 A 
ATOM     28  C   UNL     1      -1.924  -3.961   8.320  1.00  0.00     0.028 A 
ATOM     29  C   UNL     1      -1.877  -1.871  10.177  1.00  0.00     0.022 A 
ATOM     30  C   UNL     1      -3.106  -3.541   8.934  1.00  0.00     0.022 A 
ATOM     31  C   UNL     1      -3.080  -2.486   9.845  1.00  0.00     0.041 A 
ATOM     32  Cl  UNL     1      -4.548  -1.917  10.536  1.00  0.00    -0.084 Cl
ENDBRANCH  24  26
ENDBRANCH  17  22
ENDBRANCH   7   8
ENDBRANCH   4   7
ENDBRANCH   2   3
ENDBRANCH   1   2
BRANCH   1  33
ATOM     33  C   UNL     1       2.201  -7.258   9.611  1.00  0.00     0.023 C 
BRANCH  33  34
ATOM     34  C   UNL     1       2.494  -6.370  10.808  1.00  0.00     0.116 C 
BRANCH  34  35
ATOM     35  N   UNL     1       1.608  -5.227  11.000  1.00  0.00    -0.352 N 
ATOM     36  C   UNL     1       1.188  -4.651  12.188  1.00  0.00     0.251 C 
ATOM     37  H   UNL     1       1.264  -4.810  10.177  1.00  0.00     0.163 HD
ATOM     38  O   UNL     1       0.504  -3.645  12.200  1.00  0.00    -0.269 OA
BRANCH  36  39
ATOM     39  C   UNL     1       1.525  -5.331  13.460  1.00  0.00     0.039 A 
ATOM     40  C   UNL     1       0.495  -5.639  14.351  1.00  0.00     0.014 A 
ATOM     41  C   UNL     1       2.817  -5.795  13.687  1.00  0.00     0.014 A 
ATOM     42  C   UNL     1       0.742  -6.524  15.402  1.00  0.00     0.010 A 
ATOM     43  C   UNL     1       3.022  -6.783  14.639  1.00  0.00     0.010 A 
ATOM     44  C   UNL     1       1.989  -7.163  15.508  1.00  0.00    -0.014 A 
BRANCH  44  45
ATOM     45  C   UNL     1       2.233  -8.237  16.507  1.00  0.00     0.031 A 
ATOM     46  C   UNL     1       3.365  -8.107  17.491  1.00  0.00     0.074 A 
ATOM     47  C   UNL     1       1.505  -9.371  16.465  1.00  0.00     0.049 A 
ATOM     48  N   UNL     1       3.789  -8.963  18.386  1.00  0.00    -0.248 NA
ATOM     49  C   UNL     1       4.167  -6.874  17.421  1.00  0.00     0.031 C 
ATOM     50  C   UNL     1       0.456  -9.675  15.489  1.00  0.00     0.029 A 
ATOM     51  N   UNL     1       1.540 -10.487  17.265  1.00  0.00    -0.354 N 
ATOM     52  C   UNL     1       4.922  -8.389  18.948  1.00  0.00     0.074 A 
ATOM     53  C   UNL     1       5.166  -7.152  18.242  1.00  0.00     0.031 C 
ATOM     54  C   UNL     1      -0.086 -10.869  15.778  1.00  0.00     0.029 A 
ATOM     55  C   UNL     1       0.594 -11.430  16.940  1.00  0.00     0.049 A 
ATOM     56  H   UNL     1       2.183 -10.602  18.002  1.00  0.00     0.167 HD
ATOM     57  C   UNL     1       5.669  -8.830  19.987  1.00  0.00     0.037 A 
ATOM     58  C   UNL     1       0.298 -12.605  17.528  1.00  0.00     0.037 A 
ATOM     59  C   UNL     1       5.378 -10.023  20.734  1.00  0.00     0.049 A 
ATOM     60  C   UNL     1       1.071 -13.022  18.749  1.00  0.00     0.074 A 
ATOM     61  C   UNL     1       6.011 -10.515  21.860  1.00  0.00     0.029 A 
ATOM     62  N   UNL     1       4.351 -10.905  20.432  1.00  0.00    -0.354 N 
ATOM     63  N   UNL     1       2.082 -12.425  19.332  1.00  0.00    -0.248 NA
ATOM     64  C   UNL     1       0.648 -14.266  19.407  1.00  0.00     0.031 C 
ATOM     65  C   UNL     1       5.382 -11.711  22.226  1.00  0.00     0.029 A 
ATOM     66  C   UNL     1       4.333 -11.941  21.351  1.00  0.00     0.049 A 
ATOM     67  H   UNL     1       3.728 -10.810  19.676  1.00  0.00     0.167 HD
ATOM     68  C   UNL     1       2.398 -13.200  20.439  1.00  0.00     0.074 A 
ATOM     69  C   UNL     1       1.459 -14.303  20.456  1.00  0.00     0.031 C 
ATOM     70  C   UNL     1       3.378 -13.018  21.357  1.00  0.00     0.037 A 
BRANCH  57  71
ATOM     71  C   UNL     1       6.852  -7.997  20.389  1.00  0.00     0.064 A 
ATOM     72  C   UNL     1       6.696  -6.723  20.960  1.00  0.00     0.173 A 
ATOM     73  C   UNL     1       8.158  -8.474  20.204  1.00  0.00     0.173 A 
ATOM     74  F   UNL     1       5.470  -6.212  21.144  1.00  0.00    -0.203 F 
ATOM     75  C   UNL     1       7.801  -5.943  21.289  1.00  0.00     0.198 A 
ATOM     76  C   UNL     1       9.261  -7.705  20.567  1.00  0.00     0.198 A 
ATOM     77  F   UNL     1       8.366  -9.686  19.666  1.00  0.00    -0.203 F 
ATOM     78  F   UNL     1       7.625  -4.704  21.767  1.00  0.00    -0.200 F 
ATOM     79  C   UNL     1       9.082  -6.437  21.098  1.00  0.00     0.200 A 
ATOM     80  F   UNL     1      10.499  -8.188  20.392  1.00  0.00    -0.200 F 
ATOM     81  F   UNL     1      10.145  -5.684  21.414  1.00  0.00    -0.200 F 
ENDBRANCH  57  71
BRANCH  58  82
ATOM     82  C   UNL     1      -0.830 -13.429  17.018  1.00  0.00     0.064 A 
ATOM     83  C   UNL     1      -2.025 -13.531  17.744  1.00  0.00     0.173 A 
ATOM     84  C   UNL     1      -0.743 -14.123  15.804  1.00  0.00     0.173 A 
ATOM     85  F   UNL     1      -2.150 -12.900  18.921  1.00  0.00    -0.203 F 
ATOM     86  C   UNL     1      -3.083 -14.315  17.287  1.00  0.00     0.198 A 
ATOM     87  C   UNL     1      -1.811 -14.886  15.334  1.00  0.00     0.198 A 
ATOM     88  F   UNL     1       0.375 -14.050  15.067  1.00  0.00    -0.203 F 
ATOM     89  F   UNL     1      -4.196 -14.430  18.023  1.00  0.00    -0.200 F 
ATOM     90  C   UNL     1      -2.977 -14.987  16.079  1.00  0.00     0.200 A 
ATOM     91  F   UNL     1      -1.711 -15.524  14.160  1.00  0.00    -0.200 F 
ATOM     92  F   UNL     1      -3.995 -15.738  15.637  1.00  0.00    -0.200 F 
ENDBRANCH  58  82
BRANCH  70  93
ATOM     93  C   UNL     1       3.456 -14.009  22.480  1.00  0.00     0.064 A 
ATOM     94  C   UNL     1       3.916 -15.318  22.275  1.00  0.00     0.173 A 
ATOM     95  C   UNL     1       3.097 -13.632  23.782  1.00  0.00     0.173 A 
ATOM     96  F   UNL     1       4.258 -15.729  21.045  1.00  0.00    -0.203 F 
ATOM     97  C   UNL     1       3.986 -16.223  23.330  1.00  0.00     0.198 A 
ATOM     98  C   UNL     1       3.195 -14.531  24.840  1.00  0.00     0.198 A 
ATOM     99  F   UNL     1       2.659 -12.388  24.030  1.00  0.00    -0.203 F 
ATOM    100  F   UNL     1       4.381 -17.483  23.104  1.00  0.00    -0.200 F 
ATOM    101  C   UNL     1       3.631 -15.827  24.612  1.00  0.00     0.200 A 
ATOM    102  F   UNL     1       2.865 -14.143  26.079  1.00  0.00    -0.200 F 
ATOM    103  F   UNL     1       3.703 -16.699  25.627  1.00  0.00    -0.200 F 
ENDBRANCH  70  93
ENDBRANCH  44  45
ENDBRANCH  36  39
ENDBRANCH  34  35
ENDBRANCH  33  34
ENDBRANCH   1  33
TORSDOF 16
