REMARK SMILES Cc1c(C(=O)NCCCCNC(=O)c2ccc(-c3c4nc(c(-c5c(F)c(F)c(F)c(F)c5F)c5ccc([nH]5)c(-c5c(F)c(F)c(F)c(F)c5F)c5nc(c(-c6c(F)c(F)c(F)c(F)c6F)c6ccc3[nH]6)C=C5)C=C4)cc2)oc2c1/C(=N/NC(=O)C(c1ccccc1)c1ccccc1)CCC2
REMARK SMILES IDX 8 1 7 2 6 3 4 4 5 5 3 7 1 8 2 9 79 10 77 11 78 12 80 13
REMARK SMILES IDX 100 14 81 15 98 16 99 17 82 18 83 19 84 21 85 22 86 23 87 24
REMARK SMILES IDX 91 25 88 26 90 27 89 28 92 29 93 30 97 31 94 32 96 33 95 34
REMARK SMILES IDX 9 35 10 36 11 37 12 38 13 40 14 41 15 42 76 43 16 44 75 45
REMARK SMILES IDX 17 46 18 47 19 48 69 49 20 50 74 51 68 52 70 53 21 54 73 55
REMARK SMILES IDX 67 56 66 57 22 59 54 60 34 61 53 62 35 63 38 64 52 65 71 66
REMARK SMILES IDX 36 67 37 68 51 70 72 71 39 72 23 73 24 74 32 75 25 76 26 77
REMARK SMILES IDX 30 78 33 79 27 80 28 81 31 82 29 83 55 84 56 85 64 86 57 87
REMARK SMILES IDX 58 88 62 89 65 90 59 91 60 92 63 93 61 94 40 95 41 96 49 97
REMARK SMILES IDX 42 98 43 99 47 100 50 101 44 102 45 103 48 104 46 105
REMARK H PARENT 6 6 82 20 11 39 70 58 38 69
REMARK Flexibility Score: inf
ROOT
ATOM      1  C   UNL     1       2.939  -6.264   0.120  1.00  0.00     0.023 C 
ENDROOT
BRANCH   1   2
ATOM      2  C   UNL     1       2.319  -5.468   1.283  1.00  0.00     0.116 C 
BRANCH   2   3
ATOM      3  N   UNL     1       3.047  -4.232   1.619  1.00  0.00    -0.349 N 
ATOM      4  C   UNL     1       2.857  -2.909   1.206  1.00  0.00     0.287 C 
ATOM      5  O   UNL     1       3.521  -2.036   1.766  1.00  0.00    -0.266 OA
ATOM      6  H   UNL     1       3.798  -4.359   2.243  1.00  0.00     0.163 HD
BRANCH   4   7
ATOM      7  C   UNL     1       1.862  -2.632   0.189  1.00  0.00     0.195 A 
ATOM      8  C   UNL     1       1.427  -0.078   0.043  1.00  0.00     0.049 C 
ATOM      9  C   UNL     1       1.189  -1.501  -0.310  1.00  0.00     0.010 A 
ATOM     10  C   UNL     1       0.105  -2.025  -1.102  1.00  0.00     0.043 A 
ATOM     11  O   UNL     1       1.382  -3.735  -0.421  1.00  0.00    -0.455 OA
ATOM     12  C   UNL     1       0.250  -3.395  -1.000  1.00  0.00     0.114 A 
ATOM     13  C   UNL     1      -1.091  -1.532  -1.798  1.00  0.00     0.072 C 
ATOM     14  C   UNL     1      -0.665  -4.505  -1.302  1.00  0.00     0.076 C 
ATOM     15  N   UNL     1      -1.177  -0.300  -2.201  1.00  0.00    -0.177 NA
ATOM     16  C   UNL     1      -2.118  -2.618  -1.875  1.00  0.00     0.059 C 
ATOM     17  C   UNL     1      -1.623  -3.984  -2.328  1.00  0.00     0.014 C 
BRANCH  15  18
ATOM     18  N   UNL     1      -2.169   0.400  -2.880  1.00  0.00    -0.246 N 
ATOM     19  C   UNL     1      -3.357   0.255  -3.581  1.00  0.00     0.252 C 
ATOM     20  H   UNL     1      -1.944   1.358  -2.852  1.00  0.00     0.193 HD
ATOM     21  O   UNL     1      -3.806   1.304  -4.081  1.00  0.00    -0.272 OA
BRANCH  19  22
ATOM     22  C   UNL     1      -4.185  -1.054  -3.799  1.00  0.00     0.140 C 
BRANCH  22  23
ATOM     23  C   UNL     1      -3.329  -2.015  -4.718  1.00  0.00    -0.031 A 
ATOM     24  C   UNL     1      -3.619  -3.369  -4.951  1.00  0.00     0.005 A 
ATOM     25  C   UNL     1      -2.126  -1.537  -5.304  1.00  0.00     0.005 A 
ATOM     26  C   UNL     1      -2.668  -4.222  -5.552  1.00  0.00     0.000 A 
ATOM     27  C   UNL     1      -1.172  -2.383  -5.877  1.00  0.00     0.000 A 
ATOM     28  C   UNL     1      -1.430  -3.738  -5.973  1.00  0.00     0.000 A 
ENDBRANCH  22  23
BRANCH  22  29
ATOM     29  C   UNL     1      -4.790  -1.459  -2.388  1.00  0.00    -0.031 A 
ATOM     30  C   UNL     1      -4.746  -0.508  -1.334  1.00  0.00     0.005 A 
ATOM     31  C   UNL     1      -5.200  -2.755  -2.027  1.00  0.00     0.005 A 
ATOM     32  C   UNL     1      -4.815  -0.880   0.011  1.00  0.00     0.000 A 
ATOM     33  C   UNL     1      -5.298  -3.126  -0.669  1.00  0.00     0.000 A 
ATOM     34  C   UNL     1      -5.050  -2.203   0.346  1.00  0.00     0.000 A 
ENDBRANCH  22  29
ENDBRANCH  19  22
ENDBRANCH  15  18
ENDBRANCH   4   7
ENDBRANCH   2   3
ENDBRANCH   1   2
BRANCH   1  35
ATOM     35  C   UNL     1       4.210  -7.046   0.483  1.00  0.00     0.023 C 
BRANCH  35  36
ATOM     36  C   UNL     1       4.003  -8.172   1.492  1.00  0.00     0.116 C 
BRANCH  36  37
ATOM     37  N   UNL     1       3.233  -9.301   0.969  1.00  0.00    -0.352 N 
ATOM     38  C   UNL     1       2.777 -10.409   1.673  1.00  0.00     0.251 C 
ATOM     39  H   UNL     1       3.013  -9.273   0.010  1.00  0.00     0.163 HD
ATOM     40  O   UNL     1       2.530 -11.462   1.121  1.00  0.00    -0.269 OA
BRANCH  38  41
ATOM     41  C   UNL     1       2.570 -10.263   3.126  1.00  0.00     0.039 A 
ATOM     42  C   UNL     1       2.971 -11.246   4.038  1.00  0.00     0.014 A 
ATOM     43  C   UNL     1       1.989  -9.076   3.559  1.00  0.00     0.014 A 
ATOM     44  C   UNL     1       2.856 -10.983   5.403  1.00  0.00     0.010 A 
ATOM     45  C   UNL     1       2.027  -8.756   4.889  1.00  0.00     0.010 A 
ATOM     46  C   UNL     1       2.396  -9.726   5.819  1.00  0.00    -0.014 A 
BRANCH  46  47
ATOM     47  C   UNL     1       2.404  -9.328   7.224  1.00  0.00     0.031 A 
ATOM     48  C   UNL     1       3.756  -9.319   7.858  1.00  0.00     0.074 A 
ATOM     49  C   UNL     1       1.325  -8.724   7.775  1.00  0.00     0.049 A 
ATOM     50  N   UNL     1       4.150  -9.953   8.913  1.00  0.00    -0.248 NA
ATOM     51  C   UNL     1       4.842  -8.604   7.161  1.00  0.00     0.031 C 
ATOM     52  C   UNL     1       0.055  -8.386   7.116  1.00  0.00     0.029 A 
ATOM     53  N   UNL     1       1.177  -8.147   8.998  1.00  0.00    -0.354 N 
ATOM     54  C   UNL     1       5.471  -9.557   9.130  1.00  0.00     0.074 A 
ATOM     55  C   UNL     1       5.895  -8.902   7.923  1.00  0.00     0.031 C 
ATOM     56  C   UNL     1      -0.604  -7.459   7.843  1.00  0.00     0.029 A 
ATOM     57  C   UNL     1       0.103  -7.264   9.093  1.00  0.00     0.049 A 
ATOM     58  H   UNL     1       1.779  -8.337   9.754  1.00  0.00     0.167 HD
ATOM     59  C   UNL     1       6.001  -9.554  10.386  1.00  0.00     0.037 A 
ATOM     60  C   UNL     1      -0.154  -6.401  10.107  1.00  0.00     0.037 A 
ATOM     61  C   UNL     1       5.228 -10.403  11.261  1.00  0.00     0.049 A 
ATOM     62  C   UNL     1       0.641  -6.851  11.277  1.00  0.00     0.074 A 
ATOM     63  C   UNL     1       4.876 -11.740  11.259  1.00  0.00     0.029 A 
ATOM     64  N   UNL     1       4.367  -9.801  12.146  1.00  0.00    -0.354 N 
ATOM     65  N   UNL     1       0.423  -7.967  11.915  1.00  0.00    -0.248 NA
ATOM     66  C   UNL     1       1.974  -6.290  11.432  1.00  0.00     0.031 C 
ATOM     67  C   UNL     1       3.531 -11.767  11.737  1.00  0.00     0.029 A 
ATOM     68  C   UNL     1       3.172 -10.464  12.081  1.00  0.00     0.049 A 
ATOM     69  H   UNL     1       4.573  -9.030  12.723  1.00  0.00     0.167 HD
ATOM     70  C   UNL     1       1.688  -8.472  12.176  1.00  0.00     0.074 A 
ATOM     71  C   UNL     1       2.602  -7.359  11.928  1.00  0.00     0.031 C 
ATOM     72  C   UNL     1       1.896  -9.818  12.275  1.00  0.00     0.037 A 
BRANCH  59  73
ATOM     73  C   UNL     1       6.923  -8.473  10.929  1.00  0.00     0.064 A 
ATOM     74  C   UNL     1       7.356  -8.570  12.270  1.00  0.00     0.173 A 
ATOM     75  C   UNL     1       7.128  -7.210  10.328  1.00  0.00     0.173 A 
ATOM     76  F   UNL     1       7.234  -9.722  12.947  1.00  0.00    -0.203 F 
ATOM     77  C   UNL     1       7.817  -7.461  12.986  1.00  0.00     0.198 A 
ATOM     78  C   UNL     1       7.636  -6.119  11.032  1.00  0.00     0.198 A 
ATOM     79  F   UNL     1       6.760  -6.935   9.074  1.00  0.00    -0.203 F 
ATOM     80  F   UNL     1       8.063  -7.574  14.298  1.00  0.00    -0.200 F 
ATOM     81  C   UNL     1       7.939  -6.231  12.371  1.00  0.00     0.200 A 
ATOM     82  F   UNL     1       7.743  -4.933  10.416  1.00  0.00    -0.200 F 
ATOM     83  F   UNL     1       8.303  -5.150  13.071  1.00  0.00    -0.200 F 
ENDBRANCH  59  73
BRANCH  60  84
ATOM     84  C   UNL     1      -0.772  -5.052  10.044  1.00  0.00     0.064 A 
ATOM     85  C   UNL     1      -1.244  -4.416  11.204  1.00  0.00     0.173 A 
ATOM     86  C   UNL     1      -0.657  -4.245   8.894  1.00  0.00     0.173 A 
ATOM     87  F   UNL     1      -1.341  -5.098  12.354  1.00  0.00    -0.203 F 
ATOM     88  C   UNL     1      -1.555  -3.051  11.220  1.00  0.00     0.198 A 
ATOM     89  C   UNL     1      -0.975  -2.886   8.909  1.00  0.00     0.198 A 
ATOM     90  F   UNL     1      -0.144  -4.737   7.757  1.00  0.00    -0.203 F 
ATOM     91  F   UNL     1      -1.941  -2.466  12.363  1.00  0.00    -0.200 F 
ATOM     92  C   UNL     1      -1.410  -2.285  10.076  1.00  0.00     0.200 A 
ATOM     93  F   UNL     1      -0.796  -2.149   7.804  1.00  0.00    -0.200 F 
ATOM     94  F   UNL     1      -1.647  -0.966  10.106  1.00  0.00    -0.200 F 
ENDBRANCH  60  84
BRANCH  72  95
ATOM     95  C   UNL     1       0.693 -10.714  12.369  1.00  0.00     0.064 A 
ATOM     96  C   UNL     1      -0.279 -10.849  11.361  1.00  0.00     0.173 A 
ATOM     97  C   UNL     1       0.603 -11.580  13.466  1.00  0.00     0.173 A 
ATOM     98  F   UNL     1      -0.210 -10.131  10.234  1.00  0.00    -0.203 F 
ATOM     99  C   UNL     1      -1.312 -11.779  11.470  1.00  0.00     0.198 A 
ATOM    100  C   UNL     1      -0.407 -12.534  13.555  1.00  0.00     0.198 A 
ATOM    101  F   UNL     1       1.532 -11.535  14.434  1.00  0.00    -0.203 F 
ATOM    102  F   UNL     1      -2.232 -11.879  10.499  1.00  0.00    -0.200 F 
ATOM    103  C   UNL     1      -1.370 -12.626  12.564  1.00  0.00     0.200 A 
ATOM    104  F   UNL     1      -0.428 -13.383  14.591  1.00  0.00    -0.200 F 
ATOM    105  F   UNL     1      -2.338 -13.549  12.651  1.00  0.00    -0.200 F 
ENDBRANCH  72  95
ENDBRANCH  46  47
ENDBRANCH  38  41
ENDBRANCH  36  37
ENDBRANCH  35  36
ENDBRANCH   1  35
TORSDOF 15
