REMARK SMILES Cc1[nH]cnc1C[NH+]1CCC(Oc2cccc(F)c2)(C(=O)NCCCCNC(=O)c2ccc(-c3c4nc(c(-c5c(F)c(F)c(F)c(F)c5F)c5ccc([nH]5)c(-c5c(F)c(F)c(F)c(F)c5F)c5nc(c(-c6c(F)c(F)c(F)c(F)c6F)c6ccc3[nH]6)C=C5)C=C4)cc2)CC1
REMARK SMILES IDX 24 1 23 2 22 3 20 4 21 5 11 7 8 8 9 9 94 10 10 12 93 13 7 14
REMARK SMILES IDX 6 15 1 16 2 17 3 18 4 19 5 21 12 22 13 23 14 24 19 25 15 26
REMARK SMILES IDX 17 27 16 28 18 29 25 30 26 31 27 32 28 33 29 35 30 36 31 37
REMARK SMILES IDX 92 38 32 39 91 40 33 41 34 42 35 43 85 44 36 45 90 46 84 47
REMARK SMILES IDX 86 48 37 49 89 50 83 51 82 52 38 54 70 55 50 56 69 57 51 58
REMARK SMILES IDX 54 59 68 60 87 61 52 62 53 63 67 65 88 66 55 67 39 68 40 69
REMARK SMILES IDX 48 70 41 71 42 72 46 73 49 74 43 75 44 76 47 77 45 78 71 79
REMARK SMILES IDX 72 80 80 81 73 82 74 83 78 84 81 85 75 86 76 87 79 88 77 89
REMARK SMILES IDX 56 90 57 91 65 92 58 93 59 94 63 95 66 96 60 97 61 98 64 99
REMARK SMILES IDX 62 100
REMARK H PARENT 22 6 8 11 3 20 27 34 86 53 54 64
REMARK Flexibility Score: inf
ROOT
ATOM      1  C   UNL     1       0.231  -1.388   6.404  1.00  0.00     0.023 C 
ENDROOT
BRANCH   1   2
ATOM      2  C   UNL     1      -1.079  -2.166   6.301  1.00  0.00     0.116 C 
BRANCH   2   3
ATOM      3  N   UNL     1      -1.928  -1.640   5.251  1.00  0.00    -0.353 N 
ATOM      4  C   UNL     1      -2.339  -2.206   4.075  1.00  0.00     0.264 C 
ATOM      5  O   UNL     1      -3.176  -1.558   3.439  1.00  0.00    -0.270 OA
ATOM      6  H   UNL     1      -2.263  -0.728   5.410  1.00  0.00     0.163 HD
BRANCH   4   7
ATOM      7  C   UNL     1      -1.792  -3.585   3.595  1.00  0.00     0.197 C 
ATOM      8  N   UNL     1      -0.482  -3.132   1.015  1.00  0.00    -0.330 N 
ATOM      9  C   UNL     1       0.125  -2.624   2.242  1.00  0.00     0.267 C 
ATOM     10  C   UNL     1      -1.950  -3.116   1.085  1.00  0.00     0.267 C 
ATOM     11  H   UNL     1      -0.201  -4.109   0.935  1.00  0.00     0.348 HD
ATOM     12  C   UNL     1      -0.267  -3.539   3.396  1.00  0.00     0.120 C 
ATOM     13  C   UNL     1      -2.458  -3.970   2.256  1.00  0.00     0.120 C 
BRANCH   8  14
ATOM     14  C   UNL     1       0.036  -2.467  -0.199  1.00  0.00     0.321 C 
BRANCH  14  15
ATOM     15  C   UNL     1      -0.124  -0.973  -0.204  1.00  0.00     0.115 A 
ATOM     16  C   UNL     1       2.310  -0.009   0.047  1.00  0.00     0.066 C 
ATOM     17  C   UNL     1       0.836   0.020  -0.086  1.00  0.00     0.040 A 
ATOM     18  N   UNL     1       0.130   1.198  -0.114  1.00  0.00    -0.348 N 
ATOM     19  C   UNL     1      -1.189   0.892  -0.269  1.00  0.00     0.197 A 
ATOM     20  H   UNL     1       0.509   2.103  -0.036  1.00  0.00     0.167 HD
ATOM     21  N   UNL     1      -1.371  -0.402  -0.356  1.00  0.00    -0.236 NA
ENDBRANCH  14  15
ENDBRANCH   8  14
BRANCH   7  22
ATOM     22  O   UNL     1      -2.234  -4.436   4.690  1.00  0.00    -0.477 OA
BRANCH  22  23
ATOM     23  C   UNL     1      -2.020  -5.777   4.592  1.00  0.00     0.123 A 
ATOM     24  C   UNL     1      -0.766  -6.333   4.847  1.00  0.00     0.046 A 
ATOM     25  C   UNL     1      -3.121  -6.601   4.379  1.00  0.00     0.085 A 
ATOM     26  C   UNL     1      -0.588  -7.715   4.782  1.00  0.00     0.007 A 
ATOM     27  C   UNL     1      -2.937  -7.977   4.336  1.00  0.00     0.126 A 
ATOM     28  C   UNL     1      -1.678  -8.541   4.517  1.00  0.00     0.039 A 
ATOM     29  F   UNL     1      -3.991  -8.777   4.124  1.00  0.00    -0.207 F 
ENDBRANCH  22  23
ENDBRANCH   7  22
ENDBRANCH   4   7
ENDBRANCH   2   3
ENDBRANCH   1   2
BRANCH   1  30
ATOM     30  C   UNL     1       0.075   0.058   6.876  1.00  0.00     0.023 C 
BRANCH  30  31
ATOM     31  C   UNL     1      -0.647   0.230   8.207  1.00  0.00     0.116 C 
BRANCH  31  32
ATOM     32  N   UNL     1      -0.019  -0.507   9.293  1.00  0.00    -0.352 N 
ATOM     33  C   UNL     1       0.281  -0.093  10.566  1.00  0.00     0.251 C 
ATOM     34  H   UNL     1       0.226  -1.438   9.084  1.00  0.00     0.163 HD
ATOM     35  O   UNL     1       0.946  -0.811  11.307  1.00  0.00    -0.269 OA
BRANCH  33  36
ATOM     36  C   UNL     1      -0.165   1.236  11.032  1.00  0.00     0.039 A 
ATOM     37  C   UNL     1       0.744   2.044  11.720  1.00  0.00     0.014 A 
ATOM     38  C   UNL     1      -1.462   1.693  10.780  1.00  0.00     0.014 A 
ATOM     39  C   UNL     1       0.374   3.338  12.088  1.00  0.00     0.010 A 
ATOM     40  C   UNL     1      -1.801   3.010  11.075  1.00  0.00     0.010 A 
ATOM     41  C   UNL     1      -0.886   3.848  11.729  1.00  0.00    -0.014 A 
BRANCH  41  42
ATOM     42  C   UNL     1      -1.237   5.264  12.002  1.00  0.00     0.031 A 
ATOM     43  C   UNL     1      -2.368   5.609  12.928  1.00  0.00     0.074 A 
ATOM     44  C   UNL     1      -0.560   6.243  11.370  1.00  0.00     0.049 A 
ATOM     45  N   UNL     1      -2.822   6.789  13.271  1.00  0.00    -0.248 NA
ATOM     46  C   UNL     1      -3.101   4.486  13.531  1.00  0.00     0.031 C 
ATOM     47  C   UNL     1       0.520   6.032  10.404  1.00  0.00     0.029 A 
ATOM     48  N   UNL     1      -0.675   7.609  11.445  1.00  0.00    -0.354 N 
ATOM     49  C   UNL     1      -3.891   6.549  14.123  1.00  0.00     0.074 A 
ATOM     50  C   UNL     1      -4.058   5.114  14.200  1.00  0.00     0.031 C 
ATOM     51  C   UNL     1       0.994   7.222  10.007  1.00  0.00     0.029 A 
ATOM     52  C   UNL     1       0.226   8.281  10.656  1.00  0.00     0.049 A 
ATOM     53  H   UNL     1      -1.341   8.063  12.010  1.00  0.00     0.167 HD
ATOM     54  C   UNL     1      -4.645   7.446  14.801  1.00  0.00     0.037 A 
ATOM     55  C   UNL     1       0.415   9.602  10.474  1.00  0.00     0.037 A 
ATOM     56  C   UNL     1      -4.461   8.873  14.736  1.00  0.00     0.049 A 
ATOM     57  C   UNL     1      -0.442  10.578  11.231  1.00  0.00     0.074 A 
ATOM     58  C   UNL     1      -5.132   9.859  15.437  1.00  0.00     0.029 A 
ATOM     59  N   UNL     1      -3.545   9.518  13.918  1.00  0.00    -0.354 N 
ATOM     60  N   UNL     1      -1.402  10.338  12.091  1.00  0.00    -0.248 NA
ATOM     61  C   UNL     1      -0.189  12.006  10.996  1.00  0.00     0.031 C 
ATOM     62  C   UNL     1      -4.665  11.101  15.001  1.00  0.00     0.029 A 
ATOM     63  C   UNL     1      -3.657  10.891  14.073  1.00  0.00     0.049 A 
ATOM     64  H   UNL     1      -2.908   9.067  13.317  1.00  0.00     0.167 HD
ATOM     65  C   UNL     1      -1.859  11.580  12.510  1.00  0.00     0.074 A 
ATOM     66  C   UNL     1      -1.053  12.572  11.828  1.00  0.00     0.031 C 
ATOM     67  C   UNL     1      -2.858  11.870  13.379  1.00  0.00     0.037 A 
BRANCH  54  68
ATOM     68  C   UNL     1      -5.737   6.917  15.687  1.00  0.00     0.064 A 
ATOM     69  C   UNL     1      -7.085   7.167  15.383  1.00  0.00     0.173 A 
ATOM     70  C   UNL     1      -5.450   6.228  16.875  1.00  0.00     0.173 A 
ATOM     71  F   UNL     1      -7.415   7.827  14.263  1.00  0.00    -0.203 F 
ATOM     72  C   UNL     1      -8.101   6.758  16.243  1.00  0.00     0.198 A 
ATOM     73  C   UNL     1      -6.471   5.792  17.716  1.00  0.00     0.198 A 
ATOM     74  F   UNL     1      -4.179   5.954  17.207  1.00  0.00    -0.203 F 
ATOM     75  F   UNL     1      -9.378   7.040  15.950  1.00  0.00    -0.200 F 
ATOM     76  C   UNL     1      -7.794   6.067  17.405  1.00  0.00     0.200 A 
ATOM     77  F   UNL     1      -6.173   5.103  18.826  1.00  0.00    -0.200 F 
ATOM     78  F   UNL     1      -8.774   5.665  18.226  1.00  0.00    -0.200 F 
ENDBRANCH  54  68
BRANCH  55  79
ATOM     79  C   UNL     1       1.491  10.066   9.560  1.00  0.00     0.064 A 
ATOM     80  C   UNL     1       1.408   9.866   8.174  1.00  0.00     0.173 A 
ATOM     81  C   UNL     1       2.648  10.677  10.062  1.00  0.00     0.173 A 
ATOM     82  F   UNL     1       0.324   9.280   7.643  1.00  0.00    -0.203 F 
ATOM     83  C   UNL     1       2.452  10.235   7.329  1.00  0.00     0.198 A 
ATOM     84  C   UNL     1       3.680  11.072   9.213  1.00  0.00     0.198 A 
ATOM     85  F   UNL     1       2.766  10.906  11.378  1.00  0.00    -0.203 F 
ATOM     86  F   UNL     1       2.366   9.992   6.014  1.00  0.00    -0.200 F 
ATOM     87  C   UNL     1       3.586  10.840   7.849  1.00  0.00     0.200 A 
ATOM     88  F   UNL     1       4.764  11.676   9.717  1.00  0.00    -0.200 F 
ATOM     89  F   UNL     1       4.589  11.200   7.036  1.00  0.00    -0.200 F 
ENDBRANCH  55  79
BRANCH  67  90
ATOM     90  C   UNL     1      -3.146  13.319  13.649  1.00  0.00     0.064 A 
ATOM     91  C   UNL     1      -2.883  13.877  14.909  1.00  0.00     0.173 A 
ATOM     92  C   UNL     1      -3.743  14.140  12.680  1.00  0.00     0.173 A 
ATOM     93  F   UNL     1      -2.320  13.134  15.874  1.00  0.00    -0.203 F 
ATOM     94  C   UNL     1      -3.222  15.197  15.195  1.00  0.00     0.198 A 
ATOM     95  C   UNL     1      -4.050  15.469  12.959  1.00  0.00     0.198 A 
ATOM     96  F   UNL     1      -4.003  13.659  11.455  1.00  0.00    -0.203 F 
ATOM     97  F   UNL     1      -2.995  15.696  16.418  1.00  0.00    -0.200 F 
ATOM     98  C   UNL     1      -3.799  15.993  14.218  1.00  0.00     0.200 A 
ATOM     99  F   UNL     1      -4.583  16.245  12.005  1.00  0.00    -0.200 F 
ATOM    100  F   UNL     1      -4.111  17.268  14.489  1.00  0.00    -0.200 F 
ENDBRANCH  67  90
ENDBRANCH  41  42
ENDBRANCH  33  36
ENDBRANCH  31  32
ENDBRANCH  30  31
ENDBRANCH   1  30
TORSDOF 15
