REMARK SMILES NC(=O)C[C@H](NC(=O)C1(c2ccccc2)CCN(C(=O)[C@@H]2CCC[NH2+]2)CC1)C(=O)NCCCCNC(=O)c1ccc(-c2c3nc(c(-c4c(F)c(F)c(F)c(F)c4F)c4ccc([nH]4)c(-c4c(F)c(F)c(F)c(F)c4F)c4nc(c(-c5c(F)c(F)c(F)c(F)c5F)c5ccc2[nH]5)C=C4)C=C3)cc1
REMARK SMILES IDX 32 1 31 2 30 3 28 4 29 5 5 7 4 8 2 9 1 10 3 13 6 14 7 15
REMARK SMILES IDX 8 17 9 18 16 19 27 20 17 21 26 22 18 23 19 24 20 25 10 26
REMARK SMILES IDX 11 27 15 28 12 29 14 30 13 31 21 32 22 33 25 34 23 35 24 36
REMARK SMILES IDX 33 39 34 40 35 41 36 42 37 44 38 45 39 46 100 47 40 48 99 49
REMARK SMILES IDX 41 50 42 51 43 52 93 53 44 54 98 55 92 56 94 57 45 58 97 59
REMARK SMILES IDX 91 60 90 61 46 63 78 64 58 65 77 66 59 67 62 68 76 69 95 70
REMARK SMILES IDX 60 71 61 72 75 74 96 75 63 76 47 77 48 78 56 79 49 80 50 81
REMARK SMILES IDX 54 82 57 83 51 84 52 85 55 86 53 87 79 88 80 89 88 90 81 91
REMARK SMILES IDX 82 92 86 93 89 94 83 95 84 96 87 97 85 98 64 99 65 100
REMARK SMILES IDX 73 101 66 102 67 103 71 104 74 105 68 106 69 107 72 108
REMARK SMILES IDX 70 109
REMARK H PARENT 30 6 1 11 1 12 6 16 25 37 25 38 35 43 94 62 62 73
REMARK Flexibility Score: inf
ROOT
ATOM      1  C   UNL     1       3.014  -1.292   4.919  1.00  0.00     0.023 C 
ENDROOT
BRANCH   1   2
ATOM      2  C   UNL     1       3.553  -2.157   3.777  1.00  0.00     0.116 C 
BRANCH   2   3
ATOM      3  N   UNL     1       2.787  -3.374   3.606  1.00  0.00    -0.354 N 
ATOM      4  C   UNL     1       1.937  -3.737   2.604  1.00  0.00     0.243 C 
ATOM      5  O   UNL     1       1.525  -4.902   2.611  1.00  0.00    -0.273 OA
ATOM      6  H   UNL     1       2.897  -4.041   4.322  1.00  0.00     0.163 HD
BRANCH   4   7
ATOM      7  C   UNL     1       1.621  -2.817   1.388  1.00  0.00     0.180 C 
BRANCH   7   8
ATOM      8  C   UNL     1       2.618  -3.177   0.291  1.00  0.00     0.134 C 
BRANCH   8   9
ATOM      9  C   UNL     1       2.151  -3.123  -1.151  1.00  0.00     0.220 C 
ATOM     10  N   UNL     1       0.865  -3.434  -1.451  1.00  0.00    -0.370 N 
ATOM     11  H   UNL     1       0.556  -3.401  -2.385  1.00  0.00     0.159 HD
ATOM     12  H   UNL     1       0.242  -3.693  -0.735  1.00  0.00     0.159 HD
ATOM     13  O   UNL     1       2.921  -2.828  -2.064  1.00  0.00    -0.275 OA
ENDBRANCH   8   9
ENDBRANCH   7   8
BRANCH   7  14
ATOM     14  N   UNL     1       1.300  -1.432   1.821  1.00  0.00    -0.343 N 
ATOM     15  C   UNL     1       1.628  -0.124   1.749  1.00  0.00     0.231 C 
ATOM     16  H   UNL     1       0.513  -1.494   2.409  1.00  0.00     0.164 HD
ATOM     17  O   UNL     1       1.032   0.548   2.608  1.00  0.00    -0.274 OA
BRANCH  15  18
ATOM     18  C   UNL     1       2.600   0.594   0.766  1.00  0.00     0.077 C 
ATOM     19  C   UNL     1       2.343   2.150   0.845  1.00  0.00     0.043 C 
ATOM     20  C   UNL     1       2.295   0.187  -0.682  1.00  0.00     0.043 C 
ATOM     21  C   UNL     1       1.009   2.600   0.225  1.00  0.00     0.121 C 
ATOM     22  C   UNL     1       0.918   0.613  -1.158  1.00  0.00     0.121 C 
ATOM     23  N   UNL     1       0.862   2.059  -1.125  1.00  0.00    -0.337 N 
ATOM     24  C   UNL     1       0.871   2.925  -2.214  1.00  0.00     0.280 C 
ATOM     25  O   UNL     1       0.909   4.149  -2.041  1.00  0.00    -0.268 OA
BRANCH  18  26
ATOM     26  C   UNL     1       4.071   0.322   1.165  1.00  0.00    -0.032 A 
ATOM     27  C   UNL     1       4.925  -0.489   0.396  1.00  0.00     0.005 A 
ATOM     28  C   UNL     1       4.610   0.877   2.341  1.00  0.00     0.005 A 
ATOM     29  C   UNL     1       6.214  -0.816   0.826  1.00  0.00     0.000 A 
ATOM     30  C   UNL     1       5.918   0.589   2.747  1.00  0.00     0.000 A 
ATOM     31  C   UNL     1       6.708  -0.284   2.009  1.00  0.00     0.000 A 
ENDBRANCH  18  26
BRANCH  24  32
ATOM     32  C   UNL     1       0.816   2.393  -3.667  1.00  0.00     0.272 C 
ATOM     33  C   UNL     1      -0.425   1.608  -4.047  1.00  0.00     0.081 C 
ATOM     34  N   UNL     1       1.984   1.564  -4.040  1.00  0.00    -0.336 N 
ATOM     35  C   UNL     1       0.037   0.758  -5.215  1.00  0.00     0.068 C 
ATOM     36  C   UNL     1       1.538   0.592  -5.039  1.00  0.00     0.261 C 
ATOM     37  H   UNL     1       2.341   1.078  -3.218  1.00  0.00     0.346 HD
ATOM     38  H   UNL     1       2.730   2.147  -4.418  1.00  0.00     0.346 HD
ENDBRANCH  24  32
ENDBRANCH  15  18
ENDBRANCH   7  14
ENDBRANCH   4   7
ENDBRANCH   2   3
ENDBRANCH   1   2
BRANCH   1  39
ATOM     39  C   UNL     1       3.692  -1.548   6.271  1.00  0.00     0.023 C 
BRANCH  39  40
ATOM     40  C   UNL     1       5.172  -1.165   6.343  1.00  0.00     0.116 C 
BRANCH  40  41
ATOM     41  N   UNL     1       5.426   0.249   6.126  1.00  0.00    -0.352 N 
ATOM     42  C   UNL     1       6.498   1.014   6.521  1.00  0.00     0.251 C 
ATOM     43  H   UNL     1       4.729   0.729   5.624  1.00  0.00     0.163 HD
ATOM     44  O   UNL     1       6.536   2.207   6.228  1.00  0.00    -0.269 OA
BRANCH  42  45
ATOM     45  C   UNL     1       7.574   0.430   7.351  1.00  0.00     0.039 A 
ATOM     46  C   UNL     1       7.997   1.151   8.472  1.00  0.00     0.014 A 
ATOM     47  C   UNL     1       8.141  -0.816   7.070  1.00  0.00     0.014 A 
ATOM     48  C   UNL     1       8.903   0.579   9.365  1.00  0.00     0.010 A 
ATOM     49  C   UNL     1       8.996  -1.414   7.995  1.00  0.00     0.010 A 
ATOM     50  C   UNL     1       9.364  -0.733   9.164  1.00  0.00    -0.014 A 
BRANCH  50  51
ATOM     51  C   UNL     1      10.158  -1.414  10.217  1.00  0.00     0.031 A 
ATOM     52  C   UNL     1      11.590  -1.795   9.988  1.00  0.00     0.074 A 
ATOM     53  C   UNL     1       9.555  -1.728  11.381  1.00  0.00     0.049 A 
ATOM     54  N   UNL     1      12.434  -2.365  10.812  1.00  0.00    -0.248 NA
ATOM     55  C   UNL     1      12.143  -1.523   8.653  1.00  0.00     0.031 C 
ATOM     56  C   UNL     1       8.147  -1.474  11.696  1.00  0.00     0.029 A 
ATOM     57  N   UNL     1      10.045  -2.323  12.516  1.00  0.00    -0.354 N 
ATOM     58  C   UNL     1      13.615  -2.517  10.099  1.00  0.00     0.074 A 
ATOM     59  C   UNL     1      13.363  -2.031   8.758  1.00  0.00     0.031 C 
ATOM     60  C   UNL     1       7.897  -1.877  12.952  1.00  0.00     0.029 A 
ATOM     61  C   UNL     1       9.116  -2.441  13.521  1.00  0.00     0.049 A 
ATOM     62  H   UNL     1      10.974  -2.637  12.602  1.00  0.00     0.167 HD
ATOM     63  C   UNL     1      14.806  -2.995  10.532  1.00  0.00     0.037 A 
ATOM     64  C   UNL     1       9.236  -2.938  14.767  1.00  0.00     0.037 A 
ATOM     65  C   UNL     1      15.055  -3.469  11.870  1.00  0.00     0.049 A 
ATOM     66  C   UNL     1      10.573  -3.448  15.225  1.00  0.00     0.074 A 
ATOM     67  C   UNL     1      16.242  -3.919  12.421  1.00  0.00     0.029 A 
ATOM     68  N   UNL     1      14.094  -3.559  12.867  1.00  0.00    -0.354 N 
ATOM     69  N   UNL     1      11.707  -3.503  14.570  1.00  0.00    -0.248 NA
ATOM     70  C   UNL     1      10.650  -3.953  16.603  1.00  0.00     0.031 C 
ATOM     71  C   UNL     1      15.991  -4.323  13.737  1.00  0.00     0.029 A 
ATOM     72  C   UNL     1      14.657  -4.078  14.023  1.00  0.00     0.049 A 
ATOM     73  H   UNL     1      13.152  -3.293  12.768  1.00  0.00     0.167 HD
ATOM     74  C   UNL     1      12.636  -4.026  15.459  1.00  0.00     0.074 A 
ATOM     75  C   UNL     1      11.938  -4.250  16.708  1.00  0.00     0.031 C 
ATOM     76  C   UNL     1      13.949  -4.298  15.258  1.00  0.00     0.037 A 
BRANCH  63  77
ATOM     77  C   UNL     1      15.939  -3.024   9.547  1.00  0.00     0.064 A 
ATOM     78  C   UNL     1      16.552  -1.844   9.099  1.00  0.00     0.173 A 
ATOM     79  C   UNL     1      16.443  -4.245   9.072  1.00  0.00     0.173 A 
ATOM     80  F   UNL     1      16.102  -0.650   9.514  1.00  0.00    -0.203 F 
ATOM     81  C   UNL     1      17.608  -1.883   8.192  1.00  0.00     0.198 A 
ATOM     82  C   UNL     1      17.518  -4.281   8.187  1.00  0.00     0.198 A 
ATOM     83  F   UNL     1      15.898  -5.403   9.472  1.00  0.00    -0.203 F 
ATOM     84  F   UNL     1      18.145  -0.740   7.742  1.00  0.00    -0.200 F 
ATOM     85  C   UNL     1      18.094  -3.101   7.742  1.00  0.00     0.200 A 
ATOM     86  F   UNL     1      17.994  -5.459   7.762  1.00  0.00    -0.200 F 
ATOM     87  F   UNL     1      19.113  -3.137   6.873  1.00  0.00    -0.200 F 
ENDBRANCH  63  77
BRANCH  64  88
ATOM     88  C   UNL     1       8.065  -2.937  15.681  1.00  0.00     0.064 A 
ATOM     89  C   UNL     1       8.022  -2.086  16.794  1.00  0.00     0.173 A 
ATOM     90  C   UNL     1       6.969  -3.785  15.466  1.00  0.00     0.173 A 
ATOM     91  F   UNL     1       9.055  -1.270  17.053  1.00  0.00    -0.203 F 
ATOM     92  C   UNL     1       6.938  -2.098  17.669  1.00  0.00     0.198 A 
ATOM     93  C   UNL     1       5.873  -3.776  16.325  1.00  0.00     0.198 A 
ATOM     94  F   UNL     1       6.958  -4.613  14.411  1.00  0.00    -0.203 F 
ATOM     95  F   UNL     1       6.944  -1.307  18.751  1.00  0.00    -0.200 F 
ATOM     96  C   UNL     1       5.862  -2.939  17.431  1.00  0.00     0.200 A 
ATOM     97  F   UNL     1       4.828  -4.580  16.083  1.00  0.00    -0.200 F 
ATOM     98  F   UNL     1       4.817  -2.949  18.270  1.00  0.00    -0.200 F 
ENDBRANCH  64  88
BRANCH  76  99
ATOM     99  C   UNL     1      14.716  -4.849  16.424  1.00  0.00     0.064 A 
ATOM    100  C   UNL     1      14.508  -6.156  16.890  1.00  0.00     0.173 A 
ATOM    101  C   UNL     1      15.683  -4.067  17.073  1.00  0.00     0.173 A 
ATOM    102  F   UNL     1      13.583  -6.939  16.314  1.00  0.00    -0.203 F 
ATOM    103  C   UNL     1      15.215  -6.647  17.984  1.00  0.00     0.198 A 
ATOM    104  C   UNL     1      16.410  -4.571  18.147  1.00  0.00     0.198 A 
ATOM    105  F   UNL     1      15.925  -2.813  16.663  1.00  0.00    -0.203 F 
ATOM    106  F   UNL     1      14.959  -7.878  18.447  1.00  0.00    -0.200 F 
ATOM    107  C   UNL     1      16.169  -5.857  18.608  1.00  0.00     0.200 A 
ATOM    108  F   UNL     1      17.340  -3.811  18.742  1.00  0.00    -0.200 F 
ATOM    109  F   UNL     1      16.849  -6.331  19.661  1.00  0.00    -0.200 F 
ENDBRANCH  76  99
ENDBRANCH  50  51
ENDBRANCH  42  45
ENDBRANCH  40  41
ENDBRANCH  39  40
ENDBRANCH   1  39
TORSDOF 17
