REMARK SMILES O=C(NCCCCNC(=O)c1ccccc1NC(=O)c1ccc(N2C(=O)[C@H]3CC=CC[C@H]3C2=O)cc1)c1ccc(-c2c3nc(c(-c4c(F)c(F)c(F)c(F)c4F)c4ccc([nH]4)c(-c4c(F)c(F)c(F)c(F)c4F)c4nc(c(-c5c(F)c(F)c(F)c(F)c5F)c5ccc2[nH]5)C=C4)C=C3)cc1
REMARK SMILES IDX 6 1 5 2 4 3 3 4 1 5 2 6 37 8 38 9 99 10 39 11 98 12 40 13
REMARK SMILES IDX 41 14 42 15 92 16 43 17 97 18 91 19 93 20 44 21 96 22 90 23
REMARK SMILES IDX 89 24 45 26 77 27 57 28 76 29 58 30 61 31 75 32 94 33 59 34
REMARK SMILES IDX 60 35 74 37 95 38 62 39 46 40 47 41 55 42 48 43 49 44 53 45
REMARK SMILES IDX 56 46 50 47 51 48 54 49 52 50 78 51 79 52 87 53 80 54 81 55
REMARK SMILES IDX 85 56 88 57 82 58 83 59 86 60 84 61 63 62 64 63 72 64 65 65
REMARK SMILES IDX 66 66 70 67 73 68 67 69 68 70 71 71 69 72 7 73 8 74 9 75
REMARK SMILES IDX 10 77 11 78 12 79 16 80 13 81 15 82 14 83 17 84 18 85 19 87
REMARK SMILES IDX 20 88 21 89 36 90 22 91 35 92 23 93 24 94 25 95 33 96 26 97
REMARK SMILES IDX 27 98 32 99 34 100 28 101 31 102 29 103 30 104
REMARK H PARENT 3 7 93 25 61 36 8 76 17 86
REMARK Flexibility Score: inf
ROOT
ATOM      1  C   UNL     1       4.352   2.556  -3.194  1.00  0.00     0.023 C 
ENDROOT
BRANCH   1   2
ATOM      2  C   UNL     1       4.846   1.266  -2.542  1.00  0.00     0.023 C 
BRANCH   2   3
ATOM      3  C   UNL     1       4.545   1.124  -1.056  1.00  0.00     0.116 C 
BRANCH   3   4
ATOM      4  N   UNL     1       3.123   1.031  -0.766  1.00  0.00    -0.352 N 
ATOM      5  O   UNL     1       1.200   0.055  -0.093  1.00  0.00    -0.269 OA
ATOM      6  C   UNL     1       2.427   0.031  -0.128  1.00  0.00     0.251 C 
ATOM      7  H   UNL     1       2.580   1.795  -1.069  1.00  0.00     0.163 HD
BRANCH   6   8
ATOM      8  C   UNL     1       3.159  -1.097   0.489  1.00  0.00     0.039 A 
ATOM      9  C   UNL     1       4.298  -0.867   1.261  1.00  0.00     0.014 A 
ATOM     10  C   UNL     1       2.702  -2.403   0.288  1.00  0.00     0.014 A 
ATOM     11  C   UNL     1       5.071  -1.941   1.686  1.00  0.00     0.010 A 
ATOM     12  C   UNL     1       3.428  -3.483   0.804  1.00  0.00     0.010 A 
ATOM     13  C   UNL     1       4.638  -3.261   1.477  1.00  0.00    -0.014 A 
BRANCH  13  14
ATOM     14  C   UNL     1       5.444  -4.375   2.042  1.00  0.00     0.031 A 
ATOM     15  C   UNL     1       6.123  -5.383   1.158  1.00  0.00     0.074 A 
ATOM     16  C   UNL     1       5.606  -4.428   3.378  1.00  0.00     0.049 A 
ATOM     17  N   UNL     1       6.911  -6.374   1.496  1.00  0.00    -0.248 NA
ATOM     18  C   UNL     1       5.886  -5.276  -0.290  1.00  0.00     0.031 C 
ATOM     19  C   UNL     1       4.977  -3.515   4.337  1.00  0.00     0.029 A 
ATOM     20  N   UNL     1       6.368  -5.256   4.162  1.00  0.00    -0.354 N 
ATOM     21  C   UNL     1       7.254  -7.013   0.311  1.00  0.00     0.074 A 
ATOM     22  C   UNL     1       6.568  -6.315  -0.756  1.00  0.00     0.031 C 
ATOM     23  C   UNL     1       5.424  -3.793   5.569  1.00  0.00     0.029 A 
ATOM     24  C   UNL     1       6.321  -4.940   5.497  1.00  0.00     0.049 A 
ATOM     25  H   UNL     1       6.897  -6.004   3.801  1.00  0.00     0.167 HD
ATOM     26  C   UNL     1       8.075  -8.076   0.133  1.00  0.00     0.037 A 
ATOM     27  C   UNL     1       6.925  -5.515   6.553  1.00  0.00     0.037 A 
ATOM     28  C   UNL     1       8.768  -8.758   1.198  1.00  0.00     0.049 A 
ATOM     29  C   UNL     1       7.829  -6.691   6.321  1.00  0.00     0.074 A 
ATOM     30  C   UNL     1       9.634  -9.835   1.115  1.00  0.00     0.029 A 
ATOM     31  N   UNL     1       8.675  -8.426   2.542  1.00  0.00    -0.354 N 
ATOM     32  N   UNL     1       8.159  -7.269   5.192  1.00  0.00    -0.248 NA
ATOM     33  C   UNL     1       8.440  -7.297   7.510  1.00  0.00     0.031 C 
ATOM     34  C   UNL     1      10.037 -10.178   2.411  1.00  0.00     0.029 A 
ATOM     35  C   UNL     1       9.456  -9.287   3.298  1.00  0.00     0.049 A 
ATOM     36  H   UNL     1       8.134  -7.687   2.905  1.00  0.00     0.167 HD
ATOM     37  C   UNL     1       9.018  -8.303   5.532  1.00  0.00     0.074 A 
ATOM     38  C   UNL     1       9.187  -8.249   6.970  1.00  0.00     0.031 C 
ATOM     39  C   UNL     1       9.604  -9.223   4.729  1.00  0.00     0.037 A 
BRANCH  26  40
ATOM     40  C   UNL     1       8.277  -8.582  -1.266  1.00  0.00     0.064 A 
ATOM     41  C   UNL     1       9.065  -7.884  -2.192  1.00  0.00     0.173 A 
ATOM     42  C   UNL     1       7.741  -9.818  -1.660  1.00  0.00     0.173 A 
ATOM     43  F   UNL     1       9.592  -6.694  -1.868  1.00  0.00    -0.203 F 
ATOM     44  C   UNL     1       9.301  -8.399  -3.465  1.00  0.00     0.198 A 
ATOM     45  C   UNL     1       7.998 -10.341  -2.925  1.00  0.00     0.198 A 
ATOM     46  F   UNL     1       6.985 -10.530  -0.810  1.00  0.00    -0.203 F 
ATOM     47  F   UNL     1      10.037  -7.703  -4.342  1.00  0.00    -0.200 F 
ATOM     48  C   UNL     1       8.776  -9.631  -3.827  1.00  0.00     0.200 A 
ATOM     49  F   UNL     1       7.500 -11.537  -3.269  1.00  0.00    -0.200 F 
ATOM     50  F   UNL     1       9.018 -10.132  -5.046  1.00  0.00    -0.200 F 
ENDBRANCH  26  40
BRANCH  27  51
ATOM     51  C   UNL     1       6.683  -4.989   7.920  1.00  0.00     0.064 A 
ATOM     52  C   UNL     1       7.702  -4.358   8.645  1.00  0.00     0.173 A 
ATOM     53  C   UNL     1       5.424  -5.106   8.527  1.00  0.00     0.173 A 
ATOM     54  F   UNL     1       8.928  -4.241   8.114  1.00  0.00    -0.203 F 
ATOM     55  C   UNL     1       7.476  -3.881   9.935  1.00  0.00     0.198 A 
ATOM     56  C   UNL     1       5.190  -4.599   9.803  1.00  0.00     0.198 A 
ATOM     57  F   UNL     1       4.414  -5.697   7.872  1.00  0.00    -0.203 F 
ATOM     58  F   UNL     1       8.480  -3.324  10.626  1.00  0.00    -0.200 F 
ATOM     59  C   UNL     1       6.219  -3.995  10.509  1.00  0.00     0.200 A 
ATOM     60  F   UNL     1       3.970  -4.697  10.347  1.00  0.00    -0.200 F 
ATOM     61  F   UNL     1       6.001  -3.531  11.747  1.00  0.00    -0.200 F 
ENDBRANCH  27  51
BRANCH  39  62
ATOM     62  C   UNL     1      10.483 -10.238   5.397  1.00  0.00     0.064 A 
ATOM     63  C   UNL     1       9.944 -11.266   6.184  1.00  0.00     0.173 A 
ATOM     64  C   UNL     1      11.877 -10.182   5.249  1.00  0.00     0.173 A 
ATOM     65  F   UNL     1       8.617 -11.349   6.369  1.00  0.00    -0.203 F 
ATOM     66  C   UNL     1      10.771 -12.182   6.827  1.00  0.00     0.198 A 
ATOM     67  C   UNL     1      12.699 -11.116   5.872  1.00  0.00     0.198 A 
ATOM     68  F   UNL     1      12.440  -9.220   4.503  1.00  0.00    -0.203 F 
ATOM     69  F   UNL     1      10.237 -13.121   7.621  1.00  0.00    -0.200 F 
ATOM     70  C   UNL     1      12.146 -12.109   6.668  1.00  0.00     0.200 A 
ATOM     71  F   UNL     1      14.027 -11.051   5.710  1.00  0.00    -0.200 F 
ATOM     72  F   UNL     1      12.942 -12.989   7.292  1.00  0.00    -0.200 F 
ENDBRANCH  39  62
ENDBRANCH  13  14
ENDBRANCH   6   8
ENDBRANCH   3   4
ENDBRANCH   2   3
ENDBRANCH   1   2
BRANCH   1  73
ATOM     73  C   UNL     1       4.721   3.841  -2.460  1.00  0.00     0.116 C 
BRANCH  73  74
ATOM     74  N   UNL     1       6.149   3.950  -2.205  1.00  0.00    -0.352 N 
ATOM     75  C   UNL     1       7.020   4.960  -2.517  1.00  0.00     0.253 C 
ATOM     76  H   UNL     1       6.551   3.181  -1.738  1.00  0.00     0.163 HD
ATOM     77  O   UNL     1       8.224   4.803  -2.335  1.00  0.00    -0.269 OA
BRANCH  75  78
ATOM     78  C   UNL     1       6.529   6.241  -3.065  1.00  0.00     0.063 A 
ATOM     79  C   UNL     1       7.089   6.632  -4.291  1.00  0.00     0.016 A 
ATOM     80  C   UNL     1       5.599   7.061  -2.389  1.00  0.00     0.054 A 
ATOM     81  C   UNL     1       6.724   7.842  -4.869  1.00  0.00     0.001 A 
ATOM     82  C   UNL     1       5.309   8.304  -2.957  1.00  0.00     0.027 A 
ATOM     83  C   UNL     1       5.845   8.682  -4.195  1.00  0.00     0.002 A 
BRANCH  80  84
ATOM     84  N   UNL     1       5.026   6.595  -1.181  1.00  0.00    -0.321 N 
ATOM     85  C   UNL     1       3.916   6.941  -0.447  1.00  0.00     0.255 C 
ATOM     86  H   UNL     1       5.537   5.858  -0.776  1.00  0.00     0.170 HD
ATOM     87  O   UNL     1       3.661   6.329   0.589  1.00  0.00    -0.269 OA
BRANCH  85  88
ATOM     88  C   UNL     1       3.007   8.018  -0.858  1.00  0.00     0.040 A 
ATOM     89  C   UNL     1       2.899   9.117  -0.014  1.00  0.00     0.016 A 
ATOM     90  C   UNL     1       2.298   7.982  -2.059  1.00  0.00     0.016 A 
ATOM     91  C   UNL     1       2.195  10.244  -0.438  1.00  0.00     0.027 A 
ATOM     92  C   UNL     1       1.595   9.123  -2.478  1.00  0.00     0.027 A 
ATOM     93  C   UNL     1       1.583  10.298  -1.702  1.00  0.00     0.052 A 
BRANCH  93  94
ATOM     94  N   UNL     1       1.038  11.523  -2.199  1.00  0.00    -0.250 N 
ATOM     95  C   UNL     1       1.409  12.766  -1.734  1.00  0.00     0.238 C 
ATOM     96  C   UNL     1       0.147  11.620  -3.241  1.00  0.00     0.238 C 
ATOM     97  O   UNL     1       2.211  13.042  -0.849  1.00  0.00    -0.274 OA
ATOM     98  C   UNL     1       0.693  13.840  -2.513  1.00  0.00     0.096 C 
ATOM     99  C   UNL     1      -0.116  13.074  -3.555  1.00  0.00     0.096 C 
ATOM    100  O   UNL     1      -0.423  10.716  -3.841  1.00  0.00    -0.274 OA
ATOM    101  C   UNL     1       1.704  14.857  -3.052  1.00  0.00     0.041 C 
ATOM    102  C   UNL     1       0.216  13.363  -5.023  1.00  0.00     0.041 C 
ATOM    103  C   UNL     1       2.340  14.425  -4.338  1.00  0.00    -0.030 C 
ATOM    104  C   UNL     1       1.651  13.729  -5.250  1.00  0.00    -0.030 C 
ENDBRANCH  93  94
ENDBRANCH  85  88
ENDBRANCH  80  84
ENDBRANCH  75  78
ENDBRANCH  73  74
ENDBRANCH   1  73
TORSDOF 14
