REMARK SMILES O=C(NCCCCNC(=O)c1cc(Br)n(Cc2ccn(C3CCCC3)n2)c1)c1ccc(-c2c3nc(c(-c4c(F)c(F)c(F)c(F)c4F)c4ccc([nH]4)c(-c4c(F)c(F)c(F)c(F)c4F)c4nc(c(-c5c(F)c(F)c(F)c(F)c5F)c5ccc2[nH]5)C=C4)C=C3)cc1
REMARK SMILES IDX 6 1 5 2 4 3 3 4 1 5 2 6 28 8 29 9 90 10 30 11 89 12 31 13
REMARK SMILES IDX 32 14 33 15 83 16 34 17 88 18 82 19 84 20 35 21 87 22 81 23
REMARK SMILES IDX 80 24 36 26 68 27 48 28 67 29 49 30 52 31 66 32 85 33 50 34
REMARK SMILES IDX 51 35 65 37 86 38 53 39 37 40 38 41 46 42 39 43 40 44 44 45
REMARK SMILES IDX 47 46 41 47 42 48 45 49 43 50 69 51 70 52 78 53 71 54 72 55
REMARK SMILES IDX 76 56 79 57 73 58 74 59 77 60 75 61 54 62 55 63 63 64 56 65
REMARK SMILES IDX 57 66 61 67 64 68 58 69 59 70 62 71 60 72 7 73 8 74 9 75
REMARK SMILES IDX 10 77 11 78 12 79 27 80 13 81 15 82 14 83 16 84 17 85 18 86
REMARK SMILES IDX 26 87 19 88 20 89 21 90 22 91 25 92 23 93 24 94
REMARK H PARENT 3 7 84 25 52 36 8 76
REMARK Flexibility Score: inf
ROOT
ATOM      1  C   UNL     1       4.391  -3.334   1.148  1.00  0.00     0.023 C 
ENDROOT
BRANCH   1   2
ATOM      2  C   UNL     1       4.877  -1.881   1.207  1.00  0.00     0.023 C 
BRANCH   2   3
ATOM      3  C   UNL     1       4.555  -1.044  -0.027  1.00  0.00     0.116 C 
BRANCH   3   4
ATOM      4  N   UNL     1       3.143  -0.900  -0.300  1.00  0.00    -0.352 N 
ATOM      5  O   UNL     1       1.143  -0.004  -0.575  1.00  0.00    -0.269 OA
ATOM      6  C   UNL     1       2.196   0.015   0.067  1.00  0.00     0.251 C 
ATOM      7  H   UNL     1       2.786  -1.616  -0.875  1.00  0.00     0.163 HD
BRANCH   6   8
ATOM      8  C   UNL     1       2.298   0.917   1.247  1.00  0.00     0.039 A 
ATOM      9  C   UNL     1       3.459   1.266   1.938  1.00  0.00     0.014 A 
ATOM     10  C   UNL     1       1.065   1.401   1.724  1.00  0.00     0.014 A 
ATOM     11  C   UNL     1       3.371   1.949   3.156  1.00  0.00     0.010 A 
ATOM     12  C   UNL     1       0.971   2.078   2.931  1.00  0.00     0.010 A 
ATOM     13  C   UNL     1       2.119   2.302   3.682  1.00  0.00    -0.014 A 
BRANCH  13  14
ATOM     14  C   UNL     1       2.035   3.216   4.829  1.00  0.00     0.031 A 
ATOM     15  C   UNL     1       2.564   4.558   4.441  1.00  0.00     0.074 A 
ATOM     16  C   UNL     1       1.424   2.926   6.007  1.00  0.00     0.049 A 
ATOM     17  N   UNL     1       3.653   5.109   4.865  1.00  0.00    -0.248 NA
ATOM     18  C   UNL     1       1.974   5.261   3.284  1.00  0.00     0.031 C 
ATOM     19  C   UNL     1       0.739   1.681   6.368  1.00  0.00     0.029 A 
ATOM     20  N   UNL     1       1.205   3.711   7.123  1.00  0.00    -0.354 N 
ATOM     21  C   UNL     1       3.718   6.352   4.235  1.00  0.00     0.074 A 
ATOM     22  C   UNL     1       2.823   6.279   3.119  1.00  0.00     0.031 C 
ATOM     23  C   UNL     1      -0.012   1.866   7.480  1.00  0.00     0.029 A 
ATOM     24  C   UNL     1       0.219   3.199   7.998  1.00  0.00     0.049 A 
ATOM     25  H   UNL     1       1.691   4.550   7.293  1.00  0.00     0.167 HD
ATOM     26  C   UNL     1       4.184   7.423   4.938  1.00  0.00     0.037 A 
ATOM     27  C   UNL     1      -0.368   3.842   9.053  1.00  0.00     0.037 A 
ATOM     28  C   UNL     1       4.957   6.949   6.066  1.00  0.00     0.049 A 
ATOM     29  C   UNL     1       0.540   4.941   9.437  1.00  0.00     0.074 A 
ATOM     30  C   UNL     1       6.125   6.248   6.278  1.00  0.00     0.029 A 
ATOM     31  N   UNL     1       4.201   6.806   7.194  1.00  0.00    -0.354 N 
ATOM     32  N   UNL     1       1.712   4.747   9.971  1.00  0.00    -0.248 NA
ATOM     33  C   UNL     1       0.341   6.218   8.779  1.00  0.00     0.031 C 
ATOM     34  C   UNL     1       5.910   5.486   7.473  1.00  0.00     0.029 A 
ATOM     35  C   UNL     1       4.668   5.824   8.006  1.00  0.00     0.049 A 
ATOM     36  H   UNL     1       3.407   7.352   7.394  1.00  0.00     0.167 HD
ATOM     37  C   UNL     1       2.535   5.626   9.290  1.00  0.00     0.074 A 
ATOM     38  C   UNL     1       1.619   6.582   8.657  1.00  0.00     0.031 C 
ATOM     39  C   UNL     1       3.840   5.285   9.058  1.00  0.00     0.037 A 
BRANCH  26  40
ATOM     40  C   UNL     1       3.417   8.753   5.038  1.00  0.00     0.064 A 
ATOM     41  C   UNL     1       3.903   9.731   5.937  1.00  0.00     0.173 A 
ATOM     42  C   UNL     1       2.088   8.967   4.601  1.00  0.00     0.173 A 
ATOM     43  F   UNL     1       5.146   9.642   6.435  1.00  0.00    -0.203 F 
ATOM     44  C   UNL     1       3.093  10.758   6.439  1.00  0.00     0.198 A 
ATOM     45  C   UNL     1       1.296  10.015   5.074  1.00  0.00     0.198 A 
ATOM     46  F   UNL     1       1.449   8.132   3.779  1.00  0.00    -0.203 F 
ATOM     47  F   UNL     1       3.562  11.570   7.395  1.00  0.00    -0.200 F 
ATOM     48  C   UNL     1       1.785  10.891   6.016  1.00  0.00     0.200 A 
ATOM     49  F   UNL     1       0.023  10.111   4.665  1.00  0.00    -0.200 F 
ATOM     50  F   UNL     1       0.986  11.828   6.541  1.00  0.00    -0.200 F 
ENDBRANCH  26  40
BRANCH  27  51
ATOM     51  C   UNL     1      -1.778   3.821   9.552  1.00  0.00     0.064 A 
ATOM     52  C   UNL     1      -2.154   4.441  10.766  1.00  0.00     0.173 A 
ATOM     53  C   UNL     1      -2.836   3.479   8.692  1.00  0.00     0.173 A 
ATOM     54  F   UNL     1      -1.219   4.859  11.633  1.00  0.00    -0.203 F 
ATOM     55  C   UNL     1      -3.495   4.721  11.077  1.00  0.00     0.198 A 
ATOM     56  C   UNL     1      -4.171   3.761   9.002  1.00  0.00     0.198 A 
ATOM     57  F   UNL     1      -2.588   2.958   7.483  1.00  0.00    -0.203 F 
ATOM     58  F   UNL     1      -3.805   5.367  12.211  1.00  0.00    -0.200 F 
ATOM     59  C   UNL     1      -4.501   4.392  10.187  1.00  0.00     0.200 A 
ATOM     60  F   UNL     1      -5.131   3.477   8.110  1.00  0.00    -0.200 F 
ATOM     61  F   UNL     1      -5.776   4.719  10.446  1.00  0.00    -0.200 F 
ENDBRANCH  27  51
BRANCH  39  62
ATOM     62  C   UNL     1       4.430   4.189   9.895  1.00  0.00     0.064 A 
ATOM     63  C   UNL     1       4.018   2.846   9.879  1.00  0.00     0.173 A 
ATOM     64  C   UNL     1       5.538   4.518  10.688  1.00  0.00     0.173 A 
ATOM     65  F   UNL     1       3.027   2.436   9.074  1.00  0.00    -0.203 F 
ATOM     66  C   UNL     1       4.663   1.889  10.665  1.00  0.00     0.198 A 
ATOM     67  C   UNL     1       6.203   3.557  11.438  1.00  0.00     0.198 A 
ATOM     68  F   UNL     1       6.004   5.777  10.699  1.00  0.00    -0.203 F 
ATOM     69  F   UNL     1       4.245   0.615  10.653  1.00  0.00    -0.200 F 
ATOM     70  C   UNL     1       5.756   2.246  11.440  1.00  0.00     0.200 A 
ATOM     71  F   UNL     1       7.290   3.900  12.140  1.00  0.00    -0.200 F 
ATOM     72  F   UNL     1       6.395   1.323  12.172  1.00  0.00    -0.200 F 
ENDBRANCH  39  62
ENDBRANCH  13  14
ENDBRANCH   6   8
ENDBRANCH   3   4
ENDBRANCH   2   3
ENDBRANCH   1   2
BRANCH   1  73
ATOM     73  C   UNL     1       4.838  -4.127  -0.081  1.00  0.00     0.116 C 
BRANCH  73  74
ATOM     74  N   UNL     1       6.285  -4.253  -0.149  1.00  0.00    -0.352 N 
ATOM     75  C   UNL     1       7.033  -5.395  -0.119  1.00  0.00     0.252 C 
ATOM     76  H   UNL     1       6.788  -3.410  -0.226  1.00  0.00     0.163 HD
ATOM     77  O   UNL     1       8.261  -5.310   0.059  1.00  0.00    -0.269 OA
BRANCH  75  78
ATOM     78  C   UNL     1       6.368  -6.667  -0.315  1.00  0.00     0.058 A 
ATOM     79  C   UNL     1       5.494  -7.039  -1.376  1.00  0.00     0.049 A 
ATOM     80  C   UNL     1       6.521  -7.795   0.473  1.00  0.00     0.101 A 
ATOM     81  C   UNL     1       5.166  -8.363  -1.204  1.00  0.00     0.086 A 
ATOM     82  N   UNL     1       5.702  -8.792  -0.014  1.00  0.00    -0.335 N 
ATOM     83  Br  UNL     1       4.196  -9.329  -2.475  1.00  0.00    -0.031 Br
BRANCH  82  84
ATOM     84  C   UNL     1       5.578 -10.119   0.591  1.00  0.00     0.180 C 
BRANCH  84  85
ATOM     85  C   UNL     1       4.273 -10.313   1.308  1.00  0.00     0.082 A 
ATOM     86  C   UNL     1       2.975 -10.408   0.747  1.00  0.00     0.047 A 
ATOM     87  N   UNL     1       4.232 -10.518   2.638  1.00  0.00    -0.176 NA
ATOM     88  C   UNL     1       2.132 -10.652   1.800  1.00  0.00     0.109 A 
ATOM     89  N   UNL     1       2.924 -10.726   2.907  1.00  0.00    -0.269 N 
BRANCH  89  90
ATOM     90  C   UNL     1       2.457 -11.045   4.237  1.00  0.00     0.107 C 
ATOM     91  C   UNL     1       3.059 -12.307   4.847  1.00  0.00     0.027 C 
ATOM     92  C   UNL     1       2.737  -9.983   5.296  1.00  0.00     0.027 C 
ATOM     93  C   UNL     1       2.637 -12.214   6.309  1.00  0.00     0.002 C 
ATOM     94  C   UNL     1       2.552 -10.718   6.624  1.00  0.00     0.002 C 
ENDBRANCH  89  90
ENDBRANCH  84  85
ENDBRANCH  82  84
ENDBRANCH  75  78
ENDBRANCH  73  74
ENDBRANCH   1  73
TORSDOF 14
