REMARK SMILES CC[C@@](O)(C(=O)NCCCCNC(=O)c1ccc(-c2c3nc(c(-c4c(F)c(F)c(F)c(F)c4F)c4ccc([nH]4)c(-c4c(F)c(F)c(F)c(F)c4F)c4nc(c(-c5c(F)c(F)c(F)c(F)c5F)c5ccc2[nH]5)C=C4)C=C3)cc1)[C@H]1CCc2ccc(OC)cc21
REMARK SMILES IDX 9 1 8 2 7 3 5 4 6 5 3 7 2 8 1 9 4 10 78 12 79 13 88 14 80 15
REMARK SMILES IDX 81 16 87 17 82 18 84 19 83 20 85 21 86 22 10 23 11 24 12 25
REMARK SMILES IDX 13 26 14 28 15 29 16 30 77 31 17 32 76 33 18 34 19 35 20 36
REMARK SMILES IDX 70 37 21 38 75 39 69 40 71 41 22 42 74 43 68 44 67 45 23 47
REMARK SMILES IDX 55 48 35 49 54 50 36 51 39 52 53 53 72 54 37 55 38 56 52 58
REMARK SMILES IDX 73 59 40 60 24 61 25 62 33 63 26 64 27 65 31 66 34 67 28 68
REMARK SMILES IDX 29 69 32 70 30 71 56 72 57 73 65 74 58 75 59 76 63 77 66 78
REMARK SMILES IDX 60 79 61 80 64 81 62 82 41 83 42 84 50 85 43 86 44 87 48 88
REMARK SMILES IDX 51 89 45 90 46 91 49 92 47 93
REMARK H PARENT 7 6 4 11 12 27 71 46 39 57
REMARK Flexibility Score: inf
ROOT
ATOM      1  C   UNL     1      -2.825   2.186   1.773  1.00  0.00     0.023 C 
ENDROOT
BRANCH   1   2
ATOM      2  C   UNL     1      -2.041   3.275   1.031  1.00  0.00     0.116 C 
BRANCH   2   3
ATOM      3  N   UNL     1      -0.818   3.546   1.747  1.00  0.00    -0.354 N 
ATOM      4  C   UNL     1       0.380   2.889   1.702  1.00  0.00     0.252 C 
ATOM      5  O   UNL     1       1.162   3.155   2.622  1.00  0.00    -0.272 OA
ATOM      6  H   UNL     1      -0.851   4.318   2.357  1.00  0.00     0.163 HD
BRANCH   4   7
ATOM      7  C   UNL     1       0.761   1.908   0.533  1.00  0.00     0.149 C 
BRANCH   7   8
ATOM      8  C   UNL     1      -0.239   0.726   0.369  1.00  0.00     0.043 C 
ATOM      9  C   UNL     1      -0.005  -0.263  -0.767  1.00  0.00     0.007 C 
ENDBRANCH   7   8
BRANCH   7  10
ATOM     10  O   UNL     1       0.662   2.741  -0.643  1.00  0.00    -0.379 OA
ATOM     11  H   UNL     1      -0.264   2.996  -0.783  1.00  0.00     0.212 HD
ENDBRANCH   7  10
BRANCH   7  12
ATOM     12  C   UNL     1       2.260   1.479   0.784  1.00  0.00     0.061 C 
ATOM     13  C   UNL     1       2.398   0.315   1.813  1.00  0.00     0.017 C 
ATOM     14  C   UNL     1       3.006   0.928  -0.404  1.00  0.00    -0.035 A 
ATOM     15  C   UNL     1       3.509  -0.624   1.332  1.00  0.00     0.036 C 
ATOM     16  C   UNL     1       3.563  -0.320  -0.128  1.00  0.00    -0.044 A 
ATOM     17  C   UNL     1       3.191   1.527  -1.644  1.00  0.00     0.050 A 
ATOM     18  C   UNL     1       4.119  -1.082  -1.139  1.00  0.00     0.008 A 
ATOM     19  C   UNL     1       3.777   0.784  -2.666  1.00  0.00     0.119 A 
ATOM     20  C   UNL     1       4.179  -0.537  -2.425  1.00  0.00     0.047 A 
BRANCH  19  21
ATOM     21  O   UNL     1       3.963   1.237  -3.945  1.00  0.00    -0.497 OA
ATOM     22  C   UNL     1       4.126   2.647  -4.073  1.00  0.00     0.278 C 
ENDBRANCH  19  21
ENDBRANCH   7  12
ENDBRANCH   4   7
ENDBRANCH   2   3
ENDBRANCH   1   2
BRANCH   1  23
ATOM     23  C   UNL     1      -3.651   2.707   2.946  1.00  0.00     0.023 C 
BRANCH  23  24
ATOM     24  C   UNL     1      -4.753   3.672   2.542  1.00  0.00     0.116 C 
BRANCH  24  25
ATOM     25  N   UNL     1      -5.649   3.119   1.539  1.00  0.00    -0.352 N 
ATOM     26  C   UNL     1      -6.987   3.353   1.363  1.00  0.00     0.251 C 
ATOM     27  H   UNL     1      -5.239   2.492   0.900  1.00  0.00     0.163 HD
ATOM     28  O   UNL     1      -7.629   2.696   0.548  1.00  0.00    -0.269 OA
BRANCH  26  29
ATOM     29  C   UNL     1      -7.658   4.369   2.193  1.00  0.00     0.039 A 
ATOM     30  C   UNL     1      -8.887   4.050   2.769  1.00  0.00     0.014 A 
ATOM     31  C   UNL     1      -7.068   5.616   2.425  1.00  0.00     0.014 A 
ATOM     32  C   UNL     1      -9.501   4.965   3.620  1.00  0.00     0.010 A 
ATOM     33  C   UNL     1      -7.635   6.488   3.346  1.00  0.00     0.010 A 
ATOM     34  C   UNL     1      -8.862   6.176   3.944  1.00  0.00    -0.014 A 
BRANCH  34  35
ATOM     35  C   UNL     1      -9.483   7.107   4.915  1.00  0.00     0.031 A 
ATOM     36  C   UNL     1      -9.925   8.477   4.487  1.00  0.00     0.074 A 
ATOM     37  C   UNL     1      -9.638   6.709   6.193  1.00  0.00     0.049 A 
ATOM     38  N   UNL     1     -10.538   9.401   5.184  1.00  0.00    -0.248 NA
ATOM     39  C   UNL     1      -9.619   8.876   3.104  1.00  0.00     0.031 C 
ATOM     40  C   UNL     1      -9.176   5.431   6.740  1.00  0.00     0.029 A 
ATOM     41  N   UNL     1     -10.233   7.330   7.259  1.00  0.00    -0.354 N 
ATOM     42  C   UNL     1     -10.700  10.478   4.323  1.00  0.00     0.074 A 
ATOM     43  C   UNL     1     -10.052  10.127   3.079  1.00  0.00     0.031 C 
ATOM     44  C   UNL     1      -9.543   5.346   8.028  1.00  0.00     0.029 A 
ATOM     45  C   UNL     1     -10.235   6.573   8.405  1.00  0.00     0.049 A 
ATOM     46  H   UNL     1     -10.623   8.233   7.209  1.00  0.00     0.167 HD
ATOM     47  C   UNL     1     -11.362  11.639   4.539  1.00  0.00     0.037 A 
ATOM     48  C   UNL     1     -10.744   6.840   9.622  1.00  0.00     0.037 A 
ATOM     49  C   UNL     1     -12.005  11.981   5.781  1.00  0.00     0.049 A 
ATOM     50  C   UNL     1     -11.476   8.137   9.834  1.00  0.00     0.074 A 
ATOM     51  C   UNL     1     -12.730  13.117   6.096  1.00  0.00     0.029 A 
ATOM     52  N   UNL     1     -11.996  11.186   6.919  1.00  0.00    -0.354 N 
ATOM     53  N   UNL     1     -11.695   9.114   8.986  1.00  0.00    -0.248 NA
ATOM     54  C   UNL     1     -12.048   8.360  11.167  1.00  0.00     0.031 C 
ATOM     55  C   UNL     1     -13.116  13.033   7.438  1.00  0.00     0.029 A 
ATOM     56  C   UNL     1     -12.686  11.816   7.943  1.00  0.00     0.049 A 
ATOM     57  H   UNL     1     -11.563  10.305   6.989  1.00  0.00     0.167 HD
ATOM     58  C   UNL     1     -12.444  10.057   9.676  1.00  0.00     0.074 A 
ATOM     59  C   UNL     1     -12.673   9.516  11.000  1.00  0.00     0.031 C 
ATOM     60  C   UNL     1     -12.895  11.266   9.258  1.00  0.00     0.037 A 
BRANCH  47  61
ATOM     61  C   UNL     1     -11.438  12.617   3.401  1.00  0.00     0.064 A 
ATOM     62  C   UNL     1     -12.191  12.342   2.248  1.00  0.00     0.173 A 
ATOM     63  C   UNL     1     -10.790  13.859   3.477  1.00  0.00     0.173 A 
ATOM     64  F   UNL     1     -12.820  11.164   2.117  1.00  0.00    -0.203 F 
ATOM     65  C   UNL     1     -12.272  13.262   1.206  1.00  0.00     0.198 A 
ATOM     66  C   UNL     1     -10.900  14.790   2.447  1.00  0.00     0.198 A 
ATOM     67  F   UNL     1     -10.059  14.176   4.556  1.00  0.00    -0.203 F 
ATOM     68  F   UNL     1     -12.957  12.955   0.096  1.00  0.00    -0.200 F 
ATOM     69  C   UNL     1     -11.635  14.488   1.310  1.00  0.00     0.200 A 
ATOM     70  F   UNL     1     -10.295  15.981   2.555  1.00  0.00    -0.200 F 
ATOM     71  F   UNL     1     -11.723  15.378   0.312  1.00  0.00    -0.200 F 
ENDBRANCH  47  61
BRANCH  48  72
ATOM     72  C   UNL     1     -10.597   5.853  10.725  1.00  0.00     0.064 A 
ATOM     73  C   UNL     1     -11.709   5.189  11.261  1.00  0.00     0.173 A 
ATOM     74  C   UNL     1      -9.339   5.565  11.276  1.00  0.00     0.173 A 
ATOM     75  F   UNL     1     -12.935   5.439  10.780  1.00  0.00    -0.203 F 
ATOM     76  C   UNL     1     -11.573   4.303  12.329  1.00  0.00     0.198 A 
ATOM     77  C   UNL     1      -9.200   4.653  12.319  1.00  0.00     0.198 A 
ATOM     78  F   UNL     1      -8.241   6.165  10.793  1.00  0.00    -0.203 F 
ATOM     79  F   UNL     1     -12.661   3.730  12.862  1.00  0.00    -0.200 F 
ATOM     80  C   UNL     1     -10.319   4.032  12.854  1.00  0.00     0.200 A 
ATOM     81  F   UNL     1      -7.984   4.379  12.809  1.00  0.00    -0.200 F 
ATOM     82  F   UNL     1     -10.189   3.180  13.880  1.00  0.00    -0.200 F 
ENDBRANCH  48  72
BRANCH  60  83
ATOM     83  C   UNL     1     -13.697  12.069  10.244  1.00  0.00     0.064 A 
ATOM     84  C   UNL     1     -13.114  12.616  11.397  1.00  0.00     0.173 A 
ATOM     85  C   UNL     1     -15.067  12.291  10.034  1.00  0.00     0.173 A 
ATOM     86  F   UNL     1     -11.811  12.422  11.652  1.00  0.00    -0.203 F 
ATOM     87  C   UNL     1     -13.883  13.310  12.328  1.00  0.00     0.198 A 
ATOM     88  C   UNL     1     -15.824  13.020  10.946  1.00  0.00     0.198 A 
ATOM     89  F   UNL     1     -15.673  11.800   8.942  1.00  0.00    -0.203 F 
ATOM     90  F   UNL     1     -13.319  13.757  13.458  1.00  0.00    -0.200 F 
ATOM     91  C   UNL     1     -15.235  13.516  12.099  1.00  0.00     0.200 A 
ATOM     92  F   UNL     1     -17.127  13.232  10.716  1.00  0.00    -0.200 F 
ATOM     93  F   UNL     1     -15.973  14.181  12.998  1.00  0.00    -0.200 F 
ENDBRANCH  60  83
ENDBRANCH  34  35
ENDBRANCH  26  29
ENDBRANCH  24  25
ENDBRANCH  23  24
ENDBRANCH   1  23
TORSDOF 15
