REMARK SMILES O=C(NCCCCNC(=O)c1cc([N+](=O)[O-])cc([N+](=O)[O-])c1N1CCCCCC1)c1ccc(-c2c3nc(c(-c4c(F)c(F)c(F)c(F)c4F)c4ccc([nH]4)c(-c4c(F)c(F)c(F)c(F)c4F)c4nc(c(-c5c(F)c(F)c(F)c(F)c5F)c5ccc2[nH]5)C=C4)C=C3)cc1
REMARK SMILES IDX 7 1 6 2 5 3 4 4 3 5 1 6 2 7 30 9 31 10 92 11 32 12 91 13
REMARK SMILES IDX 33 14 34 15 35 16 85 17 36 18 90 19 84 20 86 21 37 22 89 23
REMARK SMILES IDX 83 24 82 25 38 27 70 28 50 29 69 30 51 31 54 32 68 33 87 34
REMARK SMILES IDX 52 35 53 36 67 38 88 39 55 40 39 41 40 42 48 43 41 44 42 45
REMARK SMILES IDX 46 46 49 47 43 48 44 49 47 50 45 51 71 52 72 53 80 54 73 55
REMARK SMILES IDX 74 56 78 57 81 58 75 59 76 60 79 61 77 62 56 63 57 64 65 65
REMARK SMILES IDX 58 66 59 67 63 68 66 69 60 70 61 71 64 72 62 73 8 74 9 75
REMARK SMILES IDX 10 77 11 78 12 79 22 80 13 81 18 82 17 83 23 84 24 85 25 86
REMARK SMILES IDX 26 87 27 88 29 90 28 91 14 93 15 94 16 95 19 96 20 97 21 98
REMARK H PARENT 3 8 86 26 54 37 8 76
REMARK Flexibility Score: 80.00
ROOT
ATOM      1  C   UNL     1       5.010  -1.685   4.097  1.00  0.00     0.116 C 
ENDROOT
BRANCH   1   2
ATOM      2  C   UNL     1       4.635  -0.234   3.836  1.00  0.00     0.023 C 
BRANCH   2   3
ATOM      3  C   UNL     1       5.067   0.315   2.474  1.00  0.00     0.023 C 
BRANCH   3   4
ATOM      4  C   UNL     1       4.675  -0.523   1.258  1.00  0.00     0.116 C 
BRANCH   4   5
ATOM      5  N   UNL     1       3.236  -0.642   1.082  1.00  0.00    -0.352 N 
ATOM      6  O   UNL     1       1.199  -0.203   0.222  1.00  0.00    -0.269 OA
ATOM      7  C   UNL     1       2.415  -0.104   0.118  1.00  0.00     0.251 C 
ATOM      8  H   UNL     1       2.778  -1.193   1.758  1.00  0.00     0.163 HD
BRANCH   7   9
ATOM      9  C   UNL     1       2.998   0.622  -1.031  1.00  0.00     0.039 A 
ATOM     10  C   UNL     1       4.059   0.080  -1.760  1.00  0.00     0.014 A 
ATOM     11  C   UNL     1       2.461   1.861  -1.390  1.00  0.00     0.014 A 
ATOM     12  C   UNL     1       4.681   0.840  -2.747  1.00  0.00     0.010 A 
ATOM     13  C   UNL     1       3.034   2.587  -2.437  1.00  0.00     0.010 A 
ATOM     14  C   UNL     1       4.170   2.097  -3.102  1.00  0.00    -0.014 A 
BRANCH  14  15
ATOM     15  C   UNL     1       4.793   2.875  -4.202  1.00  0.00     0.031 A 
ATOM     16  C   UNL     1       5.428   4.210  -3.938  1.00  0.00     0.074 A 
ATOM     17  C   UNL     1       4.751   2.385  -5.455  1.00  0.00     0.049 A 
ATOM     18  N   UNL     1       5.933   5.069  -4.786  1.00  0.00    -0.248 NA
ATOM     19  C   UNL     1       5.494   4.641  -2.534  1.00  0.00     0.031 C 
ATOM     20  C   UNL     1       4.159   1.101  -5.834  1.00  0.00     0.029 A 
ATOM     21  N   UNL     1       5.195   2.912  -6.641  1.00  0.00    -0.354 N 
ATOM     22  C   UNL     1       6.353   6.153  -4.026  1.00  0.00     0.074 A 
ATOM     23  C   UNL     1       6.020   5.853  -2.649  1.00  0.00     0.031 C 
ATOM     24  C   UNL     1       4.276   0.939  -7.158  1.00  0.00     0.029 A 
ATOM     25  C   UNL     1       4.889   2.134  -7.729  1.00  0.00     0.049 A 
ATOM     26  H   UNL     1       5.686   3.763  -6.705  1.00  0.00     0.167 HD
ATOM     27  C   UNL     1       6.962   7.290  -4.443  1.00  0.00     0.037 A 
ATOM     28  C   UNL     1       5.040   2.371  -9.045  1.00  0.00     0.037 A 
ATOM     29  C   UNL     1       7.288   7.574  -5.818  1.00  0.00     0.049 A 
ATOM     30  C   UNL     1       5.674   3.657  -9.491  1.00  0.00     0.074 A 
ATOM     31  C   UNL     1       7.949   8.673  -6.338  1.00  0.00     0.029 A 
ATOM     32  N   UNL     1       6.960   6.760  -6.894  1.00  0.00    -0.354 N 
ATOM     33  N   UNL     1       6.109   4.656  -8.762  1.00  0.00    -0.248 NA
ATOM     34  C   UNL     1       5.840   3.850 -10.937  1.00  0.00     0.031 C 
ATOM     35  C   UNL     1       7.959   8.558  -7.732  1.00  0.00     0.029 A 
ATOM     36  C   UNL     1       7.371   7.352  -8.079  1.00  0.00     0.049 A 
ATOM     37  H   UNL     1       6.503   5.891  -6.826  1.00  0.00     0.167 HD
ATOM     38  C   UNL     1       6.624   5.585  -9.655  1.00  0.00     0.074 A 
ATOM     39  C   UNL     1       6.449   5.029 -10.981  1.00  0.00     0.031 C 
ATOM     40  C   UNL     1       7.196   6.785  -9.394  1.00  0.00     0.037 A 
BRANCH  27  41
ATOM     41  C   UNL     1       7.274   8.333  -3.404  1.00  0.00     0.064 A 
ATOM     42  C   UNL     1       8.236   8.125  -2.404  1.00  0.00     0.173 A 
ATOM     43  C   UNL     1       6.604   9.567  -3.418  1.00  0.00     0.173 A 
ATOM     44  F   UNL     1       8.903   6.963  -2.339  1.00  0.00    -0.203 F 
ATOM     45  C   UNL     1       8.480   9.091  -1.430  1.00  0.00     0.198 A 
ATOM     46  C   UNL     1       6.877  10.545  -2.465  1.00  0.00     0.198 A 
ATOM     47  F   UNL     1       5.683   9.827  -4.357  1.00  0.00    -0.203 F 
ATOM     48  F   UNL     1       9.354   8.841  -0.445  1.00  0.00    -0.200 F 
ATOM     49  C   UNL     1       7.804  10.301  -1.464  1.00  0.00     0.200 A 
ATOM     50  F   UNL     1       6.234  11.720  -2.510  1.00  0.00    -0.200 F 
ATOM     51  F   UNL     1       8.037  11.228  -0.524  1.00  0.00    -0.200 F 
ENDBRANCH  27  41
BRANCH  28  52
ATOM     52  C   UNL     1       4.555   1.360 -10.018  1.00  0.00     0.064 A 
ATOM     53  C   UNL     1       5.450   0.581 -10.761  1.00  0.00     0.173 A 
ATOM     54  C   UNL     1       3.182   1.109 -10.174  1.00  0.00     0.173 A 
ATOM     55  F   UNL     1       6.770   0.794 -10.655  1.00  0.00    -0.203 F 
ATOM     56  C   UNL     1       4.991  -0.412 -11.624  1.00  0.00     0.198 A 
ATOM     57  C   UNL     1       2.727   0.097 -11.015  1.00  0.00     0.198 A 
ATOM     58  F   UNL     1       2.286   1.822  -9.476  1.00  0.00    -0.203 F 
ATOM     59  F   UNL     1       5.867  -1.129 -12.341  1.00  0.00    -0.200 F 
ATOM     60  C   UNL     1       3.631  -0.660 -11.742  1.00  0.00     0.200 A 
ATOM     61  F   UNL     1       1.414  -0.154 -11.107  1.00  0.00    -0.200 F 
ATOM     62  F   UNL     1       3.193  -1.631 -12.555  1.00  0.00    -0.200 F 
ENDBRANCH  28  52
BRANCH  40  63
ATOM     63  C   UNL     1       7.723   7.573 -10.559  1.00  0.00     0.064 A 
ATOM     64  C   UNL     1       6.869   8.227 -11.458  1.00  0.00     0.173 A 
ATOM     65  C   UNL     1       9.107   7.741 -10.726  1.00  0.00     0.173 A 
ATOM     66  F   UNL     1       5.539   8.084 -11.352  1.00  0.00    -0.203 F 
ATOM     67  C   UNL     1       7.381   9.016 -12.486  1.00  0.00     0.198 A 
ATOM     68  C   UNL     1       9.614   8.554 -11.735  1.00  0.00     0.198 A 
ATOM     69  F   UNL     1       9.966   7.139  -9.890  1.00  0.00    -0.203 F 
ATOM     70  F   UNL     1       6.548   9.608 -13.352  1.00  0.00    -0.200 F 
ATOM     71  C   UNL     1       8.752   9.188 -12.615  1.00  0.00     0.200 A 
ATOM     72  F   UNL     1      10.938   8.732 -11.848  1.00  0.00    -0.200 F 
ATOM     73  F   UNL     1       9.241   9.966 -13.590  1.00  0.00    -0.200 F 
ENDBRANCH  40  63
ENDBRANCH  14  15
ENDBRANCH   7   9
ENDBRANCH   4   5
ENDBRANCH   3   4
ENDBRANCH   2   3
ENDBRANCH   1   2
BRANCH   1  74
ATOM     74  N   UNL     1       6.425  -1.958   4.115  1.00  0.00    -0.352 N 
ATOM     75  C   UNL     1       7.051  -3.063   4.633  1.00  0.00     0.253 C 
ATOM     76  H   UNL     1       7.007  -1.275   3.710  1.00  0.00     0.163 HD
ATOM     77  O   UNL     1       8.252  -3.230   4.431  1.00  0.00    -0.269 OA
BRANCH  75  78
ATOM     78  C   UNL     1       6.349  -4.010   5.537  1.00  0.00     0.077 A 
ATOM     79  C   UNL     1       6.922  -4.019   6.834  1.00  0.00     0.102 A 
ATOM     80  C   UNL     1       5.287  -4.888   5.181  1.00  0.00     0.129 A 
ATOM     81  C   UNL     1       6.449  -4.887   7.817  1.00  0.00     0.277 A 
ATOM     82  C   UNL     1       4.880  -5.765   6.221  1.00  0.00     0.300 A 
ATOM     83  C   UNL     1       5.421  -5.770   7.520  1.00  0.00     0.173 A 
BRANCH  80  84
ATOM     84  N   UNL     1       4.693  -4.940   3.912  1.00  0.00    -0.365 N 
BRANCH  84  85
ATOM     85  C   UNL     1       3.306  -4.476   3.734  1.00  0.00     0.117 C 
BRANCH  85  86
ATOM     86  C   UNL     1       2.308  -5.566   3.363  1.00  0.00     0.021 C 
BRANCH  86  87
ATOM     87  C   UNL     1       2.449  -6.137   1.957  1.00  0.00     0.002 C 
BRANCH  87  88
ATOM     88  C   UNL     1       3.842  -6.647   1.605  1.00  0.00     0.002 CG0
ATOM     89  G   UNL     1       4.856  -5.516   1.465  1.00  0.00     0.000 G0
ENDBRANCH  87  88
ENDBRANCH  86  87
ENDBRANCH  85  86
ENDBRANCH  84  85
BRANCH  84  90
ATOM     90  C   UNL     1       5.577  -5.165   2.763  1.00  0.00     0.117 C 
BRANCH  90  91
ATOM     91  C   UNL     1       4.856  -5.516   1.465  1.00  0.00     0.021 CG0
ATOM     92  G   UNL     1       3.842  -6.647   1.605  1.00  0.00     0.000 G0
ENDBRANCH  90  91
ENDBRANCH  84  90
ENDBRANCH  80  84
BRANCH  81  93
ATOM     93  N   UNL     1       7.056  -4.896   9.154  1.00  0.00     0.062 N 
ATOM     94  O   UNL     1       7.943  -4.067   9.388  1.00  0.00    -0.258 OA
ATOM     95  O   UNL     1       6.634  -5.731   9.966  1.00  0.00    -0.258 OA
ENDBRANCH  81  93
BRANCH  82  96
ATOM     96  N   UNL     1       3.934  -6.830   5.967  1.00  0.00     0.065 N 
ATOM     97  O   UNL     1       2.851  -6.758   6.566  1.00  0.00    -0.258 OA
ATOM     98  O   UNL     1       4.306  -7.764   5.246  1.00  0.00    -0.258 OA
ENDBRANCH  82  96
ENDBRANCH  75  78
ENDBRANCH   1  74
TORSDOF 14
