REMARK SMILES Cc1cc([C@@H](C)NC(=O)N[C@H]2C=C[C@@H](C(=O)NCCCCNC(=O)c3ccc(-c4c5nc(c(-c6c(F)c(F)c(F)c(F)c6F)c6ccc([nH]6)c(-c6c(F)c(F)c(F)c(F)c6F)c6nc(c(-c7c(F)c(F)c(F)c(F)c7F)c7ccc4[nH]7)C=C6)C=C5)cc3)C2)c(C)s1
REMARK SMILES IDX 19 1 18 2 17 3 15 4 16 5 14 7 11 8 12 9 88 10 13 11 10 12
REMARK SMILES IDX 7 13 8 14 9 16 5 18 6 19 4 20 1 21 2 22 3 23 91 24 89 25
REMARK SMILES IDX 90 26 20 27 21 28 22 29 23 30 24 32 25 33 26 34 87 35 27 36
REMARK SMILES IDX 86 37 28 38 29 39 30 40 80 41 31 42 85 43 79 44 81 45 32 46
REMARK SMILES IDX 84 47 78 48 77 49 33 51 65 52 45 53 64 54 46 55 49 56 63 57
REMARK SMILES IDX 82 58 47 59 48 60 62 62 83 63 50 64 34 65 35 66 43 67 36 68
REMARK SMILES IDX 37 69 41 70 44 71 38 72 39 73 42 74 40 75 66 76 67 77 75 78
REMARK SMILES IDX 68 79 69 80 73 81 76 82 70 83 71 84 74 85 72 86 51 87 52 88
REMARK SMILES IDX 60 89 53 90 54 91 58 92 61 93 55 94 56 95 59 96 57 97
REMARK H PARENT 17 6 7 15 10 17 22 31 81 50 49 61
REMARK Flexibility Score: inf
ROOT
ATOM      1  C   UNL     1      -1.079  -3.485   4.249  1.00  0.00     0.023 C 
ENDROOT
BRANCH   1   2
ATOM      2  C   UNL     1      -1.820  -4.565   3.470  1.00  0.00     0.116 C 
BRANCH   2   3
ATOM      3  N   UNL     1      -2.911  -4.035   2.680  1.00  0.00    -0.356 N 
ATOM      4  C   UNL     1      -3.210  -4.223   1.367  1.00  0.00     0.227 C 
ATOM      5  O   UNL     1      -4.246  -3.699   0.944  1.00  0.00    -0.274 OA
ATOM      6  H   UNL     1      -3.532  -3.449   3.169  1.00  0.00     0.163 HD
BRANCH   4   7
ATOM      7  C   UNL     1      -2.284  -4.974   0.403  1.00  0.00     0.103 C 
ATOM      8  C   UNL     1       0.190  -5.202   0.315  1.00  0.00     0.107 C 
ATOM      9  C   UNL     1      -0.505  -6.482   0.682  1.00  0.00    -0.006 C 
ATOM     10  C   UNL     1      -0.977  -4.221   0.169  1.00  0.00     0.047 C 
ATOM     11  C   UNL     1      -1.837  -6.352   0.761  1.00  0.00    -0.016 C 
BRANCH   8  12
ATOM     12  N   UNL     1       1.104  -4.862   1.385  1.00  0.00    -0.332 N 
ATOM     13  N   UNL     1       2.151  -2.803   0.839  1.00  0.00    -0.332 N 
ATOM     14  C   UNL     1       1.943  -3.853   1.633  1.00  0.00     0.315 C 
ATOM     15  H   UNL     1       2.781  -2.160   1.240  1.00  0.00     0.165 HD
ATOM     16  O   UNL     1       2.570  -3.896   2.696  1.00  0.00    -0.249 OA
ATOM     17  H   UNL     1       1.106  -5.535   2.104  1.00  0.00     0.165 HD
BRANCH  13  18
ATOM     18  C   UNL     1       1.686  -2.362  -0.466  1.00  0.00     0.112 C 
ATOM     19  C   UNL     1       2.825  -2.331  -1.479  1.00  0.00     0.036 C 
BRANCH  18  20
ATOM     20  C   UNL     1       0.964  -1.036  -0.285  1.00  0.00    -0.012 A 
ATOM     21  C   UNL     1      -2.388   0.756  -0.062  1.00  0.00     0.056 C 
ATOM     22  C   UNL     1      -0.961   0.329  -0.112  1.00  0.00     0.002 A 
ATOM     23  C   UNL     1      -0.462  -0.905  -0.455  1.00  0.00     0.021 A 
ATOM     24  S   UNL     1       0.293   1.408   0.265  1.00  0.00    -0.146 S 
ATOM     25  C   UNL     1       1.502   0.200   0.063  1.00  0.00     0.007 A 
ATOM     26  C   UNL     1       2.922   0.616   0.271  1.00  0.00     0.057 C 
ENDBRANCH  18  20
ENDBRANCH  13  18
ENDBRANCH   8  12
ENDBRANCH   4   7
ENDBRANCH   2   3
ENDBRANCH   1   2
BRANCH   1  27
ATOM     27  C   UNL     1      -1.878  -2.843   5.382  1.00  0.00     0.023 C 
BRANCH  27  28
ATOM     28  C   UNL     1      -2.545  -3.818   6.347  1.00  0.00     0.116 C 
BRANCH  28  29
ATOM     29  N   UNL     1      -1.623  -4.776   6.937  1.00  0.00    -0.352 N 
ATOM     30  C   UNL     1      -1.585  -5.261   8.221  1.00  0.00     0.251 C 
ATOM     31  H   UNL     1      -0.929  -5.125   6.332  1.00  0.00     0.163 HD
ATOM     32  O   UNL     1      -0.681  -6.010   8.577  1.00  0.00    -0.269 OA
BRANCH  30  33
ATOM     33  C   UNL     1      -2.617  -4.841   9.191  1.00  0.00     0.039 A 
ATOM     34  C   UNL     1      -2.209  -4.397  10.451  1.00  0.00     0.014 A 
ATOM     35  C   UNL     1      -3.973  -4.855   8.853  1.00  0.00     0.014 A 
ATOM     36  C   UNL     1      -3.155  -3.901  11.347  1.00  0.00     0.010 A 
ATOM     37  C   UNL     1      -4.906  -4.290   9.718  1.00  0.00     0.010 A 
ATOM     38  C   UNL     1      -4.506  -3.807  10.973  1.00  0.00    -0.014 A 
BRANCH  38  39
ATOM     39  C   UNL     1      -5.506  -3.192  11.882  1.00  0.00     0.031 A 
ATOM     40  C   UNL     1      -6.633  -4.015  12.439  1.00  0.00     0.074 A 
ATOM     41  C   UNL     1      -5.426  -1.877  12.162  1.00  0.00     0.049 A 
ATOM     42  N   UNL     1      -7.615  -3.650  13.224  1.00  0.00    -0.248 NA
ATOM     43  C   UNL     1      -6.679  -5.430  12.040  1.00  0.00     0.031 C 
ATOM     44  C   UNL     1      -4.413  -0.960  11.636  1.00  0.00     0.029 A 
ATOM     45  N   UNL     1      -6.213  -1.081  12.957  1.00  0.00    -0.354 N 
ATOM     46  C   UNL     1      -8.396  -4.783  13.405  1.00  0.00     0.074 A 
ATOM     47  C   UNL     1      -7.810  -5.833  12.601  1.00  0.00     0.031 C 
ATOM     48  C   UNL     1      -4.622   0.265  12.145  1.00  0.00     0.029 A 
ATOM     49  C   UNL     1      -5.801   0.229  13.004  1.00  0.00     0.049 A 
ATOM     50  H   UNL     1      -6.999  -1.416  13.446  1.00  0.00     0.167 HD
ATOM     51  C   UNL     1      -9.488  -4.941  14.191  1.00  0.00     0.037 A 
ATOM     52  C   UNL     1      -6.316   1.281  13.668  1.00  0.00     0.037 A 
ATOM     53  C   UNL     1     -10.057  -3.899  15.005  1.00  0.00     0.049 A 
ATOM     54  C   UNL     1      -7.529   1.077  14.535  1.00  0.00     0.074 A 
ATOM     55  C   UNL     1     -11.125  -3.973  15.881  1.00  0.00     0.029 A 
ATOM     56  N   UNL     1      -9.603  -2.588  15.039  1.00  0.00    -0.354 N 
ATOM     57  N   UNL     1      -8.213  -0.018  14.759  1.00  0.00    -0.248 NA
ATOM     58  C   UNL     1      -8.034   2.257  15.250  1.00  0.00     0.031 C 
ATOM     59  C   UNL     1     -11.348  -2.697  16.410  1.00  0.00     0.029 A 
ATOM     60  C   UNL     1     -10.385  -1.839  15.905  1.00  0.00     0.049 A 
ATOM     61  H   UNL     1      -8.839  -2.241  14.525  1.00  0.00     0.167 HD
ATOM     62  C   UNL     1      -9.210   0.332  15.658  1.00  0.00     0.074 A 
ATOM     63  C   UNL     1      -9.029   1.738  15.955  1.00  0.00     0.031 C 
ATOM     64  C   UNL     1     -10.190  -0.440  16.190  1.00  0.00     0.037 A 
BRANCH  51  65
ATOM     65  C   UNL     1     -10.136  -6.296  14.213  1.00  0.00     0.064 A 
ATOM     66  C   UNL     1      -9.507  -7.403  14.804  1.00  0.00     0.173 A 
ATOM     67  C   UNL     1     -11.415  -6.484  13.668  1.00  0.00     0.173 A 
ATOM     68  F   UNL     1      -8.278  -7.280  15.329  1.00  0.00    -0.203 F 
ATOM     69  C   UNL     1     -10.120  -8.653  14.820  1.00  0.00     0.198 A 
ATOM     70  C   UNL     1     -12.039  -7.728  13.715  1.00  0.00     0.198 A 
ATOM     71  F   UNL     1     -12.064  -5.459  13.096  1.00  0.00    -0.203 F 
ATOM     72  F   UNL     1      -9.477  -9.706  15.344  1.00  0.00    -0.200 F 
ATOM     73  C   UNL     1     -11.388  -8.813  14.283  1.00  0.00     0.200 A 
ATOM     74  F   UNL     1     -13.270  -7.878  13.207  1.00  0.00    -0.200 F 
ATOM     75  F   UNL     1     -11.980 -10.015  14.306  1.00  0.00    -0.200 F 
ENDBRANCH  51  65
BRANCH  52  76
ATOM     76  C   UNL     1      -5.668   2.615  13.565  1.00  0.00     0.064 A 
ATOM     77  C   UNL     1      -5.004   3.179  14.663  1.00  0.00     0.173 A 
ATOM     78  C   UNL     1      -5.706   3.356  12.374  1.00  0.00     0.173 A 
ATOM     79  F   UNL     1      -4.959   2.518  15.829  1.00  0.00    -0.203 F 
ATOM     80  C   UNL     1      -4.423   4.442  14.582  1.00  0.00     0.198 A 
ATOM     81  C   UNL     1      -5.098   4.606  12.286  1.00  0.00     0.198 A 
ATOM     82  F   UNL     1      -6.324   2.859  11.293  1.00  0.00    -0.203 F 
ATOM     83  F   UNL     1      -3.838   4.978  15.662  1.00  0.00    -0.200 F 
ATOM     84  C   UNL     1      -4.465   5.153  13.392  1.00  0.00     0.200 A 
ATOM     85  F   UNL     1      -5.129   5.284  11.130  1.00  0.00    -0.200 F 
ATOM     86  F   UNL     1      -3.904   6.367  13.314  1.00  0.00    -0.200 F 
ENDBRANCH  52  76
BRANCH  64  87
ATOM     87  C   UNL     1     -11.122   0.215  17.169  1.00  0.00     0.064 A 
ATOM     88  C   UNL     1     -12.071   1.164  16.762  1.00  0.00     0.173 A 
ATOM     89  C   UNL     1     -11.078  -0.129  18.529  1.00  0.00     0.173 A 
ATOM     90  F   UNL     1     -12.144   1.538  15.476  1.00  0.00    -0.203 F 
ATOM     91  C   UNL     1     -12.919   1.769  17.686  1.00  0.00     0.198 A 
ATOM     92  C   UNL     1     -11.950   0.454  19.444  1.00  0.00     0.198 A 
ATOM     93  F   UNL     1     -10.194  -1.037  18.970  1.00  0.00    -0.203 F 
ATOM     94  F   UNL     1     -13.779   2.715  17.283  1.00  0.00    -0.200 F 
ATOM     95  C   UNL     1     -12.863   1.409  19.024  1.00  0.00     0.200 A 
ATOM     96  F   UNL     1     -11.903   0.094  20.735  1.00  0.00    -0.200 F 
ATOM     97  F   UNL     1     -13.681   1.991  19.911  1.00  0.00    -0.200 F 
ENDBRANCH  64  87
ENDBRANCH  38  39
ENDBRANCH  30  33
ENDBRANCH  28  29
ENDBRANCH  27  28
ENDBRANCH   1  27
TORSDOF 14
