REMARK SMILES Cc1cc(NCc2ccc(C(=O)NCCCCNC(=O)c3ccc(-c4c5nc(c(-c6c(F)c(F)c(F)c(F)c6F)c6ccc([nH]6)c(-c6c(F)c(F)c(F)c(F)c6F)c6nc(c(-c7c(F)c(F)c(F)c(F)c7F)c7ccc4[nH]7)C=C6)C=C5)cc3)o2)ccc1Br
REMARK SMILES IDX 15 1 14 2 13 3 11 4 12 5 10 7 7 8 8 9 84 10 9 11 6 12 5 13
REMARK SMILES IDX 4 15 1 16 2 17 3 18 87 19 86 20 88 21 85 22 16 23 17 24
REMARK SMILES IDX 18 25 19 26 20 28 21 29 22 30 83 31 23 32 82 33 24 34 25 35
REMARK SMILES IDX 26 36 76 37 27 38 81 39 75 40 77 41 28 42 80 43 74 44 73 45
REMARK SMILES IDX 29 47 61 48 41 49 60 50 42 51 45 52 59 53 78 54 43 55 44 56
REMARK SMILES IDX 58 58 79 59 46 60 30 61 31 62 39 63 32 64 33 65 37 66 40 67
REMARK SMILES IDX 34 68 35 69 38 70 36 71 62 72 63 73 71 74 64 75 65 76 69 77
REMARK SMILES IDX 72 78 66 79 67 80 70 81 68 82 47 83 48 84 56 85 49 86 50 87
REMARK SMILES IDX 54 88 57 89 51 90 52 91 55 92 53 93
REMARK H PARENT 13 6 5 14 18 27 77 46 45 57
REMARK Flexibility Score: inf
ROOT
ATOM      1  C   UNL     1       8.315   2.927   6.300  1.00  0.00     0.023 C 
ENDROOT
BRANCH   1   2
ATOM      2  C   UNL     1       9.092   2.461   5.070  1.00  0.00     0.116 C 
BRANCH   2   3
ATOM      3  N   UNL     1       8.742   1.105   4.714  1.00  0.00    -0.349 N 
ATOM      4  C   UNL     1       7.925   0.609   3.723  1.00  0.00     0.286 C 
ATOM      5  O   UNL     1       7.904  -0.620   3.628  1.00  0.00    -0.266 OA
ATOM      6  H   UNL     1       9.161   0.416   5.278  1.00  0.00     0.163 HD
BRANCH   4   7
ATOM      7  C   UNL     1       7.162   1.481   2.845  1.00  0.00     0.191 A 
ATOM      8  C   UNL     1       5.971   1.843   1.006  1.00  0.00     0.124 A 
ATOM      9  C   UNL     1       6.025   3.045   1.671  1.00  0.00     0.048 A 
ATOM     10  O   UNL     1       6.665   0.900   1.702  1.00  0.00    -0.454 OA
ATOM     11  C   UNL     1       6.759   2.806   2.861  1.00  0.00     0.056 A 
BRANCH   8  12
ATOM     12  C   UNL     1       5.347   1.396  -0.270  1.00  0.00     0.188 C 
BRANCH  12  13
ATOM     13  N   UNL     1       4.467   0.248  -0.140  1.00  0.00    -0.378 N 
ATOM     14  H   UNL     1       4.896  -0.638  -0.137  1.00  0.00     0.161 HD
BRANCH  13  15
ATOM     15  C   UNL     1       3.094   0.270  -0.019  1.00  0.00     0.035 A 
ATOM     16  C   UNL     1       0.351  -2.395   0.013  1.00  0.00     0.045 C 
ATOM     17  C   UNL     1       1.003  -1.041   0.021  1.00  0.00    -0.035 A 
ATOM     18  C   UNL     1       2.408  -0.957  -0.009  1.00  0.00     0.030 A 
ATOM     19  C   UNL     1       0.269   0.149   0.036  1.00  0.00     0.021 A 
ATOM     20  C   UNL     1       0.927   1.379   0.023  1.00  0.00     0.018 A 
ATOM     21  Br  UNL     1      -1.629   0.164   0.060  1.00  0.00    -0.051 Br
ATOM     22  C   UNL     1       2.325   1.435  -0.013  1.00  0.00     0.027 A 
ENDBRANCH  13  15
ENDBRANCH  12  13
ENDBRANCH   8  12
ENDBRANCH   4   7
ENDBRANCH   2   3
ENDBRANCH   1   2
BRANCH   1  23
ATOM     23  C   UNL     1       8.893   2.428   7.631  1.00  0.00     0.023 C 
BRANCH  23  24
ATOM     24  C   UNL     1      10.336   2.845   7.914  1.00  0.00     0.116 C 
BRANCH  24  25
ATOM     25  N   UNL     1      10.546   4.281   7.838  1.00  0.00    -0.352 N 
ATOM     26  C   UNL     1      11.373   5.080   8.589  1.00  0.00     0.251 C 
ATOM     27  H   UNL     1      10.020   4.749   7.149  1.00  0.00     0.163 HD
ATOM     28  O   UNL     1      11.333   6.298   8.457  1.00  0.00    -0.269 OA
BRANCH  26  29
ATOM     29  C   UNL     1      12.285   4.474   9.582  1.00  0.00     0.039 A 
ATOM     30  C   UNL     1      12.372   5.059  10.848  1.00  0.00     0.014 A 
ATOM     31  C   UNL     1      13.045   3.342   9.278  1.00  0.00     0.014 A 
ATOM     32  C   UNL     1      13.175   4.471  11.826  1.00  0.00     0.010 A 
ATOM     33  C   UNL     1      13.785   2.713  10.276  1.00  0.00     0.010 A 
ATOM     34  C   UNL     1      13.860   3.272  11.560  1.00  0.00    -0.014 A 
BRANCH  34  35
ATOM     35  C   UNL     1      14.636   2.595  12.630  1.00  0.00     0.031 A 
ATOM     36  C   UNL     1      16.126   2.436  12.512  1.00  0.00     0.074 A 
ATOM     37  C   UNL     1      13.986   2.093  13.697  1.00  0.00     0.049 A 
ATOM     38  N   UNL     1      16.968   1.891  13.354  1.00  0.00    -0.248 NA
ATOM     39  C   UNL     1      16.753   2.932  11.277  1.00  0.00     0.031 C 
ATOM     40  C   UNL     1      12.536   2.127  13.894  1.00  0.00     0.029 A 
ATOM     41  N   UNL     1      14.458   1.458  14.818  1.00  0.00    -0.354 N 
ATOM     42  C   UNL     1      18.216   1.975  12.751  1.00  0.00     0.074 A 
ATOM     43  C   UNL     1      18.015   2.566  11.446  1.00  0.00     0.031 C 
ATOM     44  C   UNL     1      12.240   1.575  15.081  1.00  0.00     0.029 A 
ATOM     45  C   UNL     1      13.473   1.116  15.713  1.00  0.00     0.049 A 
ATOM     46  H   UNL     1      15.412   1.265  14.968  1.00  0.00     0.167 HD
ATOM     47  C   UNL     1      19.424   1.619  13.252  1.00  0.00     0.037 A 
ATOM     48  C   UNL     1      13.555   0.505  16.910  1.00  0.00     0.037 A 
ATOM     49  C   UNL     1      19.620   1.043  14.557  1.00  0.00     0.049 A 
ATOM     50  C   UNL     1      14.909   0.119  17.441  1.00  0.00     0.074 A 
ATOM     51  C   UNL     1      20.808   0.701  15.180  1.00  0.00     0.029 A 
ATOM     52  N   UNL     1      18.600   0.717  15.439  1.00  0.00    -0.354 N 
ATOM     53  N   UNL     1      16.091   0.284  16.899  1.00  0.00    -0.248 NA
ATOM     54  C   UNL     1      14.940  -0.526  18.761  1.00  0.00     0.031 C 
ATOM     55  C   UNL     1      20.503   0.116  16.414  1.00  0.00     0.029 A 
ATOM     56  C   UNL     1      19.129   0.152  16.589  1.00  0.00     0.049 A 
ATOM     57  H   UNL     1      17.641   0.865  15.272  1.00  0.00     0.167 HD
ATOM     58  C   UNL     1      17.006  -0.211  17.818  1.00  0.00     0.074 A 
ATOM     59  C   UNL     1      16.242  -0.658  18.965  1.00  0.00     0.031 C 
ATOM     60  C   UNL     1      18.356  -0.292  17.722  1.00  0.00     0.037 A 
BRANCH  47  61
ATOM     61  C   UNL     1      20.631   1.844  12.385  1.00  0.00     0.064 A 
ATOM     62  C   UNL     1      21.089   3.136  12.081  1.00  0.00     0.173 A 
ATOM     63  C   UNL     1      21.363   0.757  11.884  1.00  0.00     0.173 A 
ATOM     64  F   UNL     1      20.420   4.211  12.524  1.00  0.00    -0.203 F 
ATOM     65  C   UNL     1      22.215   3.330  11.284  1.00  0.00     0.198 A 
ATOM     66  C   UNL     1      22.508   0.954  11.116  1.00  0.00     0.198 A 
ATOM     67  F   UNL     1      20.974  -0.500  12.148  1.00  0.00    -0.203 F 
ATOM     68  F   UNL     1      22.602   4.573  10.966  1.00  0.00    -0.200 F 
ATOM     69  C   UNL     1      22.928   2.240  10.810  1.00  0.00     0.200 A 
ATOM     70  F   UNL     1      23.204  -0.100  10.671  1.00  0.00    -0.200 F 
ATOM     71  F   UNL     1      24.017   2.428  10.052  1.00  0.00    -0.200 F 
ENDBRANCH  47  61
BRANCH  48  72
ATOM     72  C   UNL     1      12.323   0.247  17.701  1.00  0.00     0.064 A 
ATOM     73  C   UNL     1      12.084   0.922  18.906  1.00  0.00     0.173 A 
ATOM     74  C   UNL     1      11.365  -0.686  17.276  1.00  0.00     0.173 A 
ATOM     75  F   UNL     1      12.979   1.810  19.365  1.00  0.00    -0.203 F 
ATOM     76  C   UNL     1      10.949   0.656  19.669  1.00  0.00     0.198 A 
ATOM     77  C   UNL     1      10.214  -0.927  18.023  1.00  0.00     0.198 A 
ATOM     78  F   UNL     1      11.541  -1.354  16.127  1.00  0.00    -0.203 F 
ATOM     79  F   UNL     1      10.773   1.277  20.843  1.00  0.00    -0.200 F 
ATOM     80  C   UNL     1      10.012  -0.265  19.224  1.00  0.00     0.200 A 
ATOM     81  F   UNL     1       9.303  -1.805  17.581  1.00  0.00    -0.200 F 
ATOM     82  F   UNL     1       8.919  -0.519  19.957  1.00  0.00    -0.200 F 
ENDBRANCH  48  72
BRANCH  60  83
ATOM     83  C   UNL     1      19.093  -0.859  18.902  1.00  0.00     0.064 A 
ATOM     84  C   UNL     1      18.997  -2.214  19.253  1.00  0.00     0.173 A 
ATOM     85  C   UNL     1      19.916  -0.037  19.687  1.00  0.00     0.173 A 
ATOM     86  F   UNL     1      18.213  -3.041  18.544  1.00  0.00    -0.203 F 
ATOM     87  C   UNL     1      19.663  -2.715  20.368  1.00  0.00     0.198 A 
ATOM     88  C   UNL     1      20.610  -0.549  20.780  1.00  0.00     0.198 A 
ATOM     89  F   UNL     1      20.053   1.265  19.392  1.00  0.00    -0.203 F 
ATOM     90  F   UNL     1      19.501  -3.998  20.721  1.00  0.00    -0.200 F 
ATOM     91  C   UNL     1      20.473  -1.884  21.127  1.00  0.00     0.200 A 
ATOM     92  F   UNL     1      21.406   0.252  21.502  1.00  0.00    -0.200 F 
ATOM     93  F   UNL     1      21.113  -2.369  22.200  1.00  0.00    -0.200 F 
ENDBRANCH  60  83
ENDBRANCH  34  35
ENDBRANCH  26  29
ENDBRANCH  24  25
ENDBRANCH  23  24
ENDBRANCH   1  23
TORSDOF 14
