REMARK SMILES Cc1cscc1C(=O)Nc1cc(Br)ccc1C(=O)NCCCCNC(=O)c1ccc(-c2c3nc(c(-c4c(F)c(F)c(F)c(F)c4F)c4ccc([nH]4)c(-c4c(F)c(F)c(F)c(F)c4F)c4nc(c(-c5c(F)c(F)c(F)c(F)c5F)c5ccc2[nH]5)C=C4)C=C3)cc1
REMARK SMILES IDX 21 1 20 2 19 3 17 4 18 5 16 7 10 8 11 9 12 10 15 11 13 12
REMARK SMILES IDX 14 13 9 14 7 15 8 16 6 18 1 19 2 20 3 21 4 22 5 23 22 24
REMARK SMILES IDX 23 25 24 26 25 27 26 29 27 30 28 31 89 32 29 33 88 34 30 35
REMARK SMILES IDX 31 36 32 37 82 38 33 39 87 40 81 41 83 42 34 43 86 44 80 45
REMARK SMILES IDX 79 46 35 48 67 49 47 50 66 51 48 52 51 53 65 54 84 55 49 56
REMARK SMILES IDX 50 57 64 59 85 60 52 61 36 62 37 63 45 64 38 65 39 66 43 67
REMARK SMILES IDX 46 68 40 69 41 70 44 71 42 72 68 73 69 74 77 75 70 76 71 77
REMARK SMILES IDX 75 78 78 79 72 80 73 81 76 82 74 83 53 84 54 85 62 86 55 87
REMARK SMILES IDX 56 88 60 89 63 90 57 91 58 92 61 93 59 94
REMARK H PARENT 19 6 9 17 24 28 83 47 51 58
REMARK Flexibility Score: inf
ROOT
ATOM      1  C   UNL     1       1.913   3.989   2.651  1.00  0.00     0.023 C 
ENDROOT
BRANCH   1   2
ATOM      2  C   UNL     1       2.758   3.276   1.607  1.00  0.00     0.116 C 
BRANCH   2   3
ATOM      3  N   UNL     1       4.136   3.014   1.926  1.00  0.00    -0.352 N 
ATOM      4  C   UNL     1       5.025   2.092   1.420  1.00  0.00     0.253 C 
ATOM      5  O   UNL     1       6.162   2.140   1.902  1.00  0.00    -0.269 OA
ATOM      6  H   UNL     1       4.508   3.594   2.629  1.00  0.00     0.163 HD
BRANCH   4   7
ATOM      7  C   UNL     1       4.751   1.026   0.382  1.00  0.00     0.063 A 
ATOM      8  C   UNL     1       3.797   0.990  -0.660  1.00  0.00     0.055 A 
ATOM      9  C   UNL     1       3.801  -0.051  -1.608  1.00  0.00     0.042 A 
ATOM     10  C   UNL     1       4.685  -1.117  -1.483  1.00  0.00     0.020 A 
ATOM     11  C   UNL     1       5.601  -0.100   0.498  1.00  0.00     0.017 A 
ATOM     12  Br  UNL     1       4.654  -2.515  -2.751  1.00  0.00    -0.051 Br
ATOM     13  C   UNL     1       5.564  -1.164  -0.412  1.00  0.00     0.016 A 
BRANCH   8  14
ATOM     14  N   UNL     1       2.908   2.020  -0.916  1.00  0.00    -0.321 N 
ATOM     15  C   UNL     1       1.530   2.057  -0.975  1.00  0.00     0.256 C 
ATOM     16  O   UNL     1       1.087   3.159  -1.327  1.00  0.00    -0.269 OA
ATOM     17  H   UNL     1       3.340   2.887  -1.089  1.00  0.00     0.170 HD
BRANCH  15  18
ATOM     18  C   UNL     1       0.585   0.998  -0.520  1.00  0.00     0.053 A 
ATOM     19  C   UNL     1       1.856  -1.081   0.624  1.00  0.00     0.046 C 
ATOM     20  C   UNL     1       0.677  -0.319   0.121  1.00  0.00    -0.028 A 
ATOM     21  C   UNL     1      -0.575  -0.905   0.264  1.00  0.00     0.069 A 
ATOM     22  S   UNL     1      -1.858   0.112  -0.161  1.00  0.00    -0.151 S 
ATOM     23  C   UNL     1      -0.770   1.329  -0.622  1.00  0.00     0.079 A 
ENDBRANCH  15  18
ENDBRANCH   8  14
ENDBRANCH   4   7
ENDBRANCH   2   3
ENDBRANCH   1   2
BRANCH   1  24
ATOM     24  C   UNL     1       2.344   5.396   3.045  1.00  0.00     0.023 C 
BRANCH  24  25
ATOM     25  C   UNL     1       2.702   6.351   1.912  1.00  0.00     0.116 C 
BRANCH  25  26
ATOM     26  N   UNL     1       1.611   6.631   0.989  1.00  0.00    -0.352 N 
ATOM     27  C   UNL     1       0.996   7.823   0.676  1.00  0.00     0.251 C 
ATOM     28  H   UNL     1       1.258   5.845   0.512  1.00  0.00     0.163 HD
ATOM     29  O   UNL     1       0.029   7.837  -0.083  1.00  0.00    -0.269 OA
BRANCH  27  30
ATOM     30  C   UNL     1       1.462   9.094   1.276  1.00  0.00     0.039 A 
ATOM     31  C   UNL     1       0.516  10.012   1.740  1.00  0.00     0.014 A 
ATOM     32  C   UNL     1       2.822   9.389   1.384  1.00  0.00     0.014 A 
ATOM     33  C   UNL     1       0.935  11.184   2.377  1.00  0.00     0.010 A 
ATOM     34  C   UNL     1       3.237  10.494   2.120  1.00  0.00     0.010 A 
ATOM     35  C   UNL     1       2.301  11.419   2.606  1.00  0.00    -0.014 A 
BRANCH  35  36
ATOM     36  C   UNL     1       2.772  12.649   3.297  1.00  0.00     0.031 A 
ATOM     37  C   UNL     1       3.679  13.612   2.575  1.00  0.00     0.074 A 
ATOM     38  C   UNL     1       2.430  12.880   4.580  1.00  0.00     0.049 A 
ATOM     39  N   UNL     1       4.241  14.712   3.012  1.00  0.00    -0.248 NA
ATOM     40  C   UNL     1       4.032  13.277   1.185  1.00  0.00     0.031 C 
ATOM     41  C   UNL     1       1.607  12.001   5.411  1.00  0.00     0.029 A 
ATOM     42  N   UNL     1       2.738  13.928   5.414  1.00  0.00    -0.354 N 
ATOM     43  C   UNL     1       5.022  15.180   1.962  1.00  0.00     0.074 A 
ATOM     44  C   UNL     1       4.922  14.212   0.894  1.00  0.00     0.031 C 
ATOM     45  C   UNL     1       1.447  12.560   6.622  1.00  0.00     0.029 A 
ATOM     46  C   UNL     1       2.186  13.818   6.668  1.00  0.00     0.049 A 
ATOM     47  H   UNL     1       3.301  14.687   5.139  1.00  0.00     0.167 HD
ATOM     48  C   UNL     1       5.730  16.331   1.879  1.00  0.00     0.037 A 
ATOM     49  C   UNL     1       2.267  14.641   7.731  1.00  0.00     0.037 A 
ATOM     50  C   UNL     1       5.798  17.313   2.928  1.00  0.00     0.049 A 
ATOM     51  C   UNL     1       3.051  15.922   7.608  1.00  0.00     0.074 A 
ATOM     52  C   UNL     1       6.440  18.538   2.924  1.00  0.00     0.029 A 
ATOM     53  N   UNL     1       5.196  17.180   4.171  1.00  0.00    -0.354 N 
ATOM     54  N   UNL     1       3.724  16.388   6.584  1.00  0.00    -0.248 NA
ATOM     55  C   UNL     1       3.071  16.800   8.786  1.00  0.00     0.031 C 
ATOM     56  C   UNL     1       6.270  19.125   4.182  1.00  0.00     0.029 A 
ATOM     57  C   UNL     1       5.466  18.296   4.947  1.00  0.00     0.049 A 
ATOM     58  H   UNL     1       4.657  16.408   4.459  1.00  0.00     0.167 HD
ATOM     59  C   UNL     1       4.210  17.629   6.978  1.00  0.00     0.074 A 
ATOM     60  C   UNL     1       3.741  17.848   8.330  1.00  0.00     0.031 C 
ATOM     61  C   UNL     1       4.974  18.508   6.284  1.00  0.00     0.037 A 
BRANCH  48  62
ATOM     62  C   UNL     1       6.480  16.597   0.605  1.00  0.00     0.064 A 
ATOM     63  C   UNL     1       5.814  16.861  -0.603  1.00  0.00     0.173 A 
ATOM     64  C   UNL     1       7.883  16.624   0.596  1.00  0.00     0.173 A 
ATOM     65  F   UNL     1       4.474  16.834  -0.655  1.00  0.00    -0.203 F 
ATOM     66  C   UNL     1       6.523  17.110  -1.775  1.00  0.00     0.198 A 
ATOM     67  C   UNL     1       8.589  16.910  -0.570  1.00  0.00     0.198 A 
ATOM     68  F   UNL     1       8.572  16.384   1.722  1.00  0.00    -0.203 F 
ATOM     69  F   UNL     1       5.865  17.303  -2.926  1.00  0.00    -0.200 F 
ATOM     70  C   UNL     1       7.909  17.143  -1.756  1.00  0.00     0.200 A 
ATOM     71  F   UNL     1       9.928  16.956  -0.547  1.00  0.00    -0.200 F 
ATOM     72  F   UNL     1       8.590  17.394  -2.882  1.00  0.00    -0.200 F 
ENDBRANCH  48  62
BRANCH  49  73
ATOM     73  C   UNL     1       1.563  14.303   8.999  1.00  0.00     0.064 A 
ATOM     74  C   UNL     1       0.484  15.075   9.454  1.00  0.00     0.173 A 
ATOM     75  C   UNL     1       1.974  13.227   9.799  1.00  0.00     0.173 A 
ATOM     76  F   UNL     1       0.064  16.128   8.736  1.00  0.00    -0.203 F 
ATOM     77  C   UNL     1      -0.133  14.807  10.674  1.00  0.00     0.198 A 
ATOM     78  C   UNL     1       1.334  12.938  11.003  1.00  0.00     0.198 A 
ATOM     79  F   UNL     1       2.996  12.452   9.409  1.00  0.00    -0.203 F 
ATOM     80  F   UNL     1      -1.119  15.601  11.113  1.00  0.00    -0.200 F 
ATOM     81  C   UNL     1       0.290  13.736  11.446  1.00  0.00     0.200 A 
ATOM     82  F   UNL     1       1.736  11.893  11.739  1.00  0.00    -0.200 F 
ATOM     83  F   UNL     1      -0.300  13.480  12.622  1.00  0.00    -0.200 F 
ENDBRANCH  49  73
BRANCH  61  84
ATOM     84  C   UNL     1       5.296  19.817   6.948  1.00  0.00     0.064 A 
ATOM     85  C   UNL     1       6.155  19.900   8.053  1.00  0.00     0.173 A 
ATOM     86  C   UNL     1       4.751  21.012   6.451  1.00  0.00     0.173 A 
ATOM     87  F   UNL     1       6.695  18.787   8.575  1.00  0.00    -0.203 F 
ATOM     88  C   UNL     1       6.423  21.123   8.662  1.00  0.00     0.198 A 
ATOM     89  C   UNL     1       5.051  22.237   7.038  1.00  0.00     0.198 A 
ATOM     90  F   UNL     1       3.932  20.991   5.389  1.00  0.00    -0.203 F 
ATOM     91  F   UNL     1       7.195  21.170   9.756  1.00  0.00    -0.200 F 
ATOM     92  C   UNL     1       5.877  22.291   8.150  1.00  0.00     0.200 A 
ATOM     93  F   UNL     1       4.538  23.366   6.529  1.00  0.00    -0.200 F 
ATOM     94  F   UNL     1       6.139  23.468   8.735  1.00  0.00    -0.200 F 
ENDBRANCH  61  84
ENDBRANCH  35  36
ENDBRANCH  27  30
ENDBRANCH  25  26
ENDBRANCH  24  25
ENDBRANCH   1  24
TORSDOF 13
