REMARK SMILES Cc1cccc2c1N=CN1C2=[NH+]NC(=O)[C@@H]1CC(=O)NCCCCNC(=O)c1ccc(-c2c3nc(c(-c4c(F)c(F)c(F)c(F)c4F)c4ccc([nH]4)c(-c4c(F)c(F)c(F)c(F)c4F)c4nc(c(-c5c(F)c(F)c(F)c(F)c5F)c5ccc2[nH]5)C=C4)C=C3)cc1
REMARK SMILES IDX 23 1 22 2 21 3 20 4 18 5 19 6 17 8 16 9 1 10 2 11 3 12 7 13
REMARK SMILES IDX 4 14 6 15 8 16 5 17 11 18 9 19 10 20 12 21 13 22 14 24 15 26
REMARK SMILES IDX 24 27 25 28 26 29 27 31 28 32 29 33 90 34 30 35 89 36 31 37
REMARK SMILES IDX 32 38 33 39 83 40 34 41 88 42 82 43 84 44 35 45 87 46 81 47
REMARK SMILES IDX 80 48 36 50 68 51 48 52 67 53 49 54 52 55 66 56 85 57 50 58
REMARK SMILES IDX 51 59 65 61 86 62 53 63 37 64 38 65 46 66 39 67 40 68 44 69
REMARK SMILES IDX 47 70 41 71 42 72 45 73 43 74 69 75 70 76 78 77 71 78 72 79
REMARK SMILES IDX 76 80 79 81 73 82 74 83 77 84 75 85 54 86 55 87 63 88 56 89
REMARK SMILES IDX 57 90 61 91 64 92 58 93 59 94 62 95 60 96
REMARK H PARENT 20 7 12 23 13 25 25 30 84 49 52 60
REMARK Flexibility Score: inf
ROOT
ATOM      1  C   UNL     1       0.140  -3.044  -3.445  1.00  0.00     0.023 C 
ENDROOT
BRANCH   1   2
ATOM      2  C   UNL     1      -1.094  -2.417  -2.831  1.00  0.00     0.023 C 
BRANCH   2   3
ATOM      3  C   UNL     1      -1.938  -1.537  -3.732  1.00  0.00     0.116 C 
BRANCH   3   4
ATOM      4  N   UNL     1      -2.889  -2.348  -4.457  1.00  0.00    -0.356 N 
ATOM      5  C   UNL     1      -4.102  -2.820  -4.054  1.00  0.00     0.224 C 
ATOM      6  O   UNL     1      -4.717  -3.541  -4.838  1.00  0.00    -0.275 OA
ATOM      7  H   UNL     1      -2.624  -2.593  -5.372  1.00  0.00     0.163 HD
BRANCH   5   8
ATOM      8  C   UNL     1      -4.711  -2.381  -2.731  1.00  0.00     0.160 C 
BRANCH   8   9
ATOM      9  C   UNL     1      -4.483  -3.245  -1.472  1.00  0.00     0.284 C 
ATOM     10  C   UNL     1       0.384   0.206   0.887  1.00  0.00     0.047 C 
ATOM     11  C   UNL     1       0.158  -1.281   0.924  1.00  0.00    -0.024 A 
ATOM     12  C   UNL     1       1.242  -2.135   1.195  1.00  0.00     0.006 A 
ATOM     13  C   UNL     1      -1.101  -1.828   0.612  1.00  0.00     0.085 A 
ATOM     14  C   UNL     1       1.087  -3.521   1.164  1.00  0.00     0.001 A 
ATOM     15  C   UNL     1      -1.218  -3.230   0.511  1.00  0.00     0.092 A 
ATOM     16  N   UNL     1      -2.180  -0.958   0.314  1.00  0.00    -0.215 NA
ATOM     17  C   UNL     1      -0.142  -4.073   0.814  1.00  0.00     0.019 A 
ATOM     18  C   UNL     1      -2.440  -3.766  -0.175  1.00  0.00     0.309 C 
ATOM     19  C   UNL     1      -3.210  -1.491  -0.260  1.00  0.00     0.317 C 
ATOM     20  N   UNL     1      -3.346  -2.811  -0.628  1.00  0.00    -0.203 N 
ATOM     21  N   UNL     1      -2.510  -5.047  -0.380  1.00  0.00    -0.169 N 
ATOM     22  N   UNL     1      -3.526  -5.505  -1.147  1.00  0.00    -0.193 N 
ATOM     23  H   UNL     1      -1.848  -5.662   0.009  1.00  0.00     0.340 HD
ATOM     24  C   UNL     1      -4.465  -4.738  -1.784  1.00  0.00     0.300 C 
ATOM     25  H   UNL     1      -3.597  -6.480  -1.258  1.00  0.00     0.216 HD
ATOM     26  O   UNL     1      -5.306  -5.274  -2.505  1.00  0.00    -0.267 OA
ENDBRANCH   8   9
ENDBRANCH   5   8
ENDBRANCH   3   4
ENDBRANCH   2   3
ENDBRANCH   1   2
BRANCH   1  27
ATOM     27  C   UNL     1       1.226  -2.040  -3.773  1.00  0.00     0.116 C 
BRANCH  27  28
ATOM     28  N   UNL     1       1.701  -1.291  -2.612  1.00  0.00    -0.352 N 
ATOM     29  C   UNL     1       3.001  -1.053  -2.229  1.00  0.00     0.251 C 
ATOM     30  H   UNL     1       1.004  -0.908  -2.031  1.00  0.00     0.163 HD
ATOM     31  O   UNL     1       3.276  -0.474  -1.190  1.00  0.00    -0.269 OA
BRANCH  29  32
ATOM     32  C   UNL     1       4.065  -1.566  -3.107  1.00  0.00     0.039 A 
ATOM     33  C   UNL     1       4.993  -2.470  -2.589  1.00  0.00     0.014 A 
ATOM     34  C   UNL     1       4.030  -1.258  -4.469  1.00  0.00     0.014 A 
ATOM     35  C   UNL     1       5.851  -3.134  -3.463  1.00  0.00     0.010 A 
ATOM     36  C   UNL     1       4.816  -1.987  -5.343  1.00  0.00     0.010 A 
ATOM     37  C   UNL     1       5.740  -2.920  -4.845  1.00  0.00    -0.014 A 
BRANCH  37  38
ATOM     38  C   UNL     1       6.636  -3.586  -5.813  1.00  0.00     0.031 A 
ATOM     39  C   UNL     1       7.596  -2.734  -6.588  1.00  0.00     0.074 A 
ATOM     40  C   UNL     1       6.527  -4.905  -6.050  1.00  0.00     0.049 A 
ATOM     41  N   UNL     1       8.349  -3.047  -7.607  1.00  0.00    -0.248 NA
ATOM     42  C   UNL     1       7.684  -1.319  -6.183  1.00  0.00     0.031 C 
ATOM     43  C   UNL     1       5.610  -5.820  -5.367  1.00  0.00     0.029 A 
ATOM     44  N   UNL     1       7.189  -5.704  -6.946  1.00  0.00    -0.354 N 
ATOM     45  C   UNL     1       8.976  -1.867  -7.979  1.00  0.00     0.074 A 
ATOM     46  C   UNL     1       8.471  -0.820  -7.121  1.00  0.00     0.031 C 
ATOM     47  C   UNL     1       5.786  -7.060  -5.854  1.00  0.00     0.029 A 
ATOM     48  C   UNL     1       6.798  -7.019  -6.906  1.00  0.00     0.049 A 
ATOM     49  H   UNL     1       7.879  -5.365  -7.561  1.00  0.00     0.167 HD
ATOM     50  C   UNL     1       9.916  -1.682  -8.934  1.00  0.00     0.037 A 
ATOM     51  C   UNL     1       7.216  -8.065  -7.643  1.00  0.00     0.037 A 
ATOM     52  C   UNL     1      10.436  -2.740  -9.753  1.00  0.00     0.049 A 
ATOM     53  C   UNL     1       8.264  -7.835  -8.699  1.00  0.00     0.074 A 
ATOM     54  C   UNL     1      11.402  -2.675 -10.739  1.00  0.00     0.029 A 
ATOM     55  N   UNL     1      10.037  -4.066  -9.663  1.00  0.00    -0.354 N 
ATOM     56  N   UNL     1       8.860  -6.718  -9.042  1.00  0.00    -0.248 NA
ATOM     57  C   UNL     1       8.698  -9.009  -9.468  1.00  0.00     0.031 C 
ATOM     58  C   UNL     1      11.574  -3.961 -11.261  1.00  0.00     0.029 A 
ATOM     59  C   UNL     1      10.741  -4.832 -10.574  1.00  0.00     0.049 A 
ATOM     60  H   UNL     1       9.354  -4.411  -9.043  1.00  0.00     0.167 HD
ATOM     61  C   UNL     1       9.756  -7.056 -10.046  1.00  0.00     0.074 A 
ATOM     62  C   UNL     1       9.632  -8.485 -10.251  1.00  0.00     0.031 C 
ATOM     63  C   UNL     1      10.604  -6.257 -10.739  1.00  0.00     0.037 A 
BRANCH  50  64
ATOM     64  C   UNL     1      10.442  -0.290  -9.116  1.00  0.00     0.064 A 
ATOM     65  C   UNL     1      11.256   0.315  -8.145  1.00  0.00     0.173 A 
ATOM     66  C   UNL     1      10.132   0.448 -10.266  1.00  0.00     0.173 A 
ATOM     67  F   UNL     1      11.562  -0.342  -7.016  1.00  0.00    -0.203 F 
ATOM     68  C   UNL     1      11.715   1.619  -8.306  1.00  0.00     0.198 A 
ATOM     69  C   UNL     1      10.617   1.742 -10.438  1.00  0.00     0.198 A 
ATOM     70  F   UNL     1       9.354  -0.082 -11.222  1.00  0.00    -0.203 F 
ATOM     71  F   UNL     1      12.442   2.195  -7.339  1.00  0.00    -0.200 F 
ATOM     72  C   UNL     1      11.400   2.329  -9.455  1.00  0.00     0.200 A 
ATOM     73  F   UNL     1      10.318   2.426 -11.551  1.00  0.00    -0.200 F 
ATOM     74  F   UNL     1      11.844   3.584  -9.610  1.00  0.00    -0.200 F 
ENDBRANCH  50  64
BRANCH  51  75
ATOM     75  C   UNL     1       6.684  -9.425  -7.370  1.00  0.00     0.064 A 
ATOM     76  C   UNL     1       7.489 -10.390  -6.749  1.00  0.00     0.173 A 
ATOM     77  C   UNL     1       5.369  -9.784  -7.697  1.00  0.00     0.173 A 
ATOM     78  F   UNL     1       8.760 -10.099  -6.434  1.00  0.00    -0.203 F 
ATOM     79  C   UNL     1       7.002 -11.666  -6.473  1.00  0.00     0.198 A 
ATOM     80  C   UNL     1       4.876 -11.054  -7.402  1.00  0.00     0.198 A 
ATOM     81  F   UNL     1       4.558  -8.895  -8.288  1.00  0.00    -0.203 F 
ATOM     82  F   UNL     1       7.803 -12.578  -5.905  1.00  0.00    -0.200 F 
ATOM     83  C   UNL     1       5.694 -11.995  -6.794  1.00  0.00     0.200 A 
ATOM     84  F   UNL     1       3.608 -11.366  -7.703  1.00  0.00    -0.200 F 
ATOM     85  F   UNL     1       5.223 -13.220  -6.521  1.00  0.00    -0.200 F 
ENDBRANCH  51  75
BRANCH  63  86
ATOM     86  C   UNL     1      11.490  -6.911 -11.754  1.00  0.00     0.064 A 
ATOM     87  C   UNL     1      10.993  -7.333 -12.995  1.00  0.00     0.173 A 
ATOM     88  C   UNL     1      12.865  -7.045 -11.511  1.00  0.00     0.173 A 
ATOM     89  F   UNL     1       9.683  -7.235 -13.266  1.00  0.00    -0.203 F 
ATOM     90  C   UNL     1      11.842  -7.878 -13.953  1.00  0.00     0.198 A 
ATOM     91  C   UNL     1      13.714  -7.567 -12.480  1.00  0.00     0.198 A 
ATOM     92  F   UNL     1      13.386  -6.646 -10.340  1.00  0.00    -0.203 F 
ATOM     93  F   UNL     1      11.344  -8.302 -15.123  1.00  0.00    -0.200 F 
ATOM     94  C   UNL     1      13.202  -7.986 -13.699  1.00  0.00     0.200 A 
ATOM     95  F   UNL     1      15.029  -7.657 -12.239  1.00  0.00    -0.200 F 
ATOM     96  F   UNL     1      14.020  -8.496 -14.630  1.00  0.00    -0.200 F 
ENDBRANCH  63  86
ENDBRANCH  37  38
ENDBRANCH  29  32
ENDBRANCH  27  28
ENDBRANCH   1  27
TORSDOF 12
