REMARK SMILES O=C(NCCCCNC(=O)c1ccc(C[NH2+][C@@H]2CCCC[C@H]2O)nc1)c1ccc(-c2c3nc(c(-c4c(F)c(F)c(F)c(F)c4F)c4ccc([nH]4)c(-c4c(F)c(F)c(F)c(F)c4F)c4nc(c(-c5c(F)c(F)c(F)c(F)c5F)c5ccc2[nH]5)C=C4)C=C3)cc1
REMARK SMILES IDX 6 1 5 2 4 3 3 4 1 5 2 6 26 8 27 9 88 10 28 11 87 12 29 13
REMARK SMILES IDX 30 14 31 15 81 16 32 17 86 18 80 19 82 20 33 21 85 22 79 23
REMARK SMILES IDX 78 24 34 26 66 27 46 28 65 29 47 30 50 31 64 32 83 33 48 34
REMARK SMILES IDX 49 35 63 37 84 38 51 39 35 40 36 41 44 42 37 43 38 44 42 45
REMARK SMILES IDX 45 46 39 47 40 48 43 49 41 50 67 51 68 52 76 53 69 54 70 55
REMARK SMILES IDX 74 56 77 57 71 58 72 59 75 60 73 61 52 62 53 63 61 64 54 65
REMARK SMILES IDX 55 66 59 67 62 68 56 69 57 70 60 71 58 72 7 73 8 74 9 75
REMARK SMILES IDX 10 77 11 78 12 79 25 80 13 81 24 82 14 83 15 84 16 85 17 88
REMARK SMILES IDX 18 89 22 90 19 91 21 92 20 93 23 94
REMARK H PARENT 3 7 82 25 50 36 8 76 16 86 16 87 23 95
REMARK Flexibility Score: inf
ROOT
ATOM      1  C   UNL     1      -3.271  12.393  -7.899  1.00  0.00     0.023 C 
ENDROOT
BRANCH   1   2
ATOM      2  C   UNL     1      -4.743  12.791  -7.916  1.00  0.00     0.023 C 
BRANCH   2   3
ATOM      3  C   UNL     1      -5.473  12.636  -6.590  1.00  0.00     0.116 C 
BRANCH   3   4
ATOM      4  N   UNL     1      -4.939  13.474  -5.527  1.00  0.00    -0.352 N 
ATOM      5  O   UNL     1      -5.023  14.982  -3.843  1.00  0.00    -0.269 OA
ATOM      6  C   UNL     1      -5.625  14.254  -4.624  1.00  0.00     0.251 C 
ATOM      7  H   UNL     1      -3.958  13.484  -5.443  1.00  0.00     0.163 HD
BRANCH   6   8
ATOM      8  C   UNL     1      -7.104  14.234  -4.632  1.00  0.00     0.039 A 
ATOM      9  C   UNL     1      -7.790  13.021  -4.688  1.00  0.00     0.014 A 
ATOM     10  C   UNL     1      -7.807  15.442  -4.631  1.00  0.00     0.014 A 
ATOM     11  C   UNL     1      -9.159  13.019  -4.915  1.00  0.00     0.010 A 
ATOM     12  C   UNL     1      -9.200  15.435  -4.762  1.00  0.00     0.010 A 
ATOM     13  C   UNL     1      -9.883  14.224  -4.946  1.00  0.00    -0.014 A 
BRANCH  13  14
ATOM     14  C   UNL     1     -11.357  14.160  -5.115  1.00  0.00     0.031 A 
ATOM     15  C   UNL     1     -12.036  14.715  -6.335  1.00  0.00     0.074 A 
ATOM     16  C   UNL     1     -12.075  13.514  -4.176  1.00  0.00     0.049 A 
ATOM     17  N   UNL     1     -13.301  14.652  -6.672  1.00  0.00    -0.248 NA
ATOM     18  C   UNL     1     -11.197  15.440  -7.301  1.00  0.00     0.031 C 
ATOM     19  C   UNL     1     -11.525  12.959  -2.937  1.00  0.00     0.029 A 
ATOM     20  N   UNL     1     -13.403  13.178  -4.130  1.00  0.00    -0.354 N 
ATOM     21  C   UNL     1     -13.412  15.337  -7.875  1.00  0.00     0.074 A 
ATOM     22  C   UNL     1     -12.091  15.831  -8.200  1.00  0.00     0.031 C 
ATOM     23  C   UNL     1     -12.489  12.293  -2.287  1.00  0.00     0.029 A 
ATOM     24  C   UNL     1     -13.736  12.422  -3.033  1.00  0.00     0.049 A 
ATOM     25  H   UNL     1     -14.054  13.451  -4.816  1.00  0.00     0.167 HD
ATOM     26  C   UNL     1     -14.516  15.526  -8.639  1.00  0.00     0.037 A 
ATOM     27  C   UNL     1     -14.915  11.890  -2.664  1.00  0.00     0.037 A 
ATOM     28  C   UNL     1     -15.826  15.020  -8.318  1.00  0.00     0.049 A 
ATOM     29  C   UNL     1     -16.112  12.094  -3.546  1.00  0.00     0.074 A 
ATOM     30  C   UNL     1     -17.006  15.156  -9.031  1.00  0.00     0.029 A 
ATOM     31  N   UNL     1     -16.129  14.272  -7.189  1.00  0.00    -0.354 N 
ATOM     32  N   UNL     1     -16.197  12.734  -4.686  1.00  0.00    -0.248 NA
ATOM     33  C   UNL     1     -17.376  11.503  -3.089  1.00  0.00     0.031 C 
ATOM     34  C   UNL     1     -18.027  14.516  -8.319  1.00  0.00     0.029 A 
ATOM     35  C   UNL     1     -17.477  13.948  -7.182  1.00  0.00     0.049 A 
ATOM     36  H   UNL     1     -15.482  14.011  -6.494  1.00  0.00     0.167 HD
ATOM     37  C   UNL     1     -17.521  12.629  -5.081  1.00  0.00     0.074 A 
ATOM     38  C   UNL     1     -18.194  11.828  -4.079  1.00  0.00     0.031 C 
ATOM     39  C   UNL     1     -18.130  13.162  -6.168  1.00  0.00     0.037 A 
BRANCH  26  40
ATOM     40  C   UNL     1     -14.362  16.320  -9.904  1.00  0.00     0.064 A 
ATOM     41  C   UNL     1     -13.734  15.781 -11.036  1.00  0.00     0.173 A 
ATOM     42  C   UNL     1     -14.909  17.609 -10.008  1.00  0.00     0.173 A 
ATOM     43  F   UNL     1     -13.186  14.558 -10.985  1.00  0.00    -0.203 F 
ATOM     44  C   UNL     1     -13.648  16.507 -12.222  1.00  0.00     0.198 A 
ATOM     45  C   UNL     1     -14.840  18.323 -11.201  1.00  0.00     0.198 A 
ATOM     46  F   UNL     1     -15.525  18.168  -8.956  1.00  0.00    -0.203 F 
ATOM     47  F   UNL     1     -13.017  15.983 -13.282  1.00  0.00    -0.200 F 
ATOM     48  C   UNL     1     -14.207  17.773 -12.306  1.00  0.00     0.200 A 
ATOM     49  F   UNL     1     -15.392  19.542 -11.284  1.00  0.00    -0.200 F 
ATOM     50  F   UNL     1     -14.134  18.466 -13.451  1.00  0.00    -0.200 F 
ENDBRANCH  26  40
BRANCH  27  51
ATOM     51  C   UNL     1     -15.008  11.117  -1.400  1.00  0.00     0.064 A 
ATOM     52  C   UNL     1     -15.216   9.732  -1.412  1.00  0.00     0.173 A 
ATOM     53  C   UNL     1     -14.867  11.748  -0.155  1.00  0.00     0.173 A 
ATOM     54  F   UNL     1     -15.373   9.088  -2.577  1.00  0.00    -0.203 F 
ATOM     55  C   UNL     1     -15.293   9.008  -0.224  1.00  0.00     0.198 A 
ATOM     56  C   UNL     1     -14.914  11.020   1.030  1.00  0.00     0.198 A 
ATOM     57  F   UNL     1     -14.658  13.072  -0.093  1.00  0.00    -0.203 F 
ATOM     58  F   UNL     1     -15.530   7.690  -0.260  1.00  0.00    -0.200 F 
ATOM     59  C   UNL     1     -15.134   9.651   0.995  1.00  0.00     0.200 A 
ATOM     60  F   UNL     1     -14.741  11.642   2.203  1.00  0.00    -0.200 F 
ATOM     61  F   UNL     1     -15.197   8.953   2.137  1.00  0.00    -0.200 F 
ENDBRANCH  27  51
BRANCH  39  62
ATOM     62  C   UNL     1     -19.598  12.895  -6.314  1.00  0.00     0.064 A 
ATOM     63  C   UNL     1     -20.539  13.529  -5.489  1.00  0.00     0.173 A 
ATOM     64  C   UNL     1     -20.068  12.000  -7.286  1.00  0.00     0.173 A 
ATOM     65  F   UNL     1     -20.134  14.380  -4.534  1.00  0.00    -0.203 F 
ATOM     66  C   UNL     1     -21.897  13.251  -5.611  1.00  0.00     0.198 A 
ATOM     67  C   UNL     1     -21.429  11.743  -7.421  1.00  0.00     0.198 A 
ATOM     68  F   UNL     1     -19.207  11.371  -8.100  1.00  0.00    -0.203 F 
ATOM     69  F   UNL     1     -22.773  13.827  -4.777  1.00  0.00    -0.200 F 
ATOM     70  C   UNL     1     -22.341  12.362  -6.578  1.00  0.00     0.200 A 
ATOM     71  F   UNL     1     -21.859  10.889  -8.360  1.00  0.00    -0.200 F 
ATOM     72  F   UNL     1     -23.649  12.091  -6.689  1.00  0.00    -0.200 F 
ENDBRANCH  39  62
ENDBRANCH  13  14
ENDBRANCH   6   8
ENDBRANCH   3   4
ENDBRANCH   2   3
ENDBRANCH   1   2
BRANCH   1  73
ATOM     73  C   UNL     1      -2.977  11.024  -7.293  1.00  0.00     0.116 C 
BRANCH  73  74
ATOM     74  N   UNL     1      -3.662   9.942  -7.987  1.00  0.00    -0.352 N 
ATOM     75  C   UNL     1      -3.114   8.880  -8.663  1.00  0.00     0.252 C 
ATOM     76  H   UNL     1      -4.646   9.976  -7.968  1.00  0.00     0.163 HD
ATOM     77  O   UNL     1      -3.814   8.101  -9.300  1.00  0.00    -0.269 OA
BRANCH  75  78
ATOM     78  C   UNL     1      -1.660   8.711  -8.634  1.00  0.00     0.058 A 
ATOM     79  C   UNL     1      -0.975   8.494  -7.439  1.00  0.00     0.017 A 
ATOM     80  C   UNL     1      -0.946   8.876  -9.803  1.00  0.00     0.125 A 
ATOM     81  C   UNL     1       0.415   8.533  -7.448  1.00  0.00     0.030 A 
ATOM     82  N   UNL     1       0.404   8.917  -9.833  1.00  0.00    -0.255 NA
ATOM     83  C   UNL     1       1.073   8.761  -8.656  1.00  0.00     0.094 A 
BRANCH  83  84
ATOM     84  C   UNL     1       2.584   8.928  -8.678  1.00  0.00     0.318 C 
BRANCH  84  85
ATOM     85  N   UNL     1       3.190   8.178  -9.773  1.00  0.00    -0.337 N 
ATOM     86  H   UNL     1       2.826   8.553 -10.649  1.00  0.00     0.346 HD
ATOM     87  H   UNL     1       2.946   7.201  -9.609  1.00  0.00     0.346 HD
BRANCH  85  88
ATOM     88  C   UNL     1       4.655   8.220  -9.838  1.00  0.00     0.211 C 
ATOM     89  C   UNL     1       5.238   9.648  -9.873  1.00  0.00     0.068 C 
ATOM     90  C   UNL     1       5.097   7.460 -11.118  1.00  0.00     0.172 C 
ATOM     91  C   UNL     1       4.824  10.414 -11.129  1.00  0.00     0.006 C 
ATOM     92  C   UNL     1       4.697   8.215 -12.394  1.00  0.00     0.038 C 
ATOM     93  C   UNL     1       5.207   9.657 -12.398  1.00  0.00     0.003 C 
BRANCH  90  94
ATOM     94  O   UNL     1       6.514   7.263 -11.094  1.00  0.00    -0.387 OA
ATOM     95  H   UNL     1       6.960   8.125 -11.083  1.00  0.00     0.211 HD
ENDBRANCH  90  94
ENDBRANCH  85  88
ENDBRANCH  84  85
ENDBRANCH  83  84
ENDBRANCH  75  78
ENDBRANCH  73  74
ENDBRANCH   1  73
TORSDOF 15
