REMARK SMILES COC(=O)[C@@H]1C[C@@H](C(=O)NCCCCNC(=O)c2ccc(-c3c4nc(c(-c5c(F)c(F)c(F)c(F)c5F)c5ccc([nH]5)c(-c5c(F)c(F)c(F)c(F)c5F)c5nc(c(-c6c(F)c(F)c(F)c(F)c6F)c6ccc3[nH]6)C=C5)C=C4)cc2)[C@@H](c2cccc(F)c2F)[N@H+]1C
REMARK SMILES IDX 12 1 11 2 10 3 8 4 9 5 7 7 5 8 6 9 90 10 81 11 91 12 3 14
REMARK SMILES IDX 4 15 2 16 1 17 82 18 83 19 88 20 84 21 86 22 89 23 85 24
REMARK SMILES IDX 87 25 13 26 14 27 15 28 16 29 17 31 18 32 19 33 80 34 20 35
REMARK SMILES IDX 79 36 21 37 22 38 23 39 73 40 24 41 78 42 72 43 74 44 25 45
REMARK SMILES IDX 77 46 71 47 70 48 26 50 58 51 38 52 57 53 39 54 42 55 56 56
REMARK SMILES IDX 75 57 40 58 41 59 55 61 76 62 43 63 27 64 28 65 36 66 29 67
REMARK SMILES IDX 30 68 34 69 37 70 31 71 32 72 35 73 33 74 59 75 60 76 68 77
REMARK SMILES IDX 61 78 62 79 66 80 69 81 63 82 64 83 67 84 65 85 44 86 45 87
REMARK SMILES IDX 53 88 46 89 47 90 51 91 54 92 48 93 49 94 52 95 50 96
REMARK H PARENT 10 6 90 13 15 30 74 49 42 60
REMARK Flexibility Score: inf
ROOT
ATOM      1  C   UNL     1      -0.452   0.356  -0.177  1.00  0.00     0.023 C 
ENDROOT
BRANCH   1   2
ATOM      2  C   UNL     1      -0.482  -0.978  -0.907  1.00  0.00     0.116 C 
BRANCH   2   3
ATOM      3  N   UNL     1      -1.806  -1.340  -1.371  1.00  0.00    -0.356 N 
ATOM      4  C   UNL     1      -2.485  -1.127  -2.524  1.00  0.00     0.229 C 
ATOM      5  O   UNL     1      -3.613  -1.635  -2.579  1.00  0.00    -0.275 OA
ATOM      6  H   UNL     1      -2.323  -1.850  -0.706  1.00  0.00     0.163 HD
BRANCH   4   7
ATOM      7  C   UNL     1      -1.971  -0.327  -3.719  1.00  0.00     0.148 C 
ATOM      8  C   UNL     1       0.302   0.374  -4.046  1.00  0.00     0.296 C 
ATOM      9  C   UNL     1      -0.602  -0.831  -4.176  1.00  0.00     0.097 C 
ATOM     10  N   UNL     1      -0.619   1.451  -4.422  1.00  0.00    -0.319 N 
ATOM     11  C   UNL     1      -1.938   1.253  -3.764  1.00  0.00     0.231 C 
ATOM     12  C   UNL     1       0.002   2.740  -4.587  1.00  0.00     0.333 C 
ATOM     13  H   UNL     1      -0.908   1.405  -5.399  1.00  0.00     0.349 HD
BRANCH   8  14
ATOM     14  C   UNL     1       1.508   0.195  -4.971  1.00  0.00     0.364 C 
ATOM     15  O   UNL     1       1.530   0.371  -6.182  1.00  0.00    -0.245 OA
BRANCH  14  16
ATOM     16  O   UNL     1       2.571  -0.251  -4.232  1.00  0.00    -0.465 OA
ATOM     17  C   UNL     1       3.769  -0.435  -4.989  1.00  0.00     0.282 C 
ENDBRANCH  14  16
ENDBRANCH   8  14
BRANCH  11  18
ATOM     18  C   UNL     1      -2.394   2.034  -2.517  1.00  0.00     0.049 A 
ATOM     19  C   UNL     1      -3.474   1.538  -1.745  1.00  0.00     0.013 A 
ATOM     20  C   UNL     1      -1.925   3.288  -2.088  1.00  0.00     0.167 A 
ATOM     21  C   UNL     1      -3.869   2.104  -0.520  1.00  0.00     0.004 A 
ATOM     22  C   UNL     1      -2.317   3.861  -0.871  1.00  0.00     0.159 A 
ATOM     23  F   UNL     1      -1.116   4.045  -2.830  1.00  0.00    -0.203 F 
ATOM     24  C   UNL     1      -3.255   3.255  -0.058  1.00  0.00     0.042 A 
ATOM     25  F   UNL     1      -1.777   5.026  -0.483  1.00  0.00    -0.204 F 
ENDBRANCH  11  18
ENDBRANCH   4   7
ENDBRANCH   2   3
ENDBRANCH   1   2
BRANCH   1  26
ATOM     26  C   UNL     1      -1.251   0.359   1.124  1.00  0.00     0.023 C 
BRANCH  26  27
ATOM     27  C   UNL     1      -0.596  -0.470   2.210  1.00  0.00     0.116 C 
BRANCH  27  28
ATOM     28  N   UNL     1       0.707   0.064   2.583  1.00  0.00    -0.352 N 
ATOM     29  C   UNL     1       1.234   0.238   3.832  1.00  0.00     0.251 C 
ATOM     30  H   UNL     1       1.286   0.336   1.834  1.00  0.00     0.163 HD
ATOM     31  O   UNL     1       2.261   0.895   3.988  1.00  0.00    -0.269 OA
BRANCH  29  32
ATOM     32  C   UNL     1       0.547  -0.359   4.989  1.00  0.00     0.039 A 
ATOM     33  C   UNL     1       0.463   0.366   6.178  1.00  0.00     0.014 A 
ATOM     34  C   UNL     1      -0.019  -1.633   4.891  1.00  0.00     0.014 A 
ATOM     35  C   UNL     1      -0.204  -0.189   7.266  1.00  0.00     0.010 A 
ATOM     36  C   UNL     1      -0.791  -2.126   5.928  1.00  0.00     0.010 A 
ATOM     37  C   UNL     1      -0.846  -1.433   7.143  1.00  0.00    -0.014 A 
BRANCH  37  38
ATOM     38  C   UNL     1      -1.505  -2.072   8.303  1.00  0.00     0.031 A 
ATOM     39  C   UNL     1      -0.987  -3.391   8.811  1.00  0.00     0.074 A 
ATOM     40  C   UNL     1      -2.575  -1.484   8.865  1.00  0.00     0.049 A 
ATOM     41  N   UNL     1      -1.430  -4.131   9.794  1.00  0.00    -0.248 NA
ATOM     42  C   UNL     1       0.156  -3.980   8.092  1.00  0.00     0.031 C 
ATOM     43  C   UNL     1      -3.196  -0.239   8.408  1.00  0.00     0.029 A 
ATOM     44  N   UNL     1      -3.328  -1.854   9.947  1.00  0.00    -0.354 N 
ATOM     45  C   UNL     1      -0.635  -5.271   9.793  1.00  0.00     0.074 A 
ATOM     46  C   UNL     1       0.259  -5.168   8.665  1.00  0.00     0.031 C 
ATOM     47  C   UNL     1      -4.207   0.076   9.233  1.00  0.00     0.029 A 
ATOM     48  C   UNL     1      -4.327  -0.962  10.251  1.00  0.00     0.049 A 
ATOM     49  H   UNL     1      -3.169  -2.680  10.458  1.00  0.00     0.167 HD
ATOM     50  C   UNL     1      -0.624  -6.292  10.681  1.00  0.00     0.037 A 
ATOM     51  C   UNL     1      -5.228  -0.984  11.249  1.00  0.00     0.037 A 
ATOM     52  C   UNL     1      -1.495  -6.360  11.822  1.00  0.00     0.049 A 
ATOM     53  C   UNL     1      -5.179  -2.118  12.238  1.00  0.00     0.074 A 
ATOM     54  C   UNL     1      -1.540  -7.315  12.820  1.00  0.00     0.029 A 
ATOM     55  N   UNL     1      -2.476  -5.422  12.117  1.00  0.00    -0.354 N 
ATOM     56  N   UNL     1      -4.377  -3.156  12.272  1.00  0.00    -0.248 NA
ATOM     57  C   UNL     1      -6.150  -2.073  13.338  1.00  0.00     0.031 C 
ATOM     58  C   UNL     1      -2.583  -6.983  13.692  1.00  0.00     0.029 A 
ATOM     59  C   UNL     1      -3.143  -5.785  13.274  1.00  0.00     0.049 A 
ATOM     60  H   UNL     1      -2.668  -4.619  11.582  1.00  0.00     0.167 HD
ATOM     61  C   UNL     1      -4.720  -3.868  13.413  1.00  0.00     0.074 A 
ATOM     62  C   UNL     1      -5.792  -3.130  14.052  1.00  0.00     0.031 C 
ATOM     63  C   UNL     1      -4.200  -5.025  13.892  1.00  0.00     0.037 A 
BRANCH  50  64
ATOM     64  C   UNL     1       0.362  -7.403  10.451  1.00  0.00     0.064 A 
ATOM     65  C   UNL     1       1.748  -7.197  10.559  1.00  0.00     0.173 A 
ATOM     66  C   UNL     1      -0.082  -8.694  10.128  1.00  0.00     0.173 A 
ATOM     67  F   UNL     1       2.230  -5.979  10.847  1.00  0.00    -0.203 F 
ATOM     68  C   UNL     1       2.649  -8.231  10.316  1.00  0.00     0.198 A 
ATOM     69  C   UNL     1       0.821  -9.734   9.923  1.00  0.00     0.198 A 
ATOM     70  F   UNL     1      -1.394  -8.949  10.011  1.00  0.00    -0.203 F 
ATOM     71  F   UNL     1       3.967  -7.992  10.360  1.00  0.00    -0.200 F 
ATOM     72  C   UNL     1       2.185  -9.500  10.007  1.00  0.00     0.200 A 
ATOM     73  F   UNL     1       0.370 -10.963   9.636  1.00  0.00    -0.200 F 
ATOM     74  F   UNL     1       3.053 -10.495   9.779  1.00  0.00    -0.200 F 
ENDBRANCH  50  64
BRANCH  51  75
ATOM     75  C   UNL     1      -6.213   0.120  11.389  1.00  0.00     0.064 A 
ATOM     76  C   UNL     1      -6.149   1.013  12.469  1.00  0.00     0.173 A 
ATOM     77  C   UNL     1      -7.239   0.307  10.451  1.00  0.00     0.173 A 
ATOM     78  F   UNL     1      -5.194   0.870  13.399  1.00  0.00    -0.203 F 
ATOM     79  C   UNL     1      -7.090   2.029  12.621  1.00  0.00     0.198 A 
ATOM     80  C   UNL     1      -8.160   1.344  10.587  1.00  0.00     0.198 A 
ATOM     81  F   UNL     1      -7.338  -0.510   9.392  1.00  0.00    -0.203 F 
ATOM     82  F   UNL     1      -7.035   2.833  13.692  1.00  0.00    -0.200 F 
ATOM     83  C   UNL     1      -8.091   2.197  11.678  1.00  0.00     0.200 A 
ATOM     84  F   UNL     1      -9.114   1.515   9.662  1.00  0.00    -0.200 F 
ATOM     85  F   UNL     1      -8.995   3.176  11.823  1.00  0.00    -0.200 F 
ENDBRANCH  51  75
BRANCH  63  86
ATOM     86  C   UNL     1      -4.751  -5.532  15.195  1.00  0.00     0.064 A 
ATOM     87  C   UNL     1      -6.058  -6.029  15.305  1.00  0.00     0.173 A 
ATOM     88  C   UNL     1      -3.948  -5.533  16.346  1.00  0.00     0.173 A 
ATOM     89  F   UNL     1      -6.869  -6.039  14.236  1.00  0.00    -0.203 F 
ATOM     90  C   UNL     1      -6.555  -6.465  16.529  1.00  0.00     0.198 A 
ATOM     91  C   UNL     1      -4.436  -6.007  17.559  1.00  0.00     0.198 A 
ATOM     92  F   UNL     1      -2.686  -5.080  16.292  1.00  0.00    -0.203 F 
ATOM     93  F   UNL     1      -7.829  -6.870  16.625  1.00  0.00    -0.200 F 
ATOM     94  C   UNL     1      -5.743  -6.460  17.653  1.00  0.00     0.200 A 
ATOM     95  F   UNL     1      -3.643  -6.019  18.639  1.00  0.00    -0.200 F 
ATOM     96  F   UNL     1      -6.223  -6.881  18.831  1.00  0.00    -0.200 F 
ENDBRANCH  63  86
ENDBRANCH  37  38
ENDBRANCH  29  32
ENDBRANCH  27  28
ENDBRANCH  26  27
ENDBRANCH   1  26
TORSDOF 14
