REMARK SMILES O=C(NCCCCNC(=O)c1cc(F)c(F)c(O)c1F)c1ccc(-c2c3nc(c(-c4c(F)c(F)c(F)c(F)c4F)c4ccc([nH]4)c(-c4c(F)c(F)c(F)c(F)c4F)c4nc(c(-c5c(F)c(F)c(F)c(F)c5F)c5ccc2[nH]5)C=C4)C=C3)cc1
REMARK SMILES IDX 5 1 4 2 3 3 1 4 2 5 21 7 22 8 83 9 23 10 82 11 24 12 25 13
REMARK SMILES IDX 26 14 76 15 27 16 81 17 75 18 77 19 28 20 80 21 74 22 73 23
REMARK SMILES IDX 29 25 61 26 41 27 60 28 42 29 45 30 59 31 78 32 43 33 44 34
REMARK SMILES IDX 58 36 79 37 46 38 30 39 31 40 39 41 32 42 33 43 37 44 40 45
REMARK SMILES IDX 34 46 35 47 38 48 36 49 62 50 63 51 71 52 64 53 65 54 69 55
REMARK SMILES IDX 72 56 66 57 67 58 70 59 68 60 47 61 48 62 56 63 49 64 50 65
REMARK SMILES IDX 54 66 57 67 51 68 52 69 55 70 53 71 6 72 7 73 8 74 9 75
REMARK SMILES IDX 10 77 11 78 12 79 19 80 13 81 17 82 20 83 14 84 15 85 16 86
REMARK SMILES IDX 18 87
REMARK H PARENT 3 6 77 24 45 35 8 76 18 88
REMARK Flexibility Score: inf
ROOT
ATOM      1  C   UNL     1       5.020  -1.998   1.415  1.00  0.00     0.023 C 
ENDROOT
BRANCH   1   2
ATOM      2  C   UNL     1       4.607  -1.248   0.153  1.00  0.00     0.116 C 
BRANCH   2   3
ATOM      3  N   UNL     1       3.163  -1.159   0.003  1.00  0.00    -0.352 N 
ATOM      4  O   UNL     1       1.146  -0.147  -0.055  1.00  0.00    -0.269 OA
ATOM      5  C   UNL     1       2.368  -0.044  -0.096  1.00  0.00     0.251 C 
ATOM      6  H   UNL     1       2.688  -2.021  -0.033  1.00  0.00     0.163 HD
BRANCH   5   7
ATOM      7  C   UNL     1       2.990   1.288  -0.229  1.00  0.00     0.039 A 
ATOM      8  C   UNL     1       3.981   1.517  -1.188  1.00  0.00     0.014 A 
ATOM      9  C   UNL     1       2.574   2.318   0.618  1.00  0.00     0.014 A 
ATOM     10  C   UNL     1       4.642   2.742  -1.218  1.00  0.00     0.010 A 
ATOM     11  C   UNL     1       3.200   3.564   0.550  1.00  0.00     0.010 A 
ATOM     12  C   UNL     1       4.261   3.773  -0.345  1.00  0.00    -0.014 A 
BRANCH  12  13
ATOM     13  C   UNL     1       4.974   5.073  -0.389  1.00  0.00     0.031 A 
ATOM     14  C   UNL     1       5.885   5.484   0.731  1.00  0.00     0.074 A 
ATOM     15  C   UNL     1       4.816   5.870  -1.462  1.00  0.00     0.049 A 
ATOM     16  N   UNL     1       6.609   6.569   0.850  1.00  0.00    -0.248 NA
ATOM     17  C   UNL     1       6.003   4.558   1.868  1.00  0.00     0.031 C 
ATOM     18  C   UNL     1       3.962   5.569  -2.612  1.00  0.00     0.029 A 
ATOM     19  N   UNL     1       5.370   7.087  -1.766  1.00  0.00    -0.354 N 
ATOM     20  C   UNL     1       7.272   6.453   2.064  1.00  0.00     0.074 A 
ATOM     21  C   UNL     1       6.834   5.213   2.668  1.00  0.00     0.031 C 
ATOM     22  C   UNL     1       4.067   6.563  -3.507  1.00  0.00     0.029 A 
ATOM     23  C   UNL     1       4.960   7.589  -2.977  1.00  0.00     0.049 A 
ATOM     24  H   UNL     1       6.002   7.555  -1.173  1.00  0.00     0.167 HD
ATOM     25  C   UNL     1       8.177   7.298   2.612  1.00  0.00     0.037 A 
ATOM     26  C   UNL     1       5.261   8.752  -3.585  1.00  0.00     0.037 A 
ATOM     27  C   UNL     1       8.607   8.532   2.006  1.00  0.00     0.049 A 
ATOM     28  C   UNL     1       6.214   9.705  -2.916  1.00  0.00     0.074 A 
ATOM     29  C   UNL     1       9.537   9.444   2.477  1.00  0.00     0.029 A 
ATOM     30  N   UNL     1       8.132   9.032   0.803  1.00  0.00    -0.354 N 
ATOM     31  N   UNL     1       6.869   9.564  -1.789  1.00  0.00    -0.248 NA
ATOM     32  C   UNL     1       6.471  10.977  -3.604  1.00  0.00     0.031 C 
ATOM     33  C   UNL     1       9.583  10.521   1.588  1.00  0.00     0.029 A 
ATOM     34  C   UNL     1       8.727  10.254   0.532  1.00  0.00     0.049 A 
ATOM     35  H   UNL     1       7.470   8.586   0.227  1.00  0.00     0.167 HD
ATOM     36  C   UNL     1       7.631  10.715  -1.644  1.00  0.00     0.074 A 
ATOM     37  C   UNL     1       7.373  11.537  -2.808  1.00  0.00     0.031 C 
ATOM     38  C   UNL     1       8.466  11.061  -0.634  1.00  0.00     0.037 A 
BRANCH  25  39
ATOM     39  C   UNL     1       8.780   6.926   3.936  1.00  0.00     0.064 A 
ATOM     40  C   UNL     1       9.715   5.887   4.047  1.00  0.00     0.173 A 
ATOM     41  C   UNL     1       8.493   7.677   5.087  1.00  0.00     0.173 A 
ATOM     42  F   UNL     1      10.017   5.133   2.980  1.00  0.00    -0.203 F 
ATOM     43  C   UNL     1      10.337   5.609   5.262  1.00  0.00     0.198 A 
ATOM     44  C   UNL     1       9.137   7.414   6.293  1.00  0.00     0.198 A 
ATOM     45  F   UNL     1       7.611   8.686   5.034  1.00  0.00    -0.203 F 
ATOM     46  F   UNL     1      11.210   4.596   5.350  1.00  0.00    -0.200 F 
ATOM     47  C   UNL     1      10.056   6.380   6.381  1.00  0.00     0.200 A 
ATOM     48  F   UNL     1       8.877   8.170   7.369  1.00  0.00    -0.200 F 
ATOM     49  F   UNL     1      10.673   6.126   7.543  1.00  0.00    -0.200 F 
ENDBRANCH  25  39
BRANCH  26  50
ATOM     50  C   UNL     1       4.662   9.069  -4.907  1.00  0.00     0.064 A 
ATOM     51  C   UNL     1       5.453   9.124  -6.062  1.00  0.00     0.173 A 
ATOM     52  C   UNL     1       3.286   9.311  -5.045  1.00  0.00     0.173 A 
ATOM     53  F   UNL     1       6.776   8.920  -5.977  1.00  0.00    -0.203 F 
ATOM     54  C   UNL     1       4.894   9.422  -7.303  1.00  0.00     0.198 A 
ATOM     55  C   UNL     1       2.724   9.578  -6.291  1.00  0.00     0.198 A 
ATOM     56  F   UNL     1       2.485   9.268  -3.971  1.00  0.00    -0.203 F 
ATOM     57  F   UNL     1       5.680   9.509  -8.384  1.00  0.00    -0.200 F 
ATOM     58  C   UNL     1       3.530   9.641  -7.418  1.00  0.00     0.200 A 
ATOM     59  F   UNL     1       1.403   9.773  -6.400  1.00  0.00    -0.200 F 
ATOM     60  F   UNL     1       2.992   9.917  -8.613  1.00  0.00    -0.200 F 
ENDBRANCH  26  50
BRANCH  38  61
ATOM     61  C   UNL     1       9.183  12.376  -0.741  1.00  0.00     0.064 A 
ATOM     62  C   UNL     1       8.507  13.594  -0.583  1.00  0.00     0.173 A 
ATOM     63  C   UNL     1      10.573  12.416  -0.929  1.00  0.00     0.173 A 
ATOM     64  F   UNL     1       7.176  13.611  -0.414  1.00  0.00    -0.203 F 
ATOM     65  C   UNL     1       9.194  14.805  -0.622  1.00  0.00     0.198 A 
ATOM     66  C   UNL     1      11.262  13.626  -0.935  1.00  0.00     0.198 A 
ATOM     67  F   UNL     1      11.269  11.278  -1.077  1.00  0.00    -0.203 F 
ATOM     68  F   UNL     1       8.523  15.958  -0.505  1.00  0.00    -0.200 F 
ATOM     69  C   UNL     1      10.572  14.819  -0.787  1.00  0.00     0.200 A 
ATOM     70  F   UNL     1      12.594  13.636  -1.077  1.00  0.00    -0.200 F 
ATOM     71  F   UNL     1      11.233  15.984  -0.805  1.00  0.00    -0.200 F 
ENDBRANCH  38  61
ENDBRANCH  12  13
ENDBRANCH   5   7
ENDBRANCH   2   3
ENDBRANCH   1   2
BRANCH   1  72
ATOM     72  C   UNL     1       4.542  -3.447   1.497  1.00  0.00     0.023 C 
BRANCH  72  73
ATOM     73  C   UNL     1       4.907  -4.320   0.301  1.00  0.00     0.116 C 
BRANCH  73  74
ATOM     74  N   UNL     1       6.344  -4.467   0.133  1.00  0.00    -0.352 N 
ATOM     75  C   UNL     1       7.098  -5.611   0.065  1.00  0.00     0.254 C 
ATOM     76  H   UNL     1       6.848  -3.624   0.058  1.00  0.00     0.163 HD
ATOM     77  O   UNL     1       8.322  -5.549   0.018  1.00  0.00    -0.269 OA
BRANCH  75  78
ATOM     78  C   UNL     1       6.449  -6.928   0.106  1.00  0.00     0.082 A 
ATOM     79  C   UNL     1       6.862  -7.846   1.077  1.00  0.00     0.059 A 
ATOM     80  C   UNL     1       5.443  -7.270  -0.797  1.00  0.00     0.180 A 
ATOM     81  C   UNL     1       6.210  -9.072   1.169  1.00  0.00     0.163 A 
ATOM     82  C   UNL     1       4.783  -8.490  -0.685  1.00  0.00     0.191 A 
ATOM     83  F   UNL     1       5.058  -6.420  -1.762  1.00  0.00    -0.202 F 
ATOM     84  F   UNL     1       6.584  -9.940   2.118  1.00  0.00    -0.204 F 
ATOM     85  C   UNL     1       5.165  -9.391   0.304  1.00  0.00     0.203 A 
ATOM     86  F   UNL     1       4.526 -10.562   0.436  1.00  0.00    -0.200 F 
BRANCH  82  87
ATOM     87  O   UNL     1       3.748  -8.794  -1.526  1.00  0.00    -0.503 OA
ATOM     88  H   UNL     1       3.306  -9.617  -1.447  1.00  0.00     0.293 HD
ENDBRANCH  82  87
ENDBRANCH  75  78
ENDBRANCH  73  74
ENDBRANCH  72  73
ENDBRANCH   1  72
TORSDOF 12
