REMARK SMILES C[C@H](c1ccc(C(=O)NCCCCNC(=O)c2ccc(-c3c4nc(c(-c5c(F)c(F)c(F)c(F)c5F)c5ccc([nH]5)c(-c5c(F)c(F)c(F)c(F)c5F)c5nc(c(-c6c(F)c(F)c(F)c(F)c6F)c6ccc3[nH]6)C=C5)C=C4)cc2)o1)[NH+]1Cc2ccccc2C1
REMARK SMILES IDX 11 1 10 2 9 3 7 4 8 5 6 7 3 8 4 9 80 10 5 11 2 12 1 13 81 14
REMARK SMILES IDX 82 15 89 16 83 18 88 19 84 20 87 21 85 22 86 23 12 24 13 25
REMARK SMILES IDX 14 26 15 27 16 29 17 30 18 31 79 32 19 33 78 34 20 35 21 36
REMARK SMILES IDX 22 37 72 38 23 39 77 40 71 41 73 42 24 43 76 44 70 45 69 46
REMARK SMILES IDX 25 48 57 49 37 50 56 51 38 52 41 53 55 54 74 55 39 56 40 57
REMARK SMILES IDX 54 59 75 60 42 61 26 62 27 63 35 64 28 65 29 66 33 67 36 68
REMARK SMILES IDX 30 69 31 70 34 71 32 72 58 73 59 74 67 75 60 76 61 77 65 78
REMARK SMILES IDX 68 79 62 80 63 81 66 82 64 83 43 84 44 85 52 86 45 87 46 88
REMARK SMILES IDX 50 89 53 90 47 91 48 92 51 93 49 94
REMARK H PARENT 9 6 81 17 14 28 73 47 41 58
REMARK Flexibility Score: inf
ROOT
ATOM      1  C   UNL     1       4.286   3.159   3.601  1.00  0.00     0.023 C 
ENDROOT
BRANCH   1   2
ATOM      2  C   UNL     1       3.838   3.826   2.302  1.00  0.00     0.116 C 
BRANCH   2   3
ATOM      3  N   UNL     1       4.305   3.101   1.152  1.00  0.00    -0.349 N 
ATOM      4  C   UNL     1       3.664   2.179   0.365  1.00  0.00     0.287 C 
ATOM      5  O   UNL     1       4.327   1.766  -0.591  1.00  0.00    -0.266 OA
ATOM      6  H   UNL     1       5.232   3.297   0.888  1.00  0.00     0.163 HD
BRANCH   4   7
ATOM      7  C   UNL     1       2.334   1.680   0.675  1.00  0.00     0.191 A 
ATOM      8  C   UNL     1       0.822   0.078   0.358  1.00  0.00     0.162 A 
ATOM      9  C   UNL     1       0.405   0.780   1.464  1.00  0.00     0.053 A 
ATOM     10  O   UNL     1       1.871   0.747  -0.204  1.00  0.00    -0.450 OA
ATOM     11  C   UNL     1       1.384   1.801   1.675  1.00  0.00     0.057 A 
BRANCH   8  12
ATOM     12  C   UNL     1       0.614  -1.254  -0.297  1.00  0.00     0.248 C 
ATOM     13  C   UNL     1       2.011  -1.956  -0.167  1.00  0.00     0.084 C 
BRANCH  12  14
ATOM     14  N   UNL     1      -0.490  -2.153   0.088  1.00  0.00    -0.319 N 
ATOM     15  C   UNL     1      -1.770  -1.640   0.659  1.00  0.00     0.300 C 
ATOM     16  C   UNL     1      -0.096  -3.247   0.972  1.00  0.00     0.300 C 
ATOM     17  H   UNL     1      -0.704  -2.422  -0.872  1.00  0.00     0.349 HD
ATOM     18  C   UNL     1      -1.845  -2.253   2.045  1.00  0.00     0.015 A 
ATOM     19  C   UNL     1      -0.625  -2.865   2.306  1.00  0.00     0.015 A 
ATOM     20  C   UNL     1      -2.892  -2.552   2.889  1.00  0.00     0.010 A 
ATOM     21  C   UNL     1      -0.271  -3.441   3.507  1.00  0.00     0.010 A 
ATOM     22  C   UNL     1      -2.619  -3.323   4.038  1.00  0.00     0.001 A 
ATOM     23  C   UNL     1      -1.305  -3.688   4.387  1.00  0.00     0.001 A 
ENDBRANCH  12  14
ENDBRANCH   8  12
ENDBRANCH   4   7
ENDBRANCH   2   3
ENDBRANCH   1   2
BRANCH   1  24
ATOM     24  C   UNL     1       5.657   3.633   4.094  1.00  0.00     0.023 C 
BRANCH  24  25
ATOM     25  C   UNL     1       5.781   5.141   4.284  1.00  0.00     0.116 C 
BRANCH  25  26
ATOM     26  N   UNL     1       4.735   5.710   5.120  1.00  0.00    -0.352 N 
ATOM     27  C   UNL     1       4.801   6.832   5.916  1.00  0.00     0.251 C 
ATOM     28  H   UNL     1       3.873   5.234   5.117  1.00  0.00     0.163 HD
ATOM     29  O   UNL     1       3.882   7.138   6.651  1.00  0.00    -0.269 OA
BRANCH  27  30
ATOM     30  C   UNL     1       6.044   7.629   5.888  1.00  0.00     0.039 A 
ATOM     31  C   UNL     1       6.696   7.895   7.092  1.00  0.00     0.014 A 
ATOM     32  C   UNL     1       6.591   8.040   4.671  1.00  0.00     0.014 A 
ATOM     33  C   UNL     1       7.941   8.521   7.068  1.00  0.00     0.010 A 
ATOM     34  C   UNL     1       7.867   8.586   4.644  1.00  0.00     0.010 A 
ATOM     35  C   UNL     1       8.553   8.836   5.842  1.00  0.00    -0.014 A 
BRANCH  35  36
ATOM     36  C   UNL     1       9.912   9.428   5.800  1.00  0.00     0.031 A 
ATOM     37  C   UNL     1      10.116  10.806   5.236  1.00  0.00     0.074 A 
ATOM     38  C   UNL     1      10.967   8.704   6.223  1.00  0.00     0.049 A 
ATOM     39  N   UNL     1      11.225  11.484   5.088  1.00  0.00    -0.248 NA
ATOM     40  C   UNL     1       8.917  11.504   4.745  1.00  0.00     0.031 C 
ATOM     41  C   UNL     1      10.901   7.334   6.735  1.00  0.00     0.029 A 
ATOM     42  N   UNL     1      12.301   9.018   6.286  1.00  0.00    -0.354 N 
ATOM     43  C   UNL     1      10.859  12.678   4.483  1.00  0.00     0.074 A 
ATOM     44  C   UNL     1       9.437  12.607   4.228  1.00  0.00     0.031 C 
ATOM     45  C   UNL     1      12.134   6.938   7.091  1.00  0.00     0.029 A 
ATOM     46  C   UNL     1      13.081   8.009   6.797  1.00  0.00     0.049 A 
ATOM     47  H   UNL     1      12.665   9.884   5.993  1.00  0.00     0.167 HD
ATOM     48  C   UNL     1      11.633  13.751   4.194  1.00  0.00     0.037 A 
ATOM     49  C   UNL     1      14.411   7.956   7.002  1.00  0.00     0.037 A 
ATOM     50  C   UNL     1      13.044  13.823   4.469  1.00  0.00     0.049 A 
ATOM     51  C   UNL     1      15.250   9.159   6.662  1.00  0.00     0.074 A 
ATOM     52  C   UNL     1      13.908  14.885   4.272  1.00  0.00     0.029 A 
ATOM     53  N   UNL     1      13.799  12.785   4.995  1.00  0.00    -0.354 N 
ATOM     54  N   UNL     1      14.880  10.316   6.170  1.00  0.00    -0.248 NA
ATOM     55  C   UNL     1      16.693   9.050   6.916  1.00  0.00     0.031 C 
ATOM     56  C   UNL     1      15.196  14.472   4.626  1.00  0.00     0.029 A 
ATOM     57  C   UNL     1      15.125  13.172   5.102  1.00  0.00     0.049 A 
ATOM     58  H   UNL     1      13.445  11.903   5.254  1.00  0.00     0.167 HD
ATOM     59  C   UNL     1      16.035  11.081   6.080  1.00  0.00     0.074 A 
ATOM     60  C   UNL     1      17.116  10.263   6.590  1.00  0.00     0.031 C 
ATOM     61  C   UNL     1      16.188  12.346   5.616  1.00  0.00     0.037 A 
BRANCH  48  62
ATOM     62  C   UNL     1      10.968  14.934   3.551  1.00  0.00     0.064 A 
ATOM     63  C   UNL     1      10.043  15.727   4.247  1.00  0.00     0.173 A 
ATOM     64  C   UNL     1      11.282  15.299   2.234  1.00  0.00     0.173 A 
ATOM     65  F   UNL     1       9.697  15.415   5.506  1.00  0.00    -0.203 F 
ATOM     66  C   UNL     1       9.433  16.821   3.638  1.00  0.00     0.198 A 
ATOM     67  C   UNL     1      10.697  16.414   1.639  1.00  0.00     0.198 A 
ATOM     68  F   UNL     1      12.163  14.579   1.523  1.00  0.00    -0.203 F 
ATOM     69  F   UNL     1       8.511  17.530   4.305  1.00  0.00    -0.200 F 
ATOM     70  C   UNL     1       9.766  17.168   2.338  1.00  0.00     0.200 A 
ATOM     71  F   UNL     1      11.030  16.756   0.387  1.00  0.00    -0.200 F 
ATOM     72  F   UNL     1       9.185  18.226   1.756  1.00  0.00    -0.200 F 
ENDBRANCH  48  62
BRANCH  49  73
ATOM     73  C   UNL     1      15.028   6.733   7.581  1.00  0.00     0.064 A 
ATOM     74  C   UNL     1      15.591   6.748   8.865  1.00  0.00     0.173 A 
ATOM     75  C   UNL     1      15.080   5.531   6.861  1.00  0.00     0.173 A 
ATOM     76  F   UNL     1      15.583   7.879   9.586  1.00  0.00    -0.203 F 
ATOM     77  C   UNL     1      16.204   5.615   9.397  1.00  0.00     0.198 A 
ATOM     78  C   UNL     1      15.666   4.390   7.406  1.00  0.00     0.198 A 
ATOM     79  F   UNL     1      14.551   5.460   5.631  1.00  0.00    -0.203 F 
ATOM     80  F   UNL     1      16.780   5.673  10.605  1.00  0.00    -0.200 F 
ATOM     81  C   UNL     1      16.237   4.436   8.669  1.00  0.00     0.200 A 
ATOM     82  F   UNL     1      15.680   3.247   6.706  1.00  0.00    -0.200 F 
ATOM     83  F   UNL     1      16.825   3.346   9.181  1.00  0.00    -0.200 F 
ENDBRANCH  49  73
BRANCH  61  84
ATOM     84  C   UNL     1      17.569  12.935   5.669  1.00  0.00     0.064 A 
ATOM     85  C   UNL     1      18.596  12.485   4.826  1.00  0.00     0.173 A 
ATOM     86  C   UNL     1      17.857  13.990   6.548  1.00  0.00     0.173 A 
ATOM     87  F   UNL     1      18.377  11.469   3.977  1.00  0.00    -0.203 F 
ATOM     88  C   UNL     1      19.868  13.048   4.884  1.00  0.00     0.198 A 
ATOM     89  C   UNL     1      19.119  14.575   6.579  1.00  0.00     0.198 A 
ATOM     90  F   UNL     1      16.908  14.465   7.370  1.00  0.00    -0.203 F 
ATOM     91  F   UNL     1      20.848  12.565   4.109  1.00  0.00    -0.200 F 
ATOM     92  C   UNL     1      20.126  14.097   5.754  1.00  0.00     0.200 A 
ATOM     93  F   UNL     1      19.362  15.600   7.407  1.00  0.00    -0.200 F 
ATOM     94  F   UNL     1      21.349  14.644   5.802  1.00  0.00    -0.200 F 
ENDBRANCH  61  84
ENDBRANCH  35  36
ENDBRANCH  27  30
ENDBRANCH  25  26
ENDBRANCH  24  25
ENDBRANCH   1  24
TORSDOF 13
