REMARK SMILES O=C(Cc1ccc(-c2ccn(C(F)F)c(=O)c2)cc1)NCCCCNC(=O)c1ccc(-c2c3nc(c(-c4c(F)c(F)c(F)c(F)c4F)c4ccc([nH]4)c(-c4c(F)c(F)c(F)c(F)c4F)c4nc(c(-c5c(F)c(F)c(F)c(F)c5F)c5ccc2[nH]5)C=C4)C=C3)cc1
REMARK SMILES IDX 22 1 21 2 20 3 1 4 2 5 3 7 4 8 5 9 19 10 6 11 18 12 7 13
REMARK SMILES IDX 8 14 9 15 17 16 10 17 15 18 11 19 16 20 12 21 13 22 14 23
REMARK SMILES IDX 23 24 24 25 25 26 26 27 27 29 28 30 29 31 90 32 30 33 89 34
REMARK SMILES IDX 31 35 32 36 33 37 83 38 34 39 88 40 82 41 84 42 35 43 87 44
REMARK SMILES IDX 81 45 80 46 36 48 68 49 48 50 67 51 49 52 52 53 66 54 85 55
REMARK SMILES IDX 50 56 51 57 65 59 86 60 53 61 37 62 38 63 46 64 39 65 40 66
REMARK SMILES IDX 44 67 47 68 41 69 42 70 45 71 43 72 69 73 70 74 78 75 71 76
REMARK SMILES IDX 72 77 76 78 79 79 73 80 74 81 77 82 75 83 54 84 55 85 63 86
REMARK SMILES IDX 56 87 57 88 61 89 64 90 58 91 59 92 62 93 60 94
REMARK H PARENT 20 6 25 28 84 47 52 58
REMARK Flexibility Score: inf
ROOT
ATOM      1  C   UNL     1       2.313  -3.655  -0.230  1.00  0.00     0.023 C 
ENDROOT
BRANCH   1   2
ATOM      2  C   UNL     1       1.903  -2.380   0.503  1.00  0.00     0.116 C 
BRANCH   2   3
ATOM      3  N   UNL     1       2.584  -1.205   0.002  1.00  0.00    -0.356 N 
ATOM      4  O   UNL     1       0.901   0.269   0.531  1.00  0.00    -0.275 OA
ATOM      5  C   UNL     1       2.037   0.059   0.119  1.00  0.00     0.224 C 
ATOM      6  H   UNL     1       3.461  -1.309  -0.434  1.00  0.00     0.163 HD
BRANCH   5   7
ATOM      7  C   UNL     1       2.995   1.177  -0.261  1.00  0.00     0.135 C 
BRANCH   7   8
ATOM      8  C   UNL     1       3.771   1.711   0.924  1.00  0.00    -0.039 A 
ATOM      9  C   UNL     1       4.497   0.853   1.764  1.00  0.00     0.005 A 
ATOM     10  C   UNL     1       3.803   3.087   1.183  1.00  0.00     0.005 A 
ATOM     11  C   UNL     1       5.213   1.355   2.852  1.00  0.00     0.009 A 
ATOM     12  C   UNL     1       4.529   3.591   2.267  1.00  0.00     0.009 A 
ATOM     13  C   UNL     1       5.239   2.729   3.111  1.00  0.00    -0.018 A 
BRANCH  13  14
ATOM     14  C   UNL     1       5.997   3.261   4.258  1.00  0.00    -0.011 A 
ATOM     15  C   UNL     1       5.375   4.013   5.330  1.00  0.00     0.027 A 
ATOM     16  C   UNL     1       7.323   3.041   4.301  1.00  0.00     0.080 A 
ATOM     17  C   UNL     1       6.110   4.494   6.340  1.00  0.00     0.095 A 
ATOM     18  C   UNL     1       8.150   3.556   5.425  1.00  0.00     0.255 A 
ATOM     19  N   UNL     1       7.475   4.279   6.392  1.00  0.00    -0.258 N 
ATOM     20  O   UNL     1       9.355   3.312   5.421  1.00  0.00    -0.269 OA
BRANCH  19  21
ATOM     21  C   UNL     1       8.261   4.817   7.472  1.00  0.00     0.451 C 
ATOM     22  F   UNL     1       8.896   3.832   8.153  1.00  0.00    -0.185 F 
ATOM     23  F   UNL     1       9.198   5.678   7.006  1.00  0.00    -0.185 F 
ENDBRANCH  19  21
ENDBRANCH  13  14
ENDBRANCH   7   8
ENDBRANCH   5   7
ENDBRANCH   2   3
ENDBRANCH   1   2
BRANCH   1  24
ATOM     24  C   UNL     1       3.803  -4.006  -0.162  1.00  0.00     0.023 C 
BRANCH  24  25
ATOM     25  C   UNL     1       4.368  -4.213   1.240  1.00  0.00     0.116 C 
BRANCH  25  26
ATOM     26  N   UNL     1       3.812  -5.384   1.899  1.00  0.00    -0.352 N 
ATOM     27  C   UNL     1       4.442  -6.493   2.408  1.00  0.00     0.251 C 
ATOM     28  H   UNL     1       2.832  -5.380   1.996  1.00  0.00     0.163 HD
ATOM     29  O   UNL     1       3.773  -7.458   2.775  1.00  0.00    -0.269 OA
BRANCH  27  30
ATOM     30  C   UNL     1       5.918  -6.556   2.500  1.00  0.00     0.039 A 
ATOM     31  C   UNL     1       6.565  -7.743   2.140  1.00  0.00     0.014 A 
ATOM     32  C   UNL     1       6.668  -5.472   2.965  1.00  0.00     0.014 A 
ATOM     33  C   UNL     1       7.960  -7.820   2.180  1.00  0.00     0.010 A 
ATOM     34  C   UNL     1       8.062  -5.526   2.939  1.00  0.00     0.010 A 
ATOM     35  C   UNL     1       8.723  -6.699   2.544  1.00  0.00    -0.014 A 
BRANCH  35  36
ATOM     36  C   UNL     1      10.210  -6.733   2.505  1.00  0.00     0.031 A 
ATOM     37  C   UNL     1      11.011  -6.575   3.768  1.00  0.00     0.074 A 
ATOM     38  C   UNL     1      10.843  -6.840   1.321  1.00  0.00     0.049 A 
ATOM     39  N   UNL     1      12.310  -6.504   3.923  1.00  0.00    -0.248 NA
ATOM     40  C   UNL     1      10.250  -6.457   5.021  1.00  0.00     0.031 C 
ATOM     41  C   UNL     1      10.185  -6.956   0.019  1.00  0.00     0.029 A 
ATOM     42  N   UNL     1      12.182  -6.854   1.017  1.00  0.00    -0.354 N 
ATOM     43  C   UNL     1      12.520  -6.319   5.283  1.00  0.00     0.074 A 
ATOM     44  C   UNL     1      11.215  -6.238   5.903  1.00  0.00     0.031 C 
ATOM     45  C   UNL     1      11.120  -7.046  -0.940  1.00  0.00     0.029 A 
ATOM     46  C   UNL     1      12.442  -6.954  -0.328  1.00  0.00     0.049 A 
ATOM     47  H   UNL     1      12.890  -6.796   1.700  1.00  0.00     0.167 HD
ATOM     48  C   UNL     1      13.694  -6.245   5.957  1.00  0.00     0.037 A 
ATOM     49  C   UNL     1      13.612  -6.962  -0.995  1.00  0.00     0.037 A 
ATOM     50  C   UNL     1      14.992  -6.345   5.342  1.00  0.00     0.049 A 
ATOM     51  C   UNL     1      14.901  -6.867  -0.225  1.00  0.00     0.074 A 
ATOM     52  C   UNL     1      16.237  -6.341   5.947  1.00  0.00     0.029 A 
ATOM     53  N   UNL     1      15.213  -6.463   3.977  1.00  0.00    -0.354 N 
ATOM     54  N   UNL     1      15.087  -6.761   1.068  1.00  0.00    -0.248 NA
ATOM     55  C   UNL     1      16.144  -6.899  -1.009  1.00  0.00     0.031 C 
ATOM     56  C   UNL     1      17.212  -6.408   4.947  1.00  0.00     0.029 A 
ATOM     57  C   UNL     1      16.575  -6.509   3.721  1.00  0.00     0.049 A 
ATOM     58  H   UNL     1      14.508  -6.507   3.292  1.00  0.00     0.167 HD
ATOM     59  C   UNL     1      16.463  -6.742   1.255  1.00  0.00     0.074 A 
ATOM     60  C   UNL     1      17.065  -6.862  -0.056  1.00  0.00     0.031 C 
ATOM     61  C   UNL     1      17.163  -6.635   2.411  1.00  0.00     0.037 A 
BRANCH  48  62
ATOM     62  C   UNL     1      13.628  -6.046   7.444  1.00  0.00     0.064 A 
ATOM     63  C   UNL     1      13.167  -7.056   8.302  1.00  0.00     0.173 A 
ATOM     64  C   UNL     1      14.065  -4.845   8.023  1.00  0.00     0.173 A 
ATOM     65  F   UNL     1      12.730  -8.221   7.799  1.00  0.00    -0.203 F 
ATOM     66  C   UNL     1      13.116  -6.860   9.680  1.00  0.00     0.198 A 
ATOM     67  C   UNL     1      14.042  -4.664   9.404  1.00  0.00     0.198 A 
ATOM     68  F   UNL     1      14.525  -3.849   7.251  1.00  0.00    -0.203 F 
ATOM     69  F   UNL     1      12.624  -7.822  10.473  1.00  0.00    -0.200 F 
ATOM     70  C   UNL     1      13.559  -5.668  10.230  1.00  0.00     0.200 A 
ATOM     71  F   UNL     1      14.486  -3.517   9.936  1.00  0.00    -0.200 F 
ATOM     72  F   UNL     1      13.516  -5.483  11.557  1.00  0.00    -0.200 F 
ENDBRANCH  48  62
BRANCH  49  73
ATOM     73  C   UNL     1      13.618  -7.084  -2.476  1.00  0.00     0.064 A 
ATOM     74  C   UNL     1      14.081  -8.251  -3.100  1.00  0.00     0.173 A 
ATOM     75  C   UNL     1      13.165  -6.041  -3.297  1.00  0.00     0.173 A 
ATOM     76  F   UNL     1      14.544  -9.267  -2.358  1.00  0.00    -0.203 F 
ATOM     77  C   UNL     1      14.106  -8.363  -4.488  1.00  0.00     0.198 A 
ATOM     78  C   UNL     1      13.165  -6.165  -4.684  1.00  0.00     0.198 A 
ATOM     79  F   UNL     1      12.707  -4.905  -2.749  1.00  0.00    -0.203 F 
ATOM     80  F   UNL     1      14.594  -9.473  -5.059  1.00  0.00    -0.200 F 
ATOM     81  C   UNL     1      13.643  -7.323  -5.279  1.00  0.00     0.200 A 
ATOM     82  F   UNL     1      12.701  -5.164  -5.445  1.00  0.00    -0.200 F 
ATOM     83  F   UNL     1      13.662  -7.434  -6.614  1.00  0.00    -0.200 F 
ENDBRANCH  49  73
BRANCH  61  84
ATOM     84  C   UNL     1      18.661  -6.677   2.317  1.00  0.00     0.064 A 
ATOM     85  C   UNL     1      19.397  -5.609   1.784  1.00  0.00     0.173 A 
ATOM     86  C   UNL     1      19.370  -7.787   2.800  1.00  0.00     0.173 A 
ATOM     87  F   UNL     1      18.765  -4.532   1.292  1.00  0.00    -0.203 F 
ATOM     88  C   UNL     1      20.787  -5.661   1.717  1.00  0.00     0.198 A 
ATOM     89  C   UNL     1      20.762  -7.823   2.760  1.00  0.00     0.198 A 
ATOM     90  F   UNL     1      18.715  -8.834   3.325  1.00  0.00    -0.203 F 
ATOM     91  F   UNL     1      21.467  -4.649   1.160  1.00  0.00    -0.200 F 
ATOM     92  C   UNL     1      21.468  -6.763   2.211  1.00  0.00     0.200 A 
ATOM     93  F   UNL     1      21.418  -8.883   3.249  1.00  0.00    -0.200 F 
ATOM     94  F   UNL     1      22.806  -6.808   2.152  1.00  0.00    -0.200 F 
ENDBRANCH  61  84
ENDBRANCH  35  36
ENDBRANCH  27  30
ENDBRANCH  25  26
ENDBRANCH  24  25
ENDBRANCH   1  24
TORSDOF 14
