REMARK SMILES C[C@@H]1C[N@@H+]([C@@H]2CC[C@]([NH2+]C3CC3)(C(=O)NCCCCNC(=O)c3ccc(-c4c5nc(c(-c6c(F)c(F)c(F)c(F)c6F)c6ccc([nH]6)c(-c6c(F)c(F)c(F)c(F)c6F)c6nc(c(-c7c(F)c(F)c(F)c(F)c7F)c7ccc4[nH]7)C=C6)C=C5)cc3)C2)CC(C)(C)O1
REMARK SMILES IDX 17 1 16 2 15 3 13 4 14 5 8 7 5 8 6 9 86 10 7 11 4 12 1 13
REMARK SMILES IDX 2 14 3 15 91 16 88 17 87 18 89 20 90 21 9 22 10 25 11 26
REMARK SMILES IDX 12 27 18 28 19 29 20 30 21 31 22 33 23 34 24 35 85 36 25 37
REMARK SMILES IDX 84 38 26 39 27 40 28 41 78 42 29 43 83 44 77 45 79 46 30 47
REMARK SMILES IDX 82 48 76 49 75 50 31 52 63 53 43 54 62 55 44 56 47 57 61 58
REMARK SMILES IDX 80 59 45 60 46 61 60 63 81 64 48 65 32 66 33 67 41 68 34 69
REMARK SMILES IDX 35 70 39 71 42 72 36 73 37 74 40 75 38 76 64 77 65 78 73 79
REMARK SMILES IDX 66 80 67 81 71 82 74 83 68 84 69 85 72 86 70 87 49 88 50 89
REMARK SMILES IDX 58 90 51 91 52 92 56 93 59 94 53 95 54 96 57 97 55 98
REMARK H PARENT 15 6 4 19 9 23 9 24 20 32 79 51 47 62
REMARK Flexibility Score: inf
ROOT
ATOM      1  C   UNL     1      -4.890   0.406   0.812  1.00  0.00     0.023 C 
ENDROOT
BRANCH   1   2
ATOM      2  C   UNL     1      -3.942  -0.586   0.150  1.00  0.00     0.116 C 
BRANCH   2   3
ATOM      3  N   UNL     1      -4.587  -1.498  -0.772  1.00  0.00    -0.351 N 
ATOM      4  C   UNL     1      -4.449  -1.660  -2.124  1.00  0.00     0.281 C 
ATOM      5  O   UNL     1      -5.144  -2.550  -2.631  1.00  0.00    -0.268 OA
ATOM      6  H   UNL     1      -5.239  -2.106  -0.354  1.00  0.00     0.163 HD
BRANCH   4   7
ATOM      7  C   UNL     1      -3.546  -0.723  -3.012  1.00  0.00     0.181 C 
ATOM      8  C   UNL     1      -1.665   0.787  -2.657  1.00  0.00     0.191 C 
ATOM      9  C   UNL     1      -2.944   1.609  -2.456  1.00  0.00     0.072 C 
ATOM     10  C   UNL     1      -2.084  -0.684  -2.526  1.00  0.00     0.144 C 
ATOM     11  C   UNL     1      -4.096   0.718  -2.914  1.00  0.00     0.085 C 
BRANCH   8  12
ATOM     12  N   UNL     1      -0.485   1.147  -1.861  1.00  0.00    -0.328 N 
ATOM     13  C   UNL     1       1.588   0.201   0.365  1.00  0.00     0.045 C 
ATOM     14  C   UNL     1       0.660   1.413   0.347  1.00  0.00     0.171 C 
ATOM     15  C   UNL     1      -0.661   1.137  -0.398  1.00  0.00     0.294 C 
ATOM     16  O   UNL     1       1.313   2.606  -0.107  1.00  0.00    -0.361 OA
ATOM     17  C   UNL     1       1.383   2.793  -1.534  1.00  0.00     0.112 C 
ATOM     18  C   UNL     1       0.033   2.479  -2.231  1.00  0.00     0.297 C 
ATOM     19  H   UNL     1       0.172   0.401  -2.091  1.00  0.00     0.348 HD
ATOM     20  C   UNL     1       2.536   1.982  -2.140  1.00  0.00     0.048 C 
ATOM     21  C   UNL     1       1.696   4.285  -1.728  1.00  0.00     0.048 C 
ENDBRANCH   8  12
BRANCH   7  22
ATOM     22  N   UNL     1      -3.587  -1.260  -4.403  1.00  0.00    -0.331 N 
ATOM     23  H   UNL     1      -4.566  -1.434  -4.630  1.00  0.00     0.347 HD
ATOM     24  H   UNL     1      -2.983  -2.081  -4.374  1.00  0.00     0.347 HD
BRANCH  22  25
ATOM     25  C   UNL     1      -3.030  -0.438  -5.481  1.00  0.00     0.183 C 
ATOM     26  C   UNL     1      -1.596  -0.605  -5.901  1.00  0.00     0.071 C 
ATOM     27  C   UNL     1      -2.694  -1.102  -6.788  1.00  0.00     0.071 C 
ENDBRANCH  22  25
ENDBRANCH   7  22
ENDBRANCH   4   7
ENDBRANCH   2   3
ENDBRANCH   1   2
BRANCH   1  28
ATOM     28  C   UNL     1      -5.831  -0.193   1.849  1.00  0.00     0.023 C 
BRANCH  28  29
ATOM     29  C   UNL     1      -5.157  -0.985   2.962  1.00  0.00     0.116 C 
BRANCH  29  30
ATOM     30  N   UNL     1      -4.186  -0.213   3.726  1.00  0.00    -0.352 N 
ATOM     31  C   UNL     1      -4.043  -0.106   5.090  1.00  0.00     0.251 C 
ATOM     32  H   UNL     1      -3.542   0.304   3.191  1.00  0.00     0.163 HD
ATOM     33  O   UNL     1      -3.221   0.670   5.568  1.00  0.00    -0.269 OA
BRANCH  31  34
ATOM     34  C   UNL     1      -4.917  -0.898   5.981  1.00  0.00     0.039 A 
ATOM     35  C   UNL     1      -5.564  -0.256   7.039  1.00  0.00     0.014 A 
ATOM     36  C   UNL     1      -5.136  -2.257   5.742  1.00  0.00     0.014 A 
ATOM     37  C   UNL     1      -6.502  -0.955   7.801  1.00  0.00     0.010 A 
ATOM     38  C   UNL     1      -6.131  -2.927   6.445  1.00  0.00     0.010 A 
ATOM     39  C   UNL     1      -6.829  -2.282   7.478  1.00  0.00    -0.014 A 
BRANCH  39  40
ATOM     40  C   UNL     1      -7.906  -3.011   8.193  1.00  0.00     0.031 A 
ATOM     41  C   UNL     1      -7.586  -4.255   8.973  1.00  0.00     0.074 A 
ATOM     42  C   UNL     1      -9.186  -2.611   8.059  1.00  0.00     0.049 A 
ATOM     43  N   UNL     1      -8.397  -5.085   9.579  1.00  0.00    -0.248 NA
ATOM     44  C   UNL     1      -6.168  -4.637   9.049  1.00  0.00     0.031 C 
ATOM     45  C   UNL     1      -9.634  -1.462   7.271  1.00  0.00     0.029 A 
ATOM     46  N   UNL     1     -10.347  -3.141   8.564  1.00  0.00    -0.354 N 
ATOM     47  C   UNL     1      -7.591  -6.097  10.084  1.00  0.00     0.074 A 
ATOM     48  C   UNL     1      -6.236  -5.805   9.670  1.00  0.00     0.031 C 
ATOM     49  C   UNL     1     -10.971  -1.367   7.354  1.00  0.00     0.029 A 
ATOM     50  C   UNL     1     -11.477  -2.466   8.170  1.00  0.00     0.049 A 
ATOM     51  H   UNL     1     -10.368  -3.930   9.152  1.00  0.00     0.167 HD
ATOM     52  C   UNL     1      -7.947  -7.161  10.842  1.00  0.00     0.037 A 
ATOM     53  C   UNL     1     -12.775  -2.712   8.429  1.00  0.00     0.037 A 
ATOM     54  C   UNL     1      -9.291  -7.427  11.283  1.00  0.00     0.049 A 
ATOM     55  C   UNL     1     -13.144  -3.880   9.301  1.00  0.00     0.074 A 
ATOM     56  C   UNL     1      -9.739  -8.424  12.131  1.00  0.00     0.029 A 
ATOM     57  N   UNL     1     -10.405  -6.691  10.905  1.00  0.00    -0.354 N 
ATOM     58  N   UNL     1     -12.364  -4.780   9.849  1.00  0.00    -0.248 NA
ATOM     59  C   UNL     1     -14.571  -4.061   9.600  1.00  0.00     0.031 C 
ATOM     60  C   UNL     1     -11.131  -8.321  12.230  1.00  0.00     0.029 A 
ATOM     61  C   UNL     1     -11.544  -7.229  11.483  1.00  0.00     0.049 A 
ATOM     62  H   UNL     1     -10.389  -5.904  10.315  1.00  0.00     0.167 HD
ATOM     63  C   UNL     1     -13.199  -5.620  10.573  1.00  0.00     0.074 A 
ATOM     64  C   UNL     1     -14.546  -5.113  10.407  1.00  0.00     0.031 C 
ATOM     65  C   UNL     1     -12.879  -6.713  11.308  1.00  0.00     0.037 A 
BRANCH  52  66
ATOM     66  C   UNL     1      -6.862  -8.118  11.243  1.00  0.00     0.064 A 
ATOM     67  C   UNL     1      -5.858  -7.756  12.155  1.00  0.00     0.173 A 
ATOM     68  C   UNL     1      -6.835  -9.420  10.722  1.00  0.00     0.173 A 
ATOM     69  F   UNL     1      -5.830  -6.519  12.673  1.00  0.00    -0.203 F 
ATOM     70  C   UNL     1      -4.848  -8.650  12.501  1.00  0.00     0.198 A 
ATOM     71  C   UNL     1      -5.842 -10.322  11.095  1.00  0.00     0.198 A 
ATOM     72  F   UNL     1      -7.774  -9.820   9.851  1.00  0.00    -0.203 F 
ATOM     73  F   UNL     1      -3.867  -8.262  13.328  1.00  0.00    -0.200 F 
ATOM     74  C   UNL     1      -4.844  -9.933  11.975  1.00  0.00     0.200 A 
ATOM     75  F   UNL     1      -5.847 -11.566  10.596  1.00  0.00    -0.200 F 
ATOM     76  F   UNL     1      -3.872 -10.793  12.310  1.00  0.00    -0.200 F 
ENDBRANCH  52  66
BRANCH  53  77
ATOM     77  C   UNL     1     -13.819  -1.816   7.868  1.00  0.00     0.064 A 
ATOM     78  C   UNL     1     -14.530  -0.933   8.693  1.00  0.00     0.173 A 
ATOM     79  C   UNL     1     -14.113  -1.809   6.497  1.00  0.00     0.173 A 
ATOM     80  F   UNL     1     -14.297  -0.917  10.014  1.00  0.00    -0.203 F 
ATOM     81  C   UNL     1     -15.505  -0.087   8.170  1.00  0.00     0.198 A 
ATOM     82  C   UNL     1     -15.071  -0.944   5.971  1.00  0.00     0.198 A 
ATOM     83  F   UNL     1     -13.456  -2.630   5.665  1.00  0.00    -0.203 F 
ATOM     84  F   UNL     1     -16.195   0.721   8.986  1.00  0.00    -0.200 F 
ATOM     85  C   UNL     1     -15.770  -0.088   6.808  1.00  0.00     0.200 A 
ATOM     86  F   UNL     1     -15.312  -0.937   4.653  1.00  0.00    -0.200 F 
ATOM     87  F   UNL     1     -16.701   0.733   6.304  1.00  0.00    -0.200 F 
ENDBRANCH  53  77
BRANCH  65  88
ATOM     88  C   UNL     1     -13.999  -7.424  12.009  1.00  0.00     0.064 A 
ATOM     89  C   UNL     1     -14.934  -8.197  11.305  1.00  0.00     0.173 A 
ATOM     90  C   UNL     1     -14.113  -7.365  13.406  1.00  0.00     0.173 A 
ATOM     91  F   UNL     1     -14.877  -8.272   9.966  1.00  0.00    -0.203 F 
ATOM     92  C   UNL     1     -15.954  -8.869  11.973  1.00  0.00     0.198 A 
ATOM     93  C   UNL     1     -15.117  -8.061  14.073  1.00  0.00     0.198 A 
ATOM     94  F   UNL     1     -13.241  -6.644  14.126  1.00  0.00    -0.203 F 
ATOM     95  F   UNL     1     -16.862  -9.566  11.276  1.00  0.00    -0.200 F 
ATOM     96  C   UNL     1     -16.041  -8.807  13.356  1.00  0.00     0.200 A 
ATOM     97  F   UNL     1     -15.191  -8.010  15.410  1.00  0.00    -0.200 F 
ATOM     98  F   UNL     1     -17.019  -9.460  13.997  1.00  0.00    -0.200 F 
ENDBRANCH  65  88
ENDBRANCH  39  40
ENDBRANCH  31  34
ENDBRANCH  29  30
ENDBRANCH  28  29
ENDBRANCH   1  28
TORSDOF 14
