REMARK SMILES CC[C@](NC(=O)c1cccc(CS(C)(=O)=O)c1)(C(=O)NCCCCNC(=O)c1ccc(-c2c3nc(c(-c4c(F)c(F)c(F)c(F)c4F)c4ccc([nH]4)c(-c4c(F)c(F)c(F)c(F)c4F)c4nc(c(-c5c(F)c(F)c(F)c(F)c5F)c5ccc2[nH]5)C=C4)C=C3)cc1)c1ccccc1
REMARK SMILES IDX 21 1 20 2 18 3 19 4 3 6 2 7 1 8 91 9 92 10 96 11 93 12 95 13
REMARK SMILES IDX 94 14 4 15 5 16 6 18 7 19 8 20 17 21 9 22 11 23 10 24 12 25
REMARK SMILES IDX 13 26 14 27 15 28 16 29 22 30 23 31 24 32 25 33 26 34 27 36
REMARK SMILES IDX 28 37 29 38 90 39 30 40 89 41 31 42 32 43 33 44 83 45 34 46
REMARK SMILES IDX 88 47 82 48 84 49 35 50 87 51 81 52 80 53 36 55 68 56 48 57
REMARK SMILES IDX 67 58 49 59 52 60 66 61 85 62 50 63 51 64 65 66 86 67 53 68
REMARK SMILES IDX 37 69 38 70 46 71 39 72 40 73 44 74 47 75 41 76 42 77 45 78
REMARK SMILES IDX 43 79 69 80 70 81 78 82 71 83 72 84 76 85 79 86 73 87 74 88
REMARK SMILES IDX 77 89 75 90 54 91 55 92 63 93 56 94 57 95 61 96 64 97 58 98
REMARK SMILES IDX 59 99 62 100 60 101
REMARK H PARENT 20 5 4 17 25 35 84 54 52 65
REMARK Flexibility Score: inf
ROOT
ATOM      1  C   UNL     1      -2.481   0.955   2.852  1.00  0.00     0.116 C 
ENDROOT
BRANCH   1   2
ATOM      2  N   UNL     1      -1.357   0.803   3.766  1.00  0.00    -0.354 N 
ATOM      3  C   UNL     1       0.001   0.659   3.660  1.00  0.00     0.250 C 
ATOM      4  O   UNL     1       0.610   0.954   4.701  1.00  0.00    -0.272 OA
ATOM      5  H   UNL     1      -1.650   0.804   4.706  1.00  0.00     0.163 HD
BRANCH   3   6
ATOM      6  C   UNL     1       0.779   0.153   2.388  1.00  0.00     0.144 C 
BRANCH   6   7
ATOM      7  C   UNL     1       0.637   1.327   1.326  1.00  0.00     0.040 C 
ATOM      8  C   UNL     1      -0.409   1.230   0.222  1.00  0.00     0.007 C 
ENDBRANCH   6   7
BRANCH   6   9
ATOM      9  C   UNL     1       2.336   0.051   2.663  1.00  0.00    -0.013 A 
ATOM     10  C   UNL     1       3.048  -1.164   2.632  1.00  0.00     0.007 A 
ATOM     11  C   UNL     1       3.108   1.224   2.858  1.00  0.00     0.007 A 
ATOM     12  C   UNL     1       4.449  -1.198   2.728  1.00  0.00     0.000 A 
ATOM     13  C   UNL     1       4.506   1.190   2.932  1.00  0.00     0.000 A 
ATOM     14  C   UNL     1       5.179  -0.022   2.858  1.00  0.00     0.000 A 
ENDBRANCH   6   9
BRANCH   6  15
ATOM     15  N   UNL     1       0.299  -1.124   1.773  1.00  0.00    -0.334 N 
ATOM     16  C   UNL     1       0.028  -2.426   2.132  1.00  0.00     0.252 C 
ATOM     17  H   UNL     1       0.120  -0.993   0.814  1.00  0.00     0.165 HD
ATOM     18  O   UNL     1       0.212  -3.250   1.227  1.00  0.00    -0.269 OA
BRANCH  16  19
ATOM     19  C   UNL     1      -0.562  -2.947   3.410  1.00  0.00     0.040 A 
ATOM     20  C   UNL     1      -0.934  -4.301   3.458  1.00  0.00     0.014 A 
ATOM     21  C   UNL     1      -0.853  -2.196   4.543  1.00  0.00     0.018 A 
ATOM     22  C   UNL     1      -1.588  -4.838   4.576  1.00  0.00     0.001 A 
ATOM     23  C   UNL     1      -1.583  -2.675   5.651  1.00  0.00    -0.032 A 
ATOM     24  C   UNL     1      -1.914  -4.029   5.666  1.00  0.00     0.005 A 
BRANCH  23  25
ATOM     25  C   UNL     1      -1.832  -1.744   6.817  1.00  0.00     0.172 C 
BRANCH  25  26
ATOM     26  S   UNL     1      -3.542  -1.305   7.118  1.00  0.00     0.151 S 
ATOM     27  C   UNL     1      -4.564  -2.719   6.771  1.00  0.00     0.158 C 
ATOM     28  O   UNL     1      -3.678  -1.048   8.545  1.00  0.00    -0.229 OA
ATOM     29  O   UNL     1      -3.907  -0.258   6.186  1.00  0.00    -0.229 OA
ENDBRANCH  25  26
ENDBRANCH  23  25
ENDBRANCH  16  19
ENDBRANCH   6  15
ENDBRANCH   3   6
ENDBRANCH   1   2
BRANCH   1  30
ATOM     30  C   UNL     1      -2.994  -0.245   2.047  1.00  0.00     0.023 C 
BRANCH  30  31
ATOM     31  C   UNL     1      -3.908  -1.295   2.690  1.00  0.00     0.023 C 
BRANCH  31  32
ATOM     32  C   UNL     1      -5.115  -0.816   3.485  1.00  0.00     0.116 C 
BRANCH  32  33
ATOM     33  N   UNL     1      -6.262  -0.404   2.711  1.00  0.00    -0.352 N 
ATOM     34  C   UNL     1      -7.577  -0.365   3.127  1.00  0.00     0.251 C 
ATOM     35  H   UNL     1      -6.087  -0.121   1.784  1.00  0.00     0.163 HD
ATOM     36  O   UNL     1      -8.451   0.005   2.346  1.00  0.00    -0.269 OA
BRANCH  34  37
ATOM     37  C   UNL     1      -7.972  -0.821   4.492  1.00  0.00     0.039 A 
ATOM     38  C   UNL     1      -9.054  -1.698   4.608  1.00  0.00     0.014 A 
ATOM     39  C   UNL     1      -7.343  -0.373   5.655  1.00  0.00     0.014 A 
ATOM     40  C   UNL     1      -9.483  -2.140   5.870  1.00  0.00     0.010 A 
ATOM     41  C   UNL     1      -7.735  -0.871   6.913  1.00  0.00     0.010 A 
ATOM     42  C   UNL     1      -8.818  -1.756   7.049  1.00  0.00    -0.014 A 
BRANCH  42  43
ATOM     43  C   UNL     1      -9.278  -2.269   8.388  1.00  0.00     0.031 A 
ATOM     44  C   UNL     1      -9.676  -1.327   9.506  1.00  0.00     0.074 A 
ATOM     45  C   UNL     1      -9.351  -3.598   8.629  1.00  0.00     0.049 A 
ATOM     46  N   UNL     1     -10.178  -1.604  10.690  1.00  0.00    -0.248 NA
ATOM     47  C   UNL     1      -9.454   0.108   9.285  1.00  0.00     0.031 C 
ATOM     48  C   UNL     1      -8.934  -4.652   7.703  1.00  0.00     0.029 A 
ATOM     49  N   UNL     1      -9.821  -4.295   9.722  1.00  0.00    -0.354 N 
ATOM     50  C   UNL     1     -10.307  -0.386  11.350  1.00  0.00     0.074 A 
ATOM     51  C   UNL     1      -9.764   0.622  10.466  1.00  0.00     0.031 C 
ATOM     52  C   UNL     1      -9.226  -5.851   8.234  1.00  0.00     0.029 A 
ATOM     53  C   UNL     1      -9.821  -5.662   9.555  1.00  0.00     0.049 A 
ATOM     54  H   UNL     1     -10.129  -3.856  10.548  1.00  0.00     0.167 HD
ATOM     55  C   UNL     1     -10.857  -0.112  12.560  1.00  0.00     0.037 A 
ATOM     56  C   UNL     1     -10.262  -6.655  10.355  1.00  0.00     0.037 A 
ATOM     57  C   UNL     1     -11.439  -1.093  13.440  1.00  0.00     0.049 A 
ATOM     58  C   UNL     1     -10.891  -6.329  11.687  1.00  0.00     0.074 A 
ATOM     59  C   UNL     1     -12.102  -0.891  14.640  1.00  0.00     0.029 A 
ATOM     60  N   UNL     1     -11.421  -2.462  13.224  1.00  0.00    -0.354 N 
ATOM     61  N   UNL     1     -11.115  -5.162  12.237  1.00  0.00    -0.248 NA
ATOM     62  C   UNL     1     -11.342  -7.467  12.504  1.00  0.00     0.031 C 
ATOM     63  C   UNL     1     -12.431  -2.139  15.180  1.00  0.00     0.029 A 
ATOM     64  C   UNL     1     -12.035  -3.117  14.283  1.00  0.00     0.049 A 
ATOM     65  H   UNL     1     -11.031  -2.904  12.436  1.00  0.00     0.167 HD
ATOM     66  C   UNL     1     -11.766  -5.422  13.438  1.00  0.00     0.074 A 
ATOM     67  C   UNL     1     -11.916  -6.857  13.530  1.00  0.00     0.031 C 
ATOM     68  C   UNL     1     -12.201  -4.545  14.375  1.00  0.00     0.037 A 
BRANCH  55  69
ATOM     69  C   UNL     1     -10.870   1.326  13.010  1.00  0.00     0.064 A 
ATOM     70  C   UNL     1     -11.648   2.297  12.359  1.00  0.00     0.173 A 
ATOM     71  C   UNL     1     -10.125   1.731  14.129  1.00  0.00     0.173 A 
ATOM     72  F   UNL     1     -12.382   1.966  11.286  1.00  0.00    -0.203 F 
ATOM     73  C   UNL     1     -11.639   3.625  12.778  1.00  0.00     0.198 A 
ATOM     74  C   UNL     1     -10.150   3.052  14.569  1.00  0.00     0.198 A 
ATOM     75  F   UNL     1      -9.379   0.844  14.804  1.00  0.00    -0.203 F 
ATOM     76  F   UNL     1     -12.339   4.544  12.098  1.00  0.00    -0.200 F 
ATOM     77  C   UNL     1     -10.896   4.000  13.886  1.00  0.00     0.200 A 
ATOM     78  F   UNL     1      -9.451   3.409  15.656  1.00  0.00    -0.200 F 
ATOM     79  F   UNL     1     -10.894   5.278  14.292  1.00  0.00    -0.200 F 
ENDBRANCH  55  69
BRANCH  56  80
ATOM     80  C   UNL     1     -10.181  -8.073   9.904  1.00  0.00     0.064 A 
ATOM     81  C   UNL     1     -11.344  -8.806   9.622  1.00  0.00     0.173 A 
ATOM     82  C   UNL     1      -8.951  -8.736   9.782  1.00  0.00     0.173 A 
ATOM     83  F   UNL     1     -12.548  -8.228   9.751  1.00  0.00    -0.203 F 
ATOM     84  C   UNL     1     -11.282 -10.152   9.262  1.00  0.00     0.198 A 
ATOM     85  C   UNL     1      -8.888 -10.072   9.389  1.00  0.00     0.198 A 
ATOM     86  F   UNL     1      -7.808  -8.083  10.038  1.00  0.00    -0.203 F 
ATOM     87  F   UNL     1     -12.412 -10.841   9.056  1.00  0.00    -0.200 F 
ATOM     88  C   UNL     1     -10.053 -10.782   9.140  1.00  0.00     0.200 A 
ATOM     89  F   UNL     1      -7.698 -10.673   9.258  1.00  0.00    -0.200 F 
ATOM     90  F   UNL     1      -9.992 -12.074   8.793  1.00  0.00    -0.200 F 
ENDBRANCH  56  80
BRANCH  68  91
ATOM     91  C   UNL     1     -12.935  -5.099  15.566  1.00  0.00     0.064 A 
ATOM     92  C   UNL     1     -12.292  -5.873  16.545  1.00  0.00     0.173 A 
ATOM     93  C   UNL     1     -14.301  -4.827  15.745  1.00  0.00     0.173 A 
ATOM     94  F   UNL     1     -10.991  -6.175  16.420  1.00  0.00    -0.203 F 
ATOM     95  C   UNL     1     -12.996  -6.383  17.635  1.00  0.00     0.198 A 
ATOM     96  C   UNL     1     -14.993  -5.308  16.855  1.00  0.00     0.198 A 
ATOM     97  F   UNL     1     -14.967  -4.086  14.847  1.00  0.00    -0.203 F 
ATOM     98  F   UNL     1     -12.373  -7.170  18.523  1.00  0.00    -0.200 F 
ATOM     99  C   UNL     1     -14.343  -6.095  17.792  1.00  0.00     0.200 A 
ATOM    100  F   UNL     1     -16.291  -5.013  17.013  1.00  0.00    -0.200 F 
ATOM    101  F   UNL     1     -15.016  -6.582  18.843  1.00  0.00    -0.200 F 
ENDBRANCH  68  91
ENDBRANCH  42  43
ENDBRANCH  34  37
ENDBRANCH  32  33
ENDBRANCH  31  32
ENDBRANCH  30  31
ENDBRANCH   1  30
TORSDOF 17
