REMARK SMILES CN(C)c1nccnc1N1CCC(Oc2ccc3ccccc3c2)(C(=O)NCCCCNC(=O)c2ccc(-c3c4nc(c(-c5c(F)c(F)c(F)c(F)c5F)c5ccc([nH]5)c(-c5c(F)c(F)c(F)c(F)c5F)c5nc(c(-c6c(F)c(F)c(F)c(F)c6F)c6ccc3[nH]6)C=C5)C=C4)cc2)CC1
REMARK SMILES IDX 29 1 28 2 27 3 25 4 26 5 13 7 10 8 11 9 99 10 12 11 98 12
REMARK SMILES IDX 9 13 4 14 5 15 6 16 8 17 7 18 2 19 1 20 3 21 14 22 15 23
REMARK SMILES IDX 16 24 24 25 17 26 23 27 18 28 22 29 19 30 21 31 20 32 30 33
REMARK SMILES IDX 31 34 32 35 33 36 34 38 35 39 36 40 97 41 37 42 96 43 38 44
REMARK SMILES IDX 39 45 40 46 90 47 41 48 95 49 89 50 91 51 42 52 94 53 88 54
REMARK SMILES IDX 87 55 43 57 75 58 55 59 74 60 56 61 59 62 73 63 92 64 57 65
REMARK SMILES IDX 58 66 72 68 93 69 60 70 44 71 45 72 53 73 46 74 47 75 51 76
REMARK SMILES IDX 54 77 48 78 49 79 52 80 50 81 76 82 77 83 85 84 78 85 79 86
REMARK SMILES IDX 83 87 86 88 80 89 81 90 84 91 82 92 61 93 62 94 70 95 63 96
REMARK SMILES IDX 64 97 68 98 71 99 65 100 66 101 69 102 67 103
REMARK H PARENT 27 6 32 37 91 56 59 67
REMARK Flexibility Score: inf
ROOT
ATOM      1  C   UNL     1      -5.165  -5.489   3.756  1.00  0.00     0.023 C 
ENDROOT
BRANCH   1   2
ATOM      2  C   UNL     1      -5.862  -5.071   2.463  1.00  0.00     0.116 C 
BRANCH   2   3
ATOM      3  N   UNL     1      -5.586  -3.686   2.141  1.00  0.00    -0.353 N 
ATOM      4  C   UNL     1      -4.853  -3.145   1.123  1.00  0.00     0.264 C 
ATOM      5  O   UNL     1      -4.869  -1.911   1.054  1.00  0.00    -0.270 OA
ATOM      6  H   UNL     1      -5.990  -3.030   2.754  1.00  0.00     0.163 HD
BRANCH   4   7
ATOM      7  C   UNL     1      -4.054  -4.036   0.123  1.00  0.00     0.190 C 
ATOM      8  N   UNL     1      -1.383  -3.081   0.537  1.00  0.00    -0.353 N 
ATOM      9  C   UNL     1      -1.959  -3.965   1.521  1.00  0.00     0.123 C 
ATOM     10  C   UNL     1      -2.241  -2.277  -0.325  1.00  0.00     0.123 C 
ATOM     11  C   UNL     1      -2.978  -4.862   0.849  1.00  0.00     0.080 C 
ATOM     12  C   UNL     1      -3.368  -3.131  -0.925  1.00  0.00     0.080 C 
BRANCH   8  13
ATOM     13  C   UNL     1      -0.065  -3.270   0.153  1.00  0.00     0.171 A 
ATOM     14  C   UNL     1       0.856  -2.175   0.051  1.00  0.00     0.171 A 
ATOM     15  N   UNL     1       2.103  -2.372  -0.454  1.00  0.00    -0.234 NA
ATOM     16  C   UNL     1       2.428  -3.638  -0.791  1.00  0.00     0.134 A 
ATOM     17  N   UNL     1       0.303  -4.540  -0.163  1.00  0.00    -0.234 NA
ATOM     18  C   UNL     1       1.554  -4.696  -0.640  1.00  0.00     0.134 A 
BRANCH  14  19
ATOM     19  N   UNL     1       0.539  -0.888   0.522  1.00  0.00    -0.360 N 
ATOM     20  C   UNL     1       1.356   0.197   0.013  1.00  0.00     0.145 C 
ATOM     21  C   UNL     1       0.116  -0.821   1.915  1.00  0.00     0.145 C 
ENDBRANCH  14  19
ENDBRANCH   8  13
BRANCH   7  22
ATOM     22  O   UNL     1      -5.137  -4.797  -0.477  1.00  0.00    -0.477 OA
BRANCH  22  23
ATOM     23  C   UNL     1      -4.865  -5.782  -1.377  1.00  0.00     0.121 A 
ATOM     24  C   UNL     1      -4.213  -6.961  -1.034  1.00  0.00     0.047 A 
ATOM     25  C   UNL     1      -5.435  -5.656  -2.644  1.00  0.00     0.055 A 
ATOM     26  C   UNL     1      -4.015  -7.961  -1.985  1.00  0.00     0.012 A 
ATOM     27  C   UNL     1      -5.289  -6.675  -3.602  1.00  0.00    -0.015 A 
ATOM     28  C   UNL     1      -4.543  -7.830  -3.274  1.00  0.00    -0.018 A 
ATOM     29  C   UNL     1      -5.875  -6.582  -4.875  1.00  0.00     0.009 A 
ATOM     30  C   UNL     1      -4.368  -8.838  -4.233  1.00  0.00     0.009 A 
ATOM     31  C   UNL     1      -5.709  -7.604  -5.812  1.00  0.00     0.001 A 
ATOM     32  C   UNL     1      -4.948  -8.725  -5.495  1.00  0.00     0.001 A 
ENDBRANCH  22  23
ENDBRANCH   7  22
ENDBRANCH   4   7
ENDBRANCH   2   3
ENDBRANCH   1   2
BRANCH   1  33
ATOM     33  C   UNL     1      -5.719  -4.828   5.020  1.00  0.00     0.023 C 
BRANCH  33  34
ATOM     34  C   UNL     1      -7.214  -5.018   5.251  1.00  0.00     0.116 C 
BRANCH  34  35
ATOM     35  N   UNL     1      -7.615  -6.415   5.255  1.00  0.00    -0.352 N 
ATOM     36  C   UNL     1      -8.479  -7.076   6.087  1.00  0.00     0.251 C 
ATOM     37  H   UNL     1      -7.202  -6.970   4.554  1.00  0.00     0.163 HD
ATOM     38  O   UNL     1      -8.584  -8.300   6.008  1.00  0.00    -0.269 OA
BRANCH  36  39
ATOM     39  C   UNL     1      -9.262  -6.338   7.100  1.00  0.00     0.039 A 
ATOM     40  C   UNL     1      -9.402  -6.902   8.371  1.00  0.00     0.014 A 
ATOM     41  C   UNL     1      -9.871  -5.114   6.810  1.00  0.00     0.014 A 
ATOM     42  C   UNL     1     -10.102  -6.215   9.362  1.00  0.00     0.010 A 
ATOM     43  C   UNL     1     -10.503  -4.393   7.821  1.00  0.00     0.010 A 
ATOM     44  C   UNL     1     -10.630  -4.938   9.106  1.00  0.00    -0.014 A 
BRANCH  44  45
ATOM     45  C   UNL     1     -11.299  -4.172  10.188  1.00  0.00     0.031 A 
ATOM     46  C   UNL     1     -12.762  -3.839  10.102  1.00  0.00     0.074 A 
ATOM     47  C   UNL     1     -10.572  -3.753  11.242  1.00  0.00     0.049 A 
ATOM     48  N   UNL     1     -13.518  -3.208  10.967  1.00  0.00    -0.248 NA
ATOM     49  C   UNL     1     -13.466  -4.243   8.876  1.00  0.00     0.031 C 
ATOM     50  C   UNL     1      -9.132  -3.956  11.407  1.00  0.00     0.029 A 
ATOM     51  N   UNL     1     -10.944  -3.074  12.375  1.00  0.00    -0.354 N 
ATOM     52  C   UNL     1     -14.779  -3.139  10.389  1.00  0.00     0.074 A 
ATOM     53  C   UNL     1     -14.674  -3.736   9.075  1.00  0.00     0.031 C 
ATOM     54  C   UNL     1      -8.750  -3.449  12.590  1.00  0.00     0.029 A 
ATOM     55  C   UNL     1      -9.909  -2.860  13.252  1.00  0.00     0.049 A 
ATOM     56  H   UNL     1     -11.866  -2.770  12.543  1.00  0.00     0.167 HD
ATOM     57  C   UNL     1     -15.925  -2.648  10.917  1.00  0.00     0.037 A 
ATOM     58  C   UNL     1      -9.899  -2.262  14.458  1.00  0.00     0.037 A 
ATOM     59  C   UNL     1     -16.029  -2.068  12.232  1.00  0.00     0.049 A 
ATOM     60  C   UNL     1     -11.188  -1.737  15.026  1.00  0.00     0.074 A 
ATOM     61  C   UNL     1     -17.157  -1.596  12.882  1.00  0.00     0.029 A 
ATOM     62  N   UNL     1     -14.962  -1.877  13.097  1.00  0.00    -0.354 N 
ATOM     63  N   UNL     1     -12.392  -1.755  14.506  1.00  0.00    -0.248 NA
ATOM     64  C   UNL     1     -11.119  -1.120  16.357  1.00  0.00     0.031 C 
ATOM     65  C   UNL     1     -16.764  -1.074  14.119  1.00  0.00     0.029 A 
ATOM     66  C   UNL     1     -15.400  -1.272  14.265  1.00  0.00     0.049 A 
ATOM     67  H   UNL     1     -14.030  -2.133  12.910  1.00  0.00     0.167 HD
ATOM     68  C   UNL     1     -13.225  -1.176  15.453  1.00  0.00     0.074 A 
ATOM     69  C   UNL     1     -12.393  -0.842  16.591  1.00  0.00     0.031 C 
ATOM     70  C   UNL     1     -14.559  -0.940  15.387  1.00  0.00     0.037 A 
BRANCH  57  71
ATOM     71  C   UNL     1     -17.166  -2.720  10.072  1.00  0.00     0.064 A 
ATOM     72  C   UNL     1     -17.785  -3.945   9.779  1.00  0.00     0.173 A 
ATOM     73  C   UNL     1     -17.766  -1.550   9.583  1.00  0.00     0.173 A 
ATOM     74  F   UNL     1     -17.247  -5.095  10.213  1.00  0.00    -0.203 F 
ATOM     75  C   UNL     1     -18.940  -3.998   9.003  1.00  0.00     0.198 A 
ATOM     76  C   UNL     1     -18.939  -1.605   8.834  1.00  0.00     0.198 A 
ATOM     77  F   UNL     1     -17.220  -0.352   9.838  1.00  0.00    -0.203 F 
ATOM     78  F   UNL     1     -19.485  -5.184   8.694  1.00  0.00    -0.200 F 
ATOM     79  C   UNL     1     -19.520  -2.828   8.538  1.00  0.00     0.200 A 
ATOM     80  F   UNL     1     -19.506  -0.472   8.397  1.00  0.00    -0.200 F 
ATOM     81  F   UNL     1     -20.637  -2.880   7.798  1.00  0.00    -0.200 F 
ENDBRANCH  57  71
BRANCH  58  82
ATOM     82  C   UNL     1      -8.630  -2.164  15.226  1.00  0.00     0.064 A 
ATOM     83  C   UNL     1      -8.443  -2.903  16.404  1.00  0.00     0.173 A 
ATOM     84  C   UNL     1      -7.585  -1.331  14.806  1.00  0.00     0.173 A 
ATOM     85  F   UNL     1      -9.421  -3.700  16.857  1.00  0.00    -0.203 F 
ATOM     86  C   UNL     1      -7.267  -2.792  17.143  1.00  0.00     0.198 A 
ATOM     87  C   UNL     1      -6.397  -1.244  15.529  1.00  0.00     0.198 A 
ATOM     88  F   UNL     1      -7.711  -0.609  13.682  1.00  0.00    -0.203 F 
ATOM     89  F   UNL     1      -7.134  -3.471  18.290  1.00  0.00    -0.200 F 
ATOM     90  C   UNL     1      -6.243  -1.968  16.702  1.00  0.00     0.200 A 
ATOM     91  F   UNL     1      -5.404  -0.459  15.091  1.00  0.00    -0.200 F 
ATOM     92  F   UNL     1      -5.111  -1.865  17.412  1.00  0.00    -0.200 F 
ENDBRANCH  58  82
BRANCH  70  93
ATOM     93  C   UNL     1     -15.200  -0.309  16.591  1.00  0.00     0.064 A 
ATOM     94  C   UNL     1     -14.947   1.024  16.947  1.00  0.00     0.173 A 
ATOM     95  C   UNL     1     -16.083  -1.047  17.394  1.00  0.00     0.173 A 
ATOM     96  F   UNL     1     -14.100   1.768  16.220  1.00  0.00    -0.203 F 
ATOM     97  C   UNL     1     -15.522   1.582  18.086  1.00  0.00     0.198 A 
ATOM     98  C   UNL     1     -16.683  -0.475  18.513  1.00  0.00     0.198 A 
ATOM     99  F   UNL     1     -16.366  -2.323  17.094  1.00  0.00    -0.203 F 
ATOM    100  F   UNL     1     -15.214   2.837  18.443  1.00  0.00    -0.200 F 
ATOM    101  C   UNL     1     -16.392   0.835  18.864  1.00  0.00     0.200 A 
ATOM    102  F   UNL     1     -17.535  -1.194  19.256  1.00  0.00    -0.200 F 
ATOM    103  F   UNL     1     -16.943   1.373  19.962  1.00  0.00    -0.200 F 
ENDBRANCH  70  93
ENDBRANCH  44  45
ENDBRANCH  36  39
ENDBRANCH  34  35
ENDBRANCH  33  34
ENDBRANCH   1  33
TORSDOF 15
