REMARK SMILES Cc1ccc(-c2ccc(/C=C(\C#N)C3N=c4ccccc4=N3)o2)cc1C(=O)NCCCCNC(=O)c1ccc(-c2c3nc(c(-c4c(F)c(F)c(F)c(F)c4F)c4ccc([nH]4)c(-c4c(F)c(F)c(F)c(F)c4F)c4nc(c(-c5c(F)c(F)c(F)c(F)c5F)c5ccc2[nH]5)C=C4)C=C3)cc1
REMARK SMILES IDX 30 1 29 2 28 3 26 4 27 5 25 7 1 8 2 9 3 10 4 11 24 12 5 13
REMARK SMILES IDX 6 14 7 15 23 16 8 17 9 18 10 19 11 20 12 21 13 22 14 23
REMARK SMILES IDX 15 24 22 25 16 26 21 27 17 28 20 29 18 30 19 31 31 32 32 33
REMARK SMILES IDX 33 34 34 35 35 37 36 38 37 39 98 40 38 41 97 42 39 43 40 44
REMARK SMILES IDX 41 45 91 46 42 47 96 48 90 49 92 50 43 51 95 52 89 53 88 54
REMARK SMILES IDX 44 56 76 57 56 58 75 59 57 60 60 61 74 62 93 63 58 64 59 65
REMARK SMILES IDX 73 67 94 68 61 69 45 70 46 71 54 72 47 73 48 74 52 75 55 76
REMARK SMILES IDX 49 77 50 78 53 79 51 80 77 81 78 82 86 83 79 84 80 85 84 86
REMARK SMILES IDX 87 87 81 88 82 89 85 90 83 91 62 92 63 93 71 94 64 95 65 96
REMARK SMILES IDX 69 97 72 98 66 99 67 100 70 101 68 102
REMARK H PARENT 28 6 33 36 92 55 60 66
REMARK Flexibility Score: inf
ROOT
ATOM      1  C   UNL     1       3.995   1.331  -1.119  1.00  0.00     0.023 C 
ENDROOT
BRANCH   1   2
ATOM      2  C   UNL     1       3.385   1.684   0.243  1.00  0.00     0.116 C 
BRANCH   2   3
ATOM      3  N   UNL     1       2.212   2.488   0.049  1.00  0.00    -0.352 N 
ATOM      4  C   UNL     1       0.907   2.196  -0.224  1.00  0.00     0.251 C 
ATOM      5  O   UNL     1       0.232   3.195  -0.505  1.00  0.00    -0.269 OA
ATOM      6  H   UNL     1       2.385   3.454   0.130  1.00  0.00     0.163 HD
BRANCH   4   7
ATOM      7  C   UNL     1       0.215   0.852  -0.132  1.00  0.00     0.043 A 
ATOM      8  C   UNL     1       2.014  -0.973  -0.685  1.00  0.00     0.045 C 
ATOM      9  C   UNL     1       0.683  -0.483  -0.209  1.00  0.00    -0.038 A 
ATOM     10  C   UNL     1      -0.210  -1.550   0.054  1.00  0.00     0.005 A 
ATOM     11  C   UNL     1      -1.571  -1.342   0.189  1.00  0.00     0.012 A 
ATOM     12  C   UNL     1      -1.187   1.018  -0.013  1.00  0.00     0.026 A 
ATOM     13  C   UNL     1      -2.072  -0.057   0.074  1.00  0.00     0.018 A 
BRANCH  13  14
ATOM     14  C   UNL     1      -3.495   0.145  -0.054  1.00  0.00     0.134 A 
ATOM     15  C   UNL     1      -4.293   0.756  -0.989  1.00  0.00     0.051 A 
ATOM     16  O   UNL     1      -4.253  -0.446   0.895  1.00  0.00    -0.457 OA
ATOM     17  C   UNL     1      -5.623   0.494  -0.583  1.00  0.00     0.051 A 
ATOM     18  C   UNL     1      -5.573  -0.236   0.600  1.00  0.00     0.128 A 
BRANCH  18  19
ATOM     19  C   UNL     1      -6.648  -0.714   1.395  1.00  0.00     0.066 C 
ATOM     20  C   UNL     1      -6.507  -1.418   2.536  1.00  0.00     0.080 C 
BRANCH  20  21
ATOM     21  C   UNL     1      -5.236  -1.791   3.092  1.00  0.00     0.099 C 
ATOM     22  N   UNL     1      -4.244  -2.130   3.578  1.00  0.00    -0.193 NA
ENDBRANCH  20  21
BRANCH  20  23
ATOM     23  C   UNL     1      -7.734  -1.870   3.288  1.00  0.00     0.263 C 
ATOM     24  N   UNL     1      -7.869  -3.347   3.196  1.00  0.00    -0.251 NA
ATOM     25  N   UNL     1      -7.680  -1.432   4.708  1.00  0.00    -0.251 NA
ATOM     26  C   UNL     1      -7.877  -3.704   4.433  1.00  0.00     0.086 A 
ATOM     27  C   UNL     1      -7.764  -2.547   5.348  1.00  0.00     0.086 A 
ATOM     28  C   UNL     1      -7.985  -5.055   4.988  1.00  0.00     0.030 A 
ATOM     29  C   UNL     1      -7.764  -2.772   6.795  1.00  0.00     0.030 A 
ATOM     30  C   UNL     1      -7.984  -5.173   6.323  1.00  0.00     0.002 A 
ATOM     31  C   UNL     1      -7.875  -4.038   7.221  1.00  0.00     0.002 A 
ENDBRANCH  20  23
ENDBRANCH  18  19
ENDBRANCH  13  14
ENDBRANCH   4   7
ENDBRANCH   2   3
ENDBRANCH   1   2
BRANCH   1  32
ATOM     32  C   UNL     1       4.890   2.388  -1.743  1.00  0.00     0.023 C 
BRANCH  32  33
ATOM     33  C   UNL     1       6.187   2.573  -0.998  1.00  0.00     0.116 C 
BRANCH  33  34
ATOM     34  N   UNL     1       7.191   1.552  -1.240  1.00  0.00    -0.352 N 
ATOM     35  C   UNL     1       8.537   1.563  -0.908  1.00  0.00     0.251 C 
ATOM     36  H   UNL     1       6.874   0.743  -1.702  1.00  0.00     0.163 HD
ATOM     37  O   UNL     1       9.292   0.751  -1.434  1.00  0.00    -0.269 OA
BRANCH  35  38
ATOM     38  C   UNL     1       9.028   2.389   0.237  1.00  0.00     0.039 A 
ATOM     39  C   UNL     1       9.906   1.721   1.106  1.00  0.00     0.014 A 
ATOM     40  C   UNL     1       8.232   3.407   0.729  1.00  0.00     0.014 A 
ATOM     41  C   UNL     1       9.673   1.779   2.469  1.00  0.00     0.010 A 
ATOM     42  C   UNL     1       7.815   3.275   2.020  1.00  0.00     0.010 A 
ATOM     43  C   UNL     1       8.517   2.422   2.871  1.00  0.00    -0.014 A 
BRANCH  43  44
ATOM     44  C   UNL     1       7.970   2.409   4.201  1.00  0.00     0.031 A 
ATOM     45  C   UNL     1       8.312   3.594   5.005  1.00  0.00     0.074 A 
ATOM     46  C   UNL     1       6.993   1.502   4.422  1.00  0.00     0.049 A 
ATOM     47  N   UNL     1       8.194   3.678   6.274  1.00  0.00    -0.248 NA
ATOM     48  C   UNL     1       8.889   4.811   4.420  1.00  0.00     0.031 C 
ATOM     49  C   UNL     1       5.960   1.460   5.448  1.00  0.00     0.029 A 
ATOM     50  N   UNL     1       6.855   0.262   3.767  1.00  0.00    -0.354 N 
ATOM     51  C   UNL     1       8.257   5.021   6.593  1.00  0.00     0.074 A 
ATOM     52  C   UNL     1       8.865   5.651   5.456  1.00  0.00     0.031 C 
ATOM     53  C   UNL     1       5.552   0.184   5.601  1.00  0.00     0.029 A 
ATOM     54  C   UNL     1       6.407  -0.639   4.761  1.00  0.00     0.049 A 
ATOM     55  H   UNL     1       7.032   0.065   2.818  1.00  0.00     0.167 HD
ATOM     56  C   UNL     1       7.579   5.428   7.703  1.00  0.00     0.037 A 
ATOM     57  C   UNL     1       7.272  -1.595   5.222  1.00  0.00     0.037 A 
ATOM     58  C   UNL     1       7.027   4.242   8.365  1.00  0.00     0.049 A 
ATOM     59  C   UNL     1       7.678  -1.312   6.652  1.00  0.00     0.074 A 
ATOM     60  C   UNL     1       5.770   3.662   8.327  1.00  0.00     0.029 A 
ATOM     61  N   UNL     1       7.904   3.261   8.813  1.00  0.00    -0.354 N 
ATOM     62  N   UNL     1       7.725  -0.113   7.173  1.00  0.00    -0.248 NA
ATOM     63  C   UNL     1       7.963  -2.361   7.625  1.00  0.00     0.031 C 
ATOM     64  C   UNL     1       5.920   2.289   8.673  1.00  0.00     0.029 A 
ATOM     65  C   UNL     1       7.261   2.043   8.924  1.00  0.00     0.049 A 
ATOM     66  H   UNL     1       8.854   3.413   9.024  1.00  0.00     0.167 HD
ATOM     67  C   UNL     1       7.970  -0.213   8.518  1.00  0.00     0.074 A 
ATOM     68  C   UNL     1       8.128  -1.639   8.746  1.00  0.00     0.031 C 
ATOM     69  C   UNL     1       7.994   0.865   9.360  1.00  0.00     0.037 A 
BRANCH  56  70
ATOM     70  C   UNL     1       7.142   6.838   8.048  1.00  0.00     0.064 A 
ATOM     71  C   UNL     1       6.175   7.031   9.063  1.00  0.00     0.173 A 
ATOM     72  C   UNL     1       7.562   8.026   7.418  1.00  0.00     0.173 A 
ATOM     73  F   UNL     1       5.720   6.008   9.799  1.00  0.00    -0.203 F 
ATOM     74  C   UNL     1       5.634   8.283   9.369  1.00  0.00     0.198 A 
ATOM     75  C   UNL     1       7.018   9.280   7.723  1.00  0.00     0.198 A 
ATOM     76  F   UNL     1       8.530   8.046   6.501  1.00  0.00    -0.203 F 
ATOM     77  F   UNL     1       4.701   8.385  10.326  1.00  0.00    -0.200 F 
ATOM     78  C   UNL     1       6.047   9.408   8.692  1.00  0.00     0.200 A 
ATOM     79  F   UNL     1       7.449  10.367   7.065  1.00  0.00    -0.200 F 
ATOM     80  F   UNL     1       5.528  10.608   8.981  1.00  0.00    -0.200 F 
ENDBRANCH  56  70
BRANCH  57  81
ATOM     81  C   UNL     1       8.139  -2.115   4.117  1.00  0.00     0.064 A 
ATOM     82  C   UNL     1       7.475  -2.717   3.023  1.00  0.00     0.173 A 
ATOM     83  C   UNL     1       9.429  -1.623   3.885  1.00  0.00     0.173 A 
ATOM     84  F   UNL     1       6.246  -3.234   3.192  1.00  0.00    -0.203 F 
ATOM     85  C   UNL     1       7.985  -2.641   1.729  1.00  0.00     0.198 A 
ATOM     86  C   UNL     1       9.960  -1.598   2.589  1.00  0.00     0.198 A 
ATOM     87  F   UNL     1      10.124  -1.045   4.875  1.00  0.00    -0.203 F 
ATOM     88  F   UNL     1       7.241  -3.055   0.692  1.00  0.00    -0.200 F 
ATOM     89  C   UNL     1       9.214  -2.050   1.509  1.00  0.00     0.200 A 
ATOM     90  F   UNL     1      11.156  -1.032   2.371  1.00  0.00    -0.200 F 
ATOM     91  F   UNL     1       9.664  -1.881   0.257  1.00  0.00    -0.200 F 
ENDBRANCH  57  81
BRANCH  69  92
ATOM     92  C   UNL     1       8.633   0.888  10.730  1.00  0.00     0.064 A 
ATOM     93  C   UNL     1       9.629  -0.011  11.139  1.00  0.00     0.173 A 
ATOM     94  C   UNL     1       8.373   1.952  11.634  1.00  0.00     0.173 A 
ATOM     95  F   UNL     1      10.089  -0.969  10.323  1.00  0.00    -0.203 F 
ATOM     96  C   UNL     1      10.241   0.082  12.390  1.00  0.00     0.198 A 
ATOM     97  C   UNL     1       9.056   2.096  12.837  1.00  0.00     0.198 A 
ATOM     98  F   UNL     1       7.473   2.909  11.370  1.00  0.00    -0.203 F 
ATOM     99  F   UNL     1      11.126  -0.853  12.761  1.00  0.00    -0.200 F 
ATOM    100  C   UNL     1       9.966   1.142  13.232  1.00  0.00     0.200 A 
ATOM    101  F   UNL     1       8.838   3.177  13.599  1.00  0.00    -0.200 F 
ATOM    102  F   UNL     1      10.594   1.254  14.409  1.00  0.00    -0.200 F 
ENDBRANCH  69  92
ENDBRANCH  43  44
ENDBRANCH  35  38
ENDBRANCH  33  34
ENDBRANCH  32  33
ENDBRANCH   1  32
TORSDOF 15
