REMARK SMILES Cc1ccc(-c2cc(C(=O)NCCCCNC(=O)c3ccc(-c4c5nc(c(-c6c(F)c(F)c(F)c(F)c6F)c6ccc([nH]6)c(-c6c(F)c(F)c(F)c(F)c6F)c6nc(c(-c7c(F)c(F)c(F)c(F)c7F)c7ccc4[nH]7)C=C6)C=C5)cc3)c3c(-c4cccc([N+](=O)[O-])c4)[nH]nc3n2)cc1
REMARK SMILES IDX 13 1 12 2 11 3 9 4 10 5 8 7 6 8 7 9 96 10 95 11 82 12 94 13
REMARK SMILES IDX 83 14 93 15 5 17 1 18 2 19 3 20 98 21 4 22 97 23 84 24 85 25
REMARK SMILES IDX 92 26 86 27 88 28 87 29 89 30 90 31 91 32 14 33 15 34 16 35
REMARK SMILES IDX 17 36 18 38 19 39 20 40 81 41 21 42 80 43 22 44 23 45 24 46
REMARK SMILES IDX 74 47 25 48 79 49 73 50 75 51 26 52 78 53 72 54 71 55 27 57
REMARK SMILES IDX 59 58 39 59 58 60 40 61 43 62 57 63 76 64 41 65 42 66 56 68
REMARK SMILES IDX 77 69 44 70 28 71 29 72 37 73 30 74 31 75 35 76 38 77 32 78
REMARK SMILES IDX 33 79 36 80 34 81 60 82 61 83 69 84 62 85 63 86 67 87 70 88
REMARK SMILES IDX 64 89 65 90 68 91 66 92 45 93 46 94 54 95 47 96 48 97 52 98
REMARK SMILES IDX 55 99 49 100 50 101 53 102 51 103
REMARK H PARENT 11 6 93 16 16 37 75 56 43 67
REMARK Flexibility Score: inf
ROOT
ATOM      1  C   UNL     1      -2.905   1.079  -4.345  1.00  0.00     0.023 C 
ENDROOT
BRANCH   1   2
ATOM      2  C   UNL     1      -3.505   2.237  -3.535  1.00  0.00     0.116 C 
BRANCH   2   3
ATOM      3  N   UNL     1      -4.929   2.085  -3.283  1.00  0.00    -0.352 N 
ATOM      4  C   UNL     1      -5.715   1.498  -2.320  1.00  0.00     0.252 C 
ATOM      5  O   UNL     1      -6.909   1.762  -2.435  1.00  0.00    -0.269 OA
ATOM      6  H   UNL     1      -5.472   2.513  -3.985  1.00  0.00     0.163 HD
BRANCH   4   7
ATOM      7  C   UNL     1      -5.223   0.659  -1.196  1.00  0.00     0.055 A 
ATOM      8  C   UNL     1      -3.347  -0.227   0.190  1.00  0.00     0.074 A 
ATOM      9  C   UNL     1      -3.867   0.409  -0.965  1.00  0.00     0.043 A 
ATOM     10  N   UNL     1      -4.080  -0.770   1.188  1.00  0.00    -0.226 NA
ATOM     11  C   UNL     1      -5.415  -0.629   0.987  1.00  0.00     0.182 A 
ATOM     12  C   UNL     1      -5.977   0.056  -0.162  1.00  0.00     0.059 A 
ATOM     13  N   UNL     1      -6.357  -1.080   1.812  1.00  0.00    -0.154 NA
ATOM     14  C   UNL     1      -7.349  -0.060   0.018  1.00  0.00     0.076 A 
ATOM     15  N   UNL     1      -7.499  -0.720   1.216  1.00  0.00    -0.275 N 
ATOM     16  H   UNL     1      -8.382  -0.913   1.606  1.00  0.00     0.190 HD
BRANCH   8  17
ATOM     17  C   UNL     1      -1.884  -0.235   0.342  1.00  0.00     0.000 A 
ATOM     18  C   UNL     1       2.429  -0.137   0.073  1.00  0.00     0.044 C 
ATOM     19  C   UNL     1       0.936  -0.166   0.218  1.00  0.00    -0.051 A 
ATOM     20  C   UNL     1       0.252  -1.388   0.276  1.00  0.00     0.004 A 
ATOM     21  C   UNL     1       0.208   1.024   0.273  1.00  0.00     0.004 A 
ATOM     22  C   UNL     1      -1.146  -1.423   0.343  1.00  0.00     0.010 A 
ATOM     23  C   UNL     1      -1.183   0.987   0.343  1.00  0.00     0.010 A 
ENDBRANCH   8  17
BRANCH  14  24
ATOM     24  C   UNL     1      -8.523   0.297  -0.765  1.00  0.00     0.007 A 
ATOM     25  C   UNL     1      -9.383   1.315  -0.330  1.00  0.00     0.011 A 
ATOM     26  C   UNL     1      -8.764  -0.336  -1.991  1.00  0.00     0.096 A 
ATOM     27  C   UNL     1     -10.446   1.737  -1.133  1.00  0.00     0.008 A 
ATOM     28  C   UNL     1      -9.807   0.119  -2.807  1.00  0.00     0.270 A 
ATOM     29  C   UNL     1     -10.654   1.151  -2.381  1.00  0.00     0.085 A 
BRANCH  28  30
ATOM     30  N   UNL     1      -9.975  -0.454  -4.147  1.00  0.00     0.062 N 
ATOM     31  O   UNL     1     -10.864   0.018  -4.870  1.00  0.00    -0.258 OA
ATOM     32  O   UNL     1      -9.219  -1.379  -4.480  1.00  0.00    -0.258 OA
ENDBRANCH  28  30
ENDBRANCH  14  24
ENDBRANCH   4   7
ENDBRANCH   2   3
ENDBRANCH   1   2
BRANCH   1  33
ATOM     33  C   UNL     1      -3.435   0.957  -5.779  1.00  0.00     0.023 C 
BRANCH  33  34
ATOM     34  C   UNL     1      -3.058   2.121  -6.687  1.00  0.00     0.116 C 
BRANCH  34  35
ATOM     35  N   UNL     1      -1.734   2.036  -7.285  1.00  0.00    -0.352 N 
ATOM     36  C   UNL     1      -0.972   3.027  -7.900  1.00  0.00     0.251 C 
ATOM     37  H   UNL     1      -1.315   1.146  -7.250  1.00  0.00     0.163 HD
ATOM     38  O   UNL     1       0.076   2.752  -8.438  1.00  0.00    -0.269 OA
BRANCH  36  39
ATOM     39  C   UNL     1      -1.390   4.448  -7.761  1.00  0.00     0.039 A 
ATOM     40  C   UNL     1      -0.418   5.372  -7.356  1.00  0.00     0.014 A 
ATOM     41  C   UNL     1      -2.731   4.815  -7.802  1.00  0.00     0.014 A 
ATOM     42  C   UNL     1      -0.818   6.552  -6.733  1.00  0.00     0.010 A 
ATOM     43  C   UNL     1      -3.132   5.931  -7.093  1.00  0.00     0.010 A 
ATOM     44  C   UNL     1      -2.174   6.750  -6.486  1.00  0.00    -0.014 A 
BRANCH  44  45
ATOM     45  C   UNL     1      -2.677   7.694  -5.495  1.00  0.00     0.031 A 
ATOM     46  C   UNL     1      -3.379   8.923  -5.917  1.00  0.00     0.074 A 
ATOM     47  C   UNL     1      -2.581   7.379  -4.182  1.00  0.00     0.049 A 
ATOM     48  N   UNL     1      -3.625   9.915  -5.131  1.00  0.00    -0.248 NA
ATOM     49  C   UNL     1      -3.783   9.175  -7.297  1.00  0.00     0.031 C 
ATOM     50  C   UNL     1      -3.297   7.993  -3.064  1.00  0.00     0.029 A 
ATOM     51  N   UNL     1      -1.624   6.551  -3.566  1.00  0.00    -0.354 N 
ATOM     52  C   UNL     1      -4.449  10.788  -5.799  1.00  0.00     0.074 A 
ATOM     53  C   UNL     1      -4.399  10.355  -7.172  1.00  0.00     0.031 C 
ATOM     54  C   UNL     1      -2.602   7.783  -1.936  1.00  0.00     0.029 A 
ATOM     55  C   UNL     1      -1.346   7.167  -2.322  1.00  0.00     0.049 A 
ATOM     56  H   UNL     1      -1.232   5.722  -3.924  1.00  0.00     0.167 HD
ATOM     57  C   UNL     1      -5.172  11.683  -5.069  1.00  0.00     0.037 A 
ATOM     58  C   UNL     1      -0.113   7.670  -2.026  1.00  0.00     0.037 A 
ATOM     59  C   UNL     1      -4.644  11.775  -3.705  1.00  0.00     0.049 A 
ATOM     60  C   UNL     1      -0.115   9.137  -1.666  1.00  0.00     0.074 A 
ATOM     61  C   UNL     1      -5.086  11.325  -2.473  1.00  0.00     0.029 A 
ATOM     62  N   UNL     1      -3.329  12.197  -3.521  1.00  0.00    -0.354 N 
ATOM     63  N   UNL     1      -1.068   9.965  -1.992  1.00  0.00    -0.248 NA
ATOM     64  C   UNL     1       0.968   9.788  -0.935  1.00  0.00     0.031 C 
ATOM     65  C   UNL     1      -3.998  11.410  -1.562  1.00  0.00     0.029 A 
ATOM     66  C   UNL     1      -2.910  11.949  -2.230  1.00  0.00     0.049 A 
ATOM     67  H   UNL     1      -2.773  12.615  -4.218  1.00  0.00     0.167 HD
ATOM     68  C   UNL     1      -0.748  11.226  -1.554  1.00  0.00     0.074 A 
ATOM     69  C   UNL     1       0.525  11.056  -0.880  1.00  0.00     0.031 C 
ATOM     70  C   UNL     1      -1.561  12.297  -1.802  1.00  0.00     0.037 A 
BRANCH  57  71
ATOM     71  C   UNL     1      -6.479  12.336  -5.497  1.00  0.00     0.064 A 
ATOM     72  C   UNL     1      -7.197  13.148  -4.586  1.00  0.00     0.173 A 
ATOM     73  C   UNL     1      -7.153  12.110  -6.717  1.00  0.00     0.173 A 
ATOM     74  F   UNL     1      -6.691  13.464  -3.386  1.00  0.00    -0.203 F 
ATOM     75  C   UNL     1      -8.478  13.646  -4.860  1.00  0.00     0.198 A 
ATOM     76  C   UNL     1      -8.414  12.643  -7.005  1.00  0.00     0.198 A 
ATOM     77  F   UNL     1      -6.659  11.329  -7.679  1.00  0.00    -0.203 F 
ATOM     78  F   UNL     1      -9.129  14.357  -3.928  1.00  0.00    -0.200 F 
ATOM     79  C   UNL     1      -9.086  13.396  -6.071  1.00  0.00     0.200 A 
ATOM     80  F   UNL     1      -8.982  12.386  -8.193  1.00  0.00    -0.200 F 
ATOM     81  F   UNL     1     -10.313  13.864  -6.334  1.00  0.00    -0.200 F 
ENDBRANCH  57  71
BRANCH  58  82
ATOM     82  C   UNL     1       0.994   6.961  -2.717  1.00  0.00     0.064 A 
ATOM     83  C   UNL     1       1.202   5.599  -2.422  1.00  0.00     0.173 A 
ATOM     84  C   UNL     1       1.567   7.463  -3.891  1.00  0.00     0.173 A 
ATOM     85  F   UNL     1       0.669   5.065  -1.311  1.00  0.00    -0.203 F 
ATOM     86  C   UNL     1       1.850   4.753  -3.319  1.00  0.00     0.198 A 
ATOM     87  C   UNL     1       2.228   6.614  -4.782  1.00  0.00     0.198 A 
ATOM     88  F   UNL     1       1.386   8.745  -4.239  1.00  0.00    -0.203 F 
ATOM     89  F   UNL     1       1.927   3.440  -3.061  1.00  0.00    -0.200 F 
ATOM     90  C   UNL     1       2.337   5.257  -4.512  1.00  0.00     0.200 A 
ATOM     91  F   UNL     1       2.671   7.093  -5.954  1.00  0.00    -0.200 F 
ATOM     92  F   UNL     1       2.871   4.430  -5.423  1.00  0.00    -0.200 F 
ENDBRANCH  58  82
BRANCH  70  93
ATOM     93  C   UNL     1      -1.215  13.759  -1.599  1.00  0.00     0.064 A 
ATOM     94  C   UNL     1       0.093  14.273  -1.581  1.00  0.00     0.173 A 
ATOM     95  C   UNL     1      -2.242  14.737  -1.556  1.00  0.00     0.173 A 
ATOM     96  F   UNL     1       1.159  13.480  -1.749  1.00  0.00    -0.203 F 
ATOM     97  C   UNL     1       0.354  15.643  -1.458  1.00  0.00     0.198 A 
ATOM     98  C   UNL     1      -1.979  16.105  -1.496  1.00  0.00     0.198 A 
ATOM     99  F   UNL     1      -3.538  14.397  -1.602  1.00  0.00    -0.203 F 
ATOM    100  F   UNL     1       1.623  16.072  -1.401  1.00  0.00    -0.200 F 
ATOM    101  C   UNL     1      -0.679  16.558  -1.427  1.00  0.00     0.200 A 
ATOM    102  F   UNL     1      -2.994  16.981  -1.526  1.00  0.00    -0.200 F 
ATOM    103  F   UNL     1      -0.423  17.871  -1.359  1.00  0.00    -0.200 F 
ENDBRANCH  70  93
ENDBRANCH  44  45
ENDBRANCH  36  39
ENDBRANCH  34  35
ENDBRANCH  33  34
ENDBRANCH   1  33
TORSDOF 14
