REMARK SMILES C[C@H]1[NH2+]CC[C@H]1C(=O)N1CC(C(=O)NCCCCNC(=O)c2ccc(-c3c4nc(c(-c5c(F)c(F)c(F)c(F)c5F)c5ccc([nH]5)c(-c5c(F)c(F)c(F)c(F)c5F)c5nc(c(-c6c(F)c(F)c(F)c(F)c6F)c6ccc3[nH]6)C=C5)C=C4)cc2)C1
REMARK SMILES IDX 17 1 16 2 15 3 14 4 12 5 13 6 11 8 7 9 8 10 9 11 10 12 85 13
REMARK SMILES IDX 6 14 1 15 2 16 3 17 4 18 5 21 18 22 19 23 20 24 21 26 22 27
REMARK SMILES IDX 23 28 84 29 24 30 83 31 25 32 26 33 27 34 77 35 28 36 82 37
REMARK SMILES IDX 76 38 78 39 29 40 81 41 75 42 74 43 30 45 62 46 42 47 61 48
REMARK SMILES IDX 43 49 46 50 60 51 79 52 44 53 45 54 59 56 80 57 47 58 31 59
REMARK SMILES IDX 32 60 40 61 33 62 34 63 38 64 41 65 35 66 36 67 39 68 37 69
REMARK SMILES IDX 63 70 64 71 72 72 65 73 66 74 70 75 73 76 67 77 68 78 71 79
REMARK SMILES IDX 69 80 48 81 49 82 57 83 50 84 51 85 55 86 58 87 52 88 53 89
REMARK SMILES IDX 56 90 54 91
REMARK H PARENT 14 7 3 19 3 20 19 25 78 44 46 55
REMARK Flexibility Score: inf
ROOT
ATOM      1  C   UNL     1       2.230  -0.120   6.366  1.00  0.00     0.023 C 
ENDROOT
BRANCH   1   2
ATOM      2  C   UNL     1       1.820   0.172   4.922  1.00  0.00     0.023 C 
BRANCH   2   3
ATOM      3  C   UNL     1       1.416   1.617   4.643  1.00  0.00     0.116 C 
BRANCH   3   4
ATOM      4  N   UNL     1       2.510   2.548   4.840  1.00  0.00    -0.356 N 
ATOM      5  C   UNL     1       3.122   3.423   3.974  1.00  0.00     0.226 C 
ATOM      6  O   UNL     1       4.023   4.116   4.470  1.00  0.00    -0.275 OA
ATOM      7  H   UNL     1       2.878   2.554   5.753  1.00  0.00     0.163 HD
BRANCH   5   8
ATOM      8  C   UNL     1       2.742   3.529   2.493  1.00  0.00     0.117 C 
ATOM      9  C   UNL     1       0.954   2.388  -0.034  1.00  0.00     0.231 C 
ATOM     10  O   UNL     1       1.246   3.247  -0.866  1.00  0.00    -0.274 OA
ATOM     11  N   UNL     1       1.382   2.465   1.279  1.00  0.00    -0.341 N 
ATOM     12  C   UNL     1       1.304   3.732   2.045  1.00  0.00     0.134 C 
ATOM     13  C   UNL     1       2.809   2.291   1.623  1.00  0.00     0.134 C 
BRANCH   9  14
ATOM     14  C   UNL     1       0.087   1.190  -0.394  1.00  0.00     0.142 C 
ATOM     15  C   UNL     1       1.814  -0.576   0.457  1.00  0.00     0.076 C 
ATOM     16  C   UNL     1       0.770  -0.165  -0.576  1.00  0.00     0.192 C 
ATOM     17  N   UNL     1      -0.353  -1.120  -0.544  1.00  0.00    -0.343 N 
ATOM     18  C   UNL     1      -1.448  -0.534   0.231  1.00  0.00     0.261 C 
ATOM     19  H   UNL     1      -0.051  -1.990  -0.106  1.00  0.00     0.346 HD
ATOM     20  H   UNL     1      -0.668  -1.318  -1.494  1.00  0.00     0.346 HD
ATOM     21  C   UNL     1      -1.040   0.889   0.581  1.00  0.00     0.081 C 
ENDBRANCH   9  14
ENDBRANCH   5   8
ENDBRANCH   3   4
ENDBRANCH   2   3
ENDBRANCH   1   2
BRANCH   1  22
ATOM     22  C   UNL     1       1.220   0.291   7.431  1.00  0.00     0.116 C 
BRANCH  22  23
ATOM     23  N   UNL     1      -0.074  -0.355   7.276  1.00  0.00    -0.352 N 
ATOM     24  C   UNL     1      -0.859  -0.968   8.224  1.00  0.00     0.251 C 
ATOM     25  H   UNL     1      -0.440  -0.353   6.362  1.00  0.00     0.163 HD
ATOM     26  O   UNL     1      -1.874  -1.570   7.887  1.00  0.00    -0.269 OA
BRANCH  24  27
ATOM     27  C   UNL     1      -0.459  -0.935   9.647  1.00  0.00     0.039 A 
ATOM     28  C   UNL     1      -0.506  -2.119  10.388  1.00  0.00     0.014 A 
ATOM     29  C   UNL     1      -0.022   0.250  10.245  1.00  0.00     0.014 A 
ATOM     30  C   UNL     1      -0.043  -2.130  11.706  1.00  0.00     0.010 A 
ATOM     31  C   UNL     1       0.510   0.221  11.531  1.00  0.00     0.010 A 
ATOM     32  C   UNL     1       0.508  -0.970  12.274  1.00  0.00    -0.014 A 
BRANCH  32  33
ATOM     33  C   UNL     1       1.095  -0.984  13.639  1.00  0.00     0.031 A 
ATOM     34  C   UNL     1       0.493  -0.145  14.731  1.00  0.00     0.074 A 
ATOM     35  C   UNL     1       2.211  -1.701  13.878  1.00  0.00     0.049 A 
ATOM     36  N   UNL     1       0.901   0.030  15.963  1.00  0.00    -0.248 NA
ATOM     37  C   UNL     1      -0.714   0.621  14.385  1.00  0.00     0.031 C 
ATOM     38  C   UNL     1       2.917  -2.521  12.893  1.00  0.00     0.029 A 
ATOM     39  N   UNL     1       2.953  -1.848  15.024  1.00  0.00    -0.354 N 
ATOM     40  C   UNL     1       0.010   0.931  16.532  1.00  0.00     0.074 A 
ATOM     41  C   UNL     1      -0.924   1.312  15.495  1.00  0.00     0.031 C 
ATOM     42  C   UNL     1       3.972  -3.106  13.481  1.00  0.00     0.029 A 
ATOM     43  C   UNL     1       4.043  -2.670  14.873  1.00  0.00     0.049 A 
ATOM     44  H   UNL     1       2.726  -1.406  15.874  1.00  0.00     0.167 HD
ATOM     45  C   UNL     1      -0.041   1.379  17.810  1.00  0.00     0.037 A 
ATOM     46  C   UNL     1       4.997  -3.027  15.755  1.00  0.00     0.037 A 
ATOM     47  C   UNL     1       0.881   0.985  18.843  1.00  0.00     0.049 A 
ATOM     48  C   UNL     1       4.932  -2.495  17.162  1.00  0.00     0.074 A 
ATOM     49  C   UNL     1       0.884   1.343  20.180  1.00  0.00     0.029 A 
ATOM     50  N   UNL     1       1.970   0.145  18.653  1.00  0.00    -0.354 N 
ATOM     51  N   UNL     1       4.045  -1.697  17.706  1.00  0.00    -0.248 NA
ATOM     52  C   UNL     1       5.999  -2.919  18.078  1.00  0.00     0.031 C 
ATOM     53  C   UNL     1       2.002   0.762  20.787  1.00  0.00     0.029 A 
ATOM     54  C   UNL     1       2.664  -0.006  19.843  1.00  0.00     0.049 A 
ATOM     55  H   UNL     1       2.212  -0.280  17.799  1.00  0.00     0.167 HD
ATOM     56  C   UNL     1       4.428  -1.550  19.033  1.00  0.00     0.074 A 
ATOM     57  C   UNL     1       5.620  -2.353  19.215  1.00  0.00     0.031 C 
ATOM     58  C   UNL     1       3.844  -0.817  20.012  1.00  0.00     0.037 A 
BRANCH  45  59
ATOM     59  C   UNL     1      -1.134   2.347  18.160  1.00  0.00     0.064 A 
ATOM     60  C   UNL     1      -2.482   1.954  18.196  1.00  0.00     0.173 A 
ATOM     61  C   UNL     1      -0.832   3.676  18.493  1.00  0.00     0.173 A 
ATOM     62  F   UNL     1      -2.827   0.697  17.876  1.00  0.00    -0.203 F 
ATOM     63  C   UNL     1      -3.487   2.863  18.515  1.00  0.00     0.198 A 
ATOM     64  C   UNL     1      -1.837   4.574  18.845  1.00  0.00     0.198 A 
ATOM     65  F   UNL     1       0.439   4.104  18.482  1.00  0.00    -0.203 F 
ATOM     66  F   UNL     1      -4.770   2.478  18.486  1.00  0.00    -0.200 F 
ATOM     67  C   UNL     1      -3.163   4.170  18.846  1.00  0.00     0.200 A 
ATOM     68  F   UNL     1      -1.521   5.833  19.178  1.00  0.00    -0.200 F 
ATOM     69  F   UNL     1      -4.131   5.043  19.158  1.00  0.00    -0.200 F 
ENDBRANCH  45  59
BRANCH  46  70
ATOM     70  C   UNL     1       6.081  -3.957  15.344  1.00  0.00     0.064 A 
ATOM     71  C   UNL     1       6.147  -5.257  15.867  1.00  0.00     0.173 A 
ATOM     72  C   UNL     1       7.073  -3.570  14.432  1.00  0.00     0.173 A 
ATOM     73  F   UNL     1       5.233  -5.667  16.759  1.00  0.00    -0.203 F 
ATOM     74  C   UNL     1       7.177  -6.125  15.511  1.00  0.00     0.198 A 
ATOM     75  C   UNL     1       8.085  -4.450  14.053  1.00  0.00     0.198 A 
ATOM     76  F   UNL     1       7.052  -2.340  13.898  1.00  0.00    -0.203 F 
ATOM     77  F   UNL     1       7.243  -7.344  16.063  1.00  0.00    -0.200 F 
ATOM     78  C   UNL     1       8.142  -5.723  14.600  1.00  0.00     0.200 A 
ATOM     79  F   UNL     1       9.007  -4.063  13.161  1.00  0.00    -0.200 F 
ATOM     80  F   UNL     1       9.130  -6.559  14.254  1.00  0.00    -0.200 F 
ENDBRANCH  46  70
BRANCH  58  81
ATOM     81  C   UNL     1       4.459  -0.880  21.381  1.00  0.00     0.064 A 
ATOM     82  C   UNL     1       5.693  -0.277  21.665  1.00  0.00     0.173 A 
ATOM     83  C   UNL     1       3.784  -1.521  22.431  1.00  0.00     0.173 A 
ATOM     84  F   UNL     1       6.385   0.336  20.692  1.00  0.00    -0.203 F 
ATOM     85  C   UNL     1       6.241  -0.337  22.944  1.00  0.00     0.198 A 
ATOM     86  C   UNL     1       4.320  -1.551  23.716  1.00  0.00     0.198 A 
ATOM     87  F   UNL     1       2.598  -2.108  22.215  1.00  0.00    -0.203 F 
ATOM     88  F   UNL     1       7.445   0.202  23.180  1.00  0.00    -0.200 F 
ATOM     89  C   UNL     1       5.551  -0.966  23.969  1.00  0.00     0.200 A 
ATOM     90  F   UNL     1       3.645  -2.147  24.708  1.00  0.00    -0.200 F 
ATOM     91  F   UNL     1       6.077  -1.016  25.201  1.00  0.00    -0.200 F 
ENDBRANCH  58  81
ENDBRANCH  32  33
ENDBRANCH  24  27
ENDBRANCH  22  23
ENDBRANCH   1  22
TORSDOF 12
