REMARK SMILES COc1ccc(-c2ccc(S(=O)(=O)NC(C)(C)C)cc2)c(C(=O)NCCCCNC(=O)c2ccc(-c3c4nc(c(-c5c(F)c(F)c(F)c(F)c5F)c5ccc([nH]5)c(-c5c(F)c(F)c(F)c(F)c5F)c5nc(c(-c6c(F)c(F)c(F)c(F)c6F)c6ccc3[nH]6)C=C5)C=C4)cc2)c1
REMARK SMILES IDX 25 1 24 2 22 3 23 4 21 6 3 7 4 8 95 9 5 10 6 11 2 12 1 13
REMARK SMILES IDX 7 14 8 15 20 16 9 17 19 18 10 19 11 20 12 21 13 22 14 23
REMARK SMILES IDX 15 25 16 26 17 27 18 28 26 29 27 30 28 31 29 32 30 33 31 35
REMARK SMILES IDX 32 36 33 37 94 38 34 39 93 40 35 41 36 42 37 43 87 44 38 45
REMARK SMILES IDX 92 46 86 47 88 48 39 49 91 50 85 51 84 52 40 54 72 55 52 56
REMARK SMILES IDX 71 57 53 58 56 59 70 60 89 61 54 62 55 63 69 65 90 66 57 67
REMARK SMILES IDX 41 68 42 69 50 70 43 71 44 72 48 73 51 74 45 75 46 76 49 77
REMARK SMILES IDX 47 78 73 79 74 80 82 81 75 82 76 83 80 84 83 85 77 86 78 87
REMARK SMILES IDX 81 88 79 89 58 90 59 91 67 92 60 93 61 94 65 95 68 96 62 97
REMARK SMILES IDX 63 98 66 99 64 100
REMARK H PARENT 24 5 14 24 29 34 88 53 56 64
REMARK Flexibility Score: inf
ROOT
ATOM      1  C   UNL     1       4.427   1.080   1.144  1.00  0.00     0.116 C 
ENDROOT
BRANCH   1   2
ATOM      2  N   UNL     1       4.646   1.231   2.575  1.00  0.00    -0.352 N 
ATOM      3  C   UNL     1       3.734   1.411   3.602  1.00  0.00     0.252 C 
ATOM      4  O   UNL     1       4.130   1.302   4.758  1.00  0.00    -0.269 OA
ATOM      5  H   UNL     1       5.589   1.200   2.857  1.00  0.00     0.163 HD
BRANCH   3   6
ATOM      6  C   UNL     1       2.316   1.761   3.304  1.00  0.00     0.051 A 
ATOM      7  C   UNL     1       0.396   1.346   1.853  1.00  0.00     0.119 A 
ATOM      8  C   UNL     1      -0.237   2.455   2.393  1.00  0.00     0.047 A 
ATOM      9  C   UNL     1       1.643   0.974   2.346  1.00  0.00     0.060 A 
ATOM     10  C   UNL     1       0.367   3.170   3.429  1.00  0.00     0.013 A 
ATOM     11  C   UNL     1       1.641   2.827   3.940  1.00  0.00    -0.005 A 
BRANCH   7  12
ATOM     12  O   UNL     1      -0.286   0.711   0.855  1.00  0.00    -0.497 OA
ATOM     13  C   UNL     1       0.476  -0.157   0.022  1.00  0.00     0.278 C 
ENDBRANCH   7  12
BRANCH  11  14
ATOM     14  C   UNL     1       2.114   3.576   5.132  1.00  0.00    -0.018 A 
ATOM     15  C   UNL     1       1.242   3.728   6.232  1.00  0.00     0.010 A 
ATOM     16  C   UNL     1       3.377   4.180   5.222  1.00  0.00     0.010 A 
ATOM     17  C   UNL     1       1.585   4.498   7.344  1.00  0.00     0.022 A 
ATOM     18  C   UNL     1       3.752   4.912   6.360  1.00  0.00     0.022 A 
ATOM     19  C   UNL     1       2.839   5.101   7.397  1.00  0.00     0.082 A 
BRANCH  19  20
ATOM     20  S   UNL     1       3.196   6.155   8.775  1.00  0.00     0.241 S 
ATOM     21  O   UNL     1       1.983   6.853   9.132  1.00  0.00    -0.207 OA
ATOM     22  O   UNL     1       3.905   5.341   9.739  1.00  0.00    -0.207 OA
BRANCH  20  23
ATOM     23  N   UNL     1       4.322   7.269   8.230  1.00  0.00    -0.206 NA
ATOM     24  H   UNL     1       4.969   6.729   7.655  1.00  0.00     0.141 HD
BRANCH  23  25
ATOM     25  C   UNL     1       4.056   8.499   7.452  1.00  0.00     0.025 C 
ATOM     26  C   UNL     1       3.029   9.411   8.126  1.00  0.00     0.028 C 
ATOM     27  C   UNL     1       5.400   9.252   7.384  1.00  0.00     0.028 C 
ATOM     28  C   UNL     1       3.616   8.171   6.025  1.00  0.00     0.028 C 
ENDBRANCH  23  25
ENDBRANCH  20  23
ENDBRANCH  19  20
ENDBRANCH  11  14
ENDBRANCH   3   6
ENDBRANCH   1   2
BRANCH   1  29
ATOM     29  C   UNL     1       5.513   1.649   0.238  1.00  0.00     0.023 C 
BRANCH  29  30
ATOM     30  C   UNL     1       6.949   1.212   0.500  1.00  0.00     0.023 C 
BRANCH  30  31
ATOM     31  C   UNL     1       7.191  -0.276   0.720  1.00  0.00     0.116 C 
BRANCH  31  32
ATOM     32  N   UNL     1       6.783  -1.121  -0.391  1.00  0.00    -0.352 N 
ATOM     33  C   UNL     1       7.492  -2.066  -1.097  1.00  0.00     0.251 C 
ATOM     34  H   UNL     1       5.852  -0.996  -0.685  1.00  0.00     0.163 HD
ATOM     35  O   UNL     1       6.959  -2.644  -2.040  1.00  0.00    -0.269 OA
BRANCH  33  36
ATOM     36  C   UNL     1       8.907  -2.354  -0.769  1.00  0.00     0.039 A 
ATOM     37  C   UNL     1       9.829  -2.444  -1.817  1.00  0.00     0.014 A 
ATOM     38  C   UNL     1       9.337  -2.519   0.549  1.00  0.00     0.014 A 
ATOM     39  C   UNL     1      11.190  -2.597  -1.539  1.00  0.00     0.010 A 
ATOM     40  C   UNL     1      10.700  -2.590   0.830  1.00  0.00     0.010 A 
ATOM     41  C   UNL     1      11.642  -2.617  -0.210  1.00  0.00    -0.014 A 
BRANCH  41  42
ATOM     42  C   UNL     1      13.092  -2.643   0.115  1.00  0.00     0.031 A 
ATOM     43  C   UNL     1      13.684  -3.808   0.855  1.00  0.00     0.074 A 
ATOM     44  C   UNL     1      13.858  -1.573  -0.176  1.00  0.00     0.049 A 
ATOM     45  N   UNL     1      14.898  -3.966   1.318  1.00  0.00    -0.248 NA
ATOM     46  C   UNL     1      12.780  -4.933   1.141  1.00  0.00     0.031 C 
ATOM     47  C   UNL     1      13.392  -0.352  -0.835  1.00  0.00     0.029 A 
ATOM     48  N   UNL     1      15.189  -1.333   0.065  1.00  0.00    -0.354 N 
ATOM     49  C   UNL     1      14.898  -5.193   1.967  1.00  0.00     0.074 A 
ATOM     50  C   UNL     1      13.551  -5.717   1.879  1.00  0.00     0.031 C 
ATOM     51  C   UNL     1      14.420   0.503  -0.953  1.00  0.00     0.029 A 
ATOM     52  C   UNL     1      15.609  -0.094  -0.352  1.00  0.00     0.049 A 
ATOM     53  H   UNL     1      15.785  -1.987   0.497  1.00  0.00     0.167 HD
ATOM     54  C   UNL     1      15.931  -5.836   2.563  1.00  0.00     0.037 A 
ATOM     55  C   UNL     1      16.814   0.499  -0.254  1.00  0.00     0.037 A 
ATOM     56  C   UNL     1      17.276  -5.329   2.624  1.00  0.00     0.049 A 
ATOM     57  C   UNL     1      17.954  -0.247   0.382  1.00  0.00     0.074 A 
ATOM     58  C   UNL     1      18.405  -5.935   3.148  1.00  0.00     0.029 A 
ATOM     59  N   UNL     1      17.675  -4.091   2.142  1.00  0.00    -0.354 N 
ATOM     60  N   UNL     1      17.957  -1.435   0.933  1.00  0.00    -0.248 NA
ATOM     61  C   UNL     1      19.259   0.428   0.401  1.00  0.00     0.031 C 
ATOM     62  C   UNL     1      19.481  -5.050   3.011  1.00  0.00     0.029 A 
ATOM     63  C   UNL     1      19.030  -3.909   2.368  1.00  0.00     0.049 A 
ATOM     64  H   UNL     1      17.082  -3.438   1.704  1.00  0.00     0.167 HD
ATOM     65  C   UNL     1      19.262  -1.660   1.348  1.00  0.00     0.074 A 
ATOM     66  C   UNL     1      20.028  -0.490   0.971  1.00  0.00     0.031 C 
ATOM     67  C   UNL     1      19.778  -2.739   1.986  1.00  0.00     0.037 A 
BRANCH  54  68
ATOM     68  C   UNL     1      15.639  -7.167   3.191  1.00  0.00     0.064 A 
ATOM     69  C   UNL     1      15.358  -8.299   2.412  1.00  0.00     0.173 A 
ATOM     70  C   UNL     1      15.652  -7.316   4.586  1.00  0.00     0.173 A 
ATOM     71  F   UNL     1      15.321  -8.205   1.074  1.00  0.00    -0.203 F 
ATOM     72  C   UNL     1      15.064  -9.523   3.006  1.00  0.00     0.198 A 
ATOM     73  C   UNL     1      15.386  -8.549   5.176  1.00  0.00     0.198 A 
ATOM     74  F   UNL     1      15.921  -6.266   5.377  1.00  0.00    -0.203 F 
ATOM     75  F   UNL     1      14.743 -10.577   2.243  1.00  0.00    -0.200 F 
ATOM     76  C   UNL     1      15.083  -9.649   4.387  1.00  0.00     0.200 A 
ATOM     77  F   UNL     1      15.414  -8.672   6.511  1.00  0.00    -0.200 F 
ATOM     78  F   UNL     1      14.798 -10.827   4.958  1.00  0.00    -0.200 F 
ENDBRANCH  54  68
BRANCH  55  79
ATOM     79  C   UNL     1      17.005   1.867  -0.797  1.00  0.00     0.064 A 
ATOM     80  C   UNL     1      17.728   2.077  -1.979  1.00  0.00     0.173 A 
ATOM     81  C   UNL     1      16.452   2.987  -0.161  1.00  0.00     0.173 A 
ATOM     82  F   UNL     1      18.291   1.037  -2.612  1.00  0.00    -0.203 F 
ATOM     83  C   UNL     1      17.902   3.358  -2.498  1.00  0.00     0.198 A 
ATOM     84  C   UNL     1      16.607   4.266  -0.693  1.00  0.00     0.198 A 
ATOM     85  F   UNL     1      15.745   2.837   0.970  1.00  0.00    -0.203 F 
ATOM     86  F   UNL     1      18.626   3.534  -3.612  1.00  0.00    -0.200 F 
ATOM     87  C   UNL     1      17.336   4.450  -1.858  1.00  0.00     0.200 A 
ATOM     88  F   UNL     1      16.048   5.317  -0.079  1.00  0.00    -0.200 F 
ATOM     89  F   UNL     1      17.496   5.681  -2.362  1.00  0.00    -0.200 F 
ENDBRANCH  55  79
BRANCH  67  90
ATOM     90  C   UNL     1      21.244  -2.714   2.299  1.00  0.00     0.064 A 
ATOM     91  C   UNL     1      21.759  -1.918   3.333  1.00  0.00     0.173 A 
ATOM     92  C   UNL     1      22.137  -3.525   1.583  1.00  0.00     0.173 A 
ATOM     93  F   UNL     1      20.946  -1.114   4.033  1.00  0.00    -0.203 F 
ATOM     94  C   UNL     1      23.120  -1.923   3.627  1.00  0.00     0.198 A 
ATOM     95  C   UNL     1      23.494  -3.544   1.896  1.00  0.00     0.198 A 
ATOM     96  F   UNL     1      21.692  -4.306   0.588  1.00  0.00    -0.203 F 
ATOM     97  F   UNL     1      23.596  -1.126   4.593  1.00  0.00    -0.200 F 
ATOM     98  C   UNL     1      23.984  -2.740   2.913  1.00  0.00     0.200 A 
ATOM     99  F   UNL     1      24.326  -4.341   1.212  1.00  0.00    -0.200 F 
ATOM    100  F   UNL     1      25.293  -2.747   3.202  1.00  0.00    -0.200 F 
ENDBRANCH  67  90
ENDBRANCH  41  42
ENDBRANCH  33  36
ENDBRANCH  31  32
ENDBRANCH  30  31
ENDBRANCH  29  30
ENDBRANCH   1  29
TORSDOF 16
