REMARK SMILES CC(C)CCc1cc2c(cc1Cl)C=C(C(=O)NCCCCNC(=O)c1ccc(-c3c4nc(c(-c5c(F)c(F)c(F)c(F)c5F)c5ccc([nH]5)c(-c5c(F)c(F)c(F)c(F)c5F)c5nc(c(-c6c(F)c(F)c(F)c(F)c6F)c6ccc3[nH]6)C=C5)C=C4)cc1)[C@@H](C(F)(F)F)O2
REMARK SMILES IDX 19 1 18 2 17 3 15 4 16 5 14 7 6 8 7 9 11 10 8 11 10 12 12 13
REMARK SMILES IDX 9 14 93 15 13 16 88 17 5 18 4 19 2 20 1 21 3 22 89 23 90 24
REMARK SMILES IDX 91 25 92 26 20 27 21 28 22 29 23 30 24 32 25 33 26 34 87 35
REMARK SMILES IDX 27 36 86 37 28 38 29 39 30 40 80 41 31 42 85 43 79 44 81 45
REMARK SMILES IDX 32 46 84 47 78 48 77 49 33 51 65 52 45 53 64 54 46 55 49 56
REMARK SMILES IDX 63 57 82 58 47 59 48 60 62 62 83 63 50 64 34 65 35 66 43 67
REMARK SMILES IDX 36 68 37 69 41 70 44 71 38 72 39 73 42 74 40 75 66 76 67 77
REMARK SMILES IDX 75 78 68 79 69 80 73 81 76 82 70 83 71 84 74 85 72 86 51 87
REMARK SMILES IDX 52 88 60 89 53 90 54 91 58 92 61 93 55 94 56 95 59 96 57 97
REMARK H PARENT 17 6 22 31 81 50 49 61
REMARK Flexibility Score: inf
ROOT
ATOM      1  C   UNL     1      -3.218  10.628   1.137  1.00  0.00     0.023 C 
ENDROOT
BRANCH   1   2
ATOM      2  C   UNL     1      -1.904  10.399   0.394  1.00  0.00     0.116 C 
BRANCH   2   3
ATOM      3  N   UNL     1      -0.812  10.072   1.293  1.00  0.00    -0.352 N 
ATOM      4  C   UNL     1      -0.211   8.944   1.740  1.00  0.00     0.251 C 
ATOM      5  O   UNL     1       0.712   9.123   2.541  1.00  0.00    -0.270 OA
ATOM      6  H   UNL     1      -0.402  10.880   1.678  1.00  0.00     0.163 HD
BRANCH   4   7
ATOM      7  C   UNL     1      -0.581   7.552   1.342  1.00  0.00     0.067 C 
ATOM      8  C   UNL     1      -0.877   2.506   1.041  1.00  0.00    -0.026 A 
ATOM      9  C   UNL     1      -1.575   3.577   0.455  1.00  0.00     0.052 A 
ATOM     10  C   UNL     1       0.112   2.805   1.993  1.00  0.00     0.045 A 
ATOM     11  C   UNL     1      -1.273   4.897   0.787  1.00  0.00     0.128 A 
ATOM     12  C   UNL     1       0.403   4.134   2.330  1.00  0.00     0.032 A 
ATOM     13  Cl  UNL     1       1.013   1.577   2.808  1.00  0.00    -0.084 Cl
ATOM     14  C   UNL     1      -0.287   5.185   1.724  1.00  0.00     0.019 A 
ATOM     15  O   UNL     1      -2.020   5.865   0.181  1.00  0.00    -0.475 OA
ATOM     16  C   UNL     1      -0.019   6.573   2.076  1.00  0.00     0.025 C 
ATOM     17  C   UNL     1      -1.460   7.208   0.171  1.00  0.00     0.314 C 
BRANCH   8  18
ATOM     18  C   UNL     1      -1.228   1.101   0.601  1.00  0.00     0.037 C 
BRANCH  18  19
ATOM     19  C   UNL     1      -0.789   0.780  -0.838  1.00  0.00     0.008 C 
BRANCH  19  20
ATOM     20  C   UNL     1       0.736   0.706  -1.053  1.00  0.00    -0.017 C 
ATOM     21  C   UNL     1       1.351  -0.522  -0.381  1.00  0.00     0.007 C 
ATOM     22  C   UNL     1       1.051   0.675  -2.551  1.00  0.00     0.007 C 
ENDBRANCH  19  20
ENDBRANCH  18  19
ENDBRANCH   8  18
BRANCH  17  23
ATOM     23  C   UNL     1      -0.769   7.449  -1.184  1.00  0.00     0.429 C 
ATOM     24  F   UNL     1      -1.680   7.426  -2.190  1.00  0.00    -0.167 F 
ATOM     25  F   UNL     1      -0.161   8.657  -1.249  1.00  0.00    -0.167 F 
ATOM     26  F   UNL     1       0.168   6.517  -1.464  1.00  0.00    -0.167 F 
ENDBRANCH  17  23
ENDBRANCH   4   7
ENDBRANCH   2   3
ENDBRANCH   1   2
BRANCH   1  27
ATOM     27  C   UNL     1      -3.397  12.044   1.694  1.00  0.00     0.023 C 
BRANCH  27  28
ATOM     28  C   UNL     1      -3.252  13.175   0.677  1.00  0.00     0.116 C 
BRANCH  28  29
ATOM     29  N   UNL     1      -4.085  13.035  -0.510  1.00  0.00    -0.352 N 
ATOM     30  C   UNL     1      -4.450  14.021  -1.403  1.00  0.00     0.251 C 
ATOM     31  H   UNL     1      -4.426  12.131  -0.697  1.00  0.00     0.163 HD
ATOM     32  O   UNL     1      -5.218  13.784  -2.327  1.00  0.00    -0.269 OA
BRANCH  30  33
ATOM     33  C   UNL     1      -3.951  15.392  -1.176  1.00  0.00     0.039 A 
ATOM     34  C   UNL     1      -2.585  15.621  -1.008  1.00  0.00     0.014 A 
ATOM     35  C   UNL     1      -4.874  16.427  -1.001  1.00  0.00     0.014 A 
ATOM     36  C   UNL     1      -2.161  16.828  -0.470  1.00  0.00     0.010 A 
ATOM     37  C   UNL     1      -4.435  17.666  -0.530  1.00  0.00     0.010 A 
ATOM     38  C   UNL     1      -3.086  17.848  -0.187  1.00  0.00    -0.014 A 
BRANCH  38  39
ATOM     39  C   UNL     1      -2.624  19.052   0.549  1.00  0.00     0.031 A 
ATOM     40  C   UNL     1      -3.069  19.291   1.968  1.00  0.00     0.074 A 
ATOM     41  C   UNL     1      -1.717  19.869  -0.018  1.00  0.00     0.049 A 
ATOM     42  N   UNL     1      -2.704  20.235   2.801  1.00  0.00    -0.248 NA
ATOM     43  C   UNL     1      -4.051  18.350   2.531  1.00  0.00     0.031 C 
ATOM     44  C   UNL     1      -1.192  19.725  -1.376  1.00  0.00     0.029 A 
ATOM     45  N   UNL     1      -1.044  20.951   0.489  1.00  0.00    -0.354 N 
ATOM     46  C   UNL     1      -3.420  20.010   3.970  1.00  0.00     0.074 A 
ATOM     47  C   UNL     1      -4.262  18.859   3.737  1.00  0.00     0.031 C 
ATOM     48  C   UNL     1      -0.228  20.638  -1.571  1.00  0.00     0.029 A 
ATOM     49  C   UNL     1      -0.103  21.460  -0.370  1.00  0.00     0.049 A 
ATOM     50  H   UNL     1      -1.219  21.325   1.383  1.00  0.00     0.167 HD
ATOM     51  C   UNL     1      -3.366  20.692   5.138  1.00  0.00     0.037 A 
ATOM     52  C   UNL     1       0.767  22.475  -0.208  1.00  0.00     0.037 A 
ATOM     53  C   UNL     1      -2.497  21.810   5.389  1.00  0.00     0.049 A 
ATOM     54  C   UNL     1       0.773  23.241   1.083  1.00  0.00     0.074 A 
ATOM     55  C   UNL     1      -2.339  22.534   6.558  1.00  0.00     0.029 A 
ATOM     56  N   UNL     1      -1.633  22.360   4.456  1.00  0.00    -0.354 N 
ATOM     57  N   UNL     1       0.091  23.017   2.179  1.00  0.00    -0.248 NA
ATOM     58  C   UNL     1       1.654  24.416   1.151  1.00  0.00     0.031 C 
ATOM     59  C   UNL     1      -1.401  23.544   6.322  1.00  0.00     0.029 A 
ATOM     60  C   UNL     1      -0.958  23.432   5.015  1.00  0.00     0.049 A 
ATOM     61  H   UNL     1      -1.517  22.037   3.533  1.00  0.00     0.167 HD
ATOM     62  C   UNL     1       0.453  24.023   3.064  1.00  0.00     0.074 A 
ATOM     63  C   UNL     1       1.435  24.844   2.388  1.00  0.00     0.031 C 
ATOM     64  C   UNL     1       0.002  24.248   4.321  1.00  0.00     0.037 A 
BRANCH  51  65
ATOM     65  C   UNL     1      -4.272  20.253   6.248  1.00  0.00     0.064 A 
ATOM     66  C   UNL     1      -3.989  19.114   7.015  1.00  0.00     0.173 A 
ATOM     67  C   UNL     1      -5.396  21.019   6.593  1.00  0.00     0.173 A 
ATOM     68  F   UNL     1      -2.933  18.343   6.715  1.00  0.00    -0.203 F 
ATOM     69  C   UNL     1      -4.805  18.753   8.085  1.00  0.00     0.198 A 
ATOM     70  C   UNL     1      -6.198  20.665   7.674  1.00  0.00     0.198 A 
ATOM     71  F   UNL     1      -5.705  22.119   5.890  1.00  0.00    -0.203 F 
ATOM     72  F   UNL     1      -4.530  17.648   8.791  1.00  0.00    -0.200 F 
ATOM     73  C   UNL     1      -5.903  19.533   8.418  1.00  0.00     0.200 A 
ATOM     74  F   UNL     1      -7.254  21.423   8.000  1.00  0.00    -0.200 F 
ATOM     75  F   UNL     1      -6.679  19.190   9.455  1.00  0.00    -0.200 F 
ENDBRANCH  51  65
BRANCH  52  76
ATOM     76  C   UNL     1       1.710  22.813  -1.301  1.00  0.00     0.064 A 
ATOM     77  C   UNL     1       3.075  22.521  -1.185  1.00  0.00     0.173 A 
ATOM     78  C   UNL     1       1.263  23.405  -2.491  1.00  0.00     0.173 A 
ATOM     79  F   UNL     1       3.549  21.973  -0.057  1.00  0.00    -0.203 F 
ATOM     80  C   UNL     1       3.960  22.809  -2.222  1.00  0.00     0.198 A 
ATOM     81  C   UNL     1       2.145  23.674  -3.534  1.00  0.00     0.198 A 
ATOM     82  F   UNL     1      -0.035  23.703  -2.646  1.00  0.00    -0.203 F 
ATOM     83  F   UNL     1       5.265  22.540  -2.080  1.00  0.00    -0.200 F 
ATOM     84  C   UNL     1       3.493  23.378  -3.398  1.00  0.00     0.200 A 
ATOM     85  F   UNL     1       1.689  24.212  -4.673  1.00  0.00    -0.200 F 
ATOM     86  F   UNL     1       4.343  23.643  -4.399  1.00  0.00    -0.200 F 
ENDBRANCH  52  76
BRANCH  64  87
ATOM     87  C   UNL     1       0.542  25.444   5.041  1.00  0.00     0.064 A 
ATOM     88  C   UNL     1       0.069  26.732   4.753  1.00  0.00     0.173 A 
ATOM     89  C   UNL     1       1.481  25.298   6.072  1.00  0.00     0.173 A 
ATOM     90  F   UNL     1      -0.820  26.918   3.766  1.00  0.00    -0.203 F 
ATOM     91  C   UNL     1       0.520  27.834   5.471  1.00  0.00     0.198 A 
ATOM     92  C   UNL     1       1.917  26.401   6.800  1.00  0.00     0.198 A 
ATOM     93  F   UNL     1       1.958  24.084   6.385  1.00  0.00    -0.203 F 
ATOM     94  F   UNL     1       0.070  29.060   5.168  1.00  0.00    -0.200 F 
ATOM     95  C   UNL     1       1.438  27.668   6.498  1.00  0.00     0.200 A 
ATOM     96  F   UNL     1       2.797  26.239   7.798  1.00  0.00    -0.200 F 
ATOM     97  F   UNL     1       1.862  28.729   7.197  1.00  0.00    -0.200 F 
ENDBRANCH  64  87
ENDBRANCH  38  39
ENDBRANCH  30  33
ENDBRANCH  28  29
ENDBRANCH  27  28
ENDBRANCH   1  27
TORSDOF 15
