REMARK SMILES Nc1c(N2CCCC2)ncnc1N1CCC(C(=O)NCCCCNC(=O)c2ccc(-c3c4nc(c(-c5c(F)c(F)c(F)c(F)c5F)c5ccc([nH]5)c(-c5c(F)c(F)c(F)c(F)c5F)c5nc(c(-c6c(F)c(F)c(F)c(F)c6F)c6ccc3[nH]6)C=C5)C=C4)cc2)CC1
REMARK SMILES IDX 21 1 20 2 19 3 17 4 18 5 16 7 13 8 14 9 91 10 15 11 90 12
REMARK SMILES IDX 12 13 2 14 3 15 9 16 11 17 10 18 1 19 4 22 5 23 8 24 6 25
REMARK SMILES IDX 7 26 22 27 23 28 24 29 25 30 26 32 27 33 28 34 89 35 29 36
REMARK SMILES IDX 88 37 30 38 31 39 32 40 82 41 33 42 87 43 81 44 83 45 34 46
REMARK SMILES IDX 86 47 80 48 79 49 35 51 67 52 47 53 66 54 48 55 51 56 65 57
REMARK SMILES IDX 84 58 49 59 50 60 64 62 85 63 52 64 36 65 37 66 45 67 38 68
REMARK SMILES IDX 39 69 43 70 46 71 40 72 41 73 44 74 42 75 68 76 69 77 77 78
REMARK SMILES IDX 70 79 71 80 75 81 78 82 72 83 73 84 76 85 74 86 53 87 54 88
REMARK SMILES IDX 62 89 55 90 56 91 60 92 63 93 57 94 58 95 61 96 59 97
REMARK H PARENT 19 6 1 20 1 21 24 31 83 50 51 61
REMARK Flexibility Score: inf
ROOT
ATOM      1  C   UNL     1       0.569  -2.644   6.877  1.00  0.00     0.023 C 
ENDROOT
BRANCH   1   2
ATOM      2  C   UNL     1       0.573  -1.171   6.478  1.00  0.00     0.116 C 
BRANCH   2   3
ATOM      3  N   UNL     1       1.649  -0.433   7.125  1.00  0.00    -0.356 N 
ATOM      4  C   UNL     1       2.739   0.191   6.592  1.00  0.00     0.223 C 
ATOM      5  O   UNL     1       3.517   0.754   7.364  1.00  0.00    -0.275 OA
ATOM      6  H   UNL     1       1.578  -0.374   8.105  1.00  0.00     0.163 HD
BRANCH   4   7
ATOM      7  C   UNL     1       2.981   0.219   5.090  1.00  0.00     0.082 C 
ATOM      8  N   UNL     1       1.805  -0.615   2.668  1.00  0.00    -0.355 N 
ATOM      9  C   UNL     1       2.988  -1.351   3.052  1.00  0.00     0.119 C 
ATOM     10  C   UNL     1       1.779   0.813   2.913  1.00  0.00     0.119 C 
ATOM     11  C   UNL     1       3.224  -1.200   4.546  1.00  0.00     0.035 C 
ATOM     12  C   UNL     1       1.888   1.060   4.407  1.00  0.00     0.035 C 
BRANCH   8  13
ATOM     13  C   UNL     1       0.865  -1.227   1.860  1.00  0.00     0.157 A 
ATOM     14  C   UNL     1       0.556  -0.730   0.585  1.00  0.00     0.118 A 
ATOM     15  C   UNL     1      -0.508  -1.353  -0.093  1.00  0.00     0.157 A 
ATOM     16  N   UNL     1      -1.189  -2.380   0.440  1.00  0.00    -0.217 NA
ATOM     17  N   UNL     1       0.237  -2.303   2.370  1.00  0.00    -0.217 NA
ATOM     18  C   UNL     1      -0.765  -2.809   1.637  1.00  0.00     0.226 A 
BRANCH  14  19
ATOM     19  N   UNL     1       1.189   0.407   0.048  1.00  0.00    -0.393 N 
ATOM     20  H   UNL     1       0.947   0.727  -0.851  1.00  0.00     0.156 HD
ATOM     21  H   UNL     1       1.874   0.882   0.571  1.00  0.00     0.156 HD
ENDBRANCH  14  19
BRANCH  15  22
ATOM     22  N   UNL     1      -0.862  -0.893  -1.349  1.00  0.00    -0.355 N 
ATOM     23  C   UNL     1      -0.002  -1.142  -2.490  1.00  0.00     0.118 C 
ATOM     24  C   UNL     1      -2.253  -0.845  -1.763  1.00  0.00     0.118 C 
ATOM     25  C   UNL     1      -0.685  -0.287  -3.547  1.00  0.00     0.023 C 
ATOM     26  C   UNL     1      -2.172  -0.494  -3.258  1.00  0.00     0.023 C 
ENDBRANCH  15  22
ENDBRANCH   8  13
ENDBRANCH   4   7
ENDBRANCH   2   3
ENDBRANCH   1   2
BRANCH   1  27
ATOM     27  C   UNL     1       0.262  -2.904   8.350  1.00  0.00     0.023 C 
BRANCH  27  28
ATOM     28  C   UNL     1      -1.033  -2.284   8.857  1.00  0.00     0.116 C 
BRANCH  28  29
ATOM     29  N   UNL     1      -2.203  -2.718   8.108  1.00  0.00    -0.352 N 
ATOM     30  C   UNL     1      -3.397  -3.205   8.579  1.00  0.00     0.251 C 
ATOM     31  H   UNL     1      -2.128  -2.654   7.129  1.00  0.00     0.163 HD
ATOM     32  O   UNL     1      -4.242  -3.647   7.806  1.00  0.00    -0.269 OA
BRANCH  30  33
ATOM     33  C   UNL     1      -3.646  -3.225  10.033  1.00  0.00     0.039 A 
ATOM     34  C   UNL     1      -4.099  -4.407  10.623  1.00  0.00     0.014 A 
ATOM     35  C   UNL     1      -3.400  -2.091  10.813  1.00  0.00     0.014 A 
ATOM     36  C   UNL     1      -4.239  -4.474  12.009  1.00  0.00     0.010 A 
ATOM     37  C   UNL     1      -3.471  -2.182  12.199  1.00  0.00     0.010 A 
ATOM     38  C   UNL     1      -3.891  -3.373  12.809  1.00  0.00    -0.014 A 
BRANCH  38  39
ATOM     39  C   UNL     1      -3.973  -3.446  14.287  1.00  0.00     0.031 A 
ATOM     40  C   UNL     1      -4.969  -2.598  15.024  1.00  0.00     0.074 A 
ATOM     41  C   UNL     1      -3.121  -4.239  14.965  1.00  0.00     0.049 A 
ATOM     42  N   UNL     1      -5.159  -2.478  16.313  1.00  0.00    -0.248 NA
ATOM     43  C   UNL     1      -5.853  -1.754  14.205  1.00  0.00     0.031 C 
ATOM     44  C   UNL     1      -2.087  -5.080  14.361  1.00  0.00     0.029 A 
ATOM     45  N   UNL     1      -2.988  -4.464  16.312  1.00  0.00    -0.354 N 
ATOM     46  C   UNL     1      -6.176  -1.546  16.457  1.00  0.00     0.074 A 
ATOM     47  C   UNL     1      -6.525  -1.086  15.131  1.00  0.00     0.031 C 
ATOM     48  C   UNL     1      -1.448  -5.754  15.331  1.00  0.00     0.029 A 
ATOM     49  C   UNL     1      -2.003  -5.368  16.625  1.00  0.00     0.049 A 
ATOM     50  H   UNL     1      -3.547  -4.020  16.991  1.00  0.00     0.167 HD
ATOM     51  C   UNL     1      -6.785  -1.132  17.593  1.00  0.00     0.037 A 
ATOM     52  C   UNL     1      -1.595  -5.831  17.822  1.00  0.00     0.037 A 
ATOM     53  C   UNL     1      -6.454  -1.610  18.908  1.00  0.00     0.049 A 
ATOM     54  C   UNL     1      -2.275  -5.340  19.071  1.00  0.00     0.074 A 
ATOM     55  C   UNL     1      -7.044  -1.285  20.117  1.00  0.00     0.029 A 
ATOM     56  N   UNL     1      -5.445  -2.520  19.185  1.00  0.00    -0.354 N 
ATOM     57  N   UNL     1      -3.268  -4.494  19.192  1.00  0.00    -0.248 NA
ATOM     58  C   UNL     1      -1.777  -5.868  20.349  1.00  0.00     0.031 C 
ATOM     59  C   UNL     1      -6.368  -1.971  21.130  1.00  0.00     0.029 A 
ATOM     60  C   UNL     1      -5.384  -2.755  20.549  1.00  0.00     0.049 A 
ATOM     61  H   UNL     1      -4.859  -2.936  18.513  1.00  0.00     0.167 HD
ATOM     62  C   UNL     1      -3.528  -4.402  20.552  1.00  0.00     0.074 A 
ATOM     63  C   UNL     1      -2.597  -5.290  21.217  1.00  0.00     0.031 C 
ATOM     64  C   UNL     1      -4.454  -3.647  21.192  1.00  0.00     0.037 A 
BRANCH  51  65
ATOM     65  C   UNL     1      -7.888  -0.125  17.461  1.00  0.00     0.064 A 
ATOM     66  C   UNL     1      -9.135  -0.476  16.923  1.00  0.00     0.173 A 
ATOM     67  C   UNL     1      -7.716   1.189  17.921  1.00  0.00     0.173 A 
ATOM     68  F   UNL     1      -9.344  -1.716  16.457  1.00  0.00    -0.203 F 
ATOM     69  C   UNL     1     -10.164   0.457  16.832  1.00  0.00     0.198 A 
ATOM     70  C   UNL     1      -8.756   2.112  17.853  1.00  0.00     0.198 A 
ATOM     71  F   UNL     1      -6.544   1.574  18.448  1.00  0.00    -0.203 F 
ATOM     72  F   UNL     1     -11.334   0.110  16.278  1.00  0.00    -0.200 F 
ATOM     73  C   UNL     1      -9.976   1.748  17.304  1.00  0.00     0.200 A 
ATOM     74  F   UNL     1      -8.578   3.356  18.320  1.00  0.00    -0.200 F 
ATOM     75  F   UNL     1     -10.972   2.642  17.226  1.00  0.00    -0.200 F 
ENDBRANCH  51  65
BRANCH  52  76
ATOM     76  C   UNL     1      -0.514  -6.848  17.890  1.00  0.00     0.064 A 
ATOM     77  C   UNL     1      -0.804  -8.175  18.238  1.00  0.00     0.173 A 
ATOM     78  C   UNL     1       0.817  -6.525  17.593  1.00  0.00     0.173 A 
ATOM     79  F   UNL     1      -2.060  -8.526  18.550  1.00  0.00    -0.203 F 
ATOM     80  C   UNL     1       0.200  -9.139  18.294  1.00  0.00     0.198 A 
ATOM     81  C   UNL     1       1.817  -7.496  17.627  1.00  0.00     0.198 A 
ATOM     82  F   UNL     1       1.144  -5.270  17.252  1.00  0.00    -0.203 F 
ATOM     83  F   UNL     1      -0.098 -10.393  18.660  1.00  0.00    -0.200 F 
ATOM     84  C   UNL     1       1.508  -8.801  17.982  1.00  0.00     0.200 A 
ATOM     85  F   UNL     1       3.078  -7.168  17.313  1.00  0.00    -0.200 F 
ATOM     86  F   UNL     1       2.472  -9.730  18.028  1.00  0.00    -0.200 F 
ENDBRANCH  52  76
BRANCH  64  87
ATOM     87  C   UNL     1      -4.523  -3.754  22.686  1.00  0.00     0.064 A 
ATOM     88  C   UNL     1      -3.555  -3.156  23.505  1.00  0.00     0.173 A 
ATOM     89  C   UNL     1      -5.611  -4.390  23.303  1.00  0.00     0.173 A 
ATOM     90  F   UNL     1      -2.491  -2.549  22.960  1.00  0.00    -0.203 F 
ATOM     91  C   UNL     1      -3.670  -3.200  24.892  1.00  0.00     0.198 A 
ATOM     92  C   UNL     1      -5.734  -4.409  24.689  1.00  0.00     0.198 A 
ATOM     93  F   UNL     1      -6.566  -4.969  22.561  1.00  0.00    -0.203 F 
ATOM     94  F   UNL     1      -2.719  -2.647  25.658  1.00  0.00    -0.200 F 
ATOM     95  C   UNL     1      -4.763  -3.817  25.482  1.00  0.00     0.200 A 
ATOM     96  F   UNL     1      -6.798  -4.993  25.257  1.00  0.00    -0.200 F 
ATOM     97  F   UNL     1      -4.880  -3.842  26.817  1.00  0.00    -0.200 F 
ENDBRANCH  64  87
ENDBRANCH  38  39
ENDBRANCH  30  33
ENDBRANCH  28  29
ENDBRANCH  27  28
ENDBRANCH   1  27
TORSDOF 14
