REMARK SMILES Cc1nn(C)c2c1NC(=O)[C@@H](CCC(=O)NCCCCNC(=O)c1ccc(-c3c4nc(c(-c5c(F)c(F)c(F)c(F)c5F)c5ccc([nH]5)c(-c5c(F)c(F)c(F)c(F)c5F)c5nc(c(-c6c(F)c(F)c(F)c(F)c6F)c6ccc3[nH]6)C=C5)C=C4)cc1)N2
REMARK SMILES IDX 18 1 17 2 16 3 14 4 15 5 13 7 12 8 11 9 1 10 2 11 3 12 7 13
REMARK SMILES IDX 4 14 6 15 8 16 5 17 87 18 9 19 10 22 19 23 20 24 21 25 22 26
REMARK SMILES IDX 23 28 24 29 25 30 86 31 26 32 85 33 27 34 28 35 29 36 79 37
REMARK SMILES IDX 30 38 84 39 78 40 80 41 31 42 83 43 77 44 76 45 32 47 64 48
REMARK SMILES IDX 44 49 63 50 45 51 48 52 62 53 81 54 46 55 47 56 61 58 82 59
REMARK SMILES IDX 49 60 33 61 34 62 42 63 35 64 36 65 40 66 43 67 37 68 38 69
REMARK SMILES IDX 41 70 39 71 65 72 66 73 74 74 67 75 68 76 72 77 75 78 69 79
REMARK SMILES IDX 70 80 73 81 71 82 50 83 51 84 59 85 52 86 53 87 57 88 60 89
REMARK SMILES IDX 54 90 55 91 58 92 56 93
REMARK H PARENT 16 6 8 20 87 21 21 27 80 46 48 57
REMARK Flexibility Score: inf
ROOT
ATOM      1  C   UNL     1       4.029   5.933   0.454  1.00  0.00     0.023 C 
ENDROOT
BRANCH   1   2
ATOM      2  C   UNL     1       3.937   6.933  -0.705  1.00  0.00     0.116 C 
BRANCH   2   3
ATOM      3  N   UNL     1       3.899   6.325  -2.022  1.00  0.00    -0.356 N 
ATOM      4  C   UNL     1       2.911   6.244  -2.962  1.00  0.00     0.220 C 
ATOM      5  O   UNL     1       3.190   5.796  -4.075  1.00  0.00    -0.275 OA
ATOM      6  H   UNL     1       4.742   5.891  -2.288  1.00  0.00     0.163 HD
BRANCH   4   7
ATOM      7  C   UNL     1       1.489   6.674  -2.645  1.00  0.00     0.102 C 
BRANCH   7   8
ATOM      8  C   UNL     1       0.552   5.535  -2.197  1.00  0.00     0.045 C 
BRANCH   8   9
ATOM      9  C   UNL     1       1.027   4.834  -0.924  1.00  0.00     0.171 C 
ATOM     10  C   UNL     1       0.351  -0.312   0.561  1.00  0.00     0.071 C 
ATOM     11  C   UNL     1      -0.030   1.107   0.736  1.00  0.00     0.085 A 
ATOM     12  N   UNL     1      -0.970   1.485   1.616  1.00  0.00    -0.174 NA
ATOM     13  C   UNL     1       0.500   2.217   0.060  1.00  0.00     0.107 A 
ATOM     14  N   UNL     1      -1.028   2.836   1.478  1.00  0.00    -0.251 N 
ATOM     15  C   UNL     1      -0.215   3.303   0.481  1.00  0.00     0.149 A 
ATOM     16  N   UNL     1       1.523   2.339  -0.831  1.00  0.00    -0.320 N 
ATOM     17  C   UNL     1      -1.828   3.596   2.405  1.00  0.00     0.176 C 
ATOM     18  N   UNL     1      -0.085   4.566   0.022  1.00  0.00    -0.357 N 
ATOM     19  C   UNL     1       1.916   3.574  -1.282  1.00  0.00     0.247 C 
ATOM     20  H   UNL     1       1.985   1.532  -1.156  1.00  0.00     0.170 HD
ATOM     21  H   UNL     1      -0.701   5.280   0.303  1.00  0.00     0.163 HD
ATOM     22  O   UNL     1       2.949   3.635  -1.930  1.00  0.00    -0.272 OA
ENDBRANCH   8   9
ENDBRANCH   7   8
ENDBRANCH   4   7
ENDBRANCH   2   3
ENDBRANCH   1   2
BRANCH   1  23
ATOM     23  C   UNL     1       5.310   5.103   0.547  1.00  0.00     0.023 C 
BRANCH  23  24
ATOM     24  C   UNL     1       6.478   5.860   1.161  1.00  0.00     0.116 C 
BRANCH  24  25
ATOM     25  N   UNL     1       6.144   6.284   2.512  1.00  0.00    -0.352 N 
ATOM     26  C   UNL     1       6.916   6.443   3.619  1.00  0.00     0.251 C 
ATOM     27  H   UNL     1       5.191   6.492   2.649  1.00  0.00     0.163 HD
ATOM     28  O   UNL     1       6.357   6.567   4.711  1.00  0.00    -0.269 OA
BRANCH  26  29
ATOM     29  C   UNL     1       8.384   6.471   3.546  1.00  0.00     0.039 A 
ATOM     30  C   UNL     1       9.079   5.981   4.657  1.00  0.00     0.014 A 
ATOM     31  C   UNL     1       9.074   7.074   2.489  1.00  0.00     0.014 A 
ATOM     32  C   UNL     1      10.459   6.091   4.709  1.00  0.00     0.010 A 
ATOM     33  C   UNL     1      10.462   7.168   2.532  1.00  0.00     0.010 A 
ATOM     34  C   UNL     1      11.153   6.682   3.645  1.00  0.00    -0.014 A 
BRANCH  34  35
ATOM     35  C   UNL     1      12.615   6.727   3.754  1.00  0.00     0.031 A 
ATOM     36  C   UNL     1      13.363   6.190   2.575  1.00  0.00     0.074 A 
ATOM     37  C   UNL     1      13.190   7.664   4.533  1.00  0.00     0.049 A 
ATOM     38  N   UNL     1      13.616   6.880   1.500  1.00  0.00    -0.248 NA
ATOM     39  C   UNL     1      13.645   4.761   2.439  1.00  0.00     0.031 C 
ATOM     40  C   UNL     1      12.694   9.038   4.675  1.00  0.00     0.029 A 
ATOM     41  N   UNL     1      14.396   7.664   5.192  1.00  0.00    -0.354 N 
ATOM     42  C   UNL     1      14.068   5.991   0.540  1.00  0.00     0.074 A 
ATOM     43  C   UNL     1      14.070   4.688   1.168  1.00  0.00     0.031 C 
ATOM     44  C   UNL     1      13.671   9.792   5.217  1.00  0.00     0.029 A 
ATOM     45  C   UNL     1      14.801   8.939   5.578  1.00  0.00     0.049 A 
ATOM     46  H   UNL     1      14.918   6.849   5.371  1.00  0.00     0.167 HD
ATOM     47  C   UNL     1      14.425   6.365  -0.717  1.00  0.00     0.037 A 
ATOM     48  C   UNL     1      16.099   9.350   5.593  1.00  0.00     0.037 A 
ATOM     49  C   UNL     1      14.339   7.763  -1.006  1.00  0.00     0.049 A 
ATOM     50  C   UNL     1      16.377   9.451   4.111  1.00  0.00     0.074 A 
ATOM     51  C   UNL     1      13.462   8.629  -1.623  1.00  0.00     0.029 A 
ATOM     52  N   UNL     1      15.363   8.568  -0.567  1.00  0.00    -0.354 N 
ATOM     53  N   UNL     1      16.013  10.429   3.324  1.00  0.00    -0.248 NA
ATOM     54  C   UNL     1      16.777   8.226   3.414  1.00  0.00     0.031 C 
ATOM     55  C   UNL     1      13.777   9.924  -1.099  1.00  0.00     0.029 A 
ATOM     56  C   UNL     1      14.793   9.746  -0.161  1.00  0.00     0.049 A 
ATOM     57  H   UNL     1      16.321   8.342  -0.548  1.00  0.00     0.167 HD
ATOM     58  C   UNL     1      15.900   9.862   2.051  1.00  0.00     0.074 A 
ATOM     59  C   UNL     1      16.410   8.513   2.173  1.00  0.00     0.031 C 
ATOM     60  C   UNL     1      15.230  10.454   1.019  1.00  0.00     0.037 A 
BRANCH  47  61
ATOM     61  C   UNL     1      15.085   5.483  -1.698  1.00  0.00     0.064 A 
ATOM     62  C   UNL     1      16.481   5.563  -1.810  1.00  0.00     0.173 A 
ATOM     63  C   UNL     1      14.382   4.762  -2.665  1.00  0.00     0.173 A 
ATOM     64  F   UNL     1      17.185   6.263  -0.903  1.00  0.00    -0.203 F 
ATOM     65  C   UNL     1      17.150   4.986  -2.881  1.00  0.00     0.198 A 
ATOM     66  C   UNL     1      15.057   4.173  -3.735  1.00  0.00     0.198 A 
ATOM     67  F   UNL     1      13.045   4.670  -2.604  1.00  0.00    -0.203 F 
ATOM     68  F   UNL     1      18.477   5.131  -2.991  1.00  0.00    -0.200 F 
ATOM     69  C   UNL     1      16.436   4.301  -3.850  1.00  0.00     0.200 A 
ATOM     70  F   UNL     1      14.371   3.511  -4.677  1.00  0.00    -0.200 F 
ATOM     71  F   UNL     1      17.077   3.778  -4.905  1.00  0.00    -0.200 F 
ENDBRANCH  47  61
BRANCH  48  72
ATOM     72  C   UNL     1      16.990   8.637   6.563  1.00  0.00     0.064 A 
ATOM     73  C   UNL     1      16.552   8.491   7.898  1.00  0.00     0.173 A 
ATOM     74  C   UNL     1      18.247   8.090   6.269  1.00  0.00     0.173 A 
ATOM     75  F   UNL     1      15.416   9.082   8.304  1.00  0.00    -0.203 F 
ATOM     76  C   UNL     1      17.257   7.733   8.832  1.00  0.00     0.198 A 
ATOM     77  C   UNL     1      18.942   7.308   7.196  1.00  0.00     0.198 A 
ATOM     78  F   UNL     1      18.824   8.284   5.076  1.00  0.00    -0.203 F 
ATOM     79  F   UNL     1      16.777   7.586  10.075  1.00  0.00    -0.200 F 
ATOM     80  C   UNL     1      18.438   7.113   8.470  1.00  0.00     0.200 A 
ATOM     81  F   UNL     1      20.093   6.722   6.838  1.00  0.00    -0.200 F 
ATOM     82  F   UNL     1      19.090   6.334   9.343  1.00  0.00    -0.200 F 
ENDBRANCH  48  72
BRANCH  60  83
ATOM     83  C   UNL     1      14.725  11.828   1.291  1.00  0.00     0.064 A 
ATOM     84  C   UNL     1      15.617  12.900   1.423  1.00  0.00     0.173 A 
ATOM     85  C   UNL     1      13.351  12.094   1.403  1.00  0.00     0.173 A 
ATOM     86  F   UNL     1      16.939  12.699   1.312  1.00  0.00    -0.203 F 
ATOM     87  C   UNL     1      15.150  14.191   1.646  1.00  0.00     0.198 A 
ATOM     88  C   UNL     1      12.888  13.392   1.593  1.00  0.00     0.198 A 
ATOM     89  F   UNL     1      12.448  11.105   1.309  1.00  0.00    -0.203 F 
ATOM     90  F   UNL     1      16.019  15.204   1.772  1.00  0.00    -0.200 F 
ATOM     91  C   UNL     1      13.787  14.438   1.717  1.00  0.00     0.200 A 
ATOM     92  F   UNL     1      11.569  13.631   1.640  1.00  0.00    -0.200 F 
ATOM     93  F   UNL     1      13.339  15.689   1.894  1.00  0.00    -0.200 F 
ENDBRANCH  60  83
ENDBRANCH  34  35
ENDBRANCH  26  29
ENDBRANCH  24  25
ENDBRANCH  23  24
ENDBRANCH   1  23
TORSDOF 13
