REMARK SMILES CC(C)c1nc(OCC(=O)NCCCCNC(=O)c2ccc(-c3c4nc(c(-c5c(F)c(F)c(F)c(F)c5F)c5ccc([nH]5)c(-c5c(F)c(F)c(F)c(F)c5F)c5nc(c(-c6c(F)c(F)c(F)c(F)c6F)c6ccc3[nH]6)C=C5)C=C4)cc2)cc(-c2ccccn2)n1
REMARK SMILES IDX 13 1 12 2 11 3 9 4 10 5 8 7 7 8 6 9 4 10 5 11 90 12 83 13
REMARK SMILES IDX 82 14 2 15 1 16 3 17 84 18 85 19 89 20 86 21 88 22 87 23
REMARK SMILES IDX 14 24 15 25 16 26 17 27 18 29 19 30 20 31 81 32 21 33 80 34
REMARK SMILES IDX 22 35 23 36 24 37 74 38 25 39 79 40 73 41 75 42 26 43 78 44
REMARK SMILES IDX 72 45 71 46 27 48 59 49 39 50 58 51 40 52 43 53 57 54 76 55
REMARK SMILES IDX 41 56 42 57 56 59 77 60 44 61 28 62 29 63 37 64 30 65 31 66
REMARK SMILES IDX 35 67 38 68 32 69 33 70 36 71 34 72 60 73 61 74 69 75 62 76
REMARK SMILES IDX 63 77 67 78 70 79 64 80 65 81 68 82 66 83 45 84 46 85 54 86
REMARK SMILES IDX 47 87 48 88 52 89 55 90 49 91 50 92 53 93 51 94
REMARK H PARENT 11 6 16 28 75 47 43 58
REMARK Flexibility Score: inf
ROOT
ATOM      1  C   UNL     1      -2.905  -4.085   4.180  1.00  0.00     0.023 C 
ENDROOT
BRANCH   1   2
ATOM      2  C   UNL     1      -4.202  -4.595   3.554  1.00  0.00     0.116 C 
BRANCH   2   3
ATOM      3  N   UNL     1      -5.175  -3.535   3.365  1.00  0.00    -0.353 N 
ATOM      4  C   UNL     1      -5.556  -2.934   2.202  1.00  0.00     0.258 C 
ATOM      5  O   UNL     1      -6.383  -2.021   2.252  1.00  0.00    -0.271 OA
ATOM      6  H   UNL     1      -5.616  -3.208   4.182  1.00  0.00     0.163 HD
BRANCH   4   7
ATOM      7  C   UNL     1      -4.969  -3.409   0.867  1.00  0.00     0.331 C 
BRANCH   7   8
ATOM      8  O   UNL     1      -3.563  -3.312   0.729  1.00  0.00    -0.467 OA
BRANCH   8   9
ATOM      9  C   UNL     1      -3.001  -2.068   0.750  1.00  0.00     0.217 A 
ATOM     10  C   UNL     1      -1.003  -0.947   0.886  1.00  0.00     0.135 A 
ATOM     11  N   UNL     1      -1.663  -2.117   0.834  1.00  0.00    -0.198 NA
ATOM     12  N   UNL     1      -1.599   0.256   0.922  1.00  0.00    -0.231 NA
ATOM     13  C   UNL     1      -2.945   0.274   0.821  1.00  0.00     0.096 A 
ATOM     14  C   UNL     1      -3.692  -0.882   0.709  1.00  0.00     0.099 A 
BRANCH  10  15
ATOM     15  C   UNL     1       0.507  -1.009   0.941  1.00  0.00     0.051 C 
ATOM     16  C   UNL     1       1.150  -0.017  -0.029  1.00  0.00     0.016 C 
ATOM     17  C   UNL     1       1.002  -0.782   2.367  1.00  0.00     0.016 C 
ENDBRANCH  10  15
BRANCH  13  18
ATOM     18  C   UNL     1      -3.607   1.585   0.870  1.00  0.00     0.089 A 
ATOM     19  C   UNL     1      -4.480   1.915   1.910  1.00  0.00     0.030 A 
ATOM     20  N   UNL     1      -3.384   2.419  -0.177  1.00  0.00    -0.255 NA
ATOM     21  C   UNL     1      -5.142   3.139   1.876  1.00  0.00     0.004 A 
ATOM     22  C   UNL     1      -4.036   3.602  -0.180  1.00  0.00     0.112 A 
ATOM     23  C   UNL     1      -4.919   4.000   0.811  1.00  0.00     0.020 A 
ENDBRANCH  13  18
ENDBRANCH   8   9
ENDBRANCH   7   8
ENDBRANCH   4   7
ENDBRANCH   2   3
ENDBRANCH   1   2
BRANCH   1  24
ATOM     24  C   UNL     1      -3.050  -3.445   5.566  1.00  0.00     0.023 C 
BRANCH  24  25
ATOM     25  C   UNL     1      -3.781  -4.276   6.619  1.00  0.00     0.116 C 
BRANCH  25  26
ATOM     26  N   UNL     1      -3.187  -5.582   6.837  1.00  0.00    -0.352 N 
ATOM     27  C   UNL     1      -3.003  -6.285   8.001  1.00  0.00     0.251 C 
ATOM     28  H   UNL     1      -2.867  -6.035   6.024  1.00  0.00     0.163 HD
ATOM     29  O   UNL     1      -2.392  -7.353   7.967  1.00  0.00    -0.269 OA
BRANCH  27  30
ATOM     30  C   UNL     1      -3.491  -5.769   9.302  1.00  0.00     0.039 A 
ATOM     31  C   UNL     1      -2.670  -5.931  10.423  1.00  0.00     0.014 A 
ATOM     32  C   UNL     1      -4.746  -5.172   9.445  1.00  0.00     0.014 A 
ATOM     33  C   UNL     1      -3.080  -5.450  11.669  1.00  0.00     0.010 A 
ATOM     34  C   UNL     1      -5.131  -4.637  10.678  1.00  0.00     0.010 A 
ATOM     35  C   UNL     1      -4.303  -4.773  11.802  1.00  0.00    -0.014 A 
BRANCH  35  36
ATOM     36  C   UNL     1      -4.711  -4.202  13.112  1.00  0.00     0.031 A 
ATOM     37  C   UNL     1      -5.892  -4.758  13.858  1.00  0.00     0.074 A 
ATOM     38  C   UNL     1      -4.032  -3.155  13.618  1.00  0.00     0.049 A 
ATOM     39  N   UNL     1      -6.390  -4.389  15.013  1.00  0.00    -0.248 NA
ATOM     40  C   UNL     1      -6.626  -5.856  13.213  1.00  0.00     0.031 C 
ATOM     41  C   UNL     1      -2.903  -2.488  12.969  1.00  0.00     0.029 A 
ATOM     42  N   UNL     1      -4.192  -2.467  14.796  1.00  0.00    -0.354 N 
ATOM     43  C   UNL     1      -7.495  -5.201  15.227  1.00  0.00     0.074 A 
ATOM     44  C   UNL     1      -7.626  -6.050  14.062  1.00  0.00     0.031 C 
ATOM     45  C   UNL     1      -2.455  -1.506  13.767  1.00  0.00     0.029 A 
ATOM     46  C   UNL     1      -3.277  -1.459  14.973  1.00  0.00     0.049 A 
ATOM     47  H   UNL     1      -4.897  -2.677  15.451  1.00  0.00     0.167 HD
ATOM     48  C   UNL     1      -8.314  -5.251  16.306  1.00  0.00     0.037 A 
ATOM     49  C   UNL     1      -3.114  -0.599  15.995  1.00  0.00     0.037 A 
ATOM     50  C   UNL     1      -8.170  -4.426  17.478  1.00  0.00     0.049 A 
ATOM     51  C   UNL     1      -4.018  -0.695  17.193  1.00  0.00     0.074 A 
ATOM     52  C   UNL     1      -8.917  -4.442  18.644  1.00  0.00     0.029 A 
ATOM     53  N   UNL     1      -7.213  -3.435  17.632  1.00  0.00    -0.354 N 
ATOM     54  N   UNL     1      -5.015  -1.515  17.414  1.00  0.00    -0.248 NA
ATOM     55  C   UNL     1      -3.761   0.248  18.291  1.00  0.00     0.031 C 
ATOM     56  C   UNL     1      -8.432  -3.438  19.490  1.00  0.00     0.029 A 
ATOM     57  C   UNL     1      -7.357  -2.824  18.868  1.00  0.00     0.049 A 
ATOM     58  H   UNL     1      -6.530  -3.199  16.962  1.00  0.00     0.167 HD
ATOM     59  C   UNL     1      -5.489  -1.207  18.681  1.00  0.00     0.074 A 
ATOM     60  C   UNL     1      -4.658  -0.135  19.189  1.00  0.00     0.031 C 
ATOM     61  C   UNL     1      -6.520  -1.762  19.363  1.00  0.00     0.037 A 
BRANCH  48  62
ATOM     62  C   UNL     1      -9.440  -6.242  16.274  1.00  0.00     0.064 A 
ATOM     63  C   UNL     1      -9.206  -7.621  16.388  1.00  0.00     0.173 A 
ATOM     64  C   UNL     1     -10.770  -5.809  16.166  1.00  0.00     0.173 A 
ATOM     65  F   UNL     1      -7.951  -8.087  16.482  1.00  0.00    -0.203 F 
ATOM     66  C   UNL     1     -10.259  -8.531  16.368  1.00  0.00     0.198 A 
ATOM     67  C   UNL     1     -11.823  -6.721  16.174  1.00  0.00     0.198 A 
ATOM     68  F   UNL     1     -11.049  -4.502  16.061  1.00  0.00    -0.203 F 
ATOM     69  F   UNL     1     -10.008  -9.846  16.432  1.00  0.00    -0.200 F 
ATOM     70  C   UNL     1     -11.567  -8.080  16.267  1.00  0.00     0.200 A 
ATOM     71  F   UNL     1     -13.087  -6.283  16.088  1.00  0.00    -0.200 F 
ATOM     72  F   UNL     1     -12.580  -8.957  16.253  1.00  0.00    -0.200 F 
ENDBRANCH  48  62
BRANCH  49  73
ATOM     73  C   UNL     1      -2.017   0.401  15.951  1.00  0.00     0.064 A 
ATOM     74  C   UNL     1      -0.892   0.270  16.778  1.00  0.00     0.173 A 
ATOM     75  C   UNL     1      -2.069   1.504  15.088  1.00  0.00     0.173 A 
ATOM     76  F   UNL     1      -0.809  -0.759  17.635  1.00  0.00    -0.203 F 
ATOM     77  C   UNL     1       0.130   1.215  16.757  1.00  0.00     0.198 A 
ATOM     78  C   UNL     1      -1.034   2.436  15.050  1.00  0.00     0.198 A 
ATOM     79  F   UNL     1      -3.122   1.672  14.275  1.00  0.00    -0.203 F 
ATOM     80  F   UNL     1       1.174   1.088  17.588  1.00  0.00    -0.200 F 
ATOM     81  C   UNL     1       0.061   2.294  15.890  1.00  0.00     0.200 A 
ATOM     82  F   UNL     1      -1.098   3.472  14.203  1.00  0.00    -0.200 F 
ATOM     83  F   UNL     1       1.046   3.202  15.868  1.00  0.00    -0.200 F 
ENDBRANCH  49  73
BRANCH  61  84
ATOM     84  C   UNL     1      -6.787  -1.239  20.744  1.00  0.00     0.064 A 
ATOM     85  C   UNL     1      -7.353   0.028  20.953  1.00  0.00     0.173 A 
ATOM     86  C   UNL     1      -6.490  -2.021  21.869  1.00  0.00     0.173 A 
ATOM     87  F   UNL     1      -7.640   0.819  19.909  1.00  0.00    -0.203 F 
ATOM     88  C   UNL     1      -7.583   0.504  22.241  1.00  0.00     0.198 A 
ATOM     89  C   UNL     1      -6.747  -1.552  23.155  1.00  0.00     0.198 A 
ATOM     90  F   UNL     1      -5.953  -3.242  21.723  1.00  0.00    -0.203 F 
ATOM     91  F   UNL     1      -8.077   1.737  22.419  1.00  0.00    -0.200 F 
ATOM     92  C   UNL     1      -7.285  -0.288  23.340  1.00  0.00     0.200 A 
ATOM     93  F   UNL     1      -6.467  -2.322  24.216  1.00  0.00    -0.200 F 
ATOM     94  F   UNL     1      -7.507   0.173  24.579  1.00  0.00    -0.200 F 
ENDBRANCH  61  84
ENDBRANCH  35  36
ENDBRANCH  27  30
ENDBRANCH  25  26
ENDBRANCH  24  25
ENDBRANCH   1  24
TORSDOF 15
