REMARK SMILES Cc1nn(CC(=O)NC(C)(C)C)c(C)c1S(=O)(=O)N1CCC[C@@H](C(=O)NCCCCNC(=O)c2ccc(-c3c4nc(c(-c5c(F)c(F)c(F)c(F)c5F)c5ccc([nH]5)c(-c5c(F)c(F)c(F)c(F)c5F)c5nc(c(-c6c(F)c(F)c(F)c(F)c6F)c6ccc3[nH]6)C=C5)C=C4)cc2)C1
REMARK SMILES IDX 27 1 26 2 24 3 25 4 23 6 19 7 20 8 97 9 21 10 22 11 16 12
REMARK SMILES IDX 17 13 18 14 15 15 1 16 2 17 3 18 4 19 13 20 14 21 5 22 6 23
REMARK SMILES IDX 7 24 8 25 9 27 10 28 11 29 12 30 28 31 29 32 30 33 31 34
REMARK SMILES IDX 32 35 33 37 34 38 35 39 96 40 36 41 95 42 37 43 38 44 39 45
REMARK SMILES IDX 89 46 40 47 94 48 88 49 90 50 41 51 93 52 87 53 86 54 42 56
REMARK SMILES IDX 74 57 54 58 73 59 55 60 58 61 72 62 91 63 56 64 57 65 71 67
REMARK SMILES IDX 92 68 59 69 43 70 44 71 52 72 45 73 46 74 50 75 53 76 47 77
REMARK SMILES IDX 48 78 51 79 49 80 75 81 76 82 84 83 77 84 78 85 82 86 85 87
REMARK SMILES IDX 79 88 80 89 83 90 81 91 60 92 61 93 69 94 62 95 63 96 67 97
REMARK SMILES IDX 70 98 64 99 65 100 68 101 66 102
REMARK H PARENT 26 5 8 26 31 36 90 55 58 66
REMARK Flexibility Score: inf
ROOT
ATOM      1  C   UNL     1       2.072   5.380  -0.818  1.00  0.00     0.116 C 
ENDROOT
BRANCH   1   2
ATOM      2  N   UNL     1       2.312   4.226  -1.659  1.00  0.00    -0.356 N 
ATOM      3  C   UNL     1       1.563   3.114  -1.897  1.00  0.00     0.224 C 
ATOM      4  O   UNL     1       2.043   2.299  -2.689  1.00  0.00    -0.275 OA
ATOM      5  H   UNL     1       3.168   4.250  -2.146  1.00  0.00     0.163 HD
BRANCH   3   6
ATOM      6  C   UNL     1       0.177   2.914  -1.265  1.00  0.00     0.093 C 
ATOM      7  N   UNL     1      -1.463   0.964  -0.900  1.00  0.00    -0.197 NA
ATOM      8  C   UNL     1      -1.579   1.288   0.527  1.00  0.00     0.102 C 
ATOM      9  C   UNL     1      -0.412   1.573  -1.762  1.00  0.00     0.116 C 
ATOM     10  C   UNL     1      -1.192   2.713   0.813  1.00  0.00     0.018 C 
ATOM     11  C   UNL     1       0.188   2.994   0.259  1.00  0.00     0.016 C 
BRANCH   7  12
ATOM     12  S   UNL     1      -1.956  -0.613  -1.281  1.00  0.00     0.246 S 
ATOM     13  O   UNL     1      -1.783  -0.808  -2.718  1.00  0.00    -0.207 OA
ATOM     14  O   UNL     1      -3.227  -0.820  -0.650  1.00  0.00    -0.207 OA
BRANCH  12  15
ATOM     15  C   UNL     1      -0.957  -1.860  -0.607  1.00  0.00     0.126 A 
ATOM     16  C   UNL     1       1.307  -0.748   0.271  1.00  0.00     0.070 C 
ATOM     17  C   UNL     1       0.366  -1.832  -0.092  1.00  0.00     0.080 A 
ATOM     18  N   UNL     1       0.811  -3.076   0.135  1.00  0.00    -0.176 NA
ATOM     19  N   UNL     1      -0.168  -3.877  -0.308  1.00  0.00    -0.259 N 
ATOM     20  C   UNL     1      -1.343  -3.198  -0.514  1.00  0.00     0.056 A 
ATOM     21  C   UNL     1      -2.662  -3.860  -0.711  1.00  0.00     0.068 C 
BRANCH  19  22
ATOM     22  C   UNL     1       0.091  -5.293  -0.482  1.00  0.00     0.244 C 
BRANCH  22  23
ATOM     23  C   UNL     1       1.350  -5.615  -1.253  1.00  0.00     0.242 C 
ATOM     24  O   UNL     1       2.306  -6.148  -0.671  1.00  0.00    -0.273 OA
ATOM     25  N   UNL     1       1.475  -5.517  -2.604  1.00  0.00    -0.350 N 
ATOM     26  H   UNL     1       2.229  -6.063  -2.924  1.00  0.00     0.164 HD
BRANCH  25  27
ATOM     27  C   UNL     1       0.808  -4.830  -3.734  1.00  0.00     0.032 C 
ATOM     28  C   UNL     1       1.654  -3.601  -4.109  1.00  0.00     0.034 C 
ATOM     29  C   UNL     1       0.788  -5.811  -4.921  1.00  0.00     0.034 C 
ATOM     30  C   UNL     1      -0.631  -4.381  -3.513  1.00  0.00     0.034 C 
ENDBRANCH  25  27
ENDBRANCH  22  23
ENDBRANCH  19  22
ENDBRANCH  12  15
ENDBRANCH   7  12
ENDBRANCH   3   6
ENDBRANCH   1   2
BRANCH   1  31
ATOM     31  C   UNL     1       2.751   5.248   0.552  1.00  0.00     0.023 C 
BRANCH  31  32
ATOM     32  C   UNL     1       4.279   5.376   0.557  1.00  0.00     0.023 C 
BRANCH  32  33
ATOM     33  C   UNL     1       4.810   6.769   0.240  1.00  0.00     0.116 C 
BRANCH  33  34
ATOM     34  N   UNL     1       4.326   7.783   1.173  1.00  0.00    -0.352 N 
ATOM     35  C   UNL     1       4.261   9.149   0.995  1.00  0.00     0.251 C 
ATOM     36  H   UNL     1       4.005   7.449   2.041  1.00  0.00     0.163 HD
ATOM     37  O   UNL     1       4.150   9.910   1.948  1.00  0.00    -0.269 OA
BRANCH  35  38
ATOM     38  C   UNL     1       4.337   9.684  -0.374  1.00  0.00     0.039 A 
ATOM     39  C   UNL     1       5.232  10.705  -0.693  1.00  0.00     0.014 A 
ATOM     40  C   UNL     1       3.542   9.099  -1.355  1.00  0.00     0.014 A 
ATOM     41  C   UNL     1       5.397  11.065  -2.030  1.00  0.00     0.010 A 
ATOM     42  C   UNL     1       3.790   9.372  -2.682  1.00  0.00     0.010 A 
ATOM     43  C   UNL     1       4.697  10.375  -3.032  1.00  0.00    -0.014 A 
BRANCH  43  44
ATOM     44  C   UNL     1       4.986  10.639  -4.446  1.00  0.00     0.031 A 
ATOM     45  C   UNL     1       6.415  10.534  -4.882  1.00  0.00     0.074 A 
ATOM     46  C   UNL     1       4.024  10.738  -5.389  1.00  0.00     0.049 A 
ATOM     47  N   UNL     1       7.131  11.412  -5.511  1.00  0.00    -0.248 NA
ATOM     48  C   UNL     1       7.146   9.299  -4.557  1.00  0.00     0.031 C 
ATOM     49  C   UNL     1       2.576  10.550  -5.239  1.00  0.00     0.029 A 
ATOM     50  N   UNL     1       4.170  10.911  -6.733  1.00  0.00    -0.354 N 
ATOM     51  C   UNL     1       8.357  10.803  -5.787  1.00  0.00     0.074 A 
ATOM     52  C   UNL     1       8.343   9.538  -5.098  1.00  0.00     0.031 C 
ATOM     53  C   UNL     1       2.018  10.380  -6.456  1.00  0.00     0.029 A 
ATOM     54  C   UNL     1       3.029  10.627  -7.466  1.00  0.00     0.049 A 
ATOM     55  H   UNL     1       5.011  11.211  -7.146  1.00  0.00     0.167 HD
ATOM     56  C   UNL     1       9.235  11.315  -6.697  1.00  0.00     0.037 A 
ATOM     57  C   UNL     1       2.920  10.566  -8.812  1.00  0.00     0.037 A 
ATOM     58  C   UNL     1       8.965  12.698  -6.978  1.00  0.00     0.049 A 
ATOM     59  C   UNL     1       4.053  11.323  -9.391  1.00  0.00     0.074 A 
ATOM     60  C   UNL     1       8.930  13.856  -6.225  1.00  0.00     0.029 A 
ATOM     61  N   UNL     1       8.361  13.025  -8.165  1.00  0.00    -0.354 N 
ATOM     62  N   UNL     1       4.193  12.616  -9.300  1.00  0.00    -0.248 NA
ATOM     63  C   UNL     1       5.254  10.588  -9.754  1.00  0.00     0.031 C 
ATOM     64  C   UNL     1       7.868  14.628  -6.784  1.00  0.00     0.029 A 
ATOM     65  C   UNL     1       7.355  13.905  -7.861  1.00  0.00     0.049 A 
ATOM     66  H   UNL     1       8.604  12.694  -9.060  1.00  0.00     0.167 HD
ATOM     67  C   UNL     1       5.559  12.813  -9.175  1.00  0.00     0.074 A 
ATOM     68  C   UNL     1       6.163  11.550  -9.584  1.00  0.00     0.031 C 
ATOM     69  C   UNL     1       6.057  13.883  -8.490  1.00  0.00     0.037 A 
BRANCH  56  70
ATOM     70  C   UNL     1      10.170  10.496  -7.558  1.00  0.00     0.064 A 
ATOM     71  C   UNL     1      11.156  11.145  -8.333  1.00  0.00     0.173 A 
ATOM     72  C   UNL     1       9.944   9.141  -7.878  1.00  0.00     0.173 A 
ATOM     73  F   UNL     1      11.441  12.441  -8.134  1.00  0.00    -0.203 F 
ATOM     74  C   UNL     1      11.808  10.504  -9.391  1.00  0.00     0.198 A 
ATOM     75  C   UNL     1      10.635   8.490  -8.900  1.00  0.00     0.198 A 
ATOM     76  F   UNL     1       8.973   8.430  -7.292  1.00  0.00    -0.203 F 
ATOM     77  F   UNL     1      12.644  11.198 -10.176  1.00  0.00    -0.200 F 
ATOM     78  C   UNL     1      11.543   9.178  -9.677  1.00  0.00     0.200 A 
ATOM     79  F   UNL     1      10.352   7.208  -9.175  1.00  0.00    -0.200 F 
ATOM     80  F   UNL     1      12.121   8.579 -10.727  1.00  0.00    -0.200 F 
ENDBRANCH  56  70
BRANCH  57  81
ATOM     81  C   UNL     1       2.032   9.701  -9.617  1.00  0.00     0.064 A 
ATOM     82  C   UNL     1       1.741  10.004 -10.955  1.00  0.00     0.173 A 
ATOM     83  C   UNL     1       1.659   8.421  -9.164  1.00  0.00     0.173 A 
ATOM     84  F   UNL     1       2.102  11.187 -11.472  1.00  0.00    -0.203 F 
ATOM     85  C   UNL     1       1.132   9.070 -11.798  1.00  0.00     0.198 A 
ATOM     86  C   UNL     1       1.042   7.494 -10.003  1.00  0.00     0.198 A 
ATOM     87  F   UNL     1       1.967   8.012  -7.924  1.00  0.00    -0.203 F 
ATOM     88  F   UNL     1       0.925   9.371 -13.088  1.00  0.00    -0.200 F 
ATOM     89  C   UNL     1       0.792   7.813 -11.325  1.00  0.00     0.200 A 
ATOM     90  F   UNL     1       0.749   6.270  -9.540  1.00  0.00    -0.200 F 
ATOM     91  F   UNL     1       0.263   6.898 -12.148  1.00  0.00    -0.200 F 
ENDBRANCH  57  81
BRANCH  69  92
ATOM     92  C   UNL     1       5.107  14.988  -8.123  1.00  0.00     0.064 A 
ATOM     93  C   UNL     1       4.007  14.821  -7.264  1.00  0.00     0.173 A 
ATOM     94  C   UNL     1       5.404  16.293  -8.540  1.00  0.00     0.173 A 
ATOM     95  F   UNL     1       3.722  13.627  -6.733  1.00  0.00    -0.203 F 
ATOM     96  C   UNL     1       3.211  15.901  -6.886  1.00  0.00     0.198 A 
ATOM     97  C   UNL     1       4.630  17.376  -8.130  1.00  0.00     0.198 A 
ATOM     98  F   UNL     1       6.479  16.524  -9.309  1.00  0.00    -0.203 F 
ATOM     99  F   UNL     1       2.158  15.709  -6.079  1.00  0.00    -0.200 F 
ATOM    100  C   UNL     1       3.527  17.178  -7.315  1.00  0.00     0.200 A 
ATOM    101  F   UNL     1       4.970  18.617  -8.505  1.00  0.00    -0.200 F 
ATOM    102  F   UNL     1       2.787  18.223  -6.919  1.00  0.00    -0.200 F 
ENDBRANCH  69  92
ENDBRANCH  43  44
ENDBRANCH  35  38
ENDBRANCH  33  34
ENDBRANCH  32  33
ENDBRANCH  31  32
ENDBRANCH   1  31
TORSDOF 16
