REMARK SMILES CCCOc1ccccc1O[C@@H]1CC[C@@]([NH3+])(C(=O)NCCCCNC(=O)c2ccc(-c3c4nc(c(-c5c(F)c(F)c(F)c(F)c5F)c5ccc([nH]5)c(-c5c(F)c(F)c(F)c(F)c5F)c5nc(c(-c6c(F)c(F)c(F)c(F)c6F)c6ccc3[nH]6)C=C5)C=C4)cc2)C1
REMARK SMILES IDX 20 1 19 2 17 3 18 4 15 6 12 7 13 8 90 9 14 10 11 11 10 12
REMARK SMILES IDX 5 13 6 14 7 15 9 16 8 17 4 18 3 19 2 20 1 21 16 22 21 26
REMARK SMILES IDX 22 27 23 28 24 29 25 30 26 32 27 33 28 34 89 35 29 36 88 37
REMARK SMILES IDX 30 38 31 39 32 40 82 41 33 42 87 43 81 44 83 45 34 46 86 47
REMARK SMILES IDX 80 48 79 49 35 51 67 52 47 53 66 54 48 55 51 56 65 57 84 58
REMARK SMILES IDX 49 59 50 60 64 62 85 63 52 64 36 65 37 66 45 67 38 68 39 69
REMARK SMILES IDX 43 70 46 71 40 72 41 73 44 74 42 75 68 76 69 77 77 78 70 79
REMARK SMILES IDX 71 80 75 81 78 82 72 83 73 84 76 85 74 86 53 87 54 88 62 89
REMARK SMILES IDX 55 90 56 91 60 92 63 93 57 94 58 95 61 96 59 97
REMARK H PARENT 19 5 16 23 16 24 16 25 24 31 83 50 51 61
REMARK Flexibility Score: inf
ROOT
ATOM      1  C   UNL     1      -1.227  -2.381   6.248  1.00  0.00     0.116 C 
ENDROOT
BRANCH   1   2
ATOM      2  N   UNL     1      -0.733  -3.230   5.192  1.00  0.00    -0.351 N 
ATOM      3  C   UNL     1      -0.444  -2.919   3.904  1.00  0.00     0.281 C 
ATOM      4  O   UNL     1      -0.244  -3.880   3.154  1.00  0.00    -0.268 OA
ATOM      5  H   UNL     1      -0.584  -4.171   5.443  1.00  0.00     0.163 HD
BRANCH   3   6
ATOM      6  C   UNL     1      -0.245  -1.438   3.457  1.00  0.00     0.177 C 
ATOM      7  C   UNL     1      -0.904  -0.422   1.287  1.00  0.00     0.180 C 
ATOM      8  C   UNL     1      -1.696   0.281   2.376  1.00  0.00     0.052 C 
ATOM      9  C   UNL     1       0.040  -1.417   1.950  1.00  0.00     0.124 C 
ATOM     10  C   UNL     1      -1.433  -0.487   3.666  1.00  0.00     0.083 C 
BRANCH   7  11
ATOM     11  O   UNL     1      -0.343   0.359   0.226  1.00  0.00    -0.486 OA
BRANCH  11  12
ATOM     12  C   UNL     1       0.187   1.597   0.459  1.00  0.00     0.161 A 
ATOM     13  C   UNL     1       1.151   1.909   1.418  1.00  0.00     0.161 A 
ATOM     14  C   UNL     1       1.591   3.225   1.604  1.00  0.00     0.050 A 
ATOM     15  C   UNL     1       1.222   4.208   0.693  1.00  0.00     0.004 A 
ATOM     16  C   UNL     1      -0.139   2.582  -0.476  1.00  0.00     0.050 A 
ATOM     17  C   UNL     1       0.397   3.873  -0.377  1.00  0.00     0.004 A 
BRANCH  13  18
ATOM     18  O   UNL     1       1.799   0.924   2.107  1.00  0.00    -0.490 OA
BRANCH  18  19
ATOM     19  C   UNL     1       3.048   0.590   1.454  1.00  0.00     0.229 C 
BRANCH  19  20
ATOM     20  C   UNL     1       2.899  -0.311   0.213  1.00  0.00     0.038 C 
ATOM     21  C   UNL     1       3.044   0.414  -1.115  1.00  0.00     0.007 C 
ENDBRANCH  19  20
ENDBRANCH  18  19
ENDBRANCH  13  18
ENDBRANCH  11  12
ENDBRANCH   7  11
BRANCH   6  22
ATOM     22  N   UNL     1       0.926  -0.915   4.214  1.00  0.00    -0.345 N 
ATOM     23  H   UNL     1       0.722  -0.935   5.213  1.00  0.00     0.345 HD
ATOM     24  H   UNL     1       1.118   0.044   3.925  1.00  0.00     0.345 HD
ATOM     25  H   UNL     1       1.742  -1.497   4.022  1.00  0.00     0.345 HD
ENDBRANCH   6  22
ENDBRANCH   3   6
ENDBRANCH   1   2
BRANCH   1  26
ATOM     26  C   UNL     1      -2.750  -2.494   6.334  1.00  0.00     0.023 C 
BRANCH  26  27
ATOM     27  C   UNL     1      -3.254  -3.927   6.506  1.00  0.00     0.023 C 
BRANCH  27  28
ATOM     28  C   UNL     1      -2.574  -4.689   7.630  1.00  0.00     0.116 C 
BRANCH  28  29
ATOM     29  N   UNL     1      -2.639  -3.972   8.894  1.00  0.00    -0.352 N 
ATOM     30  C   UNL     1      -3.042  -4.438  10.122  1.00  0.00     0.251 C 
ATOM     31  H   UNL     1      -2.358  -3.029   8.866  1.00  0.00     0.163 HD
ATOM     32  O   UNL     1      -3.210  -3.688  11.062  1.00  0.00    -0.269 OA
BRANCH  30  33
ATOM     33  C   UNL     1      -3.296  -5.884  10.249  1.00  0.00     0.039 A 
ATOM     34  C   UNL     1      -4.528  -6.307  10.744  1.00  0.00     0.014 A 
ATOM     35  C   UNL     1      -2.346  -6.799   9.789  1.00  0.00     0.014 A 
ATOM     36  C   UNL     1      -4.831  -7.666  10.727  1.00  0.00     0.010 A 
ATOM     37  C   UNL     1      -2.688  -8.138   9.685  1.00  0.00     0.010 A 
ATOM     38  C   UNL     1      -3.928  -8.585  10.165  1.00  0.00    -0.014 A 
BRANCH  38  39
ATOM     39  C   UNL     1      -4.255 -10.027  10.094  1.00  0.00     0.031 A 
ATOM     40  C   UNL     1      -3.419 -11.015  10.854  1.00  0.00     0.074 A 
ATOM     41  C   UNL     1      -5.266 -10.443   9.309  1.00  0.00     0.049 A 
ATOM     42  N   UNL     1      -3.511 -12.320  10.893  1.00  0.00    -0.248 NA
ATOM     43  C   UNL     1      -2.309 -10.469  11.653  1.00  0.00     0.031 C 
ATOM     44  C   UNL     1      -6.109  -9.576   8.483  1.00  0.00     0.029 A 
ATOM     45  N   UNL     1      -5.754 -11.703   9.073  1.00  0.00    -0.354 N 
ATOM     46  C   UNL     1      -2.469 -12.744  11.707  1.00  0.00     0.074 A 
ATOM     47  C   UNL     1      -1.716 -11.570  12.084  1.00  0.00     0.031 C 
ATOM     48  C   UNL     1      -7.030 -10.326   7.857  1.00  0.00     0.029 A 
ATOM     49  C   UNL     1      -6.818 -11.727   8.205  1.00  0.00     0.049 A 
ATOM     50  H   UNL     1      -5.377 -12.513   9.486  1.00  0.00     0.167 HD
ATOM     51  C   UNL     1      -2.187 -13.999  12.127  1.00  0.00     0.037 A 
ATOM     52  C   UNL     1      -7.536 -12.768   7.743  1.00  0.00     0.037 A 
ATOM     53  C   UNL     1      -2.957 -15.158  11.764  1.00  0.00     0.049 A 
ATOM     54  C   UNL     1      -7.193 -14.155   8.216  1.00  0.00     0.074 A 
ATOM     55  C   UNL     1      -2.797 -16.466  12.183  1.00  0.00     0.029 A 
ATOM     56  N   UNL     1      -4.034 -15.145  10.888  1.00  0.00    -0.354 N 
ATOM     57  N   UNL     1      -6.257 -14.538   9.050  1.00  0.00    -0.248 NA
ATOM     58  C   UNL     1      -8.012 -15.254   7.687  1.00  0.00     0.031 C 
ATOM     59  C   UNL     1      -3.741 -17.255  11.518  1.00  0.00     0.029 A 
ATOM     60  C   UNL     1      -4.529 -16.429  10.731  1.00  0.00     0.049 A 
ATOM     61  H   UNL     1      -4.392 -14.343  10.445  1.00  0.00     0.167 HD
ATOM     62  C   UNL     1      -6.389 -15.915   9.167  1.00  0.00     0.074 A 
ATOM     63  C   UNL     1      -7.510 -16.297   8.332  1.00  0.00     0.031 C 
ATOM     64  C   UNL     1      -5.649 -16.787   9.896  1.00  0.00     0.037 A 
BRANCH  51  65
ATOM     65  C   UNL     1      -0.998 -14.177  13.026  1.00  0.00     0.064 A 
ATOM     66  C   UNL     1      -0.983 -13.676  14.338  1.00  0.00     0.173 A 
ATOM     67  C   UNL     1       0.134 -14.876  12.580  1.00  0.00     0.173 A 
ATOM     68  F   UNL     1      -2.033 -12.987  14.810  1.00  0.00    -0.203 F 
ATOM     69  C   UNL     1       0.132 -13.838  15.155  1.00  0.00     0.198 A 
ATOM     70  C   UNL     1       1.234 -15.066  13.413  1.00  0.00     0.198 A 
ATOM     71  F   UNL     1       0.173 -15.378  11.337  1.00  0.00    -0.203 F 
ATOM     72  F   UNL     1       0.145 -13.299  16.383  1.00  0.00    -0.200 F 
ATOM     73  C   UNL     1       1.236 -14.539  14.695  1.00  0.00     0.200 A 
ATOM     74  F   UNL     1       2.295 -15.755  12.971  1.00  0.00    -0.200 F 
ATOM     75  F   UNL     1       2.306 -14.700  15.486  1.00  0.00    -0.200 F 
ENDBRANCH  51  65
BRANCH  52  76
ATOM     76  C   UNL     1      -8.664 -12.535   6.802  1.00  0.00     0.064 A 
ATOM     77  C   UNL     1      -9.990 -12.758   7.198  1.00  0.00     0.173 A 
ATOM     78  C   UNL     1      -8.441 -12.092   5.490  1.00  0.00     0.173 A 
ATOM     79  F   UNL     1     -10.254 -13.199   8.437  1.00  0.00    -0.203 F 
ATOM     80  C   UNL     1     -11.048 -12.569   6.311  1.00  0.00     0.198 A 
ATOM     81  C   UNL     1      -9.502 -11.874   4.614  1.00  0.00     0.198 A 
ATOM     82  F   UNL     1      -7.192 -11.858   5.062  1.00  0.00    -0.203 F 
ATOM     83  F   UNL     1     -12.302 -12.836   6.702  1.00  0.00    -0.200 F 
ATOM     84  C   UNL     1     -10.804 -12.122   5.022  1.00  0.00     0.200 A 
ATOM     85  F   UNL     1      -9.263 -11.427   3.374  1.00  0.00    -0.200 F 
ATOM     86  F   UNL     1     -11.822 -11.937   4.171  1.00  0.00    -0.200 F 
ENDBRANCH  52  76
BRANCH  64  87
ATOM     87  C   UNL     1      -6.045 -18.234   9.846  1.00  0.00     0.064 A 
ATOM     88  C   UNL     1      -5.845 -19.013   8.698  1.00  0.00     0.173 A 
ATOM     89  C   UNL     1      -6.591 -18.859  10.978  1.00  0.00     0.173 A 
ATOM     90  F   UNL     1      -5.339 -18.459   7.585  1.00  0.00    -0.203 F 
ATOM     91  C   UNL     1      -6.203 -20.358   8.675  1.00  0.00     0.198 A 
ATOM     92  C   UNL     1      -6.915 -20.212  10.963  1.00  0.00     0.198 A 
ATOM     93  F   UNL     1      -6.795 -18.160  12.105  1.00  0.00    -0.203 F 
ATOM     94  F   UNL     1      -6.050 -21.071   7.550  1.00  0.00    -0.200 F 
ATOM     95  C   UNL     1      -6.729 -20.958   9.809  1.00  0.00     0.200 A 
ATOM     96  F   UNL     1      -7.408 -20.794  12.065  1.00  0.00    -0.200 F 
ATOM     97  F   UNL     1      -7.063 -22.256   9.788  1.00  0.00    -0.200 F 
ENDBRANCH  64  87
ENDBRANCH  38  39
ENDBRANCH  30  33
ENDBRANCH  28  29
ENDBRANCH  27  28
ENDBRANCH  26  27
ENDBRANCH   1  26
TORSDOF 17
