REMARK SMILES O=C(CN1C(=O)/C(=C\c2cccs2)SC1=S)Nc1ccccc1C(=O)NCCCCNC(=O)c1ccc(-c2c3nc(c(-c4c(F)c(F)c(F)c(F)c4F)c4ccc([nH]4)c(-c4c(F)c(F)c(F)c(F)c4F)c4nc(c(-c5c(F)c(F)c(F)c(F)c5F)c5ccc2[nH]5)C=C4)C=C3)cc1
REMARK SMILES IDX 27 1 26 2 24 3 25 4 23 6 18 7 19 8 20 9 22 10 21 11 17 12
REMARK SMILES IDX 1 13 2 14 3 16 4 17 5 18 15 19 6 20 7 21 14 22 16 23 8 24
REMARK SMILES IDX 9 25 10 26 13 27 11 28 12 29 28 30 29 31 30 32 31 33 32 34
REMARK SMILES IDX 33 36 34 37 35 38 96 39 36 40 95 41 37 42 38 43 39 44 89 45
REMARK SMILES IDX 40 46 94 47 88 48 90 49 41 50 93 51 87 52 86 53 42 55 74 56
REMARK SMILES IDX 54 57 73 58 55 59 58 60 72 61 91 62 56 63 57 64 71 66 92 67
REMARK SMILES IDX 59 68 43 69 44 70 52 71 45 72 46 73 50 74 53 75 47 76 48 77
REMARK SMILES IDX 51 78 49 79 75 80 76 81 84 82 77 83 78 84 82 85 85 86 79 87
REMARK SMILES IDX 80 88 83 89 81 90 60 91 61 92 69 93 62 94 63 95 67 96 70 97
REMARK SMILES IDX 64 98 65 99 68 100 66 101
REMARK H PARENT 26 5 17 15 31 35 90 54 58 65
REMARK Flexibility Score: inf
ROOT
ATOM      1  C   UNL     1       2.671  -0.517   1.871  1.00  0.00     0.116 C 
ENDROOT
BRANCH   1   2
ATOM      2  N   UNL     1       1.319  -0.339   2.329  1.00  0.00    -0.352 N 
ATOM      3  C   UNL     1       0.483   0.747   2.120  1.00  0.00     0.253 C 
ATOM      4  O   UNL     1      -0.697   0.628   2.458  1.00  0.00    -0.269 OA
ATOM      5  H   UNL     1       0.941  -1.079   2.856  1.00  0.00     0.163 HD
BRANCH   3   6
ATOM      6  C   UNL     1       0.988   2.098   1.707  1.00  0.00     0.063 A 
ATOM      7  C   UNL     1       1.955   2.417   0.738  1.00  0.00     0.054 A 
ATOM      8  C   UNL     1       2.543   3.699   0.767  1.00  0.00     0.027 A 
ATOM      9  C   UNL     1       2.092   4.700   1.627  1.00  0.00     0.002 A 
ATOM     10  C   UNL     1       0.514   3.139   2.544  1.00  0.00     0.016 A 
ATOM     11  C   UNL     1       1.047   4.430   2.494  1.00  0.00     0.001 A 
BRANCH   7  12
ATOM     12  N   UNL     1       2.472   1.587  -0.281  1.00  0.00    -0.324 N 
ATOM     13  O   UNL     1       0.606   0.422  -0.978  1.00  0.00    -0.273 OA
ATOM     14  C   UNL     1       1.819   0.606  -1.002  1.00  0.00     0.244 C 
ATOM     15  H   UNL     1       3.420   1.725  -0.507  1.00  0.00     0.170 HD
BRANCH  14  16
ATOM     16  C   UNL     1       2.772  -0.402  -1.706  1.00  0.00     0.227 C 
BRANCH  16  17
ATOM     17  N   UNL     1       3.655   0.032  -2.784  1.00  0.00    -0.283 N 
ATOM     18  C   UNL     1       4.534   1.061  -2.555  1.00  0.00     0.266 C 
ATOM     19  C   UNL     1       3.962  -0.742  -3.891  1.00  0.00     0.148 C 
ATOM     20  O   UNL     1       4.745   1.583  -1.462  1.00  0.00    -0.268 OA
ATOM     21  C   UNL     1       5.271   1.392  -3.789  1.00  0.00     0.081 C 
ATOM     22  S   UNL     1       5.312  -0.011  -4.780  1.00  0.00    -0.054 SA
ATOM     23  S   UNL     1       3.251  -2.166  -4.388  1.00  0.00    -0.052 S 
ATOM     24  C   UNL     1       5.606   2.623  -4.197  1.00  0.00     0.040 C 
BRANCH  24  25
ATOM     25  C   UNL     1       5.092   3.770  -3.530  1.00  0.00     0.028 A 
ATOM     26  C   UNL     1       5.448   4.362  -2.332  1.00  0.00     0.020 A 
ATOM     27  S   UNL     1       3.740   4.578  -4.231  1.00  0.00    -0.144 S 
ATOM     28  C   UNL     1       4.572   5.428  -1.965  1.00  0.00     0.012 A 
ATOM     29  C   UNL     1       3.581   5.628  -2.897  1.00  0.00     0.065 A 
ENDBRANCH  24  25
ENDBRANCH  16  17
ENDBRANCH  14  16
ENDBRANCH   7  12
ENDBRANCH   3   6
ENDBRANCH   1   2
BRANCH   1  30
ATOM     30  C   UNL     1       3.513  -1.617   2.498  1.00  0.00     0.023 C 
BRANCH  30  31
ATOM     31  C   UNL     1       3.119  -3.059   2.166  1.00  0.00     0.023 C 
BRANCH  31  32
ATOM     32  C   UNL     1       2.957  -3.445   0.693  1.00  0.00     0.116 C 
BRANCH  32  33
ATOM     33  N   UNL     1       4.153  -3.285  -0.125  1.00  0.00    -0.352 N 
ATOM     34  C   UNL     1       4.656  -4.100  -1.121  1.00  0.00     0.251 C 
ATOM     35  H   UNL     1       4.682  -2.475   0.060  1.00  0.00     0.163 HD
ATOM     36  O   UNL     1       5.688  -3.775  -1.701  1.00  0.00    -0.269 OA
BRANCH  34  37
ATOM     37  C   UNL     1       4.010  -5.402  -1.424  1.00  0.00     0.039 A 
ATOM     38  C   UNL     1       4.817  -6.543  -1.487  1.00  0.00     0.014 A 
ATOM     39  C   UNL     1       2.625  -5.524  -1.546  1.00  0.00     0.014 A 
ATOM     40  C   UNL     1       4.227  -7.810  -1.522  1.00  0.00     0.010 A 
ATOM     41  C   UNL     1       2.036  -6.787  -1.494  1.00  0.00     0.010 A 
ATOM     42  C   UNL     1       2.831  -7.943  -1.441  1.00  0.00    -0.014 A 
BRANCH  42  43
ATOM     43  C   UNL     1       2.206  -9.273  -1.207  1.00  0.00     0.031 A 
ATOM     44  C   UNL     1       1.268  -9.873  -2.213  1.00  0.00     0.074 A 
ATOM     45  C   UNL     1       2.441  -9.910  -0.040  1.00  0.00     0.049 A 
ATOM     46  N   UNL     1       0.620 -11.011  -2.165  1.00  0.00    -0.248 NA
ATOM     47  C   UNL     1       1.001  -9.082  -3.424  1.00  0.00     0.031 C 
ATOM     48  C   UNL     1       3.280  -9.398   1.046  1.00  0.00     0.029 A 
ATOM     49  N   UNL     1       1.996 -11.120   0.434  1.00  0.00    -0.354 N 
ATOM     50  C   UNL     1      -0.129 -11.070  -3.332  1.00  0.00     0.074 A 
ATOM     51  C   UNL     1       0.097  -9.828  -4.041  1.00  0.00     0.031 C 
ATOM     52  C   UNL     1       3.320 -10.299   2.039  1.00  0.00     0.029 A 
ATOM     53  C   UNL     1       2.477 -11.435   1.684  1.00  0.00     0.049 A 
ATOM     54  H   UNL     1       1.391 -11.708  -0.073  1.00  0.00     0.167 HD
ATOM     55  C   UNL     1      -0.914 -12.078  -3.782  1.00  0.00     0.037 A 
ATOM     56  C   UNL     1       2.261 -12.516   2.458  1.00  0.00     0.037 A 
ATOM     57  C   UNL     1      -1.133 -13.311  -3.070  1.00  0.00     0.049 A 
ATOM     58  C   UNL     1       1.373 -13.616   1.939  1.00  0.00     0.074 A 
ATOM     59  C   UNL     1      -1.872 -14.415  -3.460  1.00  0.00     0.029 A 
ATOM     60  N   UNL     1      -0.621 -13.599  -1.812  1.00  0.00    -0.354 N 
ATOM     61  N   UNL     1       0.740 -13.697   0.794  1.00  0.00    -0.248 NA
ATOM     62  C   UNL     1       1.177 -14.779   2.816  1.00  0.00     0.031 C 
ATOM     63  C   UNL     1      -1.854 -15.345  -2.416  1.00  0.00     0.029 A 
ATOM     64  C   UNL     1      -1.050 -14.851  -1.401  1.00  0.00     0.049 A 
ATOM     65  H   UNL     1      -0.039 -13.001  -1.290  1.00  0.00     0.167 HD
ATOM     66  C   UNL     1       0.097 -14.927   0.799  1.00  0.00     0.074 A 
ATOM     67  C   UNL     1       0.432 -15.567   2.054  1.00  0.00     0.031 C 
ATOM     68  C   UNL     1      -0.700 -15.477  -0.150  1.00  0.00     0.037 A 
BRANCH  55  69
ATOM     69  C   UNL     1      -1.597 -11.888  -5.108  1.00  0.00     0.064 A 
ATOM     70  C   UNL     1      -0.872 -11.844  -6.310  1.00  0.00     0.173 A 
ATOM     71  C   UNL     1      -2.994 -11.777  -5.184  1.00  0.00     0.173 A 
ATOM     72  F   UNL     1       0.466 -11.938  -6.295  1.00  0.00    -0.203 F 
ATOM     73  C   UNL     1      -1.516 -11.660  -7.531  1.00  0.00     0.198 A 
ATOM     74  C   UNL     1      -3.637 -11.628  -6.411  1.00  0.00     0.198 A 
ATOM     75  F   UNL     1      -3.739 -11.822  -4.069  1.00  0.00    -0.203 F 
ATOM     76  F   UNL     1      -0.796 -11.566  -8.658  1.00  0.00    -0.200 F 
ATOM     77  C   UNL     1      -2.897 -11.559  -7.582  1.00  0.00     0.200 A 
ATOM     78  F   UNL     1      -4.974 -11.547  -6.460  1.00  0.00    -0.200 F 
ATOM     79  F   UNL     1      -3.516 -11.389  -8.758  1.00  0.00    -0.200 F 
ENDBRANCH  55  69
BRANCH  56  80
ATOM     80  C   UNL     1       2.912 -12.626   3.792  1.00  0.00     0.064 A 
ATOM     81  C   UNL     1       3.895 -13.595   4.040  1.00  0.00     0.173 A 
ATOM     82  C   UNL     1       2.561 -11.774   4.851  1.00  0.00     0.173 A 
ATOM     83  F   UNL     1       4.255 -14.447   3.068  1.00  0.00    -0.203 F 
ATOM     84  C   UNL     1       4.482 -13.726   5.297  1.00  0.00     0.198 A 
ATOM     85  C   UNL     1       3.172 -11.884   6.099  1.00  0.00     0.198 A 
ATOM     86  F   UNL     1       1.632 -10.825   4.669  1.00  0.00    -0.203 F 
ATOM     87  F   UNL     1       5.380 -14.695   5.518  1.00  0.00    -0.200 F 
ATOM     88  C   UNL     1       4.124 -12.866   6.324  1.00  0.00     0.200 A 
ATOM     89  F   UNL     1       2.836 -11.039   7.083  1.00  0.00    -0.200 F 
ATOM     90  F   UNL     1       4.691 -12.988   7.532  1.00  0.00    -0.200 F 
ENDBRANCH  56  80
BRANCH  68  91
ATOM     91  C   UNL     1      -1.234 -16.856   0.114  1.00  0.00     0.064 A 
ATOM     92  C   UNL     1      -2.211 -17.097   1.092  1.00  0.00     0.173 A 
ATOM     93  C   UNL     1      -0.788 -17.945  -0.651  1.00  0.00     0.173 A 
ATOM     94  F   UNL     1      -2.659 -16.093   1.861  1.00  0.00    -0.203 F 
ATOM     95  C   UNL     1      -2.700 -18.382   1.313  1.00  0.00     0.198 A 
ATOM     96  C   UNL     1      -1.306 -19.222  -0.451  1.00  0.00     0.198 A 
ATOM     97  F   UNL     1       0.140 -17.769  -1.603  1.00  0.00    -0.203 F 
ATOM     98  F   UNL     1      -3.593 -18.597   2.288  1.00  0.00    -0.200 F 
ATOM     99  C   UNL     1      -2.254 -19.441   0.536  1.00  0.00     0.200 A 
ATOM    100  F   UNL     1      -0.885 -20.240  -1.214  1.00  0.00    -0.200 F 
ATOM    101  F   UNL     1      -2.734 -20.674   0.744  1.00  0.00    -0.200 F 
ENDBRANCH  68  91
ENDBRANCH  42  43
ENDBRANCH  34  37
ENDBRANCH  32  33
ENDBRANCH  31  32
ENDBRANCH  30  31
ENDBRANCH   1  30
TORSDOF 15
