REMARK SMILES O=C(C[C@H](C1CCCCC1)N1Cc2ccccc2C1=O)NCCCCNC(=O)c1ccc(-c2c3nc(c(-c4c(F)c(F)c(F)c(F)c4F)c4ccc([nH]4)c(-c4c(F)c(F)c(F)c(F)c4F)c4nc(c(-c5c(F)c(F)c(F)c(F)c5F)c5ccc2[nH]5)C=C4)C=C3)cc1
REMARK SMILES IDX 23 1 22 2 21 3 1 4 2 5 3 7 4 8 11 9 12 10 19 11 13 12 18 13
REMARK SMILES IDX 20 14 14 15 17 16 15 17 16 18 5 19 6 20 10 21 7 22 9 23 8 24
REMARK SMILES IDX 24 25 25 26 26 27 27 28 28 30 29 31 30 32 91 33 31 34 90 35
REMARK SMILES IDX 32 36 33 37 34 38 84 39 35 40 89 41 83 42 85 43 36 44 88 45
REMARK SMILES IDX 82 46 81 47 37 49 69 50 49 51 68 52 50 53 53 54 67 55 86 56
REMARK SMILES IDX 51 57 52 58 66 60 87 61 54 62 38 63 39 64 47 65 40 66 41 67
REMARK SMILES IDX 45 68 48 69 42 70 43 71 46 72 44 73 70 74 71 75 79 76 72 77
REMARK SMILES IDX 73 78 77 79 80 80 74 81 75 82 78 83 76 84 55 85 56 86 64 87
REMARK SMILES IDX 57 88 58 89 62 90 65 91 59 92 60 93 63 94 61 95
REMARK H PARENT 21 6 26 29 85 48 53 59
REMARK Flexibility Score: inf
ROOT
ATOM      1  C   UNL     1       4.824  -0.130   5.740  1.00  0.00     0.023 C 
ENDROOT
BRANCH   1   2
ATOM      2  C   UNL     1       3.851  -0.426   4.597  1.00  0.00     0.116 C 
BRANCH   2   3
ATOM      3  N   UNL     1       4.189   0.318   3.398  1.00  0.00    -0.356 N 
ATOM      4  O   UNL     1       4.618  -1.521   2.093  1.00  0.00    -0.275 OA
ATOM      5  C   UNL     1       4.577  -0.302   2.232  1.00  0.00     0.222 C 
ATOM      6  H   UNL     1       4.139   1.301   3.420  1.00  0.00     0.163 HD
BRANCH   5   7
ATOM      7  C   UNL     1       5.061   0.636   1.146  1.00  0.00     0.125 C 
BRANCH   7   8
ATOM      8  C   UNL     1       4.009   1.609   0.589  1.00  0.00     0.098 C 
BRANCH   8   9
ATOM      9  N   UNL     1       4.650   2.863   0.141  1.00  0.00    -0.331 N 
ATOM     10  C   UNL     1       5.908   2.927  -0.602  1.00  0.00     0.156 C 
ATOM     11  C   UNL     1       4.122   4.125   0.380  1.00  0.00     0.254 C 
ATOM     12  C   UNL     1       6.047   4.383  -0.887  1.00  0.00    -0.016 A 
ATOM     13  C   UNL     1       5.009   5.090  -0.284  1.00  0.00     0.045 A 
ATOM     14  O   UNL     1       3.125   4.413   1.017  1.00  0.00    -0.269 OA
ATOM     15  C   UNL     1       7.018   5.045  -1.618  1.00  0.00     0.006 A 
ATOM     16  C   UNL     1       4.903   6.466  -0.365  1.00  0.00     0.014 A 
ATOM     17  C   UNL     1       6.927   6.437  -1.724  1.00  0.00     0.000 A 
ATOM     18  C   UNL     1       5.882   7.142  -1.098  1.00  0.00     0.001 A 
ENDBRANCH   8   9
BRANCH   8  19
ATOM     19  C   UNL     1       3.038   1.044  -0.508  1.00  0.00     0.012 C 
ATOM     20  C   UNL     1       3.728   0.638  -1.824  1.00  0.00     0.006 C 
ATOM     21  C   UNL     1       2.168  -0.108   0.033  1.00  0.00     0.006 C 
ATOM     22  C   UNL     1       2.776   0.014  -2.845  1.00  0.00     0.000 C 
ATOM     23  C   UNL     1       1.214  -0.670  -1.018  1.00  0.00     0.000 C 
ATOM     24  C   UNL     1       1.976  -1.134  -2.252  1.00  0.00     0.000 C 
ENDBRANCH   8  19
ENDBRANCH   7   8
ENDBRANCH   5   7
ENDBRANCH   2   3
ENDBRANCH   1   2
BRANCH   1  25
ATOM     25  C   UNL     1       4.836   1.326   6.215  1.00  0.00     0.023 C 
BRANCH  25  26
ATOM     26  C   UNL     1       3.493   1.867   6.694  1.00  0.00     0.116 C 
BRANCH  26  27
ATOM     27  N   UNL     1       2.999   1.188   7.880  1.00  0.00    -0.352 N 
ATOM     28  C   UNL     1       2.542   1.716   9.064  1.00  0.00     0.251 C 
ATOM     29  H   UNL     1       2.990   0.204   7.828  1.00  0.00     0.163 HD
ATOM     30  O   UNL     1       2.298   0.976  10.013  1.00  0.00    -0.269 OA
BRANCH  28  31
ATOM     31  C   UNL     1       2.376   3.179   9.215  1.00  0.00     0.039 A 
ATOM     32  C   UNL     1       2.820   3.789  10.392  1.00  0.00     0.014 A 
ATOM     33  C   UNL     1       1.790   3.951   8.208  1.00  0.00     0.014 A 
ATOM     34  C   UNL     1       2.743   5.177  10.527  1.00  0.00     0.010 A 
ATOM     35  C   UNL     1       1.789   5.341   8.310  1.00  0.00     0.010 A 
ATOM     36  C   UNL     1       2.267   5.970   9.470  1.00  0.00    -0.014 A 
BRANCH  36  37
ATOM     37  C   UNL     1       2.275   7.455   9.557  1.00  0.00     0.031 A 
ATOM     38  C   UNL     1       0.986   8.228   9.502  1.00  0.00     0.074 A 
ATOM     39  C   UNL     1       3.449   8.113   9.623  1.00  0.00     0.049 A 
ATOM     40  N   UNL     1       0.796   9.524   9.500  1.00  0.00    -0.248 NA
ATOM     41  C   UNL     1      -0.253   7.441   9.411  1.00  0.00     0.031 C 
ATOM     42  C   UNL     1       4.770   7.484   9.638  1.00  0.00     0.029 A 
ATOM     43  N   UNL     1       3.722   9.458   9.680  1.00  0.00    -0.354 N 
ATOM     44  C   UNL     1      -0.578   9.705   9.400  1.00  0.00     0.074 A 
ATOM     45  C   UNL     1      -1.168   8.389   9.282  1.00  0.00     0.031 C 
ATOM     46  C   UNL     1       5.711   8.437   9.722  1.00  0.00     0.029 A 
ATOM     47  C   UNL     1       5.065   9.746   9.720  1.00  0.00     0.049 A 
ATOM     48  H   UNL     1       3.022  10.150   9.690  1.00  0.00     0.167 HD
ATOM     49  C   UNL     1      -1.284  10.861   9.430  1.00  0.00     0.037 A 
ATOM     50  C   UNL     1       5.705  10.931   9.740  1.00  0.00     0.037 A 
ATOM     51  C   UNL     1      -0.694  12.169   9.555  1.00  0.00     0.049 A 
ATOM     52  C   UNL     1       4.899  12.203   9.741  1.00  0.00     0.074 A 
ATOM     53  C   UNL     1      -1.327  13.396   9.643  1.00  0.00     0.029 A 
ATOM     54  N   UNL     1       0.671  12.420   9.599  1.00  0.00    -0.354 N 
ATOM     55  N   UNL     1       3.598  12.359   9.718  1.00  0.00    -0.248 NA
ATOM     56  C   UNL     1       5.652  13.464   9.778  1.00  0.00     0.031 C 
ATOM     57  C   UNL     1      -0.346  14.393   9.678  1.00  0.00     0.029 A 
ATOM     58  C   UNL     1       0.898  13.785   9.683  1.00  0.00     0.049 A 
ATOM     59  H   UNL     1       1.373  11.730   9.574  1.00  0.00     0.167 HD
ATOM     60  C   UNL     1       3.376  13.729   9.770  1.00  0.00     0.074 A 
ATOM     61  C   UNL     1       4.677  14.359   9.842  1.00  0.00     0.031 C 
ATOM     62  C   UNL     1       2.199  14.402   9.759  1.00  0.00     0.037 A 
BRANCH  49  63
ATOM     63  C   UNL     1      -2.780  10.763   9.319  1.00  0.00     0.064 A 
ATOM     64  C   UNL     1      -3.560  10.194  10.338  1.00  0.00     0.173 A 
ATOM     65  C   UNL     1      -3.448  11.275   8.195  1.00  0.00     0.173 A 
ATOM     66  F   UNL     1      -2.974   9.682  11.431  1.00  0.00    -0.203 F 
ATOM     67  C   UNL     1      -4.945  10.107  10.219  1.00  0.00     0.198 A 
ATOM     68  C   UNL     1      -4.836  11.220   8.097  1.00  0.00     0.198 A 
ATOM     69  F   UNL     1      -2.755  11.840   7.195  1.00  0.00    -0.203 F 
ATOM     70  F   UNL     1      -5.662   9.506  11.180  1.00  0.00    -0.200 F 
ATOM     71  C   UNL     1      -5.582  10.627   9.103  1.00  0.00     0.200 A 
ATOM     72  F   UNL     1      -5.451  11.739   7.026  1.00  0.00    -0.200 F 
ATOM     73  F   UNL     1      -6.916  10.550   8.994  1.00  0.00    -0.200 F 
ENDBRANCH  49  63
BRANCH  50  74
ATOM     74  C   UNL     1       7.192  10.971   9.773  1.00  0.00     0.064 A 
ATOM     75  C   UNL     1       7.877  11.440  10.903  1.00  0.00     0.173 A 
ATOM     76  C   UNL     1       7.958  10.550   8.676  1.00  0.00     0.173 A 
ATOM     77  F   UNL     1       7.190  11.874  11.970  1.00  0.00    -0.203 F 
ATOM     78  C   UNL     1       9.269  11.507  10.926  1.00  0.00     0.198 A 
ATOM     79  C   UNL     1       9.350  10.586   8.712  1.00  0.00     0.198 A 
ATOM     80  F   UNL     1       7.353  10.089   7.571  1.00  0.00    -0.203 F 
ATOM     81  F   UNL     1       9.895  12.008  11.999  1.00  0.00    -0.200 F 
ATOM     82  C   UNL     1      10.004  11.074   9.833  1.00  0.00     0.200 A 
ATOM     83  F   UNL     1      10.057  10.151   7.660  1.00  0.00    -0.200 F 
ATOM     84  F   UNL     1      11.343  11.134   9.857  1.00  0.00    -0.200 F 
ENDBRANCH  50  74
BRANCH  62  85
ATOM     85  C   UNL     1       2.258  15.901   9.868  1.00  0.00     0.064 A 
ATOM     86  C   UNL     1       2.749  16.701   8.826  1.00  0.00     0.173 A 
ATOM     87  C   UNL     1       1.781  16.546  11.020  1.00  0.00     0.173 A 
ATOM     88  F   UNL     1       3.231  16.136   7.709  1.00  0.00    -0.203 F 
ATOM     89  C   UNL     1       2.787  18.089   8.945  1.00  0.00     0.198 A 
ATOM     90  C   UNL     1       1.786  17.934  11.120  1.00  0.00     0.198 A 
ATOM     91  F   UNL     1       1.294  15.829  12.044  1.00  0.00    -0.203 F 
ATOM     92  F   UNL     1       3.311  18.829   7.958  1.00  0.00    -0.200 F 
ATOM     93  C   UNL     1       2.298  18.704  10.087  1.00  0.00     0.200 A 
ATOM     94  F   UNL     1       1.297  18.527  12.218  1.00  0.00    -0.200 F 
ATOM     95  F   UNL     1       2.326  20.039  10.196  1.00  0.00    -0.200 F 
ENDBRANCH  62  85
ENDBRANCH  36  37
ENDBRANCH  28  31
ENDBRANCH  26  27
ENDBRANCH  25  26
ENDBRANCH   1  25
TORSDOF 14
