REMARK SMILES Cc1n[nH]c(C[N@H+]2CCC[C@H](c3cccc(C(=O)NCCCCNC(=O)c4ccc(-c5c6nc(c(-c7c(F)c(F)c(F)c(F)c7F)c7ccc([nH]7)c(-c7c(F)c(F)c(F)c(F)c7F)c7nc(c(-c8c(F)c(F)c(F)c(F)c8F)c8ccc5[nH]8)C=C7)C=C6)cc4)c3)C2)n1
REMARK SMILES IDX 21 1 20 2 19 3 17 4 18 5 16 7 12 8 13 9 90 10 14 11 15 12
REMARK SMILES IDX 11 13 7 14 8 15 91 16 9 18 10 19 6 20 5 21 1 22 2 23 3 24
REMARK SMILES IDX 92 25 4 26 22 28 23 29 24 30 25 31 26 33 27 34 28 35 89 36
REMARK SMILES IDX 29 37 88 38 30 39 31 40 32 41 82 42 33 43 87 44 81 45 83 46
REMARK SMILES IDX 34 47 86 48 80 49 79 50 35 52 67 53 47 54 66 55 48 56 51 57
REMARK SMILES IDX 65 58 84 59 49 60 50 61 64 63 85 64 52 65 36 66 37 67 45 68
REMARK SMILES IDX 38 69 39 70 43 71 46 72 40 73 41 74 44 75 42 76 68 77 69 78
REMARK SMILES IDX 77 79 70 80 71 81 75 82 78 83 72 84 73 85 76 86 74 87 53 88
REMARK SMILES IDX 54 89 62 90 55 91 56 92 60 93 63 94 57 95 58 96 61 97 59 98
REMARK H PARENT 19 6 7 17 4 27 24 32 83 51 51 62
REMARK Flexibility Score: inf
ROOT
ATOM      1  C   UNL     1      -3.031   1.226   8.880  1.00  0.00     0.023 C 
ENDROOT
BRANCH   1   2
ATOM      2  C   UNL     1      -2.802  -0.284   8.871  1.00  0.00     0.116 C 
BRANCH   2   3
ATOM      3  N   UNL     1      -3.889  -1.097   9.414  1.00  0.00    -0.352 N 
ATOM      4  C   UNL     1      -4.635  -2.145   8.895  1.00  0.00     0.251 C 
ATOM      5  O   UNL     1      -5.498  -2.653   9.610  1.00  0.00    -0.269 OA
ATOM      6  H   UNL     1      -4.142  -0.852  10.333  1.00  0.00     0.163 HD
BRANCH   4   7
ATOM      7  C   UNL     1      -4.484  -2.626   7.493  1.00  0.00     0.040 A 
ATOM      8  C   UNL     1      -3.213  -2.541   5.423  1.00  0.00    -0.039 A 
ATOM      9  C   UNL     1      -4.335  -3.023   4.738  1.00  0.00     0.004 A 
ATOM     10  C   UNL     1      -3.275  -2.516   6.820  1.00  0.00     0.018 A 
ATOM     11  C   UNL     1      -5.496  -3.376   5.432  1.00  0.00     0.001 A 
ATOM     12  C   UNL     1      -5.590  -3.129   6.803  1.00  0.00     0.014 A 
BRANCH   8  13
ATOM     13  C   UNL     1      -2.038  -1.842   4.736  1.00  0.00     0.074 C 
ATOM     14  N   UNL     1      -1.460  -3.503   2.977  1.00  0.00    -0.328 N 
ATOM     15  C   UNL     1      -0.177  -3.806   3.629  1.00  0.00     0.262 C 
ATOM     16  C   UNL     1      -1.881  -2.113   3.231  1.00  0.00     0.270 C 
ATOM     17  H   UNL     1      -2.146  -4.125   3.404  1.00  0.00     0.348 HD
ATOM     18  C   UNL     1      -0.193  -3.499   5.130  1.00  0.00     0.062 C 
ATOM     19  C   UNL     1      -0.658  -2.071   5.386  1.00  0.00     0.020 C 
BRANCH  14  20
ATOM     20  C   UNL     1      -1.460  -3.806   1.533  1.00  0.00     0.340 C 
BRANCH  20  21
ATOM     21  C   UNL     1      -0.507  -2.982   0.732  1.00  0.00     0.179 A 
ATOM     22  C   UNL     1       1.131  -0.052  -0.332  1.00  0.00     0.092 C 
ATOM     23  C   UNL     1       0.670  -1.428  -0.068  1.00  0.00     0.147 A 
ATOM     24  N   UNL     1       1.413  -2.514  -0.312  1.00  0.00    -0.159 NA
ATOM     25  N   UNL     1      -0.538  -1.682   0.518  1.00  0.00    -0.211 NA
ATOM     26  N   UNL     1       0.635  -3.490   0.185  1.00  0.00    -0.258 N 
ATOM     27  H   UNL     1       0.860  -4.447   0.159  1.00  0.00     0.192 HD
ENDBRANCH  20  21
ENDBRANCH  14  20
ENDBRANCH   8  13
ENDBRANCH   4   7
ENDBRANCH   2   3
ENDBRANCH   1   2
BRANCH   1  28
ATOM     28  C   UNL     1      -3.043   1.930  10.234  1.00  0.00     0.023 C 
BRANCH  28  29
ATOM     29  C   UNL     1      -1.784   1.748  11.071  1.00  0.00     0.116 C 
BRANCH  29  30
ATOM     30  N   UNL     1      -0.568   2.277  10.450  1.00  0.00    -0.352 N 
ATOM     31  C   UNL     1       0.721   2.255  10.969  1.00  0.00     0.251 C 
ATOM     32  H   UNL     1      -0.675   2.696   9.565  1.00  0.00     0.163 HD
ATOM     33  O   UNL     1       1.585   3.017  10.577  1.00  0.00    -0.269 OA
BRANCH  31  34
ATOM     34  C   UNL     1       1.026   1.254  12.007  1.00  0.00     0.039 A 
ATOM     35  C   UNL     1       1.745   1.571  13.165  1.00  0.00     0.014 A 
ATOM     36  C   UNL     1       0.512  -0.022  11.810  1.00  0.00     0.014 A 
ATOM     37  C   UNL     1       1.861   0.610  14.170  1.00  0.00     0.010 A 
ATOM     38  C   UNL     1       0.477  -0.897  12.858  1.00  0.00     0.010 A 
ATOM     39  C   UNL     1       1.204  -0.618  14.014  1.00  0.00    -0.014 A 
BRANCH  39  40
ATOM     40  C   UNL     1       1.124  -1.602  15.092  1.00  0.00     0.031 A 
ATOM     41  C   UNL     1       0.447  -1.116  16.331  1.00  0.00     0.074 A 
ATOM     42  C   UNL     1       1.351  -2.911  14.827  1.00  0.00     0.049 A 
ATOM     43  N   UNL     1       0.889  -1.148  17.546  1.00  0.00    -0.248 NA
ATOM     44  C   UNL     1      -0.838  -0.402  16.195  1.00  0.00     0.031 C 
ATOM     45  C   UNL     1       1.734  -3.508  13.539  1.00  0.00     0.029 A 
ATOM     46  N   UNL     1       1.135  -4.011  15.599  1.00  0.00    -0.354 N 
ATOM     47  C   UNL     1      -0.139  -0.647  18.346  1.00  0.00     0.074 A 
ATOM     48  C   UNL     1      -1.085  -0.036  17.454  1.00  0.00     0.031 C 
ATOM     49  C   UNL     1       1.470  -4.831  13.550  1.00  0.00     0.029 A 
ATOM     50  C   UNL     1       1.055  -5.207  14.887  1.00  0.00     0.049 A 
ATOM     51  H   UNL     1       1.043  -3.965  16.578  1.00  0.00     0.167 HD
ATOM     52  C   UNL     1      -0.252  -1.014  19.654  1.00  0.00     0.037 A 
ATOM     53  C   UNL     1       0.636  -6.411  15.355  1.00  0.00     0.037 A 
ATOM     54  C   UNL     1       0.990  -1.561  20.140  1.00  0.00     0.049 A 
ATOM     55  C   UNL     1       0.687  -6.341  16.836  1.00  0.00     0.074 A 
ATOM     56  C   UNL     1       2.279  -1.080  20.258  1.00  0.00     0.029 A 
ATOM     57  N   UNL     1       1.091  -2.926  20.243  1.00  0.00    -0.354 N 
ATOM     58  N   UNL     1       1.797  -6.257  17.515  1.00  0.00    -0.248 NA
ATOM     59  C   UNL     1      -0.508  -5.879  17.526  1.00  0.00     0.031 C 
ATOM     60  C   UNL     1       3.115  -2.185  19.922  1.00  0.00     0.029 A 
ATOM     61  C   UNL     1       2.296  -3.293  19.705  1.00  0.00     0.049 A 
ATOM     62  H   UNL     1       0.420  -3.532  20.632  1.00  0.00     0.167 HD
ATOM     63  C   UNL     1       1.523  -5.335  18.514  1.00  0.00     0.074 A 
ATOM     64  C   UNL     1       0.068  -5.200  18.523  1.00  0.00     0.031 C 
ATOM     65  C   UNL     1       2.514  -4.547  19.025  1.00  0.00     0.037 A 
BRANCH  52  66
ATOM     66  C   UNL     1      -1.565  -1.261  20.367  1.00  0.00     0.064 A 
ATOM     67  C   UNL     1      -1.542  -1.579  21.742  1.00  0.00     0.173 A 
ATOM     68  C   UNL     1      -2.790  -1.514  19.712  1.00  0.00     0.173 A 
ATOM     69  F   UNL     1      -0.432  -1.386  22.471  1.00  0.00    -0.203 F 
ATOM     70  C   UNL     1      -2.621  -2.202  22.377  1.00  0.00     0.198 A 
ATOM     71  C   UNL     1      -3.883  -2.086  20.362  1.00  0.00     0.198 A 
ATOM     72  F   UNL     1      -2.953  -1.330  18.398  1.00  0.00    -0.203 F 
ATOM     73  F   UNL     1      -2.497  -2.615  23.645  1.00  0.00    -0.200 F 
ATOM     74  C   UNL     1      -3.786  -2.465  21.683  1.00  0.00     0.200 A 
ATOM     75  F   UNL     1      -4.999  -2.345  19.667  1.00  0.00    -0.200 F 
ATOM     76  F   UNL     1      -4.794  -3.126  22.267  1.00  0.00    -0.200 F 
ENDBRANCH  52  66
BRANCH  53  77
ATOM     77  C   UNL     1      -0.065  -7.504  14.634  1.00  0.00     0.064 A 
ATOM     78  C   UNL     1      -0.153  -8.795  15.181  1.00  0.00     0.173 A 
ATOM     79  C   UNL     1      -0.893  -7.241  13.525  1.00  0.00     0.173 A 
ATOM     80  F   UNL     1       0.569  -9.120  16.264  1.00  0.00    -0.203 F 
ATOM     81  C   UNL     1      -1.034  -9.755  14.668  1.00  0.00     0.198 A 
ATOM     82  C   UNL     1      -1.766  -8.202  13.009  1.00  0.00     0.198 A 
ATOM     83  F   UNL     1      -0.941  -6.019  12.977  1.00  0.00    -0.203 F 
ATOM     84  F   UNL     1      -1.133 -10.956  15.256  1.00  0.00    -0.200 F 
ATOM     85  C   UNL     1      -1.848  -9.454  13.589  1.00  0.00     0.200 A 
ATOM     86  F   UNL     1      -2.571  -7.885  11.985  1.00  0.00    -0.200 F 
ATOM     87  F   UNL     1      -2.734 -10.351  13.135  1.00  0.00    -0.200 F 
ENDBRANCH  53  77
BRANCH  65  88
ATOM     88  C   UNL     1       3.935  -4.879  18.660  1.00  0.00     0.064 A 
ATOM     89  C   UNL     1       4.449  -4.829  17.352  1.00  0.00     0.173 A 
ATOM     90  C   UNL     1       4.846  -5.110  19.697  1.00  0.00     0.173 A 
ATOM     91  F   UNL     1       3.668  -4.513  16.314  1.00  0.00    -0.203 F 
ATOM     92  C   UNL     1       5.801  -5.045  17.094  1.00  0.00     0.198 A 
ATOM     93  C   UNL     1       6.203  -5.286  19.442  1.00  0.00     0.198 A 
ATOM     94  F   UNL     1       4.425  -5.111  20.972  1.00  0.00    -0.203 F 
ATOM     95  F   UNL     1       6.261  -5.002  15.834  1.00  0.00    -0.200 F 
ATOM     96  C   UNL     1       6.679  -5.265  18.141  1.00  0.00     0.200 A 
ATOM     97  F   UNL     1       7.056  -5.447  20.463  1.00  0.00    -0.200 F 
ATOM     98  F   UNL     1       7.987  -5.429  17.899  1.00  0.00    -0.200 F 
ENDBRANCH  65  88
ENDBRANCH  39  40
ENDBRANCH  31  34
ENDBRANCH  29  30
ENDBRANCH  28  29
ENDBRANCH   1  28
TORSDOF 14
