REMARK SMILES C#Cc1cccc(NS(=O)(=O)c2ccc(F)c(C(=O)NCCCCNC(=O)c3ccc(-c4c5nc(c(-c6c(F)c(F)c(F)c(F)c6F)c6ccc([nH]6)c(-c6c(F)c(F)c(F)c(F)c6F)c6nc(c(-c7c(F)c(F)c(F)c(F)c7F)c7ccc4[nH]7)C=C6)C=C5)cc3)c2)c1
REMARK SMILES IDX 21 1 20 2 18 3 19 4 17 6 12 7 13 8 91 9 14 10 15 11 16 12
REMARK SMILES IDX 9 13 10 14 11 15 8 16 7 18 3 19 4 20 92 21 5 22 6 23 2 24
REMARK SMILES IDX 1 25 22 26 23 27 24 28 25 29 26 30 27 32 28 33 29 34 90 35
REMARK SMILES IDX 30 36 89 37 31 38 32 39 33 40 83 41 34 42 88 43 82 44 84 45
REMARK SMILES IDX 35 46 87 47 81 48 80 49 36 51 68 52 48 53 67 54 49 55 52 56
REMARK SMILES IDX 66 57 85 58 50 59 51 60 65 62 86 63 53 64 37 65 38 66 46 67
REMARK SMILES IDX 39 68 40 69 44 70 47 71 41 72 42 73 45 74 43 75 69 76 70 77
REMARK SMILES IDX 78 78 71 79 72 80 76 81 79 82 73 83 74 84 77 85 75 86 54 87
REMARK SMILES IDX 55 88 63 89 56 90 57 91 61 92 64 93 58 94 59 95 62 96 60 97
REMARK H PARENT 20 5 8 17 25 31 84 50 52 61
REMARK Flexibility Score: inf
ROOT
ATOM      1  C   UNL     1       7.875   3.599   0.229  1.00  0.00     0.116 C 
ENDROOT
BRANCH   1   2
ATOM      2  N   UNL     1       8.315   2.266   0.578  1.00  0.00    -0.352 N 
ATOM      3  C   UNL     1       7.656   1.075   0.725  1.00  0.00     0.254 C 
ATOM      4  O   UNL     1       8.319   0.135   1.166  1.00  0.00    -0.269 OA
ATOM      5  H   UNL     1       9.283   2.201   0.741  1.00  0.00     0.163 HD
BRANCH   3   6
ATOM      6  C   UNL     1       6.261   0.817   0.272  1.00  0.00     0.076 A 
ATOM      7  C   UNL     1       4.646  -0.860  -0.452  1.00  0.00     0.088 A 
ATOM      8  C   UNL     1       3.884   0.119  -1.078  1.00  0.00     0.025 A 
ATOM      9  C   UNL     1       5.880  -0.526   0.130  1.00  0.00     0.039 A 
ATOM     10  C   UNL     1       4.177   1.450  -0.795  1.00  0.00     0.041 A 
ATOM     11  C   UNL     1       5.301   1.773  -0.035  1.00  0.00     0.136 A 
ATOM     12  F   UNL     1       5.327   3.003   0.494  1.00  0.00    -0.206 F 
BRANCH   7  13
ATOM     13  S   UNL     1       3.955  -2.448  -0.020  1.00  0.00     0.261 S 
ATOM     14  O   UNL     1       4.372  -2.728   1.337  1.00  0.00    -0.201 OA
ATOM     15  O   UNL     1       4.284  -3.342  -1.109  1.00  0.00    -0.201 OA
BRANCH  13  16
ATOM     16  N   UNL     1       2.280  -2.351  -0.014  1.00  0.00    -0.280 N 
ATOM     17  H   UNL     1       1.806  -3.153  -0.334  1.00  0.00     0.180 HD
BRANCH  16  18
ATOM     18  C   UNL     1       1.448  -1.264   0.390  1.00  0.00     0.050 A 
ATOM     19  C   UNL     1      -0.707  -0.186   0.085  1.00  0.00     0.026 A 
ATOM     20  C   UNL     1      -0.173   1.013   0.550  1.00  0.00     0.017 A 
ATOM     21  C   UNL     1       0.110  -1.315  -0.022  1.00  0.00     0.044 A 
ATOM     22  C   UNL     1       1.114   1.029   1.079  1.00  0.00     0.003 A 
ATOM     23  C   UNL     1       1.889  -0.137   1.081  1.00  0.00     0.027 A 
BRANCH  19  24
ATOM     24  C   UNL     1      -2.101  -0.252  -0.217  1.00  0.00    -0.070 C 
ATOM     25  C   UNL     1      -3.298  -0.270  -0.346  1.00  0.00     0.010 C 
ENDBRANCH  19  24
ENDBRANCH  16  18
ENDBRANCH  13  16
ENDBRANCH   7  13
ENDBRANCH   3   6
ENDBRANCH   1   2
BRANCH   1  26
ATOM     26  C   UNL     1       7.613   4.400   1.508  1.00  0.00     0.023 C 
BRANCH  26  27
ATOM     27  C   UNL     1       8.869   5.102   2.026  1.00  0.00     0.023 C 
BRANCH  27  28
ATOM     28  C   UNL     1       9.446   6.127   1.059  1.00  0.00     0.116 C 
BRANCH  28  29
ATOM     29  N   UNL     1       8.507   7.186   0.719  1.00  0.00    -0.352 N 
ATOM     30  C   UNL     1       8.776   8.518   0.523  1.00  0.00     0.251 C 
ATOM     31  H   UNL     1       7.566   6.914   0.618  1.00  0.00     0.163 HD
ATOM     32  O   UNL     1       7.873   9.332   0.376  1.00  0.00    -0.269 OA
BRANCH  30  33
ATOM     33  C   UNL     1      10.185   8.954   0.535  1.00  0.00     0.039 A 
ATOM     34  C   UNL     1      10.561   9.996   1.381  1.00  0.00     0.014 A 
ATOM     35  C   UNL     1      11.138   8.265  -0.221  1.00  0.00     0.014 A 
ATOM     36  C   UNL     1      11.913  10.308   1.516  1.00  0.00     0.010 A 
ATOM     37  C   UNL     1      12.488   8.513  -0.010  1.00  0.00     0.010 A 
ATOM     38  C   UNL     1      12.890   9.541   0.856  1.00  0.00    -0.014 A 
BRANCH  38  39
ATOM     39  C   UNL     1      14.336   9.802   1.060  1.00  0.00     0.031 A 
ATOM     40  C   UNL     1      15.196  10.211  -0.103  1.00  0.00     0.074 A 
ATOM     41  C   UNL     1      14.881   9.629   2.280  1.00  0.00     0.049 A 
ATOM     42  N   UNL     1      16.485  10.438  -0.136  1.00  0.00    -0.248 NA
ATOM     43  C   UNL     1      14.530  10.364  -1.408  1.00  0.00     0.031 C 
ATOM     44  C   UNL     1      14.156   9.195   3.475  1.00  0.00     0.029 A 
ATOM     45  N   UNL     1      16.171   9.796   2.720  1.00  0.00    -0.354 N 
ATOM     46  C   UNL     1      16.778  10.757  -1.455  1.00  0.00     0.074 A 
ATOM     47  C   UNL     1      15.551  10.631  -2.208  1.00  0.00     0.031 C 
ATOM     48  C   UNL     1      15.000   9.167   4.518  1.00  0.00     0.029 A 
ATOM     49  C   UNL     1      16.338   9.528   4.058  1.00  0.00     0.049 A 
ATOM     50  H   UNL     1      16.908  10.081   2.132  1.00  0.00     0.167 HD
ATOM     51  C   UNL     1      17.960  11.150  -1.981  1.00  0.00     0.037 A 
ATOM     52  C   UNL     1      17.445   9.559   4.825  1.00  0.00     0.037 A 
ATOM     53  C   UNL     1      19.172  11.297  -1.220  1.00  0.00     0.049 A 
ATOM     54  C   UNL     1      18.755   9.964   4.203  1.00  0.00     0.074 A 
ATOM     55  C   UNL     1      20.408  11.738  -1.657  1.00  0.00     0.029 A 
ATOM     56  N   UNL     1      19.302  11.006   0.129  1.00  0.00    -0.354 N 
ATOM     57  N   UNL     1      19.006  10.324   2.967  1.00  0.00    -0.248 NA
ATOM     58  C   UNL     1      19.936   9.973   5.079  1.00  0.00     0.031 C 
ATOM     59  C   UNL     1      21.304  11.646  -0.591  1.00  0.00     0.029 A 
ATOM     60  C   UNL     1      20.609  11.227   0.532  1.00  0.00     0.049 A 
ATOM     61  H   UNL     1      18.575  10.691   0.713  1.00  0.00     0.167 HD
ATOM     62  C   UNL     1      20.360  10.631   2.925  1.00  0.00     0.074 A 
ATOM     63  C   UNL     1      20.875  10.430   4.263  1.00  0.00     0.031 C 
ATOM     64  C   UNL     1      21.107  11.040   1.871  1.00  0.00     0.037 A 
BRANCH  51  65
ATOM     65  C   UNL     1      18.013  11.475  -3.445  1.00  0.00     0.064 A 
ATOM     66  C   UNL     1      18.785  10.692  -4.318  1.00  0.00     0.173 A 
ATOM     67  C   UNL     1      17.395  12.622  -3.965  1.00  0.00     0.173 A 
ATOM     68  F   UNL     1      19.399   9.586  -3.871  1.00  0.00    -0.203 F 
ATOM     69  C   UNL     1      18.962  11.065  -5.647  1.00  0.00     0.198 A 
ATOM     70  C   UNL     1      17.547  12.973  -5.303  1.00  0.00     0.198 A 
ATOM     71  F   UNL     1      16.635  13.396  -3.176  1.00  0.00    -0.203 F 
ATOM     72  F   UNL     1      19.748  10.331  -6.448  1.00  0.00    -0.200 F 
ATOM     73  C   UNL     1      18.343  12.204  -6.139  1.00  0.00     0.200 A 
ATOM     74  F   UNL     1      16.928  14.061  -5.783  1.00  0.00    -0.200 F 
ATOM     75  F   UNL     1      18.517  12.563  -7.418  1.00  0.00    -0.200 F 
ENDBRANCH  51  65
BRANCH  52  76
ATOM     76  C   UNL     1      17.357   9.213   6.270  1.00  0.00     0.064 A 
ATOM     77  C   UNL     1      17.035   7.914   6.693  1.00  0.00     0.173 A 
ATOM     78  C   UNL     1      17.585  10.179   7.261  1.00  0.00     0.173 A 
ATOM     79  F   UNL     1      16.804   6.951   5.788  1.00  0.00    -0.203 F 
ATOM     80  C   UNL     1      16.926   7.601   8.046  1.00  0.00     0.198 A 
ATOM     81  C   UNL     1      17.512   9.856   8.615  1.00  0.00     0.198 A 
ATOM     82  F   UNL     1      17.915  11.431   6.911  1.00  0.00    -0.203 F 
ATOM     83  F   UNL     1      16.579   6.361   8.419  1.00  0.00    -0.200 F 
ATOM     84  C   UNL     1      17.173   8.570   9.006  1.00  0.00     0.200 A 
ATOM     85  F   UNL     1      17.781  10.788   9.539  1.00  0.00    -0.200 F 
ATOM     86  F   UNL     1      17.091   8.263  10.308  1.00  0.00    -0.200 F 
ENDBRANCH  52  76
BRANCH  64  87
ATOM     87  C   UNL     1      22.560  11.338   2.109  1.00  0.00     0.064 A 
ATOM     88  C   UNL     1      23.043  12.650   1.976  1.00  0.00     0.173 A 
ATOM     89  C   UNL     1      23.489  10.321   2.367  1.00  0.00     0.173 A 
ATOM     90  F   UNL     1      22.198  13.660   1.718  1.00  0.00    -0.203 F 
ATOM     91  C   UNL     1      24.404  12.927   2.066  1.00  0.00     0.198 A 
ATOM     92  C   UNL     1      24.846  10.607   2.494  1.00  0.00     0.198 A 
ATOM     93  F   UNL     1      23.079   9.052   2.513  1.00  0.00    -0.203 F 
ATOM     94  F   UNL     1      24.845  14.179   1.882  1.00  0.00    -0.200 F 
ATOM     95  C   UNL     1      25.303  11.906   2.330  1.00  0.00     0.200 A 
ATOM     96  F   UNL     1      25.712   9.624   2.775  1.00  0.00    -0.200 F 
ATOM     97  F   UNL     1      26.613  12.175   2.424  1.00  0.00    -0.200 F 
ENDBRANCH  64  87
ENDBRANCH  38  39
ENDBRANCH  30  33
ENDBRANCH  28  29
ENDBRANCH  27  28
ENDBRANCH  26  27
ENDBRANCH   1  26
TORSDOF 15
