REMARK SMILES CC(C)[C@H](NC(=O)c1cc2cc(Cl)ccc2n1C)C(=O)N[C@@H](C(=O)NCCCCNC(=O)c1ccc(-c2c3nc(c(-c4c(F)c(F)c(F)c(F)c4F)c4ccc([nH]4)c(-c4c(F)c(F)c(F)c(F)c4F)c4nc(c(-c5c(F)c(F)c(F)c(F)c5F)c5ccc2[nH]5)C=C4)C=C3)cc1)c1ccccc1
REMARK SMILES IDX 26 1 25 2 23 3 24 4 22 6 21 7 19 8 20 9 4 11 2 12 1 13 3 14
REMARK SMILES IDX 5 15 6 16 7 18 8 19 9 20 17 21 10 22 16 23 18 24 11 25 15 26
REMARK SMILES IDX 12 27 14 28 13 29 96 30 97 31 101 32 98 33 100 34 99 35
REMARK SMILES IDX 27 36 28 37 29 38 30 39 31 40 32 42 33 43 34 44 95 45 35 46
REMARK SMILES IDX 94 47 36 48 37 49 38 50 88 51 39 52 93 53 87 54 89 55 40 56
REMARK SMILES IDX 92 57 86 58 85 59 41 61 73 62 53 63 72 64 54 65 57 66 71 67
REMARK SMILES IDX 90 68 55 69 56 70 70 72 91 73 58 74 42 75 43 76 51 77 44 78
REMARK SMILES IDX 45 79 49 80 52 81 46 82 47 83 50 84 48 85 74 86 75 87 83 88
REMARK SMILES IDX 76 89 77 90 81 91 84 92 78 93 79 94 82 95 80 96 59 97 60 98
REMARK SMILES IDX 68 99 61 100 62 101 66 102 69 103 63 104 64 105 67 106
REMARK SMILES IDX 65 107
REMARK H PARENT 25 5 21 10 5 17 30 41 89 60 57 71
REMARK Flexibility Score: inf
ROOT
ATOM      1  C   UNL     1       2.146   3.454   0.938  1.00  0.00     0.116 C 
ENDROOT
BRANCH   1   2
ATOM      2  N   UNL     1       2.147   3.955   2.294  1.00  0.00    -0.354 N 
ATOM      3  C   UNL     1       1.259   3.706   3.308  1.00  0.00     0.247 C 
ATOM      4  O   UNL     1       1.571   4.138   4.421  1.00  0.00    -0.272 OA
ATOM      5  H   UNL     1       2.891   4.559   2.522  1.00  0.00     0.163 HD
BRANCH   3   6
ATOM      6  C   UNL     1      -0.035   2.856   3.045  1.00  0.00     0.202 C 
BRANCH   6   7
ATOM      7  N   UNL     1      -0.831   3.486   1.987  1.00  0.00    -0.339 N 
ATOM      8  C   UNL     1      -1.581   2.983   0.975  1.00  0.00     0.243 C 
ATOM      9  O   UNL     1      -2.125   3.808   0.233  1.00  0.00    -0.273 OA
ATOM     10  H   UNL     1      -0.819   4.470   2.018  1.00  0.00     0.164 HD
BRANCH   8  11
ATOM     11  C   UNL     1      -1.727   1.467   0.666  1.00  0.00     0.174 C 
BRANCH  11  12
ATOM     12  C   UNL     1      -2.542   0.650   1.690  1.00  0.00     0.015 C 
ATOM     13  C   UNL     1      -3.648   1.473   2.373  1.00  0.00     0.010 C 
ATOM     14  C   UNL     1      -3.260  -0.523   1.001  1.00  0.00     0.010 C 
ENDBRANCH  11  12
BRANCH  11  15
ATOM     15  N   UNL     1      -0.408   1.002   0.182  1.00  0.00    -0.339 N 
ATOM     16  C   UNL     1       0.524   0.069   0.527  1.00  0.00     0.268 C 
ATOM     17  H   UNL     1      -0.124   1.509  -0.613  1.00  0.00     0.164 HD
ATOM     18  O   UNL     1       1.663   0.219   0.080  1.00  0.00    -0.268 OA
BRANCH  16  19
ATOM     19  C   UNL     1       0.157  -1.070   1.315  1.00  0.00     0.107 A 
ATOM     20  C   UNL     1       0.418  -1.331   2.647  1.00  0.00     0.042 A 
ATOM     21  N   UNL     1      -0.369  -2.237   0.796  1.00  0.00    -0.340 N 
ATOM     22  C   UNL     1      -0.212  -2.556   2.992  1.00  0.00     0.002 A 
ATOM     23  C   UNL     1      -0.735  -3.095   1.814  1.00  0.00     0.048 A 
ATOM     24  C   UNL     1      -0.480  -2.511  -0.622  1.00  0.00     0.150 C 
ATOM     25  C   UNL     1      -0.387  -3.257   4.202  1.00  0.00     0.030 A 
ATOM     26  C   UNL     1      -1.451  -4.303   1.805  1.00  0.00     0.028 A 
ATOM     27  C   UNL     1      -1.113  -4.451   4.200  1.00  0.00     0.041 A 
ATOM     28  C   UNL     1      -1.643  -4.966   3.022  1.00  0.00     0.023 A 
ATOM     29  Cl  UNL     1      -1.362  -5.296   5.681  1.00  0.00    -0.084 Cl
ENDBRANCH  16  19
ENDBRANCH  11  15
ENDBRANCH   8  11
ENDBRANCH   6   7
BRANCH   6  30
ATOM     30  C   UNL     1      -0.867   2.702   4.314  1.00  0.00    -0.016 A 
ATOM     31  C   UNL     1      -0.948   1.463   4.969  1.00  0.00     0.006 A 
ATOM     32  C   UNL     1      -1.553   3.793   4.875  1.00  0.00     0.006 A 
ATOM     33  C   UNL     1      -1.710   1.310   6.129  1.00  0.00     0.000 A 
ATOM     34  C   UNL     1      -2.311   3.641   6.040  1.00  0.00     0.000 A 
ATOM     35  C   UNL     1      -2.393   2.399   6.663  1.00  0.00     0.000 A 
ENDBRANCH   6  30
ENDBRANCH   3   6
ENDBRANCH   1   2
BRANCH   1  36
ATOM     36  C   UNL     1       1.961   4.564  -0.090  1.00  0.00     0.023 C 
BRANCH  36  37
ATOM     37  C   UNL     1       3.215   5.411  -0.342  1.00  0.00     0.023 C 
BRANCH  37  38
ATOM     38  C   UNL     1       4.427   4.646  -0.894  1.00  0.00     0.116 C 
BRANCH  38  39
ATOM     39  N   UNL     1       4.094   3.778  -2.011  1.00  0.00    -0.352 N 
ATOM     40  C   UNL     1       4.216   3.880  -3.373  1.00  0.00     0.251 C 
ATOM     41  H   UNL     1       3.690   2.926  -1.726  1.00  0.00     0.163 HD
ATOM     42  O   UNL     1       3.921   2.882  -4.034  1.00  0.00    -0.269 OA
BRANCH  40  43
ATOM     43  C   UNL     1       4.687   5.095  -4.096  1.00  0.00     0.039 A 
ATOM     44  C   UNL     1       4.617   6.389  -3.590  1.00  0.00     0.014 A 
ATOM     45  C   UNL     1       5.153   4.923  -5.414  1.00  0.00     0.014 A 
ATOM     46  C   UNL     1       5.019   7.479  -4.365  1.00  0.00     0.010 A 
ATOM     47  C   UNL     1       5.550   6.016  -6.199  1.00  0.00     0.010 A 
ATOM     48  C   UNL     1       5.477   7.307  -5.679  1.00  0.00    -0.014 A 
BRANCH  48  49
ATOM     49  C   UNL     1       5.840   8.523  -6.418  1.00  0.00     0.031 A 
ATOM     50  C   UNL     1       6.960   9.359  -5.903  1.00  0.00     0.074 A 
ATOM     51  C   UNL     1       5.288   8.963  -7.566  1.00  0.00     0.049 A 
ATOM     52  N   UNL     1       6.902  10.564  -5.424  1.00  0.00    -0.248 NA
ATOM     53  C   UNL     1       8.317   8.806  -5.999  1.00  0.00     0.031 C 
ATOM     54  C   UNL     1       4.445   8.234  -8.506  1.00  0.00     0.029 A 
ATOM     55  N   UNL     1       5.435  10.201  -8.148  1.00  0.00    -0.354 N 
ATOM     56  C   UNL     1       8.218  10.969  -5.250  1.00  0.00     0.074 A 
ATOM     57  C   UNL     1       9.056   9.842  -5.596  1.00  0.00     0.031 C 
ATOM     58  C   UNL     1       4.275   8.986  -9.617  1.00  0.00     0.029 A 
ATOM     59  C   UNL     1       4.870  10.300  -9.404  1.00  0.00     0.049 A 
ATOM     60  H   UNL     1       5.900  10.949  -7.708  1.00  0.00     0.167 HD
ATOM     61  C   UNL     1       8.580  12.244  -4.956  1.00  0.00     0.037 A 
ATOM     62  C   UNL     1       4.863  11.369 -10.233  1.00  0.00     0.037 A 
ATOM     63  C   UNL     1       7.498  13.133  -4.665  1.00  0.00     0.049 A 
ATOM     64  C   UNL     1       5.103  12.619  -9.472  1.00  0.00     0.074 A 
ATOM     65  C   UNL     1       6.693  13.413  -3.581  1.00  0.00     0.029 A 
ATOM     66  N   UNL     1       6.989  13.811  -5.744  1.00  0.00    -0.354 N 
ATOM     67  N   UNL     1       4.250  13.167  -8.651  1.00  0.00    -0.248 NA
ATOM     68  C   UNL     1       6.404  13.280  -9.542  1.00  0.00     0.031 C 
ATOM     69  C   UNL     1       5.551  14.092  -4.102  1.00  0.00     0.029 A 
ATOM     70  C   UNL     1       5.680  14.145  -5.488  1.00  0.00     0.049 A 
ATOM     71  H   UNL     1       7.482  14.024  -6.569  1.00  0.00     0.167 HD
ATOM     72  C   UNL     1       5.011  14.003  -7.859  1.00  0.00     0.074 A 
ATOM     73  C   UNL     1       6.264  14.184  -8.569  1.00  0.00     0.031 C 
ATOM     74  C   UNL     1       4.695  14.175  -6.547  1.00  0.00     0.037 A 
BRANCH  61  75
ATOM     75  C   UNL     1       9.942  12.791  -5.223  1.00  0.00     0.064 A 
ATOM     76  C   UNL     1      10.530  13.705  -4.341  1.00  0.00     0.173 A 
ATOM     77  C   UNL     1      10.575  12.612  -6.469  1.00  0.00     0.173 A 
ATOM     78  F   UNL     1       9.953  13.973  -3.159  1.00  0.00    -0.203 F 
ATOM     79  C   UNL     1      11.704  14.385  -4.681  1.00  0.00     0.198 A 
ATOM     80  C   UNL     1      11.760  13.275  -6.794  1.00  0.00     0.198 A 
ATOM     81  F   UNL     1      10.012  11.844  -7.413  1.00  0.00    -0.203 F 
ATOM     82  F   UNL     1      12.222  15.279  -3.830  1.00  0.00    -0.200 F 
ATOM     83  C   UNL     1      12.322  14.167  -5.903  1.00  0.00     0.200 A 
ATOM     84  F   UNL     1      12.334  13.074  -7.989  1.00  0.00    -0.200 F 
ATOM     85  F   UNL     1      13.439  14.834  -6.232  1.00  0.00    -0.200 F 
ENDBRANCH  61  75
BRANCH  62  86
ATOM     86  C   UNL     1       4.655  11.397 -11.699  1.00  0.00     0.064 A 
ATOM     87  C   UNL     1       4.122  12.523 -12.347  1.00  0.00     0.173 A 
ATOM     88  C   UNL     1       5.167  10.380 -12.528  1.00  0.00     0.173 A 
ATOM     89  F   UNL     1       3.670  13.568 -11.639  1.00  0.00    -0.203 F 
ATOM     90  C   UNL     1       4.091  12.617 -13.742  1.00  0.00     0.198 A 
ATOM     91  C   UNL     1       5.117  10.468 -13.920  1.00  0.00     0.198 A 
ATOM     92  F   UNL     1       5.790   9.316 -11.999  1.00  0.00    -0.203 F 
ATOM     93  F   UNL     1       3.620  13.728 -14.323  1.00  0.00    -0.200 F 
ATOM     94  C   UNL     1       4.584  11.588 -14.528  1.00  0.00     0.200 A 
ATOM     95  F   UNL     1       5.634   9.483 -14.668  1.00  0.00    -0.200 F 
ATOM     96  F   UNL     1       4.585  11.695 -15.864  1.00  0.00    -0.200 F 
ENDBRANCH  62  86
BRANCH  74  97
ATOM     97  C   UNL     1       3.251  14.024  -6.185  1.00  0.00     0.064 A 
ATOM     98  C   UNL     1       2.604  12.781  -6.106  1.00  0.00     0.173 A 
ATOM     99  C   UNL     1       2.509  15.166  -5.857  1.00  0.00     0.173 A 
ATOM    100  F   UNL     1       3.276  11.647  -6.351  1.00  0.00    -0.203 F 
ATOM    101  C   UNL     1       1.259  12.694  -5.744  1.00  0.00     0.198 A 
ATOM    102  C   UNL     1       1.171  15.072  -5.474  1.00  0.00     0.198 A 
ATOM    103  F   UNL     1       3.090  16.376  -5.880  1.00  0.00    -0.203 F 
ATOM    104  F   UNL     1       0.655  11.499  -5.678  1.00  0.00    -0.200 F 
ATOM    105  C   UNL     1       0.543  13.838  -5.425  1.00  0.00     0.200 A 
ATOM    106  F   UNL     1       0.494  16.176  -5.130  1.00  0.00    -0.200 F 
ATOM    107  F   UNL     1      -0.741  13.749  -5.047  1.00  0.00    -0.200 F 
ENDBRANCH  74  97
ENDBRANCH  48  49
ENDBRANCH  40  43
ENDBRANCH  38  39
ENDBRANCH  37  38
ENDBRANCH  36  37
ENDBRANCH   1  36
TORSDOF 17
