REMARK SMILES O=C(NCCCCNC(=O)[C@@H]1CCN(c2ncnc3c2CCCCC3)C1)c1ccc(-c2c3nc(c(-c4c(F)c(F)c(F)c(F)c4F)c4ccc([nH]4)c(-c4c(F)c(F)c(F)c(F)c4F)c4nc(c(-c5c(F)c(F)c(F)c(F)c5F)c5ccc2[nH]5)C=C4)C=C3)cc1
REMARK SMILES IDX 7 1 6 2 5 3 4 4 3 5 1 6 2 7 27 9 28 10 89 11 29 12 88 13
REMARK SMILES IDX 30 14 31 15 32 16 82 17 33 18 87 19 81 20 83 21 34 22 86 23
REMARK SMILES IDX 80 24 79 25 35 27 67 28 47 29 66 30 48 31 51 32 65 33 84 34
REMARK SMILES IDX 49 35 50 36 64 38 85 39 52 40 36 41 37 42 45 43 38 44 39 45
REMARK SMILES IDX 43 46 46 47 40 48 41 49 44 50 42 51 68 52 69 53 77 54 70 55
REMARK SMILES IDX 71 56 75 57 78 58 72 59 73 60 76 61 74 62 53 63 54 64 62 65
REMARK SMILES IDX 55 66 56 67 60 68 63 69 57 70 58 71 61 72 59 73 8 74 9 75
REMARK SMILES IDX 10 77 11 78 12 79 26 80 13 81 14 82 15 83 16 84 20 85 17 86
REMARK SMILES IDX 19 87 18 88 21 89 25 91 24 92 23 93 22 94
REMARK H PARENT 3 8 83 26 51 37 8 76
REMARK Flexibility Score: 80.00
ROOT
ATOM      1  C   UNL     1       4.984   3.735  -2.099  1.00  0.00     0.116 C 
ENDROOT
BRANCH   1   2
ATOM      2  C   UNL     1       4.527   2.533  -2.926  1.00  0.00     0.023 C 
BRANCH   2   3
ATOM      3  C   UNL     1       4.995   1.181  -2.379  1.00  0.00     0.023 C 
BRANCH   3   4
ATOM      4  C   UNL     1       4.610   0.908  -0.930  1.00  0.00     0.116 C 
BRANCH   4   5
ATOM      5  N   UNL     1       3.170   0.913  -0.722  1.00  0.00    -0.352 N 
ATOM      6  O   UNL     1       1.162   0.060  -0.142  1.00  0.00    -0.269 OA
ATOM      7  C   UNL     1       2.387  -0.020  -0.090  1.00  0.00     0.251 C 
ATOM      8  H   UNL     1       2.691   1.694  -1.083  1.00  0.00     0.163 HD
BRANCH   7   9
ATOM      9  C   UNL     1       3.023  -1.135   0.640  1.00  0.00     0.039 A 
ATOM     10  C   UNL     1       4.109  -0.896   1.486  1.00  0.00     0.014 A 
ATOM     11  C   UNL     1       2.519  -2.430   0.489  1.00  0.00     0.014 A 
ATOM     12  C   UNL     1       4.768  -1.964   2.077  1.00  0.00     0.010 A 
ATOM     13  C   UNL     1       3.128  -3.494   1.158  1.00  0.00     0.010 A 
ATOM     14  C   UNL     1       4.271  -3.272   1.941  1.00  0.00    -0.014 A 
BRANCH  14  15
ATOM     15  C   UNL     1       4.912  -4.360   2.718  1.00  0.00     0.031 A 
ATOM     16  C   UNL     1       5.642  -5.484   2.047  1.00  0.00     0.074 A 
ATOM     17  C   UNL     1       4.861  -4.291   4.062  1.00  0.00     0.049 A 
ATOM     18  N   UNL     1       6.348  -6.443   2.591  1.00  0.00    -0.248 NA
ATOM     19  C   UNL     1       5.566  -5.550   0.581  1.00  0.00     0.031 C 
ATOM     20  C   UNL     1       4.151  -3.256   4.816  1.00  0.00     0.029 A 
ATOM     21  N   UNL     1       5.434  -5.074   5.030  1.00  0.00    -0.354 N 
ATOM     22  C   UNL     1       6.797  -7.228   1.539  1.00  0.00     0.074 A 
ATOM     23  C   UNL     1       6.250  -6.658   0.326  1.00  0.00     0.031 C 
ATOM     24  C   UNL     1       4.385  -3.427   6.123  1.00  0.00     0.029 A 
ATOM     25  C   UNL     1       5.209  -4.617   6.305  1.00  0.00     0.049 A 
ATOM     26  H   UNL     1       5.955  -5.885   4.830  1.00  0.00     0.167 HD
ATOM     27  C   UNL     1       7.605  -8.315   1.587  1.00  0.00     0.037 A 
ATOM     28  C   UNL     1       5.619  -5.099   7.493  1.00  0.00     0.037 A 
ATOM     29  C   UNL     1       8.141  -8.869   2.804  1.00  0.00     0.049 A 
ATOM     30  C   UNL     1       6.489  -6.320   7.523  1.00  0.00     0.074 A 
ATOM     31  C   UNL     1       9.007  -9.939   2.954  1.00  0.00     0.029 A 
ATOM     32  N   UNL     1       7.850  -8.410   4.082  1.00  0.00    -0.354 N 
ATOM     33  N   UNL     1       6.965  -7.014   6.518  1.00  0.00    -0.248 NA
ATOM     34  C   UNL     1       6.879  -6.828   8.844  1.00  0.00     0.031 C 
ATOM     35  C   UNL     1       9.184 -10.169   4.321  1.00  0.00     0.029 A 
ATOM     36  C   UNL     1       8.488  -9.200   5.026  1.00  0.00     0.049 A 
ATOM     37  H   UNL     1       7.276  -7.637   4.288  1.00  0.00     0.167 HD
ATOM     38  C   UNL     1       7.722  -8.032   7.080  1.00  0.00     0.074 A 
ATOM     39  C   UNL     1       7.652  -7.857   8.517  1.00  0.00     0.031 C 
ATOM     40  C   UNL     1       8.411  -9.018   6.456  1.00  0.00     0.037 A 
BRANCH  27  41
ATOM     41  C   UNL     1       7.951  -8.990   0.289  1.00  0.00     0.064 A 
ATOM     42  C   UNL     1       8.777  -8.378  -0.665  1.00  0.00     0.173 A 
ATOM     43  C   UNL     1       7.495 -10.290   0.020  1.00  0.00     0.173 A 
ATOM     44  F   UNL     1       9.237  -7.134  -0.462  1.00  0.00    -0.203 F 
ATOM     45  C   UNL     1       9.109  -9.028  -1.851  1.00  0.00     0.198 A 
ATOM     46  C   UNL     1       7.857 -10.951  -1.151  1.00  0.00     0.198 A 
ATOM     47  F   UNL     1       6.712 -10.929   0.902  1.00  0.00    -0.203 F 
ATOM     48  F   UNL     1       9.861  -8.403  -2.769  1.00  0.00    -0.200 F 
ATOM     49  C   UNL     1       8.656 -10.317  -2.090  1.00  0.00     0.200 A 
ATOM     50  F   UNL     1       7.433 -12.203  -1.371  1.00  0.00    -0.200 F 
ATOM     51  F   UNL     1       8.985 -10.945  -3.227  1.00  0.00    -0.200 F 
ENDBRANCH  27  41
BRANCH  28  52
ATOM     52  C   UNL     1       5.223  -4.379   8.730  1.00  0.00     0.064 A 
ATOM     53  C   UNL     1       6.158  -3.633   9.457  1.00  0.00     0.173 A 
ATOM     54  C   UNL     1       3.884  -4.337   9.147  1.00  0.00     0.173 A 
ATOM     55  F   UNL     1       7.452  -3.652   9.104  1.00  0.00    -0.203 F 
ATOM     56  C   UNL     1       5.767  -2.861  10.549  1.00  0.00     0.198 A 
ATOM     57  C   UNL     1       3.489  -3.541  10.220  1.00  0.00     0.198 A 
ATOM     58  F   UNL     1       2.949  -5.024   8.474  1.00  0.00    -0.203 F 
ATOM     59  F   UNL     1       6.681  -2.160  11.234  1.00  0.00    -0.200 F 
ATOM     60  C   UNL     1       4.431  -2.804  10.920  1.00  0.00     0.200 A 
ATOM     61  F   UNL     1       2.194  -3.469  10.557  1.00  0.00    -0.200 F 
ATOM     62  F   UNL     1       4.051  -2.032  11.947  1.00  0.00    -0.200 F 
ENDBRANCH  28  52
BRANCH  40  63
ATOM     63  C   UNL     1       9.165  -9.994   7.310  1.00  0.00     0.064 A 
ATOM     64  C   UNL     1       8.505 -10.989   8.045  1.00  0.00     0.173 A 
ATOM     65  C   UNL     1      10.569 -10.007   7.300  1.00  0.00     0.173 A 
ATOM     66  F   UNL     1       7.164 -11.011   8.099  1.00  0.00    -0.203 F 
ATOM     67  C   UNL     1       9.222 -11.962   8.736  1.00  0.00     0.198 A 
ATOM     68  C   UNL     1      11.282 -10.998   7.967  1.00  0.00     0.198 A 
ATOM     69  F   UNL     1      11.248  -9.080   6.607  1.00  0.00    -0.203 F 
ATOM     70  F   UNL     1       8.571 -12.892   9.448  1.00  0.00    -0.200 F 
ATOM     71  C   UNL     1      10.608 -11.975   8.684  1.00  0.00     0.200 A 
ATOM     72  F   UNL     1      12.620 -11.020   7.900  1.00  0.00    -0.200 F 
ATOM     73  F   UNL     1      11.295 -12.932   9.323  1.00  0.00    -0.200 F 
ENDBRANCH  40  63
ENDBRANCH  14  15
ENDBRANCH   7   9
ENDBRANCH   4   5
ENDBRANCH   3   4
ENDBRANCH   2   3
ENDBRANCH   1   2
BRANCH   1  74
ATOM     74  N   UNL     1       6.427   3.886  -2.142  1.00  0.00    -0.356 N 
ATOM     75  C   UNL     1       7.179   4.757  -2.875  1.00  0.00     0.224 C 
ATOM     76  H   UNL     1       6.934   3.275  -1.561  1.00  0.00     0.163 HD
ATOM     77  O   UNL     1       8.404   4.649  -2.842  1.00  0.00    -0.275 OA
BRANCH  75  78
ATOM     78  C   UNL     1       6.480   5.841  -3.659  1.00  0.00     0.099 C 
ATOM     79  C   UNL     1       7.272   6.273  -4.908  1.00  0.00     0.037 C 
ATOM     80  C   UNL     1       6.351   7.105  -2.788  1.00  0.00     0.131 C 
ATOM     81  C   UNL     1       7.800   7.660  -4.569  1.00  0.00     0.119 C 
ATOM     82  N   UNL     1       6.734   8.149  -3.715  1.00  0.00    -0.355 N 
BRANCH  82  83
ATOM     83  C   UNL     1       6.637   9.482  -3.415  1.00  0.00     0.135 A 
ATOM     84  N   UNL     1       7.053   9.900  -2.209  1.00  0.00    -0.219 NA
ATOM     85  C   UNL     1       6.062  10.351  -4.344  1.00  0.00     0.016 A 
ATOM     86  C   UNL     1       6.934  11.210  -1.958  1.00  0.00     0.224 A 
ATOM     87  C   UNL     1       5.968  11.685  -3.968  1.00  0.00     0.049 A 
ATOM     88  N   UNL     1       6.413  12.133  -2.778  1.00  0.00    -0.241 NA
BRANCH  85  89
ATOM     89  C   UNL     1       5.463   9.863  -5.637  1.00  0.00     0.041 CG0
ATOM     90  G   UNL     1       3.938   9.958  -5.630  1.00  0.00     0.000 G0
ENDBRANCH  85  89
BRANCH  87  91
ATOM     91  C   UNL     1       5.294  12.701  -4.855  1.00  0.00     0.057 C 
BRANCH  91  92
ATOM     92  C   UNL     1       3.790  12.452  -4.989  1.00  0.00     0.006 C 
BRANCH  92  93
ATOM     93  C   UNL     1       3.420  11.350  -5.984  1.00  0.00     0.001 C 
BRANCH  93  94
ATOM     94  C   UNL     1       3.938   9.958  -5.630  1.00  0.00     0.005 CG0
ATOM     95  G   UNL     1       5.463   9.863  -5.637  1.00  0.00     0.000 G0
ENDBRANCH  93  94
ENDBRANCH  92  93
ENDBRANCH  91  92
ENDBRANCH  87  91
ENDBRANCH  82  83
ENDBRANCH  75  78
ENDBRANCH   1  74
TORSDOF 12
