REMARK SMILES CC[NH2+][C@]1(C(=O)NCCCCNC(=O)c2ccc(-c3c4nc(c(-c5c(F)c(F)c(F)c(F)c5F)c5ccc([nH]5)c(-c5c(F)c(F)c(F)c(F)c5F)c5nc(c(-c6c(F)c(F)c(F)c(F)c6F)c6ccc3[nH]6)C=C5)C=C4)cc2)CCC[C@H]1CCSc1ccc(Cl)cc1
REMARK SMILES IDX 8 1 7 2 5 3 6 4 4 6 78 7 81 8 79 9 80 10 3 11 2 14 1 15
REMARK SMILES IDX 82 16 83 17 84 18 85 19 86 20 91 21 87 22 90 23 88 24 89 25
REMARK SMILES IDX 9 26 10 27 11 28 12 29 13 30 14 32 15 33 16 34 77 35 17 36
REMARK SMILES IDX 76 37 18 38 19 39 20 40 70 41 21 42 75 43 69 44 71 45 22 46
REMARK SMILES IDX 74 47 68 48 67 49 23 51 55 52 35 53 54 54 36 55 39 56 53 57
REMARK SMILES IDX 72 58 37 59 38 60 52 62 73 63 40 64 24 65 25 66 33 67 26 68
REMARK SMILES IDX 27 69 31 70 34 71 28 72 29 73 32 74 30 75 56 76 57 77 65 78
REMARK SMILES IDX 58 79 59 80 63 81 66 82 60 83 61 84 64 85 62 86 41 87 42 88
REMARK SMILES IDX 50 89 43 90 44 91 48 92 51 93 45 94 46 95 49 96 47 97
REMARK H PARENT 7 5 3 12 3 13 12 31 71 50 39 61
REMARK Flexibility Score: inf
ROOT
ATOM      1  C   UNL     1       2.617  -0.411   1.435  1.00  0.00     0.116 C 
ENDROOT
BRANCH   1   2
ATOM      2  N   UNL     1       1.322   0.176   1.200  1.00  0.00    -0.351 N 
ATOM      3  C   UNL     1       0.223   0.352   1.974  1.00  0.00     0.281 C 
ATOM      4  O   UNL     1      -0.688   0.961   1.391  1.00  0.00    -0.268 OA
ATOM      5  H   UNL     1       1.213   0.521   0.284  1.00  0.00     0.163 HD
BRANCH   3   6
ATOM      6  C   UNL     1       0.061  -0.085   3.483  1.00  0.00     0.178 C 
ATOM      7  C   UNL     1      -1.466   0.088   3.785  1.00  0.00     0.079 C 
ATOM      8  C   UNL     1       0.238  -1.571   3.943  1.00  0.00     0.061 C 
ATOM      9  C   UNL     1      -1.756  -0.673   5.071  1.00  0.00     0.008 C 
ATOM     10  C   UNL     1      -0.597  -1.644   5.245  1.00  0.00     0.011 C 
BRANCH   6  11
ATOM     11  N   UNL     1       0.750   0.922   4.360  1.00  0.00    -0.334 N 
ATOM     12  H   UNL     1       0.822   1.789   3.827  1.00  0.00     0.347 HD
ATOM     13  H   UNL     1       0.174   0.965   5.200  1.00  0.00     0.347 HD
BRANCH  11  14
ATOM     14  C   UNL     1       2.086   0.605   4.850  1.00  0.00     0.257 C 
ATOM     15  C   UNL     1       2.531   1.626   5.890  1.00  0.00     0.071 C 
ENDBRANCH  11  14
ENDBRANCH   6  11
BRANCH   8  16
ATOM     16  C   UNL     1      -0.229  -2.692   2.989  1.00  0.00     0.022 C 
BRANCH  16  17
ATOM     17  C   UNL     1       0.915  -3.430   2.290  1.00  0.00     0.075 C 
BRANCH  17  18
ATOM     18  S   UNL     1       1.949  -4.619   3.241  1.00  0.00    -0.126 SA
BRANCH  18  19
ATOM     19  C   UNL     1       2.994  -3.651   4.322  1.00  0.00     0.007 A 
ATOM     20  C   UNL     1       2.959  -3.960   5.685  1.00  0.00     0.016 A 
ATOM     21  C   UNL     1       3.904  -2.678   3.897  1.00  0.00     0.016 A 
ATOM     22  C   UNL     1       3.754  -3.267   6.606  1.00  0.00     0.021 A 
ATOM     23  C   UNL     1       4.690  -1.962   4.813  1.00  0.00     0.021 A 
ATOM     24  C   UNL     1       4.602  -2.256   6.169  1.00  0.00     0.041 A 
ATOM     25  Cl  UNL     1       5.543  -1.372   7.305  1.00  0.00    -0.084 Cl
ENDBRANCH  18  19
ENDBRANCH  17  18
ENDBRANCH  16  17
ENDBRANCH   8  16
ENDBRANCH   3   6
ENDBRANCH   1   2
BRANCH   1  26
ATOM     26  C   UNL     1       2.938  -1.480   0.373  1.00  0.00     0.023 C 
BRANCH  26  27
ATOM     27  C   UNL     1       4.017  -1.132  -0.632  1.00  0.00     0.023 C 
BRANCH  27  28
ATOM     28  C   UNL     1       5.386  -0.867  -0.027  1.00  0.00     0.116 C 
BRANCH  28  29
ATOM     29  N   UNL     1       6.007  -2.006   0.646  1.00  0.00    -0.352 N 
ATOM     30  C   UNL     1       7.281  -2.518   0.529  1.00  0.00     0.251 C 
ATOM     31  H   UNL     1       5.424  -2.481   1.282  1.00  0.00     0.163 HD
ATOM     32  O   UNL     1       7.634  -3.469   1.221  1.00  0.00    -0.269 OA
BRANCH  30  33
ATOM     33  C   UNL     1       8.187  -1.977  -0.502  1.00  0.00     0.039 A 
ATOM     34  C   UNL     1       8.820  -2.867  -1.372  1.00  0.00     0.014 A 
ATOM     35  C   UNL     1       8.288  -0.604  -0.703  1.00  0.00     0.014 A 
ATOM     36  C   UNL     1       9.438  -2.377  -2.523  1.00  0.00     0.010 A 
ATOM     37  C   UNL     1       8.761  -0.135  -1.919  1.00  0.00     0.010 A 
ATOM     38  C   UNL     1       9.346  -1.013  -2.844  1.00  0.00    -0.014 A 
BRANCH  38  39
ATOM     39  C   UNL     1       9.867  -0.471  -4.126  1.00  0.00     0.031 A 
ATOM     40  C   UNL     1      10.874   0.647  -4.102  1.00  0.00     0.074 A 
ATOM     41  C   UNL     1       9.372  -0.909  -5.301  1.00  0.00     0.049 A 
ATOM     42  N   UNL     1      11.360   1.350  -5.093  1.00  0.00    -0.248 NA
ATOM     43  C   UNL     1      11.356   1.074  -2.777  1.00  0.00     0.031 C 
ATOM     44  C   UNL     1       8.330  -1.925  -5.465  1.00  0.00     0.029 A 
ATOM     45  N   UNL     1       9.679  -0.546  -6.590  1.00  0.00    -0.354 N 
ATOM     46  C   UNL     1      12.160   2.321  -4.506  1.00  0.00     0.074 A 
ATOM     47  C   UNL     1      12.033   2.171  -3.075  1.00  0.00     0.031 C 
ATOM     48  C   UNL     1       8.118  -2.137  -6.774  1.00  0.00     0.029 A 
ATOM     49  C   UNL     1       8.982  -1.247  -7.544  1.00  0.00     0.049 A 
ATOM     50  H   UNL     1      10.337   0.152  -6.809  1.00  0.00     0.167 HD
ATOM     51  C   UNL     1      12.965   3.231  -5.103  1.00  0.00     0.037 A 
ATOM     52  C   UNL     1       9.043  -1.184  -8.887  1.00  0.00     0.037 A 
ATOM     53  C   UNL     1      13.151   3.326  -6.524  1.00  0.00     0.049 A 
ATOM     54  C   UNL     1      10.007  -0.221  -9.528  1.00  0.00     0.074 A 
ATOM     55  C   UNL     1      13.997   4.158  -7.233  1.00  0.00     0.029 A 
ATOM     56  N   UNL     1      12.488   2.539  -7.455  1.00  0.00    -0.354 N 
ATOM     57  N   UNL     1      10.809   0.647  -8.962  1.00  0.00    -0.248 NA
ATOM     58  C   UNL     1      10.085  -0.242 -10.996  1.00  0.00     0.031 C 
ATOM     59  C   UNL     1      13.831   3.890  -8.596  1.00  0.00     0.029 A 
ATOM     60  C   UNL     1      12.911   2.863  -8.732  1.00  0.00     0.049 A 
ATOM     61  H   UNL     1      11.816   1.852  -7.239  1.00  0.00     0.167 HD
ATOM     62  C   UNL     1      11.513   1.248  -9.997  1.00  0.00     0.074 A 
ATOM     63  C   UNL     1      11.050   0.637 -11.226  1.00  0.00     0.031 C 
ATOM     64  C   UNL     1      12.456   2.220  -9.938  1.00  0.00     0.037 A 
BRANCH  51  65
ATOM     65  C   UNL     1      13.723   4.170  -4.210  1.00  0.00     0.064 A 
ATOM     66  C   UNL     1      14.754   3.716  -3.371  1.00  0.00     0.173 A 
ATOM     67  C   UNL     1      13.416   5.538  -4.188  1.00  0.00     0.173 A 
ATOM     68  F   UNL     1      15.075   2.413  -3.340  1.00  0.00    -0.203 F 
ATOM     69  C   UNL     1      15.418   4.588  -2.513  1.00  0.00     0.198 A 
ATOM     70  C   UNL     1      14.107   6.414  -3.354  1.00  0.00     0.198 A 
ATOM     71  F   UNL     1      12.443   6.026  -4.971  1.00  0.00    -0.203 F 
ATOM     72  F   UNL     1      16.349   4.117  -1.672  1.00  0.00    -0.200 F 
ATOM     73  C   UNL     1      15.099   5.937  -2.510  1.00  0.00     0.200 A 
ATOM     74  F   UNL     1      13.806   7.720  -3.359  1.00  0.00    -0.200 F 
ATOM     75  F   UNL     1      15.738   6.775  -1.683  1.00  0.00    -0.200 F 
ENDBRANCH  51  65
BRANCH  52  76
ATOM     76  C   UNL     1       8.218  -2.099  -9.719  1.00  0.00     0.064 A 
ATOM     77  C   UNL     1       8.815  -3.149 -10.434  1.00  0.00     0.173 A 
ATOM     78  C   UNL     1       6.830  -1.943  -9.830  1.00  0.00     0.173 A 
ATOM     79  F   UNL     1      10.143  -3.327 -10.373  1.00  0.00    -0.203 F 
ATOM     80  C   UNL     1       8.060  -3.989 -11.248  1.00  0.00     0.198 A 
ATOM     81  C   UNL     1       6.071  -2.801 -10.625  1.00  0.00     0.198 A 
ATOM     82  F   UNL     1       6.209  -0.961  -9.162  1.00  0.00    -0.203 F 
ATOM     83  F   UNL     1       8.664  -4.951 -11.958  1.00  0.00    -0.200 F 
ATOM     84  C   UNL     1       6.687  -3.817 -11.341  1.00  0.00     0.200 A 
ATOM     85  F   UNL     1       4.743  -2.640 -10.703  1.00  0.00    -0.200 F 
ATOM     86  F   UNL     1       5.961  -4.624 -12.125  1.00  0.00    -0.200 F 
ENDBRANCH  52  76
BRANCH  64  87
ATOM     87  C   UNL     1      13.091   2.639 -11.229  1.00  0.00     0.064 A 
ATOM     88  C   UNL     1      12.399   3.404 -12.179  1.00  0.00     0.173 A 
ATOM     89  C   UNL     1      14.426   2.301 -11.500  1.00  0.00     0.173 A 
ATOM     90  F   UNL     1      11.117   3.740 -11.971  1.00  0.00    -0.203 F 
ATOM     91  C   UNL     1      13.012   3.790 -13.367  1.00  0.00     0.198 A 
ATOM     92  C   UNL     1      15.045   2.715 -12.675  1.00  0.00     0.198 A 
ATOM     93  F   UNL     1      15.133   1.579 -10.618  1.00  0.00    -0.203 F 
ATOM     94  F   UNL     1      12.317   4.479 -14.283  1.00  0.00    -0.200 F 
ATOM     95  C   UNL     1      14.335   3.452 -13.611  1.00  0.00     0.200 A 
ATOM     96  F   UNL     1      16.327   2.398 -12.904  1.00  0.00    -0.200 F 
ATOM     97  F   UNL     1      14.925   3.830 -14.754  1.00  0.00    -0.200 F 
ENDBRANCH  64  87
ENDBRANCH  38  39
ENDBRANCH  30  33
ENDBRANCH  28  29
ENDBRANCH  27  28
ENDBRANCH  26  27
ENDBRANCH   1  26
TORSDOF 17
