REMARK SMILES O=C(NCCCCNC(=O)[C@@]1(Cc2ccnc3ccccc23)C[C@H]2CC[C@@H]1O2)c1ccc(-c2c3nc(c(-c4c(F)c(F)c(F)c(F)c4F)c4ccc([nH]4)c(-c4c(F)c(F)c(F)c(F)c4F)c4nc(c(-c5c(F)c(F)c(F)c(F)c5F)c5ccc2[nH]5)C=C4)C=C3)cc1
REMARK SMILES IDX 5 1 4 2 3 3 1 4 2 5 29 7 30 8 91 9 31 10 90 11 32 12 33 13
REMARK SMILES IDX 34 14 84 15 35 16 89 17 83 18 85 19 36 20 88 21 82 22 81 23
REMARK SMILES IDX 37 25 69 26 49 27 68 28 50 29 53 30 67 31 86 32 51 33 52 34
REMARK SMILES IDX 66 36 87 37 54 38 38 39 39 40 47 41 40 42 41 43 45 44 48 45
REMARK SMILES IDX 42 46 43 47 46 48 44 49 70 50 71 51 79 52 72 53 73 54 77 55
REMARK SMILES IDX 80 56 74 57 75 58 78 59 76 60 55 61 56 62 64 63 57 64 58 65
REMARK SMILES IDX 62 66 65 67 59 68 60 69 63 70 61 71 6 72 7 73 8 74 9 75
REMARK SMILES IDX 10 77 11 78 23 79 27 80 24 81 26 82 28 83 25 84 12 85 13 86
REMARK SMILES IDX 14 87 22 88 15 89 17 90 21 91 16 92 18 93 20 94 19 95
REMARK H PARENT 3 6 85 24 53 35 8 76
REMARK Flexibility Score: inf
ROOT
ATOM      1  C   UNL     1      10.629   2.283   5.731  1.00  0.00     0.023 C 
ENDROOT
BRANCH   1   2
ATOM      2  C   UNL     1      10.815   1.072   6.627  1.00  0.00     0.116 C 
BRANCH   2   3
ATOM      3  N   UNL     1      10.718  -0.189   5.911  1.00  0.00    -0.352 N 
ATOM      4  O   UNL     1      11.211  -2.361   5.510  1.00  0.00    -0.269 OA
ATOM      5  C   UNL     1      11.288  -1.389   6.254  1.00  0.00     0.251 C 
ATOM      6  H   UNL     1      10.182  -0.182   5.085  1.00  0.00     0.163 HD
BRANCH   5   7
ATOM      7  C   UNL     1      12.031  -1.476   7.524  1.00  0.00     0.039 A 
ATOM      8  C   UNL     1      11.441  -1.040   8.713  1.00  0.00     0.014 A 
ATOM      9  C   UNL     1      13.335  -1.972   7.512  1.00  0.00     0.014 A 
ATOM     10  C   UNL     1      12.190  -1.010   9.880  1.00  0.00     0.010 A 
ATOM     11  C   UNL     1      14.064  -2.010   8.701  1.00  0.00     0.010 A 
ATOM     12  C   UNL     1      13.497  -1.523   9.889  1.00  0.00    -0.014 A 
BRANCH  12  13
ATOM     13  C   UNL     1      14.204  -1.670  11.180  1.00  0.00     0.031 A 
ATOM     14  C   UNL     1      15.428  -0.866  11.496  1.00  0.00     0.074 A 
ATOM     15  C   UNL     1      13.718  -2.568  12.058  1.00  0.00     0.049 A 
ATOM     16  N   UNL     1      16.184  -0.912  12.563  1.00  0.00    -0.248 NA
ATOM     17  C   UNL     1      15.869   0.110  10.488  1.00  0.00     0.031 C 
ATOM     18  C   UNL     1      12.543  -3.414  11.830  1.00  0.00     0.029 A 
ATOM     19  N   UNL     1      14.145  -2.924  13.310  1.00  0.00    -0.354 N 
ATOM     20  C   UNL     1      17.201   0.008  12.348  1.00  0.00     0.074 A 
ATOM     21  C   UNL     1      16.972   0.595  11.045  1.00  0.00     0.031 C 
ATOM     22  C   UNL     1      12.333  -4.178  12.910  1.00  0.00     0.029 A 
ATOM     23  C   UNL     1      13.392  -3.922  13.878  1.00  0.00     0.049 A 
ATOM     24  H   UNL     1      14.915  -2.507  13.758  1.00  0.00     0.167 HD
ATOM     25  C   UNL     1      18.226   0.324  13.174  1.00  0.00     0.037 A 
ATOM     26  C   UNL     1      13.558  -4.587  15.034  1.00  0.00     0.037 A 
ATOM     27  C   UNL     1      18.420  -0.251  14.480  1.00  0.00     0.049 A 
ATOM     28  C   UNL     1      14.720  -4.226  15.912  1.00  0.00     0.074 A 
ATOM     29  C   UNL     1      19.372   0.071  15.432  1.00  0.00     0.029 A 
ATOM     30  N   UNL     1      17.654  -1.278  15.013  1.00  0.00    -0.354 N 
ATOM     31  N   UNL     1      15.636  -3.307  15.728  1.00  0.00    -0.248 NA
ATOM     32  C   UNL     1      14.880  -5.000  17.148  1.00  0.00     0.031 C 
ATOM     33  C   UNL     1      19.215  -0.796  16.518  1.00  0.00     0.029 A 
ATOM     34  C   UNL     1      18.139  -1.630  16.262  1.00  0.00     0.049 A 
ATOM     35  H   UNL     1      16.880  -1.694  14.569  1.00  0.00     0.167 HD
ATOM     36  C   UNL     1      16.482  -3.391  16.822  1.00  0.00     0.074 A 
ATOM     37  C   UNL     1      15.951  -4.430  17.682  1.00  0.00     0.031 C 
ATOM     38  C   UNL     1      17.604  -2.680  17.088  1.00  0.00     0.037 A 
BRANCH  25  39
ATOM     39  C   UNL     1      19.236   1.327  12.702  1.00  0.00     0.064 A 
ATOM     40  C   UNL     1      18.957   2.700  12.676  1.00  0.00     0.173 A 
ATOM     41  C   UNL     1      20.537   0.913  12.371  1.00  0.00     0.173 A 
ATOM     42  F   UNL     1      17.727   3.144  12.976  1.00  0.00    -0.203 F 
ATOM     43  C   UNL     1      19.942   3.624  12.333  1.00  0.00     0.198 A 
ATOM     44  C   UNL     1      21.524   1.841  12.049  1.00  0.00     0.198 A 
ATOM     45  F   UNL     1      20.855  -0.390  12.387  1.00  0.00    -0.203 F 
ATOM     46  F   UNL     1      19.650   4.931  12.301  1.00  0.00    -0.200 F 
ATOM     47  C   UNL     1      21.226   3.195  12.031  1.00  0.00     0.200 A 
ATOM     48  F   UNL     1      22.767   1.424  11.768  1.00  0.00    -0.200 F 
ATOM     49  F   UNL     1      22.178   4.087  11.722  1.00  0.00    -0.200 F 
ENDBRANCH  25  39
BRANCH  26  50
ATOM     50  C   UNL     1      12.627  -5.685  15.395  1.00  0.00     0.064 A 
ATOM     51  C   UNL     1      11.740  -5.559  16.472  1.00  0.00     0.173 A 
ATOM     52  C   UNL     1      12.599  -6.881  14.661  1.00  0.00     0.173 A 
ATOM     53  F   UNL     1      11.742  -4.441  17.213  1.00  0.00    -0.203 F 
ATOM     54  C   UNL     1      10.872  -6.594  16.811  1.00  0.00     0.198 A 
ATOM     55  C   UNL     1      11.710  -7.902  14.982  1.00  0.00     0.198 A 
ATOM     56  F   UNL     1      13.424  -7.047  13.616  1.00  0.00    -0.203 F 
ATOM     57  F   UNL     1      10.063  -6.466  17.872  1.00  0.00    -0.200 F 
ATOM     58  C   UNL     1      10.853  -7.762  16.062  1.00  0.00     0.200 A 
ATOM     59  F   UNL     1      11.682  -9.020  14.244  1.00  0.00    -0.200 F 
ATOM     60  F   UNL     1      10.013  -8.754  16.386  1.00  0.00    -0.200 F 
ENDBRANCH  26  50
BRANCH  38  61
ATOM     61  C   UNL     1      18.330  -3.016  18.355  1.00  0.00     0.064 A 
ATOM     62  C   UNL     1      19.083  -4.194  18.468  1.00  0.00     0.173 A 
ATOM     63  C   UNL     1      18.295  -2.145  19.453  1.00  0.00     0.173 A 
ATOM     64  F   UNL     1      19.128  -5.066  17.450  1.00  0.00    -0.203 F 
ATOM     65  C   UNL     1      19.759  -4.497  19.645  1.00  0.00     0.198 A 
ATOM     66  C   UNL     1      18.994  -2.439  20.619  1.00  0.00     0.198 A 
ATOM     67  F   UNL     1      17.590  -1.006  19.390  1.00  0.00    -0.203 F 
ATOM     68  F   UNL     1      20.436  -5.649  19.749  1.00  0.00    -0.200 F 
ATOM     69  C   UNL     1      19.720  -3.617  20.717  1.00  0.00     0.200 A 
ATOM     70  F   UNL     1      18.963  -1.584  21.651  1.00  0.00    -0.200 F 
ATOM     71  F   UNL     1      20.375  -3.909  21.849  1.00  0.00    -0.200 F 
ENDBRANCH  38  61
ENDBRANCH  12  13
ENDBRANCH   5   7
ENDBRANCH   2   3
ENDBRANCH   1   2
BRANCH   1  72
ATOM     72  C   UNL     1       9.299   2.312   4.975  1.00  0.00     0.023 C 
BRANCH  72  73
ATOM     73  C   UNL     1       8.046   2.402   5.861  1.00  0.00     0.116 C 
BRANCH  73  74
ATOM     74  N   UNL     1       7.930   3.725   6.441  1.00  0.00    -0.356 N 
ATOM     75  C   UNL     1       7.463   4.895   5.924  1.00  0.00     0.229 C 
ATOM     76  H   UNL     1       8.244   3.788   7.371  1.00  0.00     0.163 HD
ATOM     77  O   UNL     1       7.896   5.907   6.480  1.00  0.00    -0.274 OA
BRANCH  75  78
ATOM     78  C   UNL     1       6.468   4.970   4.747  1.00  0.00     0.082 C 
ATOM     79  C   UNL     1       5.090   4.367   5.103  1.00  0.00     0.052 C 
ATOM     80  C   UNL     1       6.047   6.445   4.493  1.00  0.00     0.134 C 
ATOM     81  C   UNL     1       4.114   5.508   4.766  1.00  0.00     0.120 C 
ATOM     82  C   UNL     1       5.452   7.222   5.677  1.00  0.00     0.036 C 
ATOM     83  O   UNL     1       4.822   6.234   3.742  1.00  0.00    -0.374 OA
ATOM     84  C   UNL     1       4.096   6.552   5.873  1.00  0.00     0.035 C 
BRANCH  78  85
ATOM     85  C   UNL     1       7.103   4.341   3.458  1.00  0.00     0.056 C 
BRANCH  85  86
ATOM     86  C   UNL     1       6.347   4.312   2.140  1.00  0.00    -0.036 A 
ATOM     87  C   UNL     1       5.560   3.188   1.848  1.00  0.00     0.024 A 
ATOM     88  C   UNL     1       6.392   5.368   1.197  1.00  0.00     0.003 A 
ATOM     89  C   UNL     1       4.813   3.176   0.687  1.00  0.00     0.112 A 
ATOM     90  C   UNL     1       5.539   5.275   0.073  1.00  0.00     0.070 A 
ATOM     91  C   UNL     1       7.225   6.506   1.319  1.00  0.00     0.010 A 
ATOM     92  N   UNL     1       4.776   4.199  -0.185  1.00  0.00    -0.256 NA
ATOM     93  C   UNL     1       5.478   6.343  -0.810  1.00  0.00     0.029 A 
ATOM     94  C   UNL     1       7.146   7.564   0.418  1.00  0.00     0.001 A 
ATOM     95  C   UNL     1       6.255   7.491  -0.640  1.00  0.00     0.002 A 
ENDBRANCH  85  86
ENDBRANCH  78  85
ENDBRANCH  75  78
ENDBRANCH  73  74
ENDBRANCH  72  73
ENDBRANCH   1  72
TORSDOF 13
