REMARK SMILES CC(=O)N[C@@H](CSCc1ccnc2ccccc12)C(=O)NCCCCNC(=O)c1ccc(-c2c3nc(c(-c4c(F)c(F)c(F)c(F)c4F)c4ccc([nH]4)c(-c4c(F)c(F)c(F)c(F)c4F)c4nc(c(-c5c(F)c(F)c(F)c(F)c5F)c5ccc2[nH]5)C=C4)C=C3)cc1
REMARK SMILES IDX 22 1 21 2 19 3 20 4 5 6 4 7 1 8 2 9 3 10 6 12 7 13 8 14 9 15
REMARK SMILES IDX 10 16 18 17 11 18 13 19 17 20 12 21 14 22 16 23 15 24 23 25
REMARK SMILES IDX 24 26 25 27 26 28 27 29 28 31 29 32 30 33 91 34 31 35 90 36
REMARK SMILES IDX 32 37 33 38 34 39 84 40 35 41 89 42 83 43 85 44 36 45 88 46
REMARK SMILES IDX 82 47 81 48 37 50 69 51 49 52 68 53 50 54 53 55 67 56 86 57
REMARK SMILES IDX 51 58 52 59 66 61 87 62 54 63 38 64 39 65 47 66 40 67 41 68
REMARK SMILES IDX 45 69 48 70 42 71 43 72 46 73 44 74 70 75 71 76 79 77 72 78
REMARK SMILES IDX 73 79 77 80 80 81 74 82 75 83 78 84 76 85 55 86 56 87 64 88
REMARK SMILES IDX 57 89 58 90 62 91 65 92 59 93 60 94 63 95 61 96
REMARK H PARENT 21 5 4 11 26 30 85 49 53 60
REMARK Flexibility Score: inf
ROOT
ATOM      1  C   UNL     1       0.246   4.264   3.657  1.00  0.00     0.116 C 
ENDROOT
BRANCH   1   2
ATOM      2  N   UNL     1       0.206   2.995   4.339  1.00  0.00    -0.354 N 
ATOM      3  C   UNL     1       0.856   1.838   4.018  1.00  0.00     0.243 C 
ATOM      4  O   UNL     1       0.909   0.955   4.878  1.00  0.00    -0.273 OA
ATOM      5  H   UNL     1      -0.365   2.958   5.140  1.00  0.00     0.163 HD
BRANCH   3   6
ATOM      6  C   UNL     1       1.530   1.633   2.644  1.00  0.00     0.181 C 
BRANCH   6   7
ATOM      7  N   UNL     1       0.568   1.856   1.565  1.00  0.00    -0.344 N 
ATOM      8  C   UNL     1       0.573  -0.432   0.613  1.00  0.00     0.114 C 
ATOM      9  C   UNL     1       0.027   0.965   0.689  1.00  0.00     0.217 C 
ATOM     10  O   UNL     1      -0.904   1.339  -0.021  1.00  0.00    -0.275 OA
ATOM     11  H   UNL     1       0.266   2.787   1.456  1.00  0.00     0.164 HD
ENDBRANCH   6   7
BRANCH   6  12
ATOM     12  C   UNL     1       2.940   2.267   2.488  1.00  0.00     0.105 C 
BRANCH  12  13
ATOM     13  S   UNL     1       3.354   4.041   2.140  1.00  0.00    -0.154 SA
BRANCH  13  14
ATOM     14  C   UNL     1       2.300   4.520   0.731  1.00  0.00     0.105 C 
BRANCH  14  15
ATOM     15  C   UNL     1       2.995   4.657  -0.600  1.00  0.00    -0.027 A 
ATOM     16  C   UNL     1       3.280   5.942  -1.079  1.00  0.00     0.025 A 
ATOM     17  C   UNL     1       3.294   3.545  -1.428  1.00  0.00     0.004 A 
ATOM     18  C   UNL     1       3.836   6.074  -2.336  1.00  0.00     0.112 A 
ATOM     19  C   UNL     1       3.886   3.794  -2.685  1.00  0.00     0.070 A 
ATOM     20  C   UNL     1       3.015   2.208  -1.076  1.00  0.00     0.010 A 
ATOM     21  N   UNL     1       4.146   5.033  -3.133  1.00  0.00    -0.256 NA
ATOM     22  C   UNL     1       4.202   2.713  -3.500  1.00  0.00     0.029 A 
ATOM     23  C   UNL     1       3.350   1.139  -1.899  1.00  0.00     0.001 A 
ATOM     24  C   UNL     1       3.952   1.393  -3.117  1.00  0.00     0.002 A 
ENDBRANCH  14  15
ENDBRANCH  13  14
ENDBRANCH  12  13
ENDBRANCH   6  12
ENDBRANCH   3   6
ENDBRANCH   1   2
BRANCH   1  25
ATOM     25  C   UNL     1      -1.109   4.773   3.195  1.00  0.00     0.023 C 
BRANCH  25  26
ATOM     26  C   UNL     1      -1.976   5.354   4.301  1.00  0.00     0.023 C 
BRANCH  26  27
ATOM     27  C   UNL     1      -1.289   6.390   5.180  1.00  0.00     0.116 C 
BRANCH  27  28
ATOM     28  N   UNL     1      -0.722   7.515   4.446  1.00  0.00    -0.352 N 
ATOM     29  C   UNL     1      -0.692   8.837   4.829  1.00  0.00     0.251 C 
ATOM     30  H   UNL     1      -0.314   7.305   3.575  1.00  0.00     0.163 HD
ATOM     31  O   UNL     1      -0.247   9.705   4.087  1.00  0.00    -0.269 OA
BRANCH  29  32
ATOM     32  C   UNL     1      -1.262   9.191   6.143  1.00  0.00     0.039 A 
ATOM     33  C   UNL     1      -2.309  10.111   6.199  1.00  0.00     0.014 A 
ATOM     34  C   UNL     1      -0.848   8.503   7.286  1.00  0.00     0.014 A 
ATOM     35  C   UNL     1      -3.006  10.277   7.396  1.00  0.00     0.010 A 
ATOM     36  C   UNL     1      -1.597   8.606   8.450  1.00  0.00     0.010 A 
ATOM     37  C   UNL     1      -2.688   9.488   8.515  1.00  0.00    -0.014 A 
BRANCH  37  38
ATOM     38  C   UNL     1      -3.486   9.561   9.763  1.00  0.00     0.031 A 
ATOM     39  C   UNL     1      -2.835  10.012  11.040  1.00  0.00     0.074 A 
ATOM     40  C   UNL     1      -4.765   9.139   9.767  1.00  0.00     0.049 A 
ATOM     41  N   UNL     1      -3.329  10.059  12.250  1.00  0.00    -0.248 NA
ATOM     42  C   UNL     1      -1.427  10.430  10.949  1.00  0.00     0.031 C 
ATOM     43  C   UNL     1      -5.489   8.615   8.608  1.00  0.00     0.029 A 
ATOM     44  N   UNL     1      -5.681   9.070  10.788  1.00  0.00    -0.354 N 
ATOM     45  C   UNL     1      -2.289  10.487  13.063  1.00  0.00     0.074 A 
ATOM     46  C   UNL     1      -1.123  10.631  12.222  1.00  0.00     0.031 C 
ATOM     47  C   UNL     1      -6.742   8.301   8.976  1.00  0.00     0.029 A 
ATOM     48  C   UNL     1      -6.901   8.570  10.402  1.00  0.00     0.049 A 
ATOM     49  H   UNL     1      -5.482   9.353  11.710  1.00  0.00     0.167 HD
ATOM     50  C   UNL     1      -2.313  10.761  14.389  1.00  0.00     0.037 A 
ATOM     51  C   UNL     1      -8.019   8.352  11.120  1.00  0.00     0.037 A 
ATOM     52  C   UNL     1      -3.486  10.657  15.214  1.00  0.00     0.049 A 
ATOM     53  C   UNL     1      -8.028   8.693  12.585  1.00  0.00     0.074 A 
ATOM     54  C   UNL     1      -3.634  10.988  16.549  1.00  0.00     0.029 A 
ATOM     55  N   UNL     1      -4.716  10.187  14.779  1.00  0.00    -0.354 N 
ATOM     56  N   UNL     1      -7.061   9.173  13.329  1.00  0.00    -0.248 NA
ATOM     57  C   UNL     1      -9.287   8.470  13.309  1.00  0.00     0.031 C 
ATOM     58  C   UNL     1      -4.944  10.683  16.932  1.00  0.00     0.029 A 
ATOM     59  C   UNL     1      -5.624  10.202  15.824  1.00  0.00     0.049 A 
ATOM     60  H   UNL     1      -4.914   9.886  13.862  1.00  0.00     0.167 HD
ATOM     61  C   UNL     1      -7.599   9.333  14.598  1.00  0.00     0.074 A 
ATOM     62  C   UNL     1      -8.982   8.913  14.522  1.00  0.00     0.031 C 
ATOM     63  C   UNL     1      -7.000   9.787  15.726  1.00  0.00     0.037 A 
BRANCH  50  64
ATOM     64  C   UNL     1      -1.029  11.210  15.023  1.00  0.00     0.064 A 
ATOM     65  C   UNL     1      -0.472  12.468  14.744  1.00  0.00     0.173 A 
ATOM     66  C   UNL     1      -0.358  10.382  15.935  1.00  0.00     0.173 A 
ATOM     67  F   UNL     1      -1.068  13.290  13.867  1.00  0.00    -0.203 F 
ATOM     68  C   UNL     1       0.726  12.866  15.329  1.00  0.00     0.198 A 
ATOM     69  C   UNL     1       0.824  10.797  16.542  1.00  0.00     0.198 A 
ATOM     70  F   UNL     1      -0.850   9.172  16.239  1.00  0.00    -0.203 F 
ATOM     71  F   UNL     1       1.267  14.049  15.005  1.00  0.00    -0.200 F 
ATOM     72  C   UNL     1       1.370  12.034  16.232  1.00  0.00     0.200 A 
ATOM     73  F   UNL     1       1.440   9.996  17.422  1.00  0.00    -0.200 F 
ATOM     74  F   UNL     1       2.522  12.420  16.798  1.00  0.00    -0.200 F 
ENDBRANCH  50  64
BRANCH  51  75
ATOM     75  C   UNL     1      -9.234   7.815  10.455  1.00  0.00     0.064 A 
ATOM     76  C   UNL     1     -10.357   8.629  10.247  1.00  0.00     0.173 A 
ATOM     77  C   UNL     1      -9.300   6.486  10.015  1.00  0.00     0.173 A 
ATOM     78  F   UNL     1     -10.348   9.901  10.670  1.00  0.00    -0.203 F 
ATOM     79  C   UNL     1     -11.506   8.128   9.640  1.00  0.00     0.198 A 
ATOM     80  C   UNL     1     -10.441   5.993   9.385  1.00  0.00     0.198 A 
ATOM     81  F   UNL     1      -8.251   5.668  10.185  1.00  0.00    -0.203 F 
ATOM     82  F   UNL     1     -12.579   8.916   9.491  1.00  0.00    -0.200 F 
ATOM     83  C   UNL     1     -11.546   6.812   9.204  1.00  0.00     0.200 A 
ATOM     84  F   UNL     1     -10.472   4.725   8.953  1.00  0.00    -0.200 F 
ATOM     85  F   UNL     1     -12.650   6.332   8.616  1.00  0.00    -0.200 F 
ENDBRANCH  51  75
BRANCH  63  86
ATOM     86  C   UNL     1      -7.845   9.883  16.962  1.00  0.00     0.064 A 
ATOM     87  C   UNL     1      -8.241   8.740  17.671  1.00  0.00     0.173 A 
ATOM     88  C   UNL     1      -8.224  11.136  17.466  1.00  0.00     0.173 A 
ATOM     89  F   UNL     1      -7.916   7.519  17.220  1.00  0.00    -0.203 F 
ATOM     90  C   UNL     1      -9.005   8.848  18.830  1.00  0.00     0.198 A 
ATOM     91  C   UNL     1      -8.964  11.241  18.640  1.00  0.00     0.198 A 
ATOM     92  F   UNL     1      -7.864  12.259  16.827  1.00  0.00    -0.203 F 
ATOM     93  F   UNL     1      -9.408   7.741  19.469  1.00  0.00    -0.200 F 
ATOM     94  C   UNL     1      -9.359  10.097  19.317  1.00  0.00     0.200 A 
ATOM     95  F   UNL     1      -9.295  12.449  19.116  1.00  0.00    -0.200 F 
ATOM     96  F   UNL     1     -10.088  10.199  20.438  1.00  0.00    -0.200 F 
ENDBRANCH  63  86
ENDBRANCH  37  38
ENDBRANCH  29  32
ENDBRANCH  27  28
ENDBRANCH  26  27
ENDBRANCH  25  26
ENDBRANCH   1  25
TORSDOF 16
