REMARK SMILES O=C(NCCCCNC(=O)[C@H]1Cc2c([nH]c3ccccc23)[C@H](c2c[nH]c3ccccc23)[NH2+]1)c1ccc(-c2c3nc(c(-c4c(F)c(F)c(F)c(F)c4F)c4ccc([nH]4)c(-c4c(F)c(F)c(F)c(F)c4F)c4nc(c(-c5c(F)c(F)c(F)c(F)c5F)c5ccc2[nH]5)C=C4)C=C3)cc1
REMARK SMILES IDX 5 1 4 2 3 3 1 4 2 5 33 7 34 8 95 9 35 10 94 11 36 12 37 13
REMARK SMILES IDX 38 14 88 15 39 16 93 17 87 18 89 19 40 20 92 21 86 22 85 23
REMARK SMILES IDX 41 25 73 26 53 27 72 28 54 29 57 30 71 31 90 32 55 33 56 34
REMARK SMILES IDX 70 36 91 37 58 38 42 39 43 40 51 41 44 42 45 43 49 44 52 45
REMARK SMILES IDX 46 46 47 47 50 48 48 49 74 50 75 51 83 52 76 53 77 54 81 55
REMARK SMILES IDX 84 56 78 57 79 58 82 59 80 60 59 61 60 62 68 63 61 64 62 65
REMARK SMILES IDX 66 66 69 67 63 68 64 69 67 70 65 71 6 72 7 73 8 74 9 75
REMARK SMILES IDX 10 77 11 78 12 79 32 80 13 81 22 82 14 85 21 86 15 87 16 88
REMARK SMILES IDX 20 89 17 91 19 92 18 93 23 94 24 95 31 96 25 97 26 98 30 99
REMARK SMILES IDX 27 101 29 102 28 103
REMARK H PARENT 3 6 89 24 57 35 8 76 32 83 32 84 15 90 25 100
REMARK Flexibility Score: inf
ROOT
ATOM      1  C   UNL     1       4.983  -0.294  -2.445  1.00  0.00     0.023 C 
ENDROOT
BRANCH   1   2
ATOM      2  C   UNL     1       4.562   0.398  -1.164  1.00  0.00     0.116 C 
BRANCH   2   3
ATOM      3  N   UNL     1       3.116   0.475  -1.001  1.00  0.00    -0.352 N 
ATOM      4  O   UNL     1       1.119   0.109  -0.003  1.00  0.00    -0.269 OA
ATOM      5  C   UNL     1       2.344   0.091   0.071  1.00  0.00     0.251 C 
ATOM      6  H   UNL     1       2.623   0.855  -1.764  1.00  0.00     0.163 HD
BRANCH   5   7
ATOM      7  C   UNL     1       3.007  -0.381   1.305  1.00  0.00     0.039 A 
ATOM      8  C   UNL     1       4.122   0.294   1.801  1.00  0.00     0.014 A 
ATOM      9  C   UNL     1       2.543  -1.536   1.941  1.00  0.00     0.014 A 
ATOM     10  C   UNL     1       4.887  -0.291   2.797  1.00  0.00     0.010 A 
ATOM     11  C   UNL     1       3.249  -2.059   3.029  1.00  0.00     0.010 A 
ATOM     12  C   UNL     1       4.452  -1.464   3.437  1.00  0.00    -0.014 A 
BRANCH  12  13
ATOM     13  C   UNL     1       5.262  -1.993   4.563  1.00  0.00     0.031 A 
ATOM     14  C   UNL     1       5.927  -3.338   4.491  1.00  0.00     0.074 A 
ATOM     15  C   UNL     1       5.458  -1.193   5.630  1.00  0.00     0.049 A 
ATOM     16  N   UNL     1       6.719  -3.910   5.365  1.00  0.00    -0.248 NA
ATOM     17  C   UNL     1       5.669  -4.155   3.296  1.00  0.00     0.031 C 
ATOM     18  C   UNL     1       4.847   0.127   5.811  1.00  0.00     0.029 A 
ATOM     19  N   UNL     1       6.254  -1.343   6.735  1.00  0.00    -0.354 N 
ATOM     20  C   UNL     1       7.035  -5.155   4.838  1.00  0.00     0.074 A 
ATOM     21  C   UNL     1       6.334  -5.268   3.576  1.00  0.00     0.031 C 
ATOM     22  C   UNL     1       5.348   0.697   6.914  1.00  0.00     0.029 A 
ATOM     23  C   UNL     1       6.258  -0.243   7.557  1.00  0.00     0.049 A 
ATOM     24  H   UNL     1       6.771  -2.160   6.921  1.00  0.00     0.167 HD
ATOM     25  C   UNL     1       7.842  -6.111   5.360  1.00  0.00     0.037 A 
ATOM     26  C   UNL     1       6.914  -0.016   8.708  1.00  0.00     0.037 A 
ATOM     27  C   UNL     1       8.552  -5.982   6.607  1.00  0.00     0.049 A 
ATOM     28  C   UNL     1       7.818  -1.084   9.248  1.00  0.00     0.074 A 
ATOM     29  C   UNL     1       9.389  -6.896   7.225  1.00  0.00     0.029 A 
ATOM     30  N   UNL     1       8.516  -4.860   7.423  1.00  0.00    -0.354 N 
ATOM     31  N   UNL     1       8.098  -2.260   8.741  1.00  0.00    -0.248 NA
ATOM     32  C   UNL     1       8.489  -0.799  10.521  1.00  0.00     0.031 C 
ATOM     33  C   UNL     1       9.837  -6.338   8.428  1.00  0.00     0.029 A 
ATOM     34  C   UNL     1       9.311  -5.062   8.541  1.00  0.00     0.049 A 
ATOM     35  H   UNL     1       8.001  -4.042   7.236  1.00  0.00     0.167 HD
ATOM     36  C   UNL     1       8.973  -2.858   9.633  1.00  0.00     0.074 A 
ATOM     37  C   UNL     1       9.208  -1.899  10.694  1.00  0.00     0.031 C 
ATOM     38  C   UNL     1       9.521  -4.096   9.588  1.00  0.00     0.037 A 
BRANCH  25  39
ATOM     39  C   UNL     1       7.997  -7.391   4.591  1.00  0.00     0.064 A 
ATOM     40  C   UNL     1       8.767  -7.456   3.420  1.00  0.00     0.173 A 
ATOM     41  C   UNL     1       7.419  -8.579   5.063  1.00  0.00     0.173 A 
ATOM     42  F   UNL     1       9.330  -6.345   2.921  1.00  0.00    -0.203 F 
ATOM     43  C   UNL     1       8.940  -8.661   2.743  1.00  0.00     0.198 A 
ATOM     44  C   UNL     1       7.613  -9.786   4.396  1.00  0.00     0.198 A 
ATOM     45  F   UNL     1       6.678  -8.573   6.181  1.00  0.00    -0.203 F 
ATOM     46  F   UNL     1       9.654  -8.693   1.609  1.00  0.00    -0.200 F 
ATOM     47  C   UNL     1       8.370  -9.825   3.235  1.00  0.00     0.200 A 
ATOM     48  F   UNL     1       7.071 -10.913   4.879  1.00  0.00    -0.200 F 
ATOM     49  F   UNL     1       8.548 -10.986   2.588  1.00  0.00    -0.200 F 
ENDBRANCH  25  39
BRANCH  26  50
ATOM     50  C   UNL     1       6.725   1.273   9.419  1.00  0.00     0.064 A 
ATOM     51  C   UNL     1       7.759   2.215   9.499  1.00  0.00     0.173 A 
ATOM     52  C   UNL     1       5.494   1.600  10.008  1.00  0.00     0.173 A 
ATOM     53  F   UNL     1       8.959   1.940   8.966  1.00  0.00    -0.203 F 
ATOM     54  C   UNL     1       7.573   3.431  10.153  1.00  0.00     0.198 A 
ATOM     55  C   UNL     1       5.300   2.829  10.632  1.00  0.00     0.198 A 
ATOM     56  F   UNL     1       4.471   0.735   9.949  1.00  0.00    -0.203 F 
ATOM     57  F   UNL     1       8.588   4.300  10.248  1.00  0.00    -0.200 F 
ATOM     58  C   UNL     1       6.341   3.740  10.711  1.00  0.00     0.200 A 
ATOM     59  F   UNL     1       4.102   3.131  11.152  1.00  0.00    -0.200 F 
ATOM     60  F   UNL     1       6.159   4.916  11.327  1.00  0.00    -0.200 F 
ENDBRANCH  26  50
BRANCH  38  61
ATOM     61  C   UNL     1      10.426  -4.471  10.722  1.00  0.00     0.064 A 
ATOM     62  C   UNL     1       9.914  -4.769  11.993  1.00  0.00     0.173 A 
ATOM     63  C   UNL     1      11.814  -4.537  10.535  1.00  0.00     0.173 A 
ATOM     64  F   UNL     1       8.594  -4.700  12.222  1.00  0.00    -0.203 F 
ATOM     65  C   UNL     1      10.764  -5.091  13.047  1.00  0.00     0.198 A 
ATOM     66  C   UNL     1      12.659  -4.883  11.585  1.00  0.00     0.198 A 
ATOM     67  F   UNL     1      12.349  -4.263   9.336  1.00  0.00    -0.203 F 
ATOM     68  F   UNL     1      10.259  -5.322  14.266  1.00  0.00    -0.200 F 
ATOM     69  C   UNL     1      12.135  -5.152  12.841  1.00  0.00     0.200 A 
ATOM     70  F   UNL     1      13.982  -4.947  11.384  1.00  0.00    -0.200 F 
ATOM     71  F   UNL     1      12.952  -5.457  13.858  1.00  0.00    -0.200 F 
ENDBRANCH  38  61
ENDBRANCH  12  13
ENDBRANCH   5   7
ENDBRANCH   2   3
ENDBRANCH   1   2
BRANCH   1  72
ATOM     72  C   UNL     1       4.527   0.401  -3.719  1.00  0.00     0.023 C 
BRANCH  72  73
ATOM     73  C   UNL     1       5.043   1.824  -3.914  1.00  0.00     0.116 C 
BRANCH  73  74
ATOM     74  N   UNL     1       6.471   1.824  -4.163  1.00  0.00    -0.351 N 
ATOM     75  C   UNL     1       7.170   2.015  -5.319  1.00  0.00     0.278 C 
ATOM     76  H   UNL     1       7.027   1.658  -3.368  1.00  0.00     0.163 HD
ATOM     77  O   UNL     1       8.390   1.837  -5.263  1.00  0.00    -0.268 OA
BRANCH  75  78
ATOM     78  C   UNL     1       6.455   2.473  -6.606  1.00  0.00     0.277 C 
ATOM     79  C   UNL     1       6.911   3.935  -6.854  1.00  0.00     0.114 C 
ATOM     80  N   UNL     1       6.791   1.555  -7.729  1.00  0.00    -0.324 N 
ATOM     81  C   UNL     1       6.543   4.349  -8.232  1.00  0.00    -0.006 A 
ATOM     82  C   UNL     1       6.171   1.910  -9.014  1.00  0.00     0.264 C 
ATOM     83  H   UNL     1       6.484   0.616  -7.476  1.00  0.00     0.347 HD
ATOM     84  H   UNL     1       7.800   1.622  -7.866  1.00  0.00     0.347 HD
ATOM     85  C   UNL     1       6.234   3.406  -9.194  1.00  0.00     0.083 A 
ATOM     86  C   UNL     1       6.451   5.636  -8.824  1.00  0.00     0.003 A 
ATOM     87  N   UNL     1       6.020   4.078 -10.367  1.00  0.00    -0.353 N 
ATOM     88  C   UNL     1       6.100   5.438 -10.161  1.00  0.00     0.046 A 
ATOM     89  C   UNL     1       6.632   6.953  -8.361  1.00  0.00     0.010 A 
ATOM     90  H   UNL     1       5.835   3.651 -11.234  1.00  0.00     0.166 HD
ATOM     91  C   UNL     1       5.901   6.495 -11.055  1.00  0.00     0.026 A 
ATOM     92  C   UNL     1       6.438   8.023  -9.244  1.00  0.00     0.001 A 
ATOM     93  C   UNL     1       6.073   7.794 -10.569  1.00  0.00     0.002 A 
BRANCH  82  94
ATOM     94  C   UNL     1       4.759   1.359  -9.225  1.00  0.00     0.041 A 
ATOM     95  C   UNL     1       4.050   1.531 -10.411  1.00  0.00     0.093 A 
ATOM     96  C   UNL     1       3.889   0.549  -8.395  1.00  0.00     0.009 A 
ATOM     97  N   UNL     1       2.797   1.010 -10.280  1.00  0.00    -0.361 N 
ATOM     98  C   UNL     1       2.665   0.407  -9.059  1.00  0.00     0.046 A 
ATOM     99  C   UNL     1       3.996  -0.095  -7.145  1.00  0.00     0.011 A 
ATOM    100  H   UNL     1       2.090   1.062 -10.963  1.00  0.00     0.166 HD
ATOM    101  C   UNL     1       1.557  -0.262  -8.520  1.00  0.00     0.026 A 
ATOM    102  C   UNL     1       2.905  -0.785  -6.593  1.00  0.00     0.001 A 
ATOM    103  C   UNL     1       1.694  -0.849  -7.265  1.00  0.00     0.002 A 
ENDBRANCH  82  94
ENDBRANCH  75  78
ENDBRANCH  73  74
ENDBRANCH  72  73
ENDBRANCH   1  72
TORSDOF 12
