REMARK SMILES CCC[C@H](C)C[N@H+]1[C@@H]2CC[C@H]1C[C@H](CC(=O)NCCCCNC(=O)c1ccc(-c3c4nc(c(-c5c(F)c(F)c(F)c(F)c5F)c5ccc([nH]5)c(-c5c(F)c(F)c(F)c(F)c5F)c5nc(c(-c6c(F)c(F)c(F)c(F)c6F)c6ccc3[nH]6)C=C5)C=C4)cc1)C2
REMARK SMILES IDX 18 1 17 2 15 3 16 4 14 6 13 7 7 8 8 9 11 10 9 12 88 13 10 14
REMARK SMILES IDX 12 15 6 16 4 17 5 18 3 19 2 20 1 21 19 22 20 23 21 24 22 25
REMARK SMILES IDX 23 26 24 28 25 29 26 30 87 31 27 32 86 33 28 34 29 35 30 36
REMARK SMILES IDX 80 37 31 38 85 39 79 40 81 41 32 42 84 43 78 44 77 45 33 47
REMARK SMILES IDX 65 48 45 49 64 50 46 51 49 52 63 53 82 54 47 55 48 56 62 58
REMARK SMILES IDX 83 59 50 60 34 61 35 62 43 63 36 64 37 65 41 66 44 67 38 68
REMARK SMILES IDX 39 69 42 70 40 71 66 72 67 73 75 74 68 75 69 76 73 77 76 78
REMARK SMILES IDX 70 79 71 80 74 81 72 82 51 83 52 84 60 85 53 86 54 87 58 88
REMARK SMILES IDX 61 89 55 90 56 91 59 92 57 93
REMARK H PARENT 17 5 7 11 22 27 81 46 49 57
REMARK Flexibility Score: inf
ROOT
ATOM      1  C   UNL     1       1.106   5.764  -1.565  1.00  0.00     0.116 C 
ENDROOT
BRANCH   1   2
ATOM      2  N   UNL     1       1.883   5.043  -2.559  1.00  0.00    -0.356 N 
ATOM      3  C   UNL     1       2.401   3.781  -2.542  1.00  0.00     0.220 C 
ATOM      4  O   UNL     1       3.119   3.441  -3.485  1.00  0.00    -0.275 OA
ATOM      5  H   UNL     1       2.067   5.550  -3.382  1.00  0.00     0.163 HD
BRANCH   3   6
ATOM      6  C   UNL     1       2.095   2.809  -1.414  1.00  0.00     0.104 C 
BRANCH   6   7
ATOM      7  C   UNL     1       3.181   2.743  -0.315  1.00  0.00     0.010 C 
ATOM      8  N   UNL     1       2.758   2.649   2.623  1.00  0.00    -0.330 N 
ATOM      9  C   UNL     1       3.405   1.519   1.963  1.00  0.00     0.184 C 
ATOM     10  C   UNL     1       3.466   3.802   2.067  1.00  0.00     0.184 C 
ATOM     11  H   UNL     1       2.840   2.469   3.623  1.00  0.00     0.348 HD
ATOM     12  C   UNL     1       4.890   1.879   2.179  1.00  0.00     0.071 C 
ATOM     13  C   UNL     1       3.102   1.410   0.459  1.00  0.00     0.069 C 
ATOM     14  C   UNL     1       4.927   3.401   2.217  1.00  0.00     0.071 C 
ATOM     15  C   UNL     1       3.104   3.980   0.594  1.00  0.00     0.069 C 
BRANCH   8  16
ATOM     16  C   UNL     1       1.306   2.825   2.747  1.00  0.00     0.265 C 
BRANCH  16  17
ATOM     17  C   UNL     1       0.280   1.825   2.156  1.00  0.00     0.041 C 
ATOM     18  C   UNL     1       0.286   0.488   2.899  1.00  0.00     0.013 C 
BRANCH  17  19
ATOM     19  C   UNL     1      -1.159   2.408   2.203  1.00  0.00     0.009 C 
BRANCH  19  20
ATOM     20  C   UNL     1      -1.494   3.342   1.032  1.00  0.00    -0.003 C 
ATOM     21  C   UNL     1      -1.771   2.591  -0.265  1.00  0.00     0.004 C 
ENDBRANCH  19  20
ENDBRANCH  17  19
ENDBRANCH  16  17
ENDBRANCH   8  16
ENDBRANCH   6   7
ENDBRANCH   3   6
ENDBRANCH   1   2
BRANCH   1  22
ATOM     22  C   UNL     1       2.005   6.665  -0.714  1.00  0.00     0.023 C 
BRANCH  22  23
ATOM     23  C   UNL     1       2.273   8.046  -1.279  1.00  0.00     0.023 C 
BRANCH  23  24
ATOM     24  C   UNL     1       1.100   8.991  -1.142  1.00  0.00     0.116 C 
BRANCH  24  25
ATOM     25  N   UNL     1       0.804   9.360   0.240  1.00  0.00    -0.352 N 
ATOM     26  C   UNL     1       0.558  10.617   0.748  1.00  0.00     0.251 C 
ATOM     27  H   UNL     1       0.778   8.620   0.888  1.00  0.00     0.163 HD
ATOM     28  O   UNL     1       0.400  10.803   1.948  1.00  0.00    -0.269 OA
BRANCH  26  29
ATOM     29  C   UNL     1       0.545  11.752  -0.195  1.00  0.00     0.039 A 
ATOM     30  C   UNL     1       1.404  12.831   0.023  1.00  0.00     0.014 A 
ATOM     31  C   UNL     1      -0.198  11.653  -1.373  1.00  0.00     0.014 A 
ATOM     32  C   UNL     1       1.601  13.762  -0.997  1.00  0.00     0.010 A 
ATOM     33  C   UNL     1       0.088  12.511  -2.422  1.00  0.00     0.010 A 
ATOM     34  C   UNL     1       0.991  13.574  -2.248  1.00  0.00    -0.014 A 
BRANCH  34  35
ATOM     35  C   UNL     1       1.243  14.475  -3.399  1.00  0.00     0.031 A 
ATOM     36  C   UNL     1       0.081  15.193  -4.026  1.00  0.00     0.074 A 
ATOM     37  C   UNL     1       2.469  14.553  -3.952  1.00  0.00     0.049 A 
ATOM     38  N   UNL     1       0.020  15.851  -5.154  1.00  0.00    -0.248 NA
ATOM     39  C   UNL     1      -1.204  15.107  -3.310  1.00  0.00     0.031 C 
ATOM     40  C   UNL     1       3.667  13.863  -3.471  1.00  0.00     0.029 A 
ATOM     41  N   UNL     1       2.905  15.236  -5.061  1.00  0.00    -0.354 N 
ATOM     42  C   UNL     1      -1.313  16.208  -5.305  1.00  0.00     0.074 A 
ATOM     43  C   UNL     1      -2.035  15.653  -4.183  1.00  0.00     0.031 C 
ATOM     44  C   UNL     1       4.705  14.175  -4.265  1.00  0.00     0.029 A 
ATOM     45  C   UNL     1       4.238  15.050  -5.336  1.00  0.00     0.049 A 
ATOM     46  H   UNL     1       2.317  15.806  -5.607  1.00  0.00     0.167 HD
ATOM     47  C   UNL     1      -1.879  16.956  -6.280  1.00  0.00     0.037 A 
ATOM     48  C   UNL     1       4.991  15.525  -6.346  1.00  0.00     0.037 A 
ATOM     49  C   UNL     1      -1.143  17.567  -7.351  1.00  0.00     0.049 A 
ATOM     50  C   UNL     1       4.350  16.403  -7.387  1.00  0.00     0.074 A 
ATOM     51  C   UNL     1      -1.605  18.409  -8.346  1.00  0.00     0.029 A 
ATOM     52  N   UNL     1       0.221  17.416  -7.552  1.00  0.00    -0.354 N 
ATOM     53  N   UNL     1       3.097  16.774  -7.497  1.00  0.00    -0.248 NA
ATOM     54  C   UNL     1       5.226  16.932  -8.442  1.00  0.00     0.031 C 
ATOM     55  C   UNL     1      -0.523  18.750  -9.164  1.00  0.00     0.029 A 
ATOM     56  C   UNL     1       0.618  18.148  -8.657  1.00  0.00     0.049 A 
ATOM     57  H   UNL     1       0.818  16.868  -6.992  1.00  0.00     0.167 HD
ATOM     58  C   UNL     1       3.040  17.602  -8.609  1.00  0.00     0.074 A 
ATOM     59  C   UNL     1       4.385  17.684  -9.139  1.00  0.00     0.031 C 
ATOM     60  C   UNL     1       1.969  18.236  -9.145  1.00  0.00     0.037 A 
BRANCH  47  61
ATOM     61  C   UNL     1      -3.363  17.162  -6.218  1.00  0.00     0.064 A 
ATOM     62  C   UNL     1      -3.954  17.960  -5.226  1.00  0.00     0.173 A 
ATOM     63  C   UNL     1      -4.205  16.563  -7.166  1.00  0.00     0.173 A 
ATOM     64  F   UNL     1      -3.193  18.540  -4.285  1.00  0.00    -0.203 F 
ATOM     65  C   UNL     1      -5.335  18.122  -5.165  1.00  0.00     0.198 A 
ATOM     66  C   UNL     1      -5.583  16.753  -7.121  1.00  0.00     0.198 A 
ATOM     67  F   UNL     1      -3.691  15.792  -8.136  1.00  0.00    -0.203 F 
ATOM     68  F   UNL     1      -5.880  18.840  -4.173  1.00  0.00    -0.200 F 
ATOM     69  C   UNL     1      -6.148  17.524  -6.116  1.00  0.00     0.200 A 
ATOM     70  F   UNL     1      -6.368  16.182  -8.046  1.00  0.00    -0.200 F 
ATOM     71  F   UNL     1      -7.477  17.683  -6.057  1.00  0.00    -0.200 F 
ENDBRANCH  47  61
BRANCH  48  72
ATOM     72  C   UNL     1       6.442  15.210  -6.406  1.00  0.00     0.064 A 
ATOM     73  C   UNL     1       7.399  16.198  -6.134  1.00  0.00     0.173 A 
ATOM     74  C   UNL     1       6.904  13.928  -6.735  1.00  0.00     0.173 A 
ATOM     75  F   UNL     1       7.005  17.445  -5.835  1.00  0.00    -0.203 F 
ATOM     76  C   UNL     1       8.762  15.922  -6.207  1.00  0.00     0.198 A 
ATOM     77  C   UNL     1       8.268  13.646  -6.784  1.00  0.00     0.198 A 
ATOM     78  F   UNL     1       6.029  12.946  -6.999  1.00  0.00    -0.203 F 
ATOM     79  F   UNL     1       9.654  16.896  -5.982  1.00  0.00    -0.200 F 
ATOM     80  C   UNL     1       9.196  14.644  -6.527  1.00  0.00     0.200 A 
ATOM     81  F   UNL     1       8.684  12.408  -7.083  1.00  0.00    -0.200 F 
ATOM     82  F   UNL     1      10.507  14.377  -6.595  1.00  0.00    -0.200 F 
ENDBRANCH  48  72
BRANCH  60  83
ATOM     83  C   UNL     1       2.213  19.117 -10.332  1.00  0.00     0.064 A 
ATOM     84  C   UNL     1       2.430  18.584 -11.610  1.00  0.00     0.173 A 
ATOM     85  C   UNL     1       2.156  20.512 -10.198  1.00  0.00     0.173 A 
ATOM     86  F   UNL     1       2.505  17.255 -11.783  1.00  0.00    -0.203 F 
ATOM     87  C   UNL     1       2.594  19.418 -12.711  1.00  0.00     0.198 A 
ATOM     88  C   UNL     1       2.296  21.343 -11.305  1.00  0.00     0.198 A 
ATOM     89  F   UNL     1       1.943  21.067  -8.995  1.00  0.00    -0.203 F 
ATOM     90  F   UNL     1       2.829  18.890 -13.920  1.00  0.00    -0.200 F 
ATOM     91  C   UNL     1       2.518  20.795 -12.560  1.00  0.00     0.200 A 
ATOM     92  F   UNL     1       2.211  22.672 -11.159  1.00  0.00    -0.200 F 
ATOM     93  F   UNL     1       2.662  21.596 -13.625  1.00  0.00    -0.200 F 
ENDBRANCH  60  83
ENDBRANCH  34  35
ENDBRANCH  26  29
ENDBRANCH  24  25
ENDBRANCH  23  24
ENDBRANCH  22  23
ENDBRANCH   1  22
TORSDOF 16
