REMARK SMILES Cc1c(NCc2ccc(-c3ccc(Cl)cc3)o2)cccc1C(=O)NCCCCNC(=O)c1ccc(-c2c3nc(c(-c4c(F)c(F)c(F)c(F)c4F)c4ccc([nH]4)c(-c4c(F)c(F)c(F)c(F)c4F)c4nc(c(-c5c(F)c(F)c(F)c(F)c5F)c5ccc2[nH]5)C=C4)C=C3)cc1
REMARK SMILES IDX 25 1 24 2 22 3 23 4 21 6 1 7 2 8 3 9 18 10 20 11 19 12 4 13
REMARK SMILES IDX 5 15 6 16 7 17 17 18 8 19 9 20 10 21 11 22 16 23 12 24 15 25
REMARK SMILES IDX 13 26 14 27 26 28 27 29 28 30 29 31 30 32 31 34 32 35 33 36
REMARK SMILES IDX 94 37 34 38 93 39 35 40 36 41 37 42 87 43 38 44 92 45 86 46
REMARK SMILES IDX 88 47 39 48 91 49 85 50 84 51 40 53 72 54 52 55 71 56 53 57
REMARK SMILES IDX 56 58 70 59 89 60 54 61 55 62 69 64 90 65 57 66 41 67 42 68
REMARK SMILES IDX 50 69 43 70 44 71 48 72 51 73 45 74 46 75 49 76 47 77 73 78
REMARK SMILES IDX 74 79 82 80 75 81 76 82 80 83 83 84 77 85 78 86 81 87 79 88
REMARK SMILES IDX 58 89 59 90 67 91 60 92 61 93 65 94 68 95 62 96 63 97 66 98
REMARK SMILES IDX 64 99
REMARK H PARENT 24 5 4 14 29 33 88 52 56 63
REMARK Flexibility Score: inf
ROOT
ATOM      1  C   UNL     1       3.367   1.776   0.052  1.00  0.00     0.116 C 
ENDROOT
BRANCH   1   2
ATOM      2  N   UNL     1       2.147   2.473  -0.299  1.00  0.00    -0.352 N 
ATOM      3  C   UNL     1       0.831   2.133  -0.468  1.00  0.00     0.251 C 
ATOM      4  O   UNL     1       0.122   3.063  -0.875  1.00  0.00    -0.269 OA
ATOM      5  H   UNL     1       2.302   3.432  -0.456  1.00  0.00     0.163 HD
BRANCH   3   6
ATOM      6  C   UNL     1       0.155   0.826  -0.134  1.00  0.00     0.044 A 
ATOM      7  C   UNL     1       1.937  -0.851  -0.876  1.00  0.00     0.047 C 
ATOM      8  C   UNL     1       0.642  -0.502  -0.207  1.00  0.00    -0.015 A 
ATOM      9  C   UNL     1      -0.167  -1.595   0.226  1.00  0.00     0.038 A 
ATOM     10  C   UNL     1      -1.516  -1.367   0.503  1.00  0.00     0.026 A 
ATOM     11  C   UNL     1      -1.207   0.996   0.198  1.00  0.00     0.014 A 
ATOM     12  C   UNL     1      -2.043  -0.083   0.472  1.00  0.00     0.003 A 
BRANCH   9  13
ATOM     13  N   UNL     1       0.377  -2.867   0.313  1.00  0.00    -0.378 N 
ATOM     14  H   UNL     1       1.288  -2.942   0.678  1.00  0.00     0.161 HD
BRANCH  13  15
ATOM     15  C   UNL     1      -0.280  -4.102  -0.087  1.00  0.00     0.188 C 
BRANCH  15  16
ATOM     16  C   UNL     1       0.165  -4.631  -1.411  1.00  0.00     0.123 A 
ATOM     17  C   UNL     1       0.666  -4.051  -2.558  1.00  0.00     0.048 A 
ATOM     18  O   UNL     1       0.070  -5.982  -1.585  1.00  0.00    -0.459 OA
ATOM     19  C   UNL     1       0.955  -5.106  -3.455  1.00  0.00     0.051 A 
ATOM     20  C   UNL     1       0.546  -6.264  -2.832  1.00  0.00     0.134 A 
BRANCH  20  21
ATOM     21  C   UNL     1       0.503  -7.659  -3.231  1.00  0.00     0.017 A 
ATOM     22  C   UNL     1       1.592  -8.250  -3.886  1.00  0.00     0.013 A 
ATOM     23  C   UNL     1      -0.652  -8.419  -3.004  1.00  0.00     0.013 A 
ATOM     24  C   UNL     1       1.523  -9.580  -4.310  1.00  0.00     0.021 A 
ATOM     25  C   UNL     1      -0.727  -9.745  -3.438  1.00  0.00     0.021 A 
ATOM     26  C   UNL     1       0.362 -10.319  -4.090  1.00  0.00     0.041 A 
ATOM     27  Cl  UNL     1       0.269 -11.948  -4.633  1.00  0.00    -0.084 Cl
ENDBRANCH  20  21
ENDBRANCH  15  16
ENDBRANCH  13  15
ENDBRANCH   9  13
ENDBRANCH   3   6
ENDBRANCH   1   2
BRANCH   1  28
ATOM     28  C   UNL     1       4.126   1.352  -1.220  1.00  0.00     0.023 C 
BRANCH  28  29
ATOM     29  C   UNL     1       4.919   2.462  -1.903  1.00  0.00     0.023 C 
BRANCH  29  30
ATOM     30  C   UNL     1       6.282   2.679  -1.276  1.00  0.00     0.116 C 
BRANCH  30  31
ATOM     31  N   UNL     1       7.335   1.798  -1.774  1.00  0.00    -0.352 N 
ATOM     32  C   UNL     1       8.636   1.644  -1.323  1.00  0.00     0.251 C 
ATOM     33  H   UNL     1       7.084   1.232  -2.540  1.00  0.00     0.163 HD
ATOM     34  O   UNL     1       9.411   0.900  -1.917  1.00  0.00    -0.269 OA
BRANCH  32  35
ATOM     35  C   UNL     1       9.037   2.248  -0.027  1.00  0.00     0.039 A 
ATOM     36  C   UNL     1       9.689   1.424   0.898  1.00  0.00     0.014 A 
ATOM     37  C   UNL     1       8.498   3.461   0.380  1.00  0.00     0.014 A 
ATOM     38  C   UNL     1       9.509   1.661   2.257  1.00  0.00     0.010 A 
ATOM     39  C   UNL     1       8.185   3.611   1.713  1.00  0.00     0.010 A 
ATOM     40  C   UNL     1       8.623   2.663   2.643  1.00  0.00    -0.014 A 
BRANCH  40  41
ATOM     41  C   UNL     1       7.974   2.701   3.949  1.00  0.00     0.031 A 
ATOM     42  C   UNL     1       8.227   3.823   4.875  1.00  0.00     0.074 A 
ATOM     43  C   UNL     1       7.023   1.781   4.233  1.00  0.00     0.049 A 
ATOM     44  N   UNL     1       7.960   3.805   6.137  1.00  0.00    -0.248 NA
ATOM     45  C   UNL     1       8.868   5.059   4.449  1.00  0.00     0.031 C 
ATOM     46  C   UNL     1       6.030   1.832   5.303  1.00  0.00     0.029 A 
ATOM     47  N   UNL     1       6.884   0.489   3.694  1.00  0.00    -0.354 N 
ATOM     48  C   UNL     1       8.109   5.087   6.621  1.00  0.00     0.074 A 
ATOM     49  C   UNL     1       8.767   5.800   5.555  1.00  0.00     0.031 C 
ATOM     50  C   UNL     1       5.597   0.586   5.553  1.00  0.00     0.029 A 
ATOM     51  C   UNL     1       6.410  -0.315   4.757  1.00  0.00     0.049 A 
ATOM     52  H   UNL     1       7.076   0.204   2.771  1.00  0.00     0.167 HD
ATOM     53  C   UNL     1       7.525   5.407   7.814  1.00  0.00     0.037 A 
ATOM     54  C   UNL     1       7.163  -1.335   5.265  1.00  0.00     0.037 A 
ATOM     55  C   UNL     1       7.013   4.200   8.474  1.00  0.00     0.049 A 
ATOM     56  C   UNL     1       7.507  -1.175   6.728  1.00  0.00     0.074 A 
ATOM     57  C   UNL     1       5.744   3.658   8.602  1.00  0.00     0.029 A 
ATOM     58  N   UNL     1       7.905   3.202   8.860  1.00  0.00    -0.354 N 
ATOM     59  N   UNL     1       7.424  -0.046   7.374  1.00  0.00    -0.248 NA
ATOM     60  C   UNL     1       8.012  -2.260   7.566  1.00  0.00     0.031 C 
ATOM     61  C   UNL     1       5.882   2.304   9.000  1.00  0.00     0.029 A 
ATOM     62  C   UNL     1       7.232   2.028   9.139  1.00  0.00     0.049 A 
ATOM     63  H   UNL     1       8.881   3.317   8.925  1.00  0.00     0.167 HD
ATOM     64  C   UNL     1       7.875  -0.216   8.656  1.00  0.00     0.074 A 
ATOM     65  C   UNL     1       8.210  -1.625   8.735  1.00  0.00     0.031 C 
ATOM     66  C   UNL     1       7.953   0.827   9.535  1.00  0.00     0.037 A 
BRANCH  53  67
ATOM     67  C   UNL     1       7.143   6.817   8.252  1.00  0.00     0.064 A 
ATOM     68  C   UNL     1       6.141   7.014   9.232  1.00  0.00     0.173 A 
ATOM     69  C   UNL     1       7.635   8.014   7.696  1.00  0.00     0.173 A 
ATOM     70  F   UNL     1       5.649   5.994   9.947  1.00  0.00    -0.203 F 
ATOM     71  C   UNL     1       5.598   8.273   9.523  1.00  0.00     0.198 A 
ATOM     72  C   UNL     1       7.071   9.268   7.959  1.00  0.00     0.198 A 
ATOM     73  F   UNL     1       8.719   8.043   6.921  1.00  0.00    -0.203 F 
ATOM     74  F   UNL     1       4.630   8.383  10.443  1.00  0.00    -0.200 F 
ATOM     75  C   UNL     1       6.040   9.397   8.860  1.00  0.00     0.200 A 
ATOM     76  F   UNL     1       7.547  10.351   7.327  1.00  0.00    -0.200 F 
ATOM     77  F   UNL     1       5.500  10.597   9.108  1.00  0.00    -0.200 F 
ENDBRANCH  53  67
BRANCH  54  78
ATOM     78  C   UNL     1       8.030  -1.984   4.247  1.00  0.00     0.064 A 
ATOM     79  C   UNL     1       7.410  -2.657   3.177  1.00  0.00     0.173 A 
ATOM     80  C   UNL     1       9.377  -1.635   4.099  1.00  0.00     0.173 A 
ATOM     81  F   UNL     1       6.118  -3.011   3.267  1.00  0.00    -0.203 F 
ATOM     82  C   UNL     1       8.072  -2.864   1.969  1.00  0.00     0.198 A 
ATOM     83  C   UNL     1      10.041  -1.855   2.890  1.00  0.00     0.198 A 
ATOM     84  F   UNL     1      10.015  -0.968   5.071  1.00  0.00    -0.203 F 
ATOM     85  F   UNL     1       7.417  -3.404   0.931  1.00  0.00    -0.200 F 
ATOM     86  C   UNL     1       9.380  -2.436   1.817  1.00  0.00     0.200 A 
ATOM     87  F   UNL     1      11.295  -1.407   2.729  1.00  0.00    -0.200 F 
ATOM     88  F   UNL     1       9.988  -2.541   0.627  1.00  0.00    -0.200 F 
ENDBRANCH  54  78
BRANCH  66  89
ATOM     89  C   UNL     1       8.641   0.800  10.877  1.00  0.00     0.064 A 
ATOM     90  C   UNL     1       9.758   0.000  11.170  1.00  0.00     0.173 A 
ATOM     91  C   UNL     1       8.271   1.724  11.885  1.00  0.00     0.173 A 
ATOM     92  F   UNL     1      10.276  -0.833  10.258  1.00  0.00    -0.203 F 
ATOM     93  C   UNL     1      10.420   0.078  12.399  1.00  0.00     0.198 A 
ATOM     94  C   UNL     1       8.970   1.839  13.086  1.00  0.00     0.198 A 
ATOM     95  F   UNL     1       7.236   2.561  11.720  1.00  0.00    -0.203 F 
ATOM     96  F   UNL     1      11.458  -0.734  12.645  1.00  0.00    -0.200 F 
ATOM     97  C   UNL     1      10.035   1.005  13.350  1.00  0.00     0.200 A 
ATOM     98  F   UNL     1       8.616   2.779  13.975  1.00  0.00    -0.200 F 
ATOM     99  F   UNL     1      10.704   1.109  14.506  1.00  0.00    -0.200 F 
ENDBRANCH  66  89
ENDBRANCH  40  41
ENDBRANCH  32  35
ENDBRANCH  30  31
ENDBRANCH  29  30
ENDBRANCH  28  29
ENDBRANCH   1  28
TORSDOF 15
