REMARK SMILES CC(C)(C)c1cc2c(cc1Cl)C=C(C(=O)NCCCCNC(=O)c1ccc(-c3c4nc(c(-c5c(F)c(F)c(F)c(F)c5F)c5ccc([nH]5)c(-c5c(F)c(F)c(F)c(F)c5F)c5nc(c(-c6c(F)c(F)c(F)c(F)c6F)c6ccc3[nH]6)C=C5)C=C4)cc1)[C@H](C(F)(F)F)O2
REMARK SMILES IDX 19 1 18 2 17 3 16 4 14 5 15 6 13 8 5 9 6 10 10 11 7 12 9 13
REMARK SMILES IDX 11 14 8 15 92 16 12 17 87 18 2 19 1 20 3 21 4 22 88 23 89 24
REMARK SMILES IDX 90 25 91 26 20 27 21 28 22 29 23 31 24 32 25 33 86 34 26 35
REMARK SMILES IDX 85 36 27 37 28 38 29 39 79 40 30 41 84 42 78 43 80 44 31 45
REMARK SMILES IDX 83 46 77 47 76 48 32 50 64 51 44 52 63 53 45 54 48 55 62 56
REMARK SMILES IDX 81 57 46 58 47 59 61 61 82 62 49 63 33 64 34 65 42 66 35 67
REMARK SMILES IDX 36 68 40 69 43 70 37 71 38 72 41 73 39 74 65 75 66 76 74 77
REMARK SMILES IDX 67 78 68 79 72 80 75 81 69 82 70 83 73 84 71 85 50 86 51 87
REMARK SMILES IDX 59 88 52 89 53 90 57 91 60 92 54 93 55 94 58 95 56 96
REMARK H PARENT 16 7 21 30 80 49 48 60
REMARK Flexibility Score: inf
ROOT
ATOM      1  C   UNL     1       5.798  -7.248   7.907  1.00  0.00     0.023 C 
ENDROOT
BRANCH   1   2
ATOM      2  C   UNL     1       5.451  -6.102   6.953  1.00  0.00     0.023 C 
BRANCH   2   3
ATOM      3  C   UNL     1       5.654  -6.425   5.473  1.00  0.00     0.116 C 
BRANCH   3   4
ATOM      4  N   UNL     1       4.532  -7.167   4.931  1.00  0.00    -0.352 N 
ATOM      5  C   UNL     1       3.442  -6.871   4.185  1.00  0.00     0.251 C 
ATOM      6  O   UNL     1       2.762  -7.841   3.836  1.00  0.00    -0.270 OA
ATOM      7  H   UNL     1       4.574  -8.123   5.163  1.00  0.00     0.163 HD
BRANCH   5   8
ATOM      8  C   UNL     1       3.029  -5.496   3.779  1.00  0.00     0.067 C 
ATOM      9  C   UNL     1       0.655  -1.562   1.593  1.00  0.00    -0.020 A 
ATOM     10  C   UNL     1       1.741  -1.729   2.482  1.00  0.00     0.053 A 
ATOM     11  C   UNL     1       0.095  -2.754   1.073  1.00  0.00     0.045 A 
ATOM     12  C   UNL     1       2.205  -2.989   2.866  1.00  0.00     0.128 A 
ATOM     13  C   UNL     1       0.573  -4.021   1.460  1.00  0.00     0.032 A 
ATOM     14  Cl  UNL     1      -1.173  -2.801  -0.103  1.00  0.00    -0.084 Cl
ATOM     15  C   UNL     1       1.627  -4.143   2.360  1.00  0.00     0.019 A 
ATOM     16  O   UNL     1       3.270  -3.017   3.723  1.00  0.00    -0.475 OA
ATOM     17  C   UNL     1       2.160  -5.440   2.752  1.00  0.00     0.025 C 
ATOM     18  C   UNL     1       3.413  -4.235   4.507  1.00  0.00     0.314 C 
BRANCH   9  19
ATOM     19  C   UNL     1       0.191  -0.129   1.226  1.00  0.00    -0.012 C 
ATOM     20  C   UNL     1       0.646   0.198  -0.211  1.00  0.00     0.016 C 
ATOM     21  C   UNL     1       0.806   0.968   2.143  1.00  0.00     0.016 C 
ATOM     22  C   UNL     1      -1.338   0.059   1.357  1.00  0.00     0.016 C 
ENDBRANCH   9  19
BRANCH  18  23
ATOM     23  C   UNL     1       2.719  -4.065   5.869  1.00  0.00     0.429 C 
ATOM     24  F   UNL     1       2.364  -5.247   6.423  1.00  0.00    -0.167 F 
ATOM     25  F   UNL     1       3.562  -3.460   6.745  1.00  0.00    -0.167 F 
ATOM     26  F   UNL     1       1.602  -3.309   5.801  1.00  0.00    -0.167 F 
ENDBRANCH  18  23
ENDBRANCH   5   8
ENDBRANCH   3   4
ENDBRANCH   2   3
ENDBRANCH   1   2
BRANCH   1  27
ATOM     27  C   UNL     1       7.252  -7.698   7.872  1.00  0.00     0.116 C 
BRANCH  27  28
ATOM     28  N   UNL     1       8.211  -6.627   8.110  1.00  0.00    -0.352 N 
ATOM     29  C   UNL     1       9.457  -6.719   8.687  1.00  0.00     0.251 C 
ATOM     30  H   UNL     1       7.933  -5.728   7.823  1.00  0.00     0.163 HD
ATOM     31  O   UNL     1      10.134  -5.717   8.889  1.00  0.00    -0.269 OA
BRANCH  29  32
ATOM     32  C   UNL     1       9.939  -8.046   9.114  1.00  0.00     0.039 A 
ATOM     33  C   UNL     1       9.877  -9.127   8.234  1.00  0.00     0.014 A 
ATOM     34  C   UNL     1      10.349  -8.226  10.437  1.00  0.00     0.014 A 
ATOM     35  C   UNL     1      10.042 -10.413   8.727  1.00  0.00     0.010 A 
ATOM     36  C   UNL     1      10.601  -9.517  10.909  1.00  0.00     0.010 A 
ATOM     37  C   UNL     1      10.389 -10.624  10.073  1.00  0.00    -0.014 A 
BRANCH  37  38
ATOM     38  C   UNL     1      10.495 -12.016  10.577  1.00  0.00     0.031 A 
ATOM     39  C   UNL     1       9.525 -12.540  11.601  1.00  0.00     0.074 A 
ATOM     40  C   UNL     1      11.417 -12.834  10.036  1.00  0.00     0.049 A 
ATOM     41  N   UNL     1       9.439 -13.743  12.113  1.00  0.00    -0.248 NA
ATOM     42  C   UNL     1       8.523 -11.597  12.122  1.00  0.00     0.031 C 
ATOM     43  C   UNL     1      12.398 -12.439   9.024  1.00  0.00     0.029 A 
ATOM     44  N   UNL     1      11.653 -14.171  10.225  1.00  0.00    -0.354 N 
ATOM     45  C   UNL     1       8.396 -13.693  13.029  1.00  0.00     0.074 A 
ATOM     46  C   UNL     1       7.888 -12.339  13.020  1.00  0.00     0.031 C 
ATOM     47  C   UNL     1      13.078 -13.524   8.625  1.00  0.00     0.029 A 
ATOM     48  C   UNL     1      12.626 -14.676   9.398  1.00  0.00     0.049 A 
ATOM     49  H   UNL     1      11.171 -14.717  10.888  1.00  0.00     0.167 HD
ATOM     50  C   UNL     1       7.903 -14.692  13.799  1.00  0.00     0.037 A 
ATOM     51  C   UNL     1      13.103 -15.928   9.276  1.00  0.00     0.037 A 
ATOM     52  C   UNL     1       8.384 -16.049  13.777  1.00  0.00     0.049 A 
ATOM     53  C   UNL     1      12.550 -17.011  10.155  1.00  0.00     0.074 A 
ATOM     54  C   UNL     1       7.934 -17.136  14.506  1.00  0.00     0.029 A 
ATOM     55  N   UNL     1       9.420 -16.505  12.976  1.00  0.00    -0.354 N 
ATOM     56  N   UNL     1      11.575 -16.945  11.028  1.00  0.00    -0.248 NA
ATOM     57  C   UNL     1      13.175 -18.335  10.046  1.00  0.00     0.031 C 
ATOM     58  C   UNL     1       8.717 -18.244  14.168  1.00  0.00     0.029 A 
ATOM     59  C   UNL     1       9.633 -17.855  13.204  1.00  0.00     0.049 A 
ATOM     60  H   UNL     1       9.928 -15.952  12.339  1.00  0.00     0.167 HD
ATOM     61  C   UNL     1      11.470 -18.215  11.575  1.00  0.00     0.074 A 
ATOM     62  C   UNL     1      12.463 -19.039  10.917  1.00  0.00     0.031 C 
ATOM     63  C   UNL     1      10.632 -18.654  12.545  1.00  0.00     0.037 A 
BRANCH  50  64
ATOM     64  C   UNL     1       6.784 -14.365  14.742  1.00  0.00     0.064 A 
ATOM     65  C   UNL     1       5.471 -14.178  14.286  1.00  0.00     0.173 A 
ATOM     66  C   UNL     1       7.014 -14.312  16.125  1.00  0.00     0.173 A 
ATOM     67  F   UNL     1       5.202 -14.207  12.972  1.00  0.00    -0.203 F 
ATOM     68  C   UNL     1       4.430 -13.941  15.181  1.00  0.00     0.198 A 
ATOM     69  C   UNL     1       5.968 -14.095  17.018  1.00  0.00     0.198 A 
ATOM     70  F   UNL     1       8.252 -14.489  16.611  1.00  0.00    -0.203 F 
ATOM     71  F   UNL     1       3.187 -13.740  14.723  1.00  0.00    -0.200 F 
ATOM     72  C   UNL     1       4.678 -13.908  16.546  1.00  0.00     0.200 A 
ATOM     73  F   UNL     1       6.208 -14.074  18.337  1.00  0.00    -0.200 F 
ATOM     74  F   UNL     1       3.673 -13.694  17.406  1.00  0.00    -0.200 F 
ENDBRANCH  50  64
BRANCH  51  75
ATOM     75  C   UNL     1      14.157 -16.212   8.271  1.00  0.00     0.064 A 
ATOM     76  C   UNL     1      13.866 -16.948   7.116  1.00  0.00     0.173 A 
ATOM     77  C   UNL     1      15.460 -15.715   8.422  1.00  0.00     0.173 A 
ATOM     78  F   UNL     1      12.638 -17.457   6.938  1.00  0.00    -0.203 F 
ATOM     79  C   UNL     1      14.840 -17.175   6.146  1.00  0.00     0.198 A 
ATOM     80  C   UNL     1      16.425 -15.922   7.441  1.00  0.00     0.198 A 
ATOM     81  F   UNL     1      15.784 -15.001   9.510  1.00  0.00    -0.203 F 
ATOM     82  F   UNL     1      14.543 -17.899   5.058  1.00  0.00    -0.200 F 
ATOM     83  C   UNL     1      16.116 -16.654   6.304  1.00  0.00     0.200 A 
ATOM     84  F   UNL     1      17.651 -15.402   7.590  1.00  0.00    -0.200 F 
ATOM     85  F   UNL     1      17.046 -16.856   5.362  1.00  0.00    -0.200 F 
ENDBRANCH  51  75
BRANCH  63  86
ATOM     86  C   UNL     1      10.757 -20.087  12.960  1.00  0.00     0.064 A 
ATOM     87  C   UNL     1      11.806 -20.513  13.787  1.00  0.00     0.173 A 
ATOM     88  C   UNL     1       9.788 -21.028  12.583  1.00  0.00     0.173 A 
ATOM     89  F   UNL     1      12.763 -19.650  14.161  1.00  0.00    -0.203 F 
ATOM     90  C   UNL     1      11.886 -21.835  14.214  1.00  0.00     0.198 A 
ATOM     91  C   UNL     1       9.860 -22.344  13.029  1.00  0.00     0.198 A 
ATOM     92  F   UNL     1       8.764 -20.665  11.797  1.00  0.00    -0.203 F 
ATOM     93  F   UNL     1      12.911 -22.228  14.983  1.00  0.00    -0.200 F 
ATOM     94  C   UNL     1      10.909 -22.747  13.841  1.00  0.00     0.200 A 
ATOM     95  F   UNL     1       8.911 -23.222  12.676  1.00  0.00    -0.200 F 
ATOM     96  F   UNL     1      10.982 -24.017  14.263  1.00  0.00    -0.200 F 
ENDBRANCH  63  86
ENDBRANCH  37  38
ENDBRANCH  29  32
ENDBRANCH  27  28
ENDBRANCH   1  27
TORSDOF 13
