REMARK SMILES C[C@@H](C(=O)NCCCCNC(=O)c1ccc(-c2c3nc(c(-c4c(F)c(F)c(F)c(F)c4F)c4ccc([nH]4)c(-c4c(F)c(F)c(F)c(F)c4F)c4nc(c(-c5c(F)c(F)c(F)c(F)c5F)c5ccc2[nH]5)C=C4)C=C3)cc1)c1ccc(OC2CCCC2)cc1F
REMARK SMILES IDX 7 1 6 2 5 3 3 4 4 5 2 7 1 8 76 9 77 10 87 11 78 12 86 13
REMARK SMILES IDX 88 14 79 15 80 16 81 17 82 18 85 19 83 20 84 21 8 22 9 23
REMARK SMILES IDX 10 24 11 25 12 27 13 28 14 29 75 30 15 31 74 32 16 33 17 34
REMARK SMILES IDX 18 35 68 36 19 37 73 38 67 39 69 40 20 41 72 42 66 43 65 44
REMARK SMILES IDX 21 46 53 47 33 48 52 49 34 50 37 51 51 52 70 53 35 54 36 55
REMARK SMILES IDX 50 57 71 58 38 59 22 60 23 61 31 62 24 63 25 64 29 65 32 66
REMARK SMILES IDX 26 67 27 68 30 69 28 70 54 71 55 72 63 73 56 74 57 75 61 76
REMARK SMILES IDX 64 77 58 78 59 79 62 80 60 81 39 82 40 83 48 84 41 85 42 86
REMARK SMILES IDX 46 87 49 88 43 89 44 90 47 91 45 92
REMARK H PARENT 5 6 10 26 69 45 37 56
REMARK Flexibility Score: inf
ROOT
ATOM      1  C   UNL     1       4.325   0.146   1.247  1.00  0.00     0.023 C 
ENDROOT
BRANCH   1   2
ATOM      2  C   UNL     1       3.536  -1.138   1.509  1.00  0.00     0.116 C 
BRANCH   2   3
ATOM      3  N   UNL     1       2.499  -0.904   2.489  1.00  0.00    -0.356 N 
ATOM      4  C   UNL     1       1.173  -0.647   2.302  1.00  0.00     0.227 C 
ATOM      5  O   UNL     1       0.531  -0.290   3.292  1.00  0.00    -0.274 OA
ATOM      6  H   UNL     1       2.793  -0.935   3.428  1.00  0.00     0.163 HD
BRANCH   4   7
ATOM      7  C   UNL     1       0.543  -0.838   0.914  1.00  0.00     0.108 C 
ATOM      8  C   UNL     1       0.942   0.261  -0.075  1.00  0.00     0.023 C 
BRANCH   7   9
ATOM      9  C   UNL     1      -0.966  -0.969   1.024  1.00  0.00     0.000 A 
ATOM     10  C   UNL     1      -1.815   0.143   1.078  1.00  0.00     0.011 A 
ATOM     11  C   UNL     1      -1.538  -2.237   1.143  1.00  0.00     0.130 A 
ATOM     12  C   UNL     1      -3.196  -0.030   1.193  1.00  0.00     0.047 A 
ATOM     13  C   UNL     1      -2.914  -2.411   1.267  1.00  0.00     0.086 A 
ATOM     14  F   UNL     1      -0.755  -3.327   1.132  1.00  0.00    -0.207 F 
ATOM     15  C   UNL     1      -3.758  -1.307   1.265  1.00  0.00     0.122 A 
BRANCH  15  16
ATOM     16  O   UNL     1      -5.118  -1.310   1.342  1.00  0.00    -0.490 OA
BRANCH  16  17
ATOM     17  C   UNL     1      -5.896  -2.484   1.155  1.00  0.00     0.173 C 
ATOM     18  C   UNL     1      -5.662  -3.274  -0.129  1.00  0.00     0.045 C 
ATOM     19  C   UNL     1      -5.852  -3.484   2.304  1.00  0.00     0.045 C 
ATOM     20  C   UNL     1      -6.276  -4.632   0.167  1.00  0.00     0.004 C 
ATOM     21  C   UNL     1      -6.164  -4.840   1.677  1.00  0.00     0.004 C 
ENDBRANCH  16  17
ENDBRANCH  15  16
ENDBRANCH   7   9
ENDBRANCH   4   7
ENDBRANCH   2   3
ENDBRANCH   1   2
BRANCH   1  22
ATOM     22  C   UNL     1       5.107   0.663   2.457  1.00  0.00     0.023 C 
BRANCH  22  23
ATOM     23  C   UNL     1       6.086  -0.335   3.059  1.00  0.00     0.116 C 
BRANCH  23  24
ATOM     24  N   UNL     1       7.074  -0.800   2.099  1.00  0.00    -0.352 N 
ATOM     25  C   UNL     1       8.427  -0.959   2.262  1.00  0.00     0.251 C 
ATOM     26  H   UNL     1       6.723  -1.033   1.209  1.00  0.00     0.163 HD
ATOM     27  O   UNL     1       9.138  -1.219   1.295  1.00  0.00    -0.269 OA
BRANCH  25  28
ATOM     28  C   UNL     1       9.029  -0.786   3.599  1.00  0.00     0.039 A 
ATOM     29  C   UNL     1      10.200  -0.035   3.716  1.00  0.00     0.014 A 
ATOM     30  C   UNL     1       8.437  -1.351   4.732  1.00  0.00     0.014 A 
ATOM     31  C   UNL     1      10.747   0.196   4.979  1.00  0.00     0.010 A 
ATOM     32  C   UNL     1       8.936  -1.052   5.995  1.00  0.00     0.010 A 
ATOM     33  C   UNL     1      10.101  -0.282   6.131  1.00  0.00    -0.014 A 
BRANCH  33  34
ATOM     34  C   UNL     1      10.639   0.007   7.485  1.00  0.00     0.031 A 
ATOM     35  C   UNL     1      11.110  -1.117   8.366  1.00  0.00     0.074 A 
ATOM     36  C   UNL     1      10.654   1.275   7.938  1.00  0.00     0.049 A 
ATOM     37  N   UNL     1      11.572  -1.071   9.591  1.00  0.00    -0.248 NA
ATOM     38  C   UNL     1      11.025  -2.475   7.809  1.00  0.00     0.031 C 
ATOM     39  C   UNL     1      10.179   2.444   7.197  1.00  0.00     0.029 A 
ATOM     40  N   UNL     1      11.082   1.793   9.135  1.00  0.00    -0.354 N 
ATOM     41  C   UNL     1      11.821  -2.389   9.950  1.00  0.00     0.074 A 
ATOM     42  C   UNL     1      11.401  -3.216   8.840  1.00  0.00     0.031 C 
ATOM     43  C   UNL     1      10.369   3.544   7.942  1.00  0.00     0.029 A 
ATOM     44  C   UNL     1      10.940   3.156   9.228  1.00  0.00     0.049 A 
ATOM     45  H   UNL     1      11.455   1.239   9.859  1.00  0.00     0.167 HD
ATOM     46  C   UNL     1      12.376  -2.864  11.090  1.00  0.00     0.037 A 
ATOM     47  C   UNL     1      11.233   3.996  10.239  1.00  0.00     0.037 A 
ATOM     48  C   UNL     1      12.808  -2.035  12.185  1.00  0.00     0.049 A 
ATOM     49  C   UNL     1      11.833   3.439  11.502  1.00  0.00     0.074 A 
ATOM     50  C   UNL     1      13.431  -2.413  13.361  1.00  0.00     0.029 A 
ATOM     51  N   UNL     1      12.655  -0.657  12.239  1.00  0.00    -0.354 N 
ATOM     52  N   UNL     1      12.135   2.199  11.801  1.00  0.00    -0.248 NA
ATOM     53  C   UNL     1      12.141   4.404  12.567  1.00  0.00     0.031 C 
ATOM     54  C   UNL     1      13.604  -1.272  14.151  1.00  0.00     0.029 A 
ATOM     55  C   UNL     1      13.149  -0.173  13.441  1.00  0.00     0.049 A 
ATOM     56  H   UNL     1      12.255  -0.104  11.530  1.00  0.00     0.167 HD
ATOM     57  C   UNL     1      12.698   2.237  13.070  1.00  0.00     0.074 A 
ATOM     58  C   UNL     1      12.711   3.627  13.477  1.00  0.00     0.031 C 
ATOM     59  C   UNL     1      13.163   1.215  13.829  1.00  0.00     0.037 A 
BRANCH  46  60
ATOM     60  C   UNL     1      12.546  -4.352  11.212  1.00  0.00     0.064 A 
ATOM     61  C   UNL     1      13.460  -5.059  10.414  1.00  0.00     0.173 A 
ATOM     62  C   UNL     1      11.810  -5.079  12.161  1.00  0.00     0.173 A 
ATOM     63  F   UNL     1      14.181  -4.415   9.483  1.00  0.00    -0.203 F 
ATOM     64  C   UNL     1      13.605  -6.438  10.537  1.00  0.00     0.198 A 
ATOM     65  C   UNL     1      11.983  -6.453  12.305  1.00  0.00     0.198 A 
ATOM     66  F   UNL     1      10.927  -4.455  12.955  1.00  0.00    -0.203 F 
ATOM     67  F   UNL     1      14.442  -7.097   9.724  1.00  0.00    -0.200 F 
ATOM     68  C   UNL     1      12.873  -7.133  11.487  1.00  0.00     0.200 A 
ATOM     69  F   UNL     1      11.286  -7.120  13.235  1.00  0.00    -0.200 F 
ATOM     70  F   UNL     1      13.019  -8.459  11.610  1.00  0.00    -0.200 F 
ENDBRANCH  46  60
BRANCH  47  71
ATOM     71  C   UNL     1      10.989   5.455  10.090  1.00  0.00     0.064 A 
ATOM     72  C   UNL     1      12.058   6.361  10.026  1.00  0.00     0.173 A 
ATOM     73  C   UNL     1       9.689   5.976  10.021  1.00  0.00     0.173 A 
ATOM     74  F   UNL     1      13.320   5.913  10.107  1.00  0.00    -0.203 F 
ATOM     75  C   UNL     1      11.835   7.732   9.926  1.00  0.00     0.198 A 
ATOM     76  C   UNL     1       9.468   7.346   9.888  1.00  0.00     0.198 A 
ATOM     77  F   UNL     1       8.632   5.153  10.071  1.00  0.00    -0.203 F 
ATOM     78  F   UNL     1      12.874   8.579   9.921  1.00  0.00    -0.200 F 
ATOM     79  C   UNL     1      10.541   8.223   9.851  1.00  0.00     0.200 A 
ATOM     80  F   UNL     1       8.216   7.814   9.799  1.00  0.00    -0.200 F 
ATOM     81  F   UNL     1      10.327   9.542   9.753  1.00  0.00    -0.200 F 
ENDBRANCH  47  71
BRANCH  59  82
ATOM     82  C   UNL     1      13.767   1.564  15.160  1.00  0.00     0.064 A 
ATOM     83  C   UNL     1      12.986   2.029  16.229  1.00  0.00     0.173 A 
ATOM     84  C   UNL     1      15.144   1.401  15.376  1.00  0.00     0.173 A 
ATOM     85  F   UNL     1      11.667   2.215  16.071  1.00  0.00    -0.203 F 
ATOM     86  C   UNL     1      13.567   2.349  17.454  1.00  0.00     0.198 A 
ATOM     87  C   UNL     1      15.716   1.688  16.612  1.00  0.00     0.198 A 
ATOM     88  F   UNL     1      15.936   0.952  14.390  1.00  0.00    -0.203 F 
ATOM     89  F   UNL     1      12.811   2.845  18.442  1.00  0.00    -0.200 F 
ATOM     90  C   UNL     1      14.929   2.171  17.647  1.00  0.00     0.200 A 
ATOM     91  F   UNL     1      17.029   1.498  16.802  1.00  0.00    -0.200 F 
ATOM     92  F   UNL     1      15.485   2.473  18.828  1.00  0.00    -0.200 F 
ENDBRANCH  59  82
ENDBRANCH  33  34
ENDBRANCH  25  28
ENDBRANCH  23  24
ENDBRANCH  22  23
ENDBRANCH   1  22
TORSDOF 14
