REMARK SMILES N#C[C@@H]1CN(C(=O)N[C@@H](Cc2cnc[nH]2)C(=O)NCCCCNC(=O)c2ccc(-c3c4nc(c(-c5c(F)c(F)c(F)c(F)c5F)c5ccc([nH]5)c(-c5c(F)c(F)c(F)c(F)c5F)c5nc(c(-c6c(F)c(F)c(F)c(F)c6F)c6ccc3[nH]6)C=C5)C=C4)cc2)CCO1
REMARK SMILES IDX 20 1 19 2 18 3 16 4 17 5 9 7 8 8 6 9 7 10 5 12 3 13 4 14
REMARK SMILES IDX 91 15 90 16 89 17 2 18 1 19 10 20 11 21 12 22 15 23 13 24
REMARK SMILES IDX 14 25 21 27 22 28 23 29 24 30 25 32 26 33 27 34 88 35 28 36
REMARK SMILES IDX 87 37 29 38 30 39 31 40 81 41 32 42 86 43 80 44 82 45 33 46
REMARK SMILES IDX 85 47 79 48 78 49 34 51 66 52 46 53 65 54 47 55 50 56 64 57
REMARK SMILES IDX 83 58 48 59 49 60 63 62 84 63 51 64 35 65 36 66 44 67 37 68
REMARK SMILES IDX 38 69 42 70 45 71 39 72 40 73 43 74 41 75 67 76 68 77 76 78
REMARK SMILES IDX 69 79 70 80 74 81 77 82 71 83 72 84 75 85 73 86 52 87 53 88
REMARK SMILES IDX 61 89 54 90 55 91 59 92 62 93 56 94 57 95 60 96 58 97
REMARK H PARENT 18 6 8 11 15 26 23 31 82 50 50 61
REMARK Flexibility Score: inf
ROOT
ATOM      1  C   UNL     1      -0.916   4.702  -3.600  1.00  0.00     0.023 C 
ENDROOT
BRANCH   1   2
ATOM      2  C   UNL     1       0.391   5.024  -2.901  1.00  0.00     0.116 C 
BRANCH   2   3
ATOM      3  N   UNL     1       0.490   4.487  -1.567  1.00  0.00    -0.354 N 
ATOM      4  C   UNL     1       1.607   4.104  -0.899  1.00  0.00     0.243 C 
ATOM      5  O   UNL     1       1.556   4.107   0.337  1.00  0.00    -0.273 OA
ATOM      6  H   UNL     1      -0.359   4.385  -1.080  1.00  0.00     0.163 HD
BRANCH   4   7
ATOM      7  C   UNL     1       2.939   3.775  -1.601  1.00  0.00     0.179 C 
BRANCH   7   8
ATOM      8  N   UNL     1       2.865   2.871  -2.755  1.00  0.00    -0.326 N 
ATOM      9  C   UNL     1       3.287   1.650  -3.107  1.00  0.00     0.318 C 
ATOM     10  O   UNL     1       2.934   1.297  -4.237  1.00  0.00    -0.249 OA
ATOM     11  H   UNL     1       2.352   3.285  -3.486  1.00  0.00     0.166 HD
BRANCH   9  12
ATOM     12  N   UNL     1       4.038   0.839  -2.320  1.00  0.00    -0.319 N 
ATOM     13  C   UNL     1       3.709   0.057  -0.039  1.00  0.00     0.240 C 
ATOM     14  C   UNL     1       4.472   1.006  -0.944  1.00  0.00     0.169 C 
ATOM     15  O   UNL     1       4.157  -1.288  -0.429  1.00  0.00    -0.360 OA
ATOM     16  C   UNL     1       3.821  -1.586  -1.808  1.00  0.00     0.183 C 
ATOM     17  C   UNL     1       4.345  -0.524  -2.797  1.00  0.00     0.150 C 
BRANCH  13  18
ATOM     18  C   UNL     1       2.189   0.057  -0.039  1.00  0.00     0.096 C 
ATOM     19  N   UNL     1       0.928   0.057  -0.039  1.00  0.00    -0.195 NA
ENDBRANCH  13  18
ENDBRANCH   9  12
ENDBRANCH   7   8
BRANCH   7  20
ATOM     20  C   UNL     1       3.904   4.957  -1.801  1.00  0.00     0.090 C 
BRANCH  20  21
ATOM     21  C   UNL     1       3.490   6.004  -2.776  1.00  0.00     0.037 A 
ATOM     22  C   UNL     1       3.323   5.998  -4.145  1.00  0.00     0.134 A 
ATOM     23  N   UNL     1       3.235   7.305  -2.406  1.00  0.00    -0.348 N 
ATOM     24  N   UNL     1       2.862   7.211  -4.583  1.00  0.00    -0.245 NA
ATOM     25  C   UNL     1       2.843   7.984  -3.523  1.00  0.00     0.196 A 
ATOM     26  H   UNL     1       3.320   7.678  -1.500  1.00  0.00     0.167 HD
ENDBRANCH  20  21
ENDBRANCH   7  20
ENDBRANCH   4   7
ENDBRANCH   2   3
ENDBRANCH   1   2
BRANCH   1  27
ATOM     27  C   UNL     1      -2.143   5.370  -2.995  1.00  0.00     0.023 C 
BRANCH  27  28
ATOM     28  C   UNL     1      -1.993   6.853  -2.679  1.00  0.00     0.116 C 
BRANCH  28  29
ATOM     29  N   UNL     1      -1.574   7.665  -3.814  1.00  0.00    -0.352 N 
ATOM     30  C   UNL     1      -2.149   8.808  -4.318  1.00  0.00     0.251 C 
ATOM     31  H   UNL     1      -0.768   7.353  -4.285  1.00  0.00     0.163 HD
ATOM     32  O   UNL     1      -1.719   9.341  -5.335  1.00  0.00    -0.269 OA
BRANCH  30  33
ATOM     33  C   UNL     1      -3.330   9.371  -3.637  1.00  0.00     0.039 A 
ATOM     34  C   UNL     1      -4.485   9.616  -4.381  1.00  0.00     0.014 A 
ATOM     35  C   UNL     1      -3.316   9.574  -2.255  1.00  0.00     0.014 A 
ATOM     36  C   UNL     1      -5.661   9.977  -3.722  1.00  0.00     0.010 A 
ATOM     37  C   UNL     1      -4.508   9.841  -1.593  1.00  0.00     0.010 A 
ATOM     38  C   UNL     1      -5.693  10.041  -2.319  1.00  0.00    -0.014 A 
BRANCH  38  39
ATOM     39  C   UNL     1      -6.958  10.300  -1.587  1.00  0.00     0.031 A 
ATOM     40  C   UNL     1      -7.085  11.516  -0.714  1.00  0.00     0.074 A 
ATOM     41  C   UNL     1      -7.954   9.394  -1.633  1.00  0.00     0.049 A 
ATOM     42  N   UNL     1      -8.070  11.873   0.071  1.00  0.00    -0.248 NA
ATOM     43  C   UNL     1      -5.934  12.432  -0.688  1.00  0.00     0.031 C 
ATOM     44  C   UNL     1      -7.920   8.135  -2.379  1.00  0.00     0.029 A 
ATOM     45  N   UNL     1      -9.183   9.384  -1.022  1.00  0.00    -0.354 N 
ATOM     46  C   UNL     1      -7.646  13.035   0.701  1.00  0.00     0.074 A 
ATOM     47  C   UNL     1      -6.295  13.293   0.251  1.00  0.00     0.031 C 
ATOM     48  C   UNL     1      -9.080   7.484  -2.197  1.00  0.00     0.029 A 
ATOM     49  C   UNL     1      -9.926   8.262  -1.297  1.00  0.00     0.049 A 
ATOM     50  H   UNL     1      -9.502  10.113  -0.442  1.00  0.00     0.167 HD
ATOM     51  C   UNL     1      -8.330  13.829   1.558  1.00  0.00     0.037 A 
ATOM     52  C   UNL     1     -11.149   7.899  -0.866  1.00  0.00     0.037 A 
ATOM     53  C   UNL     1      -9.689  13.592   1.967  1.00  0.00     0.049 A 
ATOM     54  C   UNL     1     -11.909   8.820   0.049  1.00  0.00     0.074 A 
ATOM     55  C   UNL     1     -10.505  14.388   2.751  1.00  0.00     0.029 A 
ATOM     56  N   UNL     1     -10.431  12.471   1.625  1.00  0.00    -0.354 N 
ATOM     57  N   UNL     1     -11.535   9.967   0.563  1.00  0.00    -0.248 NA
ATOM     58  C   UNL     1     -13.264   8.404   0.433  1.00  0.00     0.031 C 
ATOM     59  C   UNL     1     -11.726  13.727   2.921  1.00  0.00     0.029 A 
ATOM     60  C   UNL     1     -11.688  12.542   2.203  1.00  0.00     0.049 A 
ATOM     61  H   UNL     1     -10.112  11.734   1.056  1.00  0.00     0.167 HD
ATOM     62  C   UNL     1     -12.612  10.418   1.314  1.00  0.00     0.074 A 
ATOM     63  C   UNL     1     -13.662   9.429   1.173  1.00  0.00     0.031 C 
ATOM     64  C   UNL     1     -12.721  11.549   2.054  1.00  0.00     0.037 A 
BRANCH  51  65
ATOM     65  C   UNL     1      -7.617  15.032   2.104  1.00  0.00     0.064 A 
ATOM     66  C   UNL     1      -7.284  16.126   1.291  1.00  0.00     0.173 A 
ATOM     67  C   UNL     1      -7.276  15.098   3.463  1.00  0.00     0.173 A 
ATOM     68  F   UNL     1      -7.576  16.108  -0.018  1.00  0.00    -0.203 F 
ATOM     69  C   UNL     1      -6.602  17.224   1.810  1.00  0.00     0.198 A 
ATOM     70  C   UNL     1      -6.623  16.211   3.986  1.00  0.00     0.198 A 
ATOM     71  F   UNL     1      -7.575  14.082   4.287  1.00  0.00    -0.203 F 
ATOM     72  F   UNL     1      -6.241  18.229   1.001  1.00  0.00    -0.200 F 
ATOM     73  C   UNL     1      -6.278  17.268   3.157  1.00  0.00     0.200 A 
ATOM     74  F   UNL     1      -6.321  16.258   5.290  1.00  0.00    -0.200 F 
ATOM     75  F   UNL     1      -5.623  18.326   3.655  1.00  0.00    -0.200 F 
ENDBRANCH  51  65
BRANCH  52  76
ATOM     76  C   UNL     1     -11.739   6.615  -1.322  1.00  0.00     0.064 A 
ATOM     77  C   UNL     1     -12.804   6.594  -2.233  1.00  0.00     0.173 A 
ATOM     78  C   UNL     1     -11.242   5.383  -0.871  1.00  0.00     0.173 A 
ATOM     79  F   UNL     1     -13.327   7.747  -2.677  1.00  0.00    -0.203 F 
ATOM     80  C   UNL     1     -13.360   5.391  -2.664  1.00  0.00     0.198 A 
ATOM     81  C   UNL     1     -11.781   4.181  -1.323  1.00  0.00     0.198 A 
ATOM     82  F   UNL     1     -10.219   5.349  -0.004  1.00  0.00    -0.203 F 
ATOM     83  F   UNL     1     -14.403   5.401  -3.506  1.00  0.00    -0.200 F 
ATOM     84  C   UNL     1     -12.844   4.186  -2.214  1.00  0.00     0.200 A 
ATOM     85  F   UNL     1     -11.271   3.018  -0.896  1.00  0.00    -0.200 F 
ATOM     86  F   UNL     1     -13.374   3.029  -2.635  1.00  0.00    -0.200 F 
ENDBRANCH  52  76
BRANCH  64  87
ATOM     87  C   UNL     1     -14.028  11.790   2.751  1.00  0.00     0.064 A 
ATOM     88  C   UNL     1     -14.411  11.040   3.873  1.00  0.00     0.173 A 
ATOM     89  C   UNL     1     -14.886  12.812   2.319  1.00  0.00     0.173 A 
ATOM     90  F   UNL     1     -13.631  10.042   4.316  1.00  0.00    -0.203 F 
ATOM     91  C   UNL     1     -15.617  11.290   4.522  1.00  0.00     0.198 A 
ATOM     92  C   UNL     1     -16.077  13.078   2.987  1.00  0.00     0.198 A 
ATOM     93  F   UNL     1     -14.562  13.562   1.255  1.00  0.00    -0.203 F 
ATOM     94  F   UNL     1     -15.984  10.533   5.565  1.00  0.00    -0.200 F 
ATOM     95  C   UNL     1     -16.445  12.313   4.084  1.00  0.00     0.200 A 
ATOM     96  F   UNL     1     -16.869  14.076   2.571  1.00  0.00    -0.200 F 
ATOM     97  F   UNL     1     -17.601  12.558   4.715  1.00  0.00    -0.200 F 
ENDBRANCH  64  87
ENDBRANCH  38  39
ENDBRANCH  30  33
ENDBRANCH  28  29
ENDBRANCH  27  28
ENDBRANCH   1  27
TORSDOF 16
