REMARK SMILES COc1cc([C@H]2[NH2+]CCC3=c4ccccc4=N[C@H]32)ccc1OCC(=O)NCCCCNC(=O)c1ccc(-c2c3nc(c(-c4c(F)c(F)c(F)c(F)c4F)c4ccc([nH]4)c(-c4c(F)c(F)c(F)c(F)c4F)c4nc(c(-c5c(F)c(F)c(F)c(F)c5F)c5ccc2[nH]5)C=C4)C=C3)cc1
REMARK SMILES IDX 28 1 27 2 26 3 24 4 25 5 23 7 22 8 21 9 3 10 4 11 5 12 20 13
REMARK SMILES IDX 19 14 2 15 1 16 6 17 7 18 18 19 8 20 10 23 17 24 9 25 11 26
REMARK SMILES IDX 16 27 12 28 15 29 13 30 14 31 29 32 30 33 31 34 32 35 33 37
REMARK SMILES IDX 34 38 35 39 96 40 36 41 95 42 37 43 38 44 39 45 89 46 40 47
REMARK SMILES IDX 94 48 88 49 90 50 41 51 93 52 87 53 86 54 42 56 74 57 54 58
REMARK SMILES IDX 73 59 55 60 58 61 72 62 91 63 56 64 57 65 71 67 92 68 59 69
REMARK SMILES IDX 43 70 44 71 52 72 45 73 46 74 50 75 53 76 47 77 48 78 51 79
REMARK SMILES IDX 49 80 75 81 76 82 84 83 77 84 78 85 82 86 85 87 79 88 80 89
REMARK SMILES IDX 83 90 81 91 60 92 61 93 69 94 62 95 63 96 67 97 70 98 64 99
REMARK SMILES IDX 65 100 68 101 66 102
REMARK H PARENT 26 6 7 21 7 22 31 36 90 55 58 66
REMARK Flexibility Score: inf
ROOT
ATOM      1  C   UNL     1       0.350  12.385  -2.605  1.00  0.00     0.023 C 
ENDROOT
BRANCH   1   2
ATOM      2  C   UNL     1       1.742  12.543  -3.219  1.00  0.00     0.116 C 
BRANCH   2   3
ATOM      3  N   UNL     1       2.806  12.246  -2.284  1.00  0.00    -0.353 N 
ATOM      4  C   UNL     1       3.881  11.424  -2.421  1.00  0.00     0.257 C 
ATOM      5  O   UNL     1       4.788  11.549  -1.593  1.00  0.00    -0.271 OA
ATOM      6  H   UNL     1       2.743  12.709  -1.417  1.00  0.00     0.163 HD
BRANCH   4   7
ATOM      7  C   UNL     1       4.007  10.449  -3.599  1.00  0.00     0.329 C 
BRANCH   7   8
ATOM      8  O   UNL     1       2.926   9.689  -4.066  1.00  0.00    -0.480 OA
BRANCH   8   9
ATOM      9  C   UNL     1       2.171   8.882  -3.278  1.00  0.00     0.161 A 
ATOM     10  C   UNL     1       2.488   8.051  -2.203  1.00  0.00     0.161 A 
ATOM     11  C   UNL     1       1.498   7.174  -1.646  1.00  0.00     0.060 A 
ATOM     12  C   UNL     1       0.191   7.055  -2.185  1.00  0.00     0.016 A 
ATOM     13  C   UNL     1       0.901   8.759  -3.819  1.00  0.00     0.051 A 
ATOM     14  C   UNL     1      -0.020   7.838  -3.325  1.00  0.00     0.014 A 
BRANCH  10  15
ATOM     15  O   UNL     1       3.793   7.762  -1.882  1.00  0.00    -0.493 OA
ATOM     16  C   UNL     1       4.369   8.622  -0.907  1.00  0.00     0.278 C 
ENDBRANCH  10  15
BRANCH  12  17
ATOM     17  C   UNL     1      -0.830   5.929  -1.804  1.00  0.00     0.243 C 
ATOM     18  N   UNL     1      -0.711   5.419  -0.398  1.00  0.00    -0.338 N 
ATOM     19  C   UNL     1      -2.386   6.038  -2.215  1.00  0.00     0.196 C 
ATOM     20  C   UNL     1      -1.618   6.010   0.599  1.00  0.00     0.265 C 
ATOM     21  H   UNL     1       0.245   5.591  -0.087  1.00  0.00     0.346 HD
ATOM     22  H   UNL     1      -0.973   4.435  -0.448  1.00  0.00     0.346 HD
ATOM     23  C   UNL     1      -3.171   6.690  -1.116  1.00  0.00    -0.025 C 
ATOM     24  N   UNL     1      -2.681   6.877  -3.406  1.00  0.00    -0.270 NA
ATOM     25  C   UNL     1      -3.097   6.017   0.197  1.00  0.00     0.095 C 
ATOM     26  C   UNL     1      -3.652   7.869  -1.483  1.00  0.00     0.001 A 
ATOM     27  C   UNL     1      -3.246   7.929  -2.892  1.00  0.00     0.066 A 
ATOM     28  C   UNL     1      -4.293   8.961  -0.832  1.00  0.00     0.010 A 
ATOM     29  C   UNL     1      -3.445   9.225  -3.579  1.00  0.00     0.028 A 
ATOM     30  C   UNL     1      -4.423  10.116  -1.507  1.00  0.00     0.001 A 
ATOM     31  C   UNL     1      -3.953  10.253  -2.878  1.00  0.00     0.002 A 
ENDBRANCH  12  17
ENDBRANCH   8   9
ENDBRANCH   7   8
ENDBRANCH   4   7
ENDBRANCH   2   3
ENDBRANCH   1   2
BRANCH   1  32
ATOM     32  C   UNL     1       0.115  13.114  -1.279  1.00  0.00     0.023 C 
BRANCH  32  33
ATOM     33  C   UNL     1       0.535  14.579  -1.230  1.00  0.00     0.116 C 
BRANCH  33  34
ATOM     34  N   UNL     1      -0.147  15.408  -2.209  1.00  0.00    -0.352 N 
ATOM     35  C   UNL     1      -0.787  16.610  -2.038  1.00  0.00     0.251 C 
ATOM     36  H   UNL     1      -0.151  15.056  -3.128  1.00  0.00     0.163 HD
ATOM     37  O   UNL     1      -1.410  17.112  -2.972  1.00  0.00    -0.269 OA
BRANCH  35  38
ATOM     38  C   UNL     1      -0.766  17.288  -0.723  1.00  0.00     0.039 A 
ATOM     39  C   UNL     1      -1.960  17.814  -0.221  1.00  0.00     0.014 A 
ATOM     40  C   UNL     1       0.413  17.401   0.018  1.00  0.00     0.014 A 
ATOM     41  C   UNL     1      -1.985  18.387   1.052  1.00  0.00     0.010 A 
ATOM     42  C   UNL     1       0.370  17.899   1.319  1.00  0.00     0.010 A 
ATOM     43  C   UNL     1      -0.829  18.398   1.850  1.00  0.00    -0.014 A 
BRANCH  43  44
ATOM     44  C   UNL     1      -0.861  18.925   3.240  1.00  0.00     0.031 A 
ATOM     45  C   UNL     1      -0.039  20.127   3.616  1.00  0.00     0.074 A 
ATOM     46  C   UNL     1      -1.589  18.288   4.179  1.00  0.00     0.049 A 
ATOM     47  N   UNL     1       0.102  20.704   4.783  1.00  0.00    -0.248 NA
ATOM     48  C   UNL     1       0.750  20.748   2.542  1.00  0.00     0.031 C 
ATOM     49  C   UNL     1      -2.396  17.089   3.952  1.00  0.00     0.029 A 
ATOM     50  N   UNL     1      -1.764  18.558   5.514  1.00  0.00    -0.354 N 
ATOM     51  C   UNL     1       0.997  21.747   4.584  1.00  0.00     0.074 A 
ATOM     52  C   UNL     1       1.417  21.683   3.201  1.00  0.00     0.031 C 
ATOM     53  C   UNL     1      -3.005  16.745   5.098  1.00  0.00     0.029 A 
ATOM     54  C   UNL     1      -2.598  17.671   6.150  1.00  0.00     0.049 A 
ATOM     55  H   UNL     1      -1.333  19.315   5.971  1.00  0.00     0.167 HD
ATOM     56  C   UNL     1       1.409  22.690   5.466  1.00  0.00     0.037 A 
ATOM     57  C   UNL     1      -2.986  17.609   7.439  1.00  0.00     0.037 A 
ATOM     58  C   UNL     1       0.983  22.755   6.839  1.00  0.00     0.049 A 
ATOM     59  C   UNL     1      -2.482  18.646   8.408  1.00  0.00     0.074 A 
ATOM     60  C   UNL     1       1.309  23.694   7.802  1.00  0.00     0.029 A 
ATOM     61  N   UNL     1       0.141  21.835   7.449  1.00  0.00    -0.354 N 
ATOM     62  N   UNL     1      -1.692  19.669   8.191  1.00  0.00    -0.248 NA
ATOM     63  C   UNL     1      -2.932  18.521   9.801  1.00  0.00     0.031 C 
ATOM     64  C   UNL     1       0.712  23.312   9.008  1.00  0.00     0.029 A 
ATOM     65  C   UNL     1      -0.041  22.170   8.783  1.00  0.00     0.049 A 
ATOM     66  H   UNL     1      -0.267  21.059   7.002  1.00  0.00     0.167 HD
ATOM     67  C   UNL     1      -1.578  20.328   9.408  1.00  0.00     0.074 A 
ATOM     68  C   UNL     1      -2.394  19.597  10.355  1.00  0.00     0.031 C 
ATOM     69  C   UNL     1      -0.864  21.439   9.713  1.00  0.00     0.037 A 
BRANCH  56  70
ATOM     70  C   UNL     1       2.377  23.727   4.967  1.00  0.00     0.064 A 
ATOM     71  C   UNL     1       2.001  24.689   4.016  1.00  0.00     0.173 A 
ATOM     72  C   UNL     1       3.689  23.776   5.460  1.00  0.00     0.173 A 
ATOM     73  F   UNL     1       0.761  24.683   3.503  1.00  0.00    -0.203 F 
ATOM     74  C   UNL     1       2.912  25.633   3.548  1.00  0.00     0.198 A 
ATOM     75  C   UNL     1       4.588  24.744   5.018  1.00  0.00     0.198 A 
ATOM     76  F   UNL     1       4.102  22.887   6.377  1.00  0.00    -0.203 F 
ATOM     77  F   UNL     1       2.546  26.499   2.594  1.00  0.00    -0.200 F 
ATOM     78  C   UNL     1       4.202  25.664   4.055  1.00  0.00     0.200 A 
ATOM     79  F   UNL     1       5.829  24.784   5.521  1.00  0.00    -0.200 F 
ATOM     80  F   UNL     1       5.077  26.575   3.607  1.00  0.00    -0.200 F 
ENDBRANCH  56  70
BRANCH  57  81
ATOM     81  C   UNL     1      -3.924  16.544   7.885  1.00  0.00     0.064 A 
ATOM     82  C   UNL     1      -5.227  16.860   8.296  1.00  0.00     0.173 A 
ATOM     83  C   UNL     1      -3.538  15.196   7.925  1.00  0.00     0.173 A 
ATOM     84  F   UNL     1      -5.637  18.137   8.296  1.00  0.00    -0.203 F 
ATOM     85  C   UNL     1      -6.099  15.874   8.753  1.00  0.00     0.198 A 
ATOM     86  C   UNL     1      -4.422  14.206   8.351  1.00  0.00     0.198 A 
ATOM     87  F   UNL     1      -2.305  14.838   7.538  1.00  0.00    -0.203 F 
ATOM     88  F   UNL     1      -7.320  16.212   9.188  1.00  0.00    -0.200 F 
ATOM     89  C   UNL     1      -5.697  14.547   8.774  1.00  0.00     0.200 A 
ATOM     90  F   UNL     1      -4.036  12.923   8.353  1.00  0.00    -0.200 F 
ATOM     91  F   UNL     1      -6.537  13.598   9.209  1.00  0.00    -0.200 F 
ENDBRANCH  57  81
BRANCH  69  92
ATOM     92  C   UNL     1      -0.968  21.963  11.118  1.00  0.00     0.064 A 
ATOM     93  C   UNL     1      -0.408  21.281  12.208  1.00  0.00     0.173 A 
ATOM     94  C   UNL     1      -1.612  23.185  11.371  1.00  0.00     0.173 A 
ATOM     95  F   UNL     1       0.205  20.102  12.024  1.00  0.00    -0.203 F 
ATOM     96  C   UNL     1      -0.515  21.786  13.502  1.00  0.00     0.198 A 
ATOM     97  C   UNL     1      -1.686  23.704  12.661  1.00  0.00     0.198 A 
ATOM     98  F   UNL     1      -2.160  23.883  10.365  1.00  0.00    -0.203 F 
ATOM     99  F   UNL     1      -0.022  21.088  14.534  1.00  0.00    -0.200 F 
ATOM    100  C   UNL     1      -1.147  23.000  13.726  1.00  0.00     0.200 A 
ATOM    101  F   UNL     1      -2.282  24.886  12.872  1.00  0.00    -0.200 F 
ATOM    102  F   UNL     1      -1.242  23.488  14.970  1.00  0.00    -0.200 F 
ENDBRANCH  69  92
ENDBRANCH  43  44
ENDBRANCH  35  38
ENDBRANCH  33  34
ENDBRANCH  32  33
ENDBRANCH   1  32
TORSDOF 15
