REMARK SMILES O=C(C[C@@H]1C(=O)NCCN1C(=O)OCC1c2ccccc2-c2ccccc21)NCCCCNC(=O)c1ccc(-c2c3nc(c(-c4c(F)c(F)c(F)c(F)c4F)c4ccc([nH]4)c(-c4c(F)c(F)c(F)c(F)c4F)c4nc(c(-c5c(F)c(F)c(F)c(F)c5F)c5ccc2[nH]5)C=C4)C=C3)cc1
REMARK SMILES IDX 29 1 28 2 1 3 2 4 3 6 4 7 5 8 10 9 6 10 7 11 9 12 8 13 11 15
REMARK SMILES IDX 12 16 13 17 14 18 15 19 16 20 27 21 17 22 21 23 22 24 26 25
REMARK SMILES IDX 18 26 20 27 23 28 25 29 19 30 24 31 30 32 31 33 32 34 33 35
REMARK SMILES IDX 34 36 35 38 36 39 37 40 98 41 38 42 97 43 39 44 40 45 41 46
REMARK SMILES IDX 91 47 42 48 96 49 90 50 92 51 43 52 95 53 89 54 88 55 44 57
REMARK SMILES IDX 76 58 56 59 75 60 57 61 60 62 74 63 93 64 58 65 59 66 73 68
REMARK SMILES IDX 94 69 61 70 45 71 46 72 54 73 47 74 48 75 52 76 55 77 49 78
REMARK SMILES IDX 50 79 53 80 51 81 77 82 78 83 86 84 79 85 80 86 84 87 87 88
REMARK SMILES IDX 81 89 82 90 85 91 83 92 62 93 63 94 71 95 64 96 65 97 69 98
REMARK SMILES IDX 72 99 66 100 67 101 70 102 68 103
REMARK H PARENT 28 5 7 14 33 37 92 56 60 67
REMARK Flexibility Score: inf
ROOT
ATOM      1  C   UNL     1       2.017   1.734  -1.605  1.00  0.00     0.116 C 
ENDROOT
BRANCH   1   2
ATOM      2  N   UNL     1       2.604   0.801  -0.662  1.00  0.00    -0.356 N 
ATOM      3  O   UNL     1       0.627  -0.144  -0.002  1.00  0.00    -0.275 OA
ATOM      4  C   UNL     1       1.854  -0.127   0.027  1.00  0.00     0.222 C 
ATOM      5  H   UNL     1       3.576   0.832  -0.509  1.00  0.00     0.163 HD
BRANCH   4   6
ATOM      6  C   UNL     1       2.648  -1.123   0.858  1.00  0.00     0.135 C 
BRANCH   6   7
ATOM      7  C   UNL     1       3.727  -1.824   0.008  1.00  0.00     0.187 C 
ATOM      8  C   UNL     1       3.322  -3.327  -0.094  1.00  0.00     0.243 C 
ATOM      9  N   UNL     1       5.158  -1.581   0.369  1.00  0.00    -0.294 N 
ATOM     10  O   UNL     1       2.193  -3.687  -0.425  1.00  0.00    -0.273 OA
ATOM     11  N   UNL     1       4.268  -4.284   0.145  1.00  0.00    -0.353 N 
ATOM     12  C   UNL     1       6.090  -2.661   0.049  1.00  0.00     0.145 C 
ATOM     13  C   UNL     1       5.593  -3.981   0.618  1.00  0.00     0.137 C 
ATOM     14  H   UNL     1       4.031  -5.226  -0.014  1.00  0.00     0.163 HD
BRANCH   9  15
ATOM     15  C   UNL     1       5.729  -0.364   0.705  1.00  0.00     0.410 C 
ATOM     16  O   UNL     1       6.930  -0.131   0.611  1.00  0.00    -0.224 OA
BRANCH  15  17
ATOM     17  O   UNL     1       4.852   0.524   1.236  1.00  0.00    -0.448 OA
BRANCH  17  18
ATOM     18  C   UNL     1       5.436   1.613   1.982  1.00  0.00     0.248 C 
BRANCH  18  19
ATOM     19  C   UNL     1       5.776   1.300   3.467  1.00  0.00     0.088 C 
ATOM     20  C   UNL     1       4.793   1.963   4.440  1.00  0.00    -0.029 A 
ATOM     21  C   UNL     1       5.708  -0.154   3.931  1.00  0.00    -0.029 A 
ATOM     22  C   UNL     1       4.548   3.316   4.629  1.00  0.00     0.005 A 
ATOM     23  C   UNL     1       4.191   0.992   5.268  1.00  0.00    -0.014 A 
ATOM     24  C   UNL     1       4.718  -0.309   4.925  1.00  0.00    -0.014 A 
ATOM     25  C   UNL     1       6.511  -1.226   3.572  1.00  0.00     0.005 A 
ATOM     26  C   UNL     1       3.688   3.693   5.664  1.00  0.00     0.000 A 
ATOM     27  C   UNL     1       3.338   1.368   6.294  1.00  0.00     0.009 A 
ATOM     28  C   UNL     1       4.442  -1.554   5.470  1.00  0.00     0.009 A 
ATOM     29  C   UNL     1       6.241  -2.480   4.124  1.00  0.00     0.000 A 
ATOM     30  C   UNL     1       3.090   2.729   6.490  1.00  0.00     0.001 A 
ATOM     31  C   UNL     1       5.198  -2.649   5.046  1.00  0.00     0.001 A 
ENDBRANCH  18  19
ENDBRANCH  17  18
ENDBRANCH  15  17
ENDBRANCH   9  15
ENDBRANCH   6   7
ENDBRANCH   4   6
ENDBRANCH   1   2
BRANCH   1  32
ATOM     32  C   UNL     1       2.427   3.178  -1.325  1.00  0.00     0.023 C 
BRANCH  32  33
ATOM     33  C   UNL     1       3.918   3.478  -1.502  1.00  0.00     0.023 C 
BRANCH  33  34
ATOM     34  C   UNL     1       4.486   3.218  -2.895  1.00  0.00     0.116 C 
BRANCH  34  35
ATOM     35  N   UNL     1       3.891   4.060  -3.920  1.00  0.00    -0.352 N 
ATOM     36  C   UNL     1       4.492   4.871  -4.854  1.00  0.00     0.251 C 
ATOM     37  H   UNL     1       2.907   4.048  -3.951  1.00  0.00     0.163 HD
ATOM     38  O   UNL     1       3.806   5.614  -5.551  1.00  0.00    -0.269 OA
BRANCH  36  39
ATOM     39  C   UNL     1       5.965   4.884  -5.007  1.00  0.00     0.039 A 
ATOM     40  C   UNL     1       6.614   6.114  -5.157  1.00  0.00     0.014 A 
ATOM     41  C   UNL     1       6.709   3.702  -5.014  1.00  0.00     0.014 A 
ATOM     42  C   UNL     1       8.008   6.162  -5.238  1.00  0.00     0.010 A 
ATOM     43  C   UNL     1       8.102   3.756  -5.016  1.00  0.00     0.010 A 
ATOM     44  C   UNL     1       8.768   4.986  -5.124  1.00  0.00    -0.014 A 
BRANCH  44  45
ATOM     45  C   UNL     1      10.255   5.029  -5.099  1.00  0.00     0.031 A 
ATOM     46  C   UNL     1      11.056   4.352  -6.177  1.00  0.00     0.074 A 
ATOM     47  C   UNL     1      10.888   5.625  -4.069  1.00  0.00     0.049 A 
ATOM     48  N   UNL     1      12.355   4.220  -6.287  1.00  0.00    -0.248 NA
ATOM     49  C   UNL     1      10.296   3.718  -7.265  1.00  0.00     0.031 C 
ATOM     50  C   UNL     1      10.229   6.279  -2.938  1.00  0.00     0.029 A 
ATOM     51  N   UNL     1      12.227   5.767  -3.799  1.00  0.00    -0.354 N 
ATOM     52  C   UNL     1      12.565   3.485  -7.446  1.00  0.00     0.074 A 
ATOM     53  C   UNL     1      11.260   3.147  -7.973  1.00  0.00     0.031 C 
ATOM     54  C   UNL     1      11.163   6.768  -2.107  1.00  0.00     0.029 A 
ATOM     55  C   UNL     1      12.486   6.425  -2.621  1.00  0.00     0.049 A 
ATOM     56  H   UNL     1      12.935   5.429  -4.394  1.00  0.00     0.167 HD
ATOM     57  C   UNL     1      13.738   3.143  -8.031  1.00  0.00     0.037 A 
ATOM     58  C   UNL     1      13.655   6.707  -2.014  1.00  0.00     0.037 A 
ATOM     59  C   UNL     1      15.036   3.489  -7.511  1.00  0.00     0.049 A 
ATOM     60  C   UNL     1      14.944   6.293  -2.672  1.00  0.00     0.074 A 
ATOM     61  C   UNL     1      16.281   3.228  -8.056  1.00  0.00     0.029 A 
ATOM     62  N   UNL     1      15.256   4.166  -6.320  1.00  0.00    -0.354 N 
ATOM     63  N   UNL     1      15.130   5.655  -3.801  1.00  0.00    -0.248 NA
ATOM     64  C   UNL     1      16.188   6.645  -1.972  1.00  0.00     0.031 C 
ATOM     65  C   UNL     1      17.256   3.696  -7.169  1.00  0.00     0.029 A 
ATOM     66  C   UNL     1      16.618   4.308  -6.101  1.00  0.00     0.049 A 
ATOM     67  H   UNL     1      14.550   4.497  -5.720  1.00  0.00     0.167 HD
ATOM     68  C   UNL     1      16.506   5.557  -3.963  1.00  0.00     0.074 A 
ATOM     69  C   UNL     1      17.108   6.216  -2.824  1.00  0.00     0.031 C 
ATOM     70  C   UNL     1      17.207   4.973  -4.966  1.00  0.00     0.037 A 
BRANCH  57  71
ATOM     71  C   UNL     1      13.674   2.351  -9.307  1.00  0.00     0.064 A 
ATOM     72  C   UNL     1      13.191   2.913 -10.499  1.00  0.00     0.173 A 
ATOM     73  C   UNL     1      14.139   1.028  -9.351  1.00  0.00     0.173 A 
ATOM     74  F   UNL     1      12.726   4.172 -10.513  1.00  0.00    -0.203 F 
ATOM     75  C   UNL     1      13.145   2.171 -11.677  1.00  0.00     0.198 A 
ATOM     76  C   UNL     1      14.124   0.300 -10.538  1.00  0.00     0.198 A 
ATOM     77  F   UNL     1      14.619   0.442  -8.243  1.00  0.00    -0.203 F 
ATOM     78  F   UNL     1      12.630   2.713 -12.789  1.00  0.00    -0.200 F 
ATOM     79  C   UNL     1      13.619   0.868 -11.697  1.00  0.00     0.200 A 
ATOM     80  F   UNL     1      14.598  -0.954 -10.559  1.00  0.00    -0.200 F 
ATOM     81  F   UNL     1      13.583   0.158 -12.833  1.00  0.00    -0.200 F 
ENDBRANCH  57  71
BRANCH  58  82
ATOM     82  C   UNL     1      13.662   7.430  -0.714  1.00  0.00     0.064 A 
ATOM     83  C   UNL     1      14.169   8.733  -0.614  1.00  0.00     0.173 A 
ATOM     84  C   UNL     1      13.177   6.829   0.458  1.00  0.00     0.173 A 
ATOM     85  F   UNL     1      14.664   9.344  -1.700  1.00  0.00    -0.203 F 
ATOM     86  C   UNL     1      14.213   9.398   0.611  1.00  0.00     0.198 A 
ATOM     87  C   UNL     1      13.191   7.506   1.675  1.00  0.00     0.198 A 
ATOM     88  F   UNL     1      12.677   5.585   0.417  1.00  0.00    -0.203 F 
ATOM     89  F   UNL     1      14.752  10.622   0.686  1.00  0.00    -0.200 F 
ATOM     90  C   UNL     1      13.718   8.786   1.752  1.00  0.00     0.200 A 
ATOM     91  F   UNL     1      12.695   6.918   2.772  1.00  0.00    -0.200 F 
ATOM     92  F   UNL     1      13.757   9.427   2.929  1.00  0.00    -0.200 F 
ENDBRANCH  58  82
BRANCH  70  93
ATOM     93  C   UNL     1      18.706   5.055  -4.902  1.00  0.00     0.064 A 
ATOM     94  C   UNL     1      19.446   4.339  -3.949  1.00  0.00     0.173 A 
ATOM     95  C   UNL     1      19.414   5.833  -5.831  1.00  0.00     0.173 A 
ATOM     96  F   UNL     1      18.819   3.591  -3.029  1.00  0.00    -0.203 F 
ATOM     97  C   UNL     1      20.836   4.421  -3.912  1.00  0.00     0.198 A 
ATOM     98  C   UNL     1      20.805   5.886  -5.814  1.00  0.00     0.198 A 
ATOM     99  F   UNL     1      18.756   6.533  -6.768  1.00  0.00    -0.203 F 
ATOM    100  F   UNL     1      21.519   3.770  -2.960  1.00  0.00    -0.200 F 
ATOM    101  C   UNL     1      21.514   5.187  -4.849  1.00  0.00     0.200 A 
ATOM    102  F   UNL     1      21.458   6.613  -6.730  1.00  0.00    -0.200 F 
ATOM    103  F   UNL     1      22.852   5.258  -4.817  1.00  0.00    -0.200 F 
ENDBRANCH  70  93
ENDBRANCH  44  45
ENDBRANCH  36  39
ENDBRANCH  34  35
ENDBRANCH  33  34
ENDBRANCH  32  33
ENDBRANCH   1  32
TORSDOF 16
