REMARK SMILES O=C(NCCCCNC(=O)[C@@H]1[C@@H](C(=O)NCCn2cc(Cl)cn2)[C@H]2CC[C@@H]1O2)c1ccc(-c2c3nc(c(-c4c(F)c(F)c(F)c(F)c4F)c4ccc([nH]4)c(-c4c(F)c(F)c(F)c(F)c4F)c4nc(c(-c5c(F)c(F)c(F)c(F)c5F)c5ccc2[nH]5)C=C4)C=C3)cc1
REMARK SMILES IDX 6 1 5 2 4 3 3 4 1 5 2 6 29 8 30 9 91 10 31 11 90 12 32 13
REMARK SMILES IDX 33 14 34 15 84 16 35 17 89 18 83 19 85 20 36 21 88 22 82 23
REMARK SMILES IDX 81 24 37 26 69 27 49 28 68 29 50 30 53 31 67 32 86 33 51 34
REMARK SMILES IDX 52 35 66 37 87 38 54 39 38 40 39 41 47 42 40 43 41 44 45 45
REMARK SMILES IDX 48 46 42 47 43 48 46 49 44 50 70 51 71 52 79 53 72 54 73 55
REMARK SMILES IDX 77 56 80 57 74 58 75 59 78 60 76 61 55 62 56 63 64 64 57 65
REMARK SMILES IDX 58 66 62 67 65 68 59 69 60 70 63 71 61 72 7 73 8 74 9 75
REMARK SMILES IDX 10 77 11 78 12 79 27 80 24 81 26 82 28 83 25 84 13 85 14 86
REMARK SMILES IDX 15 87 16 89 17 90 18 91 19 92 23 93 20 94 22 95 21 96
REMARK H PARENT 3 7 85 25 53 36 8 76 15 88
REMARK Flexibility Score: inf
ROOT
ATOM      1  C   UNL     1       4.651   3.091   1.026  1.00  0.00     0.023 C 
ENDROOT
BRANCH   1   2
ATOM      2  C   UNL     1       5.168   1.946   0.159  1.00  0.00     0.023 C 
BRANCH   2   3
ATOM      3  C   UNL     1       4.801   0.542   0.637  1.00  0.00     0.116 C 
BRANCH   3   4
ATOM      4  N   UNL     1       3.381   0.301   0.808  1.00  0.00    -0.352 N 
ATOM      5  O   UNL     1       1.280  -0.314   0.509  1.00  0.00    -0.269 OA
ATOM      6  C   UNL     1       2.350  -0.023  -0.031  1.00  0.00     0.251 C 
ATOM      7  H   UNL     1       3.092   0.392   1.744  1.00  0.00     0.163 HD
BRANCH   6   8
ATOM      8  C   UNL     1       2.410   0.020  -1.517  1.00  0.00     0.039 A 
ATOM      9  C   UNL     1       3.574   0.090  -2.281  1.00  0.00     0.014 A 
ATOM     10  C   UNL     1       1.169   0.005  -2.183  1.00  0.00     0.014 A 
ATOM     11  C   UNL     1       3.501   0.242  -3.663  1.00  0.00     0.010 A 
ATOM     12  C   UNL     1       1.089   0.133  -3.565  1.00  0.00     0.010 A 
ATOM     13  C   UNL     1       2.258   0.286  -4.301  1.00  0.00    -0.014 A 
BRANCH  13  14
ATOM     14  C   UNL     1       2.241   0.306  -5.763  1.00  0.00     0.031 A 
ATOM     15  C   UNL     1       2.834  -0.911  -6.400  1.00  0.00     0.074 A 
ATOM     16  C   UNL     1       1.615   1.251  -6.493  1.00  0.00     0.049 A 
ATOM     17  N   UNL     1       3.803  -0.985  -7.255  1.00  0.00    -0.248 NA
ATOM     18  C   UNL     1       2.338  -2.223  -5.947  1.00  0.00     0.031 C 
ATOM     19  C   UNL     1       0.745   2.330  -6.022  1.00  0.00     0.029 A 
ATOM     20  N   UNL     1       1.557   1.385  -7.849  1.00  0.00    -0.354 N 
ATOM     21  C   UNL     1       3.941  -2.337  -7.567  1.00  0.00     0.074 A 
ATOM     22  C   UNL     1       3.100  -3.061  -6.650  1.00  0.00     0.031 C 
ATOM     23  C   UNL     1       0.080   2.862  -7.074  1.00  0.00     0.029 A 
ATOM     24  C   UNL     1       0.571   2.254  -8.300  1.00  0.00     0.049 A 
ATOM     25  H   UNL     1       2.164   0.906  -8.459  1.00  0.00     0.167 HD
ATOM     26  C   UNL     1       4.590  -2.757  -8.688  1.00  0.00     0.037 A 
ATOM     27  C   UNL     1       0.150   2.411  -9.581  1.00  0.00     0.037 A 
ATOM     28  C   UNL     1       5.489  -1.754  -9.186  1.00  0.00     0.049 A 
ATOM     29  C   UNL     1       1.198   1.856 -10.472  1.00  0.00     0.074 A 
ATOM     30  C   UNL     1       6.612  -1.126  -8.681  1.00  0.00     0.029 A 
ATOM     31  N   UNL     1       5.094  -0.989 -10.254  1.00  0.00    -0.354 N 
ATOM     32  N   UNL     1       2.374   2.391 -10.636  1.00  0.00    -0.248 NA
ATOM     33  C   UNL     1       1.087   0.455 -10.845  1.00  0.00     0.031 C 
ATOM     34  C   UNL     1       6.513   0.223  -9.134  1.00  0.00     0.029 A 
ATOM     35  C   UNL     1       5.375   0.315  -9.935  1.00  0.00     0.049 A 
ATOM     36  H   UNL     1       4.686  -1.314 -11.088  1.00  0.00     0.167 HD
ATOM     37  C   UNL     1       3.240   1.311 -10.710  1.00  0.00     0.074 A 
ATOM     38  C   UNL     1       2.384   0.146 -10.914  1.00  0.00     0.031 C 
ATOM     39  C   UNL     1       4.542   1.426 -10.321  1.00  0.00     0.037 A 
BRANCH  26  40
ATOM     40  C   UNL     1       4.163  -3.947  -9.511  1.00  0.00     0.064 A 
ATOM     41  C   UNL     1       4.987  -4.407 -10.556  1.00  0.00     0.173 A 
ATOM     42  C   UNL     1       2.847  -4.460  -9.503  1.00  0.00     0.173 A 
ATOM     43  F   UNL     1       6.247  -3.963 -10.680  1.00  0.00    -0.203 F 
ATOM     44  C   UNL     1       4.508  -5.265 -11.552  1.00  0.00     0.198 A 
ATOM     45  C   UNL     1       2.388  -5.355 -10.467  1.00  0.00     0.198 A 
ATOM     46  F   UNL     1       1.923  -4.030  -8.634  1.00  0.00    -0.203 F 
ATOM     47  F   UNL     1       5.291  -5.582 -12.592  1.00  0.00    -0.200 F 
ATOM     48  C   UNL     1       3.208  -5.735 -11.508  1.00  0.00     0.200 A 
ATOM     49  F   UNL     1       1.117  -5.780 -10.419  1.00  0.00    -0.200 F 
ATOM     50  F   UNL     1       2.728  -6.508 -12.491  1.00  0.00    -0.200 F 
ENDBRANCH  26  40
BRANCH  27  51
ATOM     51  C   UNL     1      -1.218   2.701 -10.078  1.00  0.00     0.064 A 
ATOM     52  C   UNL     1      -1.439   3.138 -11.396  1.00  0.00     0.173 A 
ATOM     53  C   UNL     1      -2.354   2.276  -9.363  1.00  0.00     0.173 A 
ATOM     54  F   UNL     1      -0.406   3.512 -12.165  1.00  0.00    -0.203 F 
ATOM     55  C   UNL     1      -2.716   3.126 -11.970  1.00  0.00     0.198 A 
ATOM     56  C   UNL     1      -3.628   2.271  -9.934  1.00  0.00     0.198 A 
ATOM     57  F   UNL     1      -2.237   1.762  -8.130  1.00  0.00    -0.203 F 
ATOM     58  F   UNL     1      -2.878   3.489 -13.250  1.00  0.00    -0.200 F 
ATOM     59  C   UNL     1      -3.807   2.683 -11.241  1.00  0.00     0.200 A 
ATOM     60  F   UNL     1      -4.668   1.802  -9.231  1.00  0.00    -0.200 F 
ATOM     61  F   UNL     1      -5.019   2.611 -11.809  1.00  0.00    -0.200 F 
ENDBRANCH  27  51
BRANCH  39  62
ATOM     62  C   UNL     1       5.070   2.806 -10.043  1.00  0.00     0.064 A 
ATOM     63  C   UNL     1       4.574   3.650  -9.033  1.00  0.00     0.173 A 
ATOM     64  C   UNL     1       6.209   3.235 -10.737  1.00  0.00     0.173 A 
ATOM     65  F   UNL     1       3.555   3.269  -8.253  1.00  0.00    -0.203 F 
ATOM     66  C   UNL     1       5.164   4.885  -8.767  1.00  0.00     0.198 A 
ATOM     67  C   UNL     1       6.819   4.452 -10.443  1.00  0.00     0.198 A 
ATOM     68  F   UNL     1       6.762   2.448 -11.673  1.00  0.00    -0.203 F 
ATOM     69  F   UNL     1       4.663   5.677  -7.806  1.00  0.00    -0.200 F 
ATOM     70  C   UNL     1       6.290   5.281  -9.467  1.00  0.00     0.200 A 
ATOM     71  F   UNL     1       7.939   4.807 -11.088  1.00  0.00    -0.200 F 
ATOM     72  F   UNL     1       6.883   6.449  -9.184  1.00  0.00    -0.200 F 
ENDBRANCH  39  62
ENDBRANCH  13  14
ENDBRANCH   6   8
ENDBRANCH   3   4
ENDBRANCH   2   3
ENDBRANCH   1   2
BRANCH   1  73
ATOM     73  C   UNL     1       4.932   2.985   2.517  1.00  0.00     0.116 C 
BRANCH  73  74
ATOM     74  N   UNL     1       6.336   3.064   2.879  1.00  0.00    -0.356 N 
ATOM     75  C   UNL     1       6.989   3.658   3.915  1.00  0.00     0.226 C 
ATOM     76  H   UNL     1       6.934   2.596   2.251  1.00  0.00     0.163 HD
ATOM     77  O   UNL     1       8.201   3.420   3.991  1.00  0.00    -0.275 OA
BRANCH  75  78
ATOM     78  C   UNL     1       6.372   4.652   4.900  1.00  0.00     0.122 C 
ATOM     79  C   UNL     1       4.904   4.451   5.306  1.00  0.00     0.122 C 
ATOM     80  C   UNL     1       6.349   6.037   4.245  1.00  0.00     0.132 C 
ATOM     81  C   UNL     1       4.261   5.728   4.724  1.00  0.00     0.132 C 
ATOM     82  C   UNL     1       6.073   7.142   5.272  1.00  0.00     0.035 C 
ATOM     83  O   UNL     1       5.080   5.992   3.557  1.00  0.00    -0.373 OA
ATOM     84  C   UNL     1       4.578   6.973   5.542  1.00  0.00     0.035 C 
BRANCH  79  85
ATOM     85  C   UNL     1       4.647   4.278   6.790  1.00  0.00     0.226 C 
ATOM     86  O   UNL     1       5.531   4.321   7.631  1.00  0.00    -0.275 OA
ATOM     87  N   UNL     1       3.363   4.012   7.189  1.00  0.00    -0.354 N 
ATOM     88  H   UNL     1       3.256   3.809   8.146  1.00  0.00     0.163 HD
BRANCH  87  89
ATOM     89  C   UNL     1       2.128   3.985   6.407  1.00  0.00     0.139 C 
BRANCH  89  90
ATOM     90  C   UNL     1       1.308   2.711   6.561  1.00  0.00     0.165 C 
BRANCH  90  91
ATOM     91  N   UNL     1       0.825   2.521   7.909  1.00  0.00    -0.269 N 
ATOM     92  C   UNL     1       1.344   1.675   8.844  1.00  0.00     0.129 A 
ATOM     93  N   UNL     1      -0.228   3.235   8.348  1.00  0.00    -0.180 NA
ATOM     94  C   UNL     1       0.568   1.838   9.963  1.00  0.00     0.079 A 
ATOM     95  C   UNL     1      -0.388   2.805   9.606  1.00  0.00     0.155 A 
ATOM     96  Cl  UNL     1       0.713   1.060  11.455  1.00  0.00    -0.081 Cl
ENDBRANCH  90  91
ENDBRANCH  89  90
ENDBRANCH  87  89
ENDBRANCH  79  85
ENDBRANCH  75  78
ENDBRANCH  73  74
ENDBRANCH   1  73
TORSDOF 15
