REMARK SMILES C[C@@H]1C[N@@H+](C[C@]2(C(=O)NCCCCNC(=O)c3ccc(-c4c5nc(c(-c6c(F)c(F)c(F)c(F)c6F)c6ccc([nH]6)c(-c6c(F)c(F)c(F)c(F)c6F)c6nc(c(-c7c(F)c(F)c(F)c(F)c7F)c7ccc4[nH]7)C=C6)C=C5)cc3)CCOC2)C[C@@H]1C
REMARK SMILES IDX 11 1 10 2 9 3 7 4 8 5 6 7 80 8 83 9 81 10 82 11 5 12 4 13
REMARK SMILES IDX 1 14 2 15 3 16 85 17 84 18 86 19 12 21 13 22 14 23 15 24
REMARK SMILES IDX 16 26 17 27 18 28 79 29 19 30 78 31 20 32 21 33 22 34 72 35
REMARK SMILES IDX 23 36 77 37 71 38 73 39 24 40 76 41 70 42 69 43 25 45 57 46
REMARK SMILES IDX 37 47 56 48 38 49 41 50 55 51 74 52 39 53 40 54 54 56 75 57
REMARK SMILES IDX 42 58 26 59 27 60 35 61 28 62 29 63 33 64 36 65 30 66 31 67
REMARK SMILES IDX 34 68 32 69 58 70 59 71 67 72 60 73 61 74 65 75 68 76 62 77
REMARK SMILES IDX 63 78 66 79 64 80 43 81 44 82 52 83 45 84 46 85 50 86 53 87
REMARK SMILES IDX 47 88 48 89 51 90 49 91
REMARK H PARENT 9 6 4 20 14 25 73 44 41 55
REMARK Flexibility Score: inf
ROOT
ATOM      1  C   UNL     1      -2.441   2.414  -1.616  1.00  0.00     0.023 C 
ENDROOT
BRANCH   1   2
ATOM      2  C   UNL     1      -1.949   3.498  -2.581  1.00  0.00     0.116 C 
BRANCH   2   3
ATOM      3  N   UNL     1      -0.683   4.054  -2.151  1.00  0.00    -0.355 N 
ATOM      4  C   UNL     1       0.606   3.694  -2.381  1.00  0.00     0.234 C 
ATOM      5  O   UNL     1       1.447   4.350  -1.752  1.00  0.00    -0.274 OA
ATOM      6  H   UNL     1      -0.775   4.850  -1.579  1.00  0.00     0.163 HD
BRANCH   4   7
ATOM      7  C   UNL     1       1.064   2.656  -3.431  1.00  0.00     0.123 C 
ATOM      8  C   UNL     1       2.293   1.950  -2.837  1.00  0.00     0.054 C 
ATOM      9  C   UNL     1       0.141   1.474  -3.650  1.00  0.00     0.183 C 
ATOM     10  C   UNL     1       2.183   0.489  -3.219  1.00  0.00     0.161 C 
ATOM     11  O   UNL     1       0.927   0.299  -3.855  1.00  0.00    -0.380 OA
BRANCH   7  12
ATOM     12  C   UNL     1       1.368   3.496  -4.713  1.00  0.00     0.281 C 
BRANCH  12  13
ATOM     13  N   UNL     1       1.710   2.933  -6.012  1.00  0.00    -0.333 N 
ATOM     14  C   UNL     1       0.331   0.333  -8.278  1.00  0.00     0.014 C 
ATOM     15  C   UNL     1       1.022   0.960  -7.078  1.00  0.00     0.049 C 
ATOM     16  C   UNL     1       0.661   2.424  -6.874  1.00  0.00     0.265 C 
ATOM     17  C   UNL     1       2.559   0.956  -7.065  1.00  0.00     0.049 C 
ATOM     18  C   UNL     1       2.931   2.171  -6.196  1.00  0.00     0.265 C 
ATOM     19  C   UNL     1       3.211   1.037  -8.442  1.00  0.00     0.014 C 
ATOM     20  H   UNL     1       1.935   3.873  -6.339  1.00  0.00     0.348 HD
ENDBRANCH  12  13
ENDBRANCH   7  12
ENDBRANCH   4   7
ENDBRANCH   2   3
ENDBRANCH   1   2
BRANCH   1  21
ATOM     21  C   UNL     1      -3.018   2.924  -0.299  1.00  0.00     0.023 C 
BRANCH  21  22
ATOM     22  C   UNL     1      -4.286   3.745  -0.432  1.00  0.00     0.116 C 
BRANCH  22  23
ATOM     23  N   UNL     1      -5.378   3.038  -1.087  1.00  0.00    -0.352 N 
ATOM     24  C   UNL     1      -6.726   3.182  -0.855  1.00  0.00     0.251 C 
ATOM     25  H   UNL     1      -5.121   2.381  -1.775  1.00  0.00     0.163 HD
ATOM     26  O   UNL     1      -7.552   2.480  -1.425  1.00  0.00    -0.269 OA
BRANCH  24  27
ATOM     27  C   UNL     1      -7.149   4.178   0.146  1.00  0.00     0.039 A 
ATOM     28  C   UNL     1      -7.888   3.753   1.252  1.00  0.00     0.014 A 
ATOM     29  C   UNL     1      -6.698   5.495   0.044  1.00  0.00     0.014 A 
ATOM     30  C   UNL     1      -8.105   4.638   2.308  1.00  0.00     0.010 A 
ATOM     31  C   UNL     1      -6.853   6.349   1.125  1.00  0.00     0.010 A 
ATOM     32  C   UNL     1      -7.550   5.926   2.270  1.00  0.00    -0.014 A 
BRANCH  32  33
ATOM     33  C   UNL     1      -7.686   6.877   3.397  1.00  0.00     0.031 A 
ATOM     34  C   UNL     1      -8.431   8.161   3.178  1.00  0.00     0.074 A 
ATOM     35  C   UNL     1      -7.047   6.647   4.560  1.00  0.00     0.049 A 
ATOM     36  N   UNL     1      -8.489   9.227   3.933  1.00  0.00    -0.248 NA
ATOM     37  C   UNL     1      -9.176   8.275   1.914  1.00  0.00     0.031 C 
ATOM     38  C   UNL     1      -6.266   5.451   4.878  1.00  0.00     0.029 A 
ATOM     39  N   UNL     1      -6.932   7.428   5.683  1.00  0.00    -0.354 N 
ATOM     40  C   UNL     1      -9.237  10.150   3.217  1.00  0.00     0.074 A 
ATOM     41  C   UNL     1      -9.585   9.533   1.956  1.00  0.00     0.031 C 
ATOM     42  C   UNL     1      -5.759   5.574   6.116  1.00  0.00     0.029 A 
ATOM     43  C   UNL     1      -6.142   6.874   6.660  1.00  0.00     0.049 A 
ATOM     44  H   UNL     1      -7.375   8.302   5.778  1.00  0.00     0.167 HD
ATOM     45  C   UNL     1      -9.608  11.398   3.586  1.00  0.00     0.037 A 
ATOM     46  C   UNL     1      -5.757   7.371   7.851  1.00  0.00     0.037 A 
ATOM     47  C   UNL     1      -9.303  11.984   4.862  1.00  0.00     0.049 A 
ATOM     48  C   UNL     1      -6.216   8.746   8.254  1.00  0.00     0.074 A 
ATOM     49  C   UNL     1      -9.677  13.220   5.357  1.00  0.00     0.029 A 
ATOM     50  N   UNL     1      -8.558  11.361   5.853  1.00  0.00    -0.354 N 
ATOM     51  N   UNL     1      -6.946   9.603   7.583  1.00  0.00    -0.248 NA
ATOM     52  C   UNL     1      -5.798   9.225   9.580  1.00  0.00     0.031 C 
ATOM     53  C   UNL     1      -9.142  13.354   6.642  1.00  0.00     0.029 A 
ATOM     54  C   UNL     1      -8.463  12.188   6.959  1.00  0.00     0.049 A 
ATOM     55  H   UNL     1      -8.158  10.465   5.781  1.00  0.00     0.167 HD
ATOM     56  C   UNL     1      -7.104  10.704   8.413  1.00  0.00     0.074 A 
ATOM     57  C   UNL     1      -6.393  10.408   9.640  1.00  0.00     0.031 C 
ATOM     58  C   UNL     1      -7.778  11.855   8.181  1.00  0.00     0.037 A 
BRANCH  45  59
ATOM     59  C   UNL     1     -10.386  12.207   2.593  1.00  0.00     0.064 A 
ATOM     60  C   UNL     1     -11.720  11.905   2.283  1.00  0.00     0.173 A 
ATOM     61  C   UNL     1      -9.795  13.308   1.956  1.00  0.00     0.173 A 
ATOM     62  F   UNL     1     -12.322  10.851   2.853  1.00  0.00    -0.203 F 
ATOM     63  C   UNL     1     -12.425  12.657   1.349  1.00  0.00     0.198 A 
ATOM     64  C   UNL     1     -10.512  14.076   1.043  1.00  0.00     0.198 A 
ATOM     65  F   UNL     1      -8.522  13.640   2.219  1.00  0.00    -0.203 F 
ATOM     66  F   UNL     1     -13.682  12.318   1.029  1.00  0.00    -0.200 F 
ATOM     67  C   UNL     1     -11.823  13.745   0.734  1.00  0.00     0.200 A 
ATOM     68  F   UNL     1      -9.932  15.132   0.455  1.00  0.00    -0.200 F 
ATOM     69  F   UNL     1     -12.505  14.470  -0.164  1.00  0.00    -0.200 F 
ENDBRANCH  45  59
BRANCH  46  70
ATOM     70  C   UNL     1      -4.909   6.556   8.757  1.00  0.00     0.064 A 
ATOM     71  C   UNL     1      -5.446   5.997   9.925  1.00  0.00     0.173 A 
ATOM     72  C   UNL     1      -3.556   6.317   8.480  1.00  0.00     0.173 A 
ATOM     73  F   UNL     1      -6.731   6.215  10.241  1.00  0.00    -0.203 F 
ATOM     74  C   UNL     1      -4.657   5.243  10.791  1.00  0.00     0.198 A 
ATOM     75  C   UNL     1      -2.773   5.544   9.336  1.00  0.00     0.198 A 
ATOM     76  F   UNL     1      -2.997   6.827   7.373  1.00  0.00    -0.203 F 
ATOM     77  F   UNL     1      -5.187   4.752  11.920  1.00  0.00    -0.200 F 
ATOM     78  C   UNL     1      -3.323   5.013  10.494  1.00  0.00     0.200 A 
ATOM     79  F   UNL     1      -1.486   5.315   9.040  1.00  0.00    -0.200 F 
ATOM     80  F   UNL     1      -2.565   4.286  11.326  1.00  0.00    -0.200 F 
ENDBRANCH  46  70
BRANCH  58  81
ATOM     81  C   UNL     1      -7.836  12.858   9.292  1.00  0.00     0.064 A 
ATOM     82  C   UNL     1      -6.746  13.686   9.591  1.00  0.00     0.173 A 
ATOM     83  C   UNL     1      -9.026  13.042  10.012  1.00  0.00     0.173 A 
ATOM     84  F   UNL     1      -5.585  13.536   8.936  1.00  0.00    -0.203 F 
ATOM     85  C   UNL     1      -6.843  14.660  10.580  1.00  0.00     0.198 A 
ATOM     86  C   UNL     1      -9.126  14.031  10.985  1.00  0.00     0.198 A 
ATOM     87  F   UNL     1     -10.096  12.275   9.755  1.00  0.00    -0.203 F 
ATOM     88  F   UNL     1      -5.782  15.427  10.868  1.00  0.00    -0.200 F 
ATOM     89  C   UNL     1      -8.034  14.838  11.270  1.00  0.00     0.200 A 
ATOM     90  F   UNL     1     -10.280  14.208  11.643  1.00  0.00    -0.200 F 
ATOM     91  F   UNL     1      -8.129  15.787  12.211  1.00  0.00    -0.200 F 
ENDBRANCH  58  81
ENDBRANCH  32  33
ENDBRANCH  24  27
ENDBRANCH  22  23
ENDBRANCH  21  22
ENDBRANCH   1  21
TORSDOF 13
