REMARK SMILES Cc1ccc2c(c1)c(-c1ccnc3c(C)cccc13)c(C)n2CC(=O)NCCCCNC(=O)c1ccc(-c2c3nc(c(-c4c(F)c(F)c(F)c(F)c4F)c4ccc([nH]4)c(-c4c(F)c(F)c(F)c(F)c4F)c4nc(c(-c5c(F)c(F)c(F)c(F)c5F)c5ccc2[nH]5)C=C4)C=C3)cc1
REMARK SMILES IDX 28 1 27 2 26 3 24 4 25 5 23 7 22 8 1 9 2 10 3 11 7 12 4 13
REMARK SMILES IDX 6 14 5 15 8 16 20 17 21 18 9 19 10 20 19 21 11 22 13 23
REMARK SMILES IDX 18 24 12 25 14 26 17 27 15 28 16 29 29 30 30 31 31 32 32 33
REMARK SMILES IDX 33 35 34 36 35 37 96 38 36 39 95 40 37 41 38 42 39 43 89 44
REMARK SMILES IDX 40 45 94 46 88 47 90 48 41 49 93 50 87 51 86 52 42 54 74 55
REMARK SMILES IDX 54 56 73 57 55 58 58 59 72 60 91 61 56 62 57 63 71 65 92 66
REMARK SMILES IDX 59 67 43 68 44 69 52 70 45 71 46 72 50 73 53 74 47 75 48 76
REMARK SMILES IDX 51 77 49 78 75 79 76 80 84 81 77 82 78 83 82 84 85 85 79 86
REMARK SMILES IDX 80 87 83 88 81 89 60 90 61 91 69 92 62 93 63 94 67 95 70 96
REMARK SMILES IDX 64 97 65 98 68 99 66 100
REMARK H PARENT 26 6 31 34 90 53 58 64
REMARK Flexibility Score: inf
ROOT
ATOM      1  C   UNL     1       1.184   4.324   4.019  1.00  0.00     0.023 C 
ENDROOT
BRANCH   1   2
ATOM      2  C   UNL     1      -0.309   4.647   4.012  1.00  0.00     0.116 C 
BRANCH   2   3
ATOM      3  N   UNL     1      -0.567   6.055   3.780  1.00  0.00    -0.355 N 
ATOM      4  C   UNL     1      -1.137   6.662   2.697  1.00  0.00     0.239 C 
ATOM      5  O   UNL     1      -1.286   7.886   2.743  1.00  0.00    -0.273 OA
ATOM      6  H   UNL     1      -0.292   6.659   4.506  1.00  0.00     0.163 HD
BRANCH   4   7
ATOM      7  C   UNL     1      -1.634   5.854   1.511  1.00  0.00     0.222 C 
BRANCH   7   8
ATOM      8  N   UNL     1      -0.563   5.237   0.735  1.00  0.00    -0.335 N 
ATOM      9  C   UNL     1       1.005  -0.139  -0.067  1.00  0.00     0.044 C 
ATOM     10  C   UNL     1       0.513   1.261   0.154  1.00  0.00    -0.050 A 
ATOM     11  C   UNL     1      -0.734   1.486   0.736  1.00  0.00     0.005 A 
ATOM     12  C   UNL     1       1.281   2.354  -0.274  1.00  0.00     0.014 A 
ATOM     13  C   UNL     1      -1.216   2.782   0.944  1.00  0.00     0.027 A 
ATOM     14  C   UNL     1       0.821   3.674  -0.066  1.00  0.00     0.008 A 
ATOM     15  C   UNL     1      -0.408   3.869   0.564  1.00  0.00     0.049 A 
ATOM     16  C   UNL     1       1.353   4.962  -0.364  1.00  0.00     0.011 A 
ATOM     17  C   UNL     1       0.451   5.916   0.082  1.00  0.00     0.024 A 
ATOM     18  C   UNL     1       0.520   7.405  -0.028  1.00  0.00     0.065 C 
BRANCH  16  19
ATOM     19  C   UNL     1       2.611   5.285  -1.025  1.00  0.00    -0.005 A 
ATOM     20  C   UNL     1       2.695   5.064  -2.398  1.00  0.00     0.029 A 
ATOM     21  C   UNL     1       3.735   5.776  -0.312  1.00  0.00     0.008 A 
ATOM     22  C   UNL     1       3.887   5.351  -3.021  1.00  0.00     0.112 A 
ATOM     23  C   UNL     1       4.913   6.039  -1.048  1.00  0.00     0.074 A 
ATOM     24  C   UNL     1       3.733   6.002   1.086  1.00  0.00     0.011 A 
ATOM     25  N   UNL     1       4.973   5.829  -2.380  1.00  0.00    -0.256 NA
ATOM     26  C   UNL     1       6.037   6.525  -0.362  1.00  0.00    -0.025 A 
ATOM     27  C   UNL     1       4.857   6.473   1.753  1.00  0.00     0.001 A 
ATOM     28  C   UNL     1       7.325   6.838  -1.080  1.00  0.00     0.047 C 
ATOM     29  C   UNL     1       6.008   6.734   1.029  1.00  0.00     0.005 A 
ENDBRANCH  16  19
ENDBRANCH   7   8
ENDBRANCH   4   7
ENDBRANCH   2   3
ENDBRANCH   1   2
BRANCH   1  30
ATOM     30  C   UNL     1       1.965   4.901   5.212  1.00  0.00     0.023 C 
BRANCH  30  31
ATOM     31  C   UNL     1       1.389   4.525   6.578  1.00  0.00     0.116 C 
BRANCH  31  32
ATOM     32  N   UNL     1       1.240   3.093   6.750  1.00  0.00    -0.352 N 
ATOM     33  C   UNL     1       1.968   2.093   7.324  1.00  0.00     0.251 C 
ATOM     34  H   UNL     1       0.404   2.759   6.353  1.00  0.00     0.163 HD
ATOM     35  O   UNL     1       1.425   0.981   7.336  1.00  0.00    -0.269 OA
BRANCH  33  36
ATOM     36  C   UNL     1       3.340   2.215   7.883  1.00  0.00     0.039 A 
ATOM     37  C   UNL     1       4.105   3.379   7.928  1.00  0.00     0.014 A 
ATOM     38  C   UNL     1       3.915   1.016   8.354  1.00  0.00     0.014 A 
ATOM     39  C   UNL     1       5.426   3.332   8.366  1.00  0.00     0.010 A 
ATOM     40  C   UNL     1       5.231   0.964   8.796  1.00  0.00     0.010 A 
ATOM     41  C   UNL     1       6.001   2.118   8.760  1.00  0.00    -0.014 A 
BRANCH  41  42
ATOM     42  C   UNL     1       7.388   2.140   9.217  1.00  0.00     0.031 A 
ATOM     43  C   UNL     1       7.629   3.019  10.394  1.00  0.00     0.074 A 
ATOM     44  C   UNL     1       8.372   1.385   8.684  1.00  0.00     0.049 A 
ATOM     45  N   UNL     1       8.356   4.086  10.450  1.00  0.00    -0.248 NA
ATOM     46  C   UNL     1       6.876   2.745  11.629  1.00  0.00     0.031 C 
ATOM     47  C   UNL     1       8.239   0.285   7.726  1.00  0.00     0.029 A 
ATOM     48  N   UNL     1       9.711   1.392   8.959  1.00  0.00    -0.354 N 
ATOM     49  C   UNL     1       8.291   4.529  11.770  1.00  0.00     0.074 A 
ATOM     50  C   UNL     1       7.270   3.748  12.415  1.00  0.00     0.031 C 
ATOM     51  C   UNL     1       9.399  -0.409   7.676  1.00  0.00     0.029 A 
ATOM     52  C   UNL     1      10.395   0.285   8.473  1.00  0.00     0.049 A 
ATOM     53  H   UNL     1      10.152   2.118   9.457  1.00  0.00     0.167 HD
ATOM     54  C   UNL     1       9.253   5.344  12.283  1.00  0.00     0.037 A 
ATOM     55  C   UNL     1      11.678  -0.056   8.749  1.00  0.00     0.037 A 
ATOM     56  C   UNL     1      10.035   5.946  11.237  1.00  0.00     0.049 A 
ATOM     57  C   UNL     1      12.388   1.176   9.162  1.00  0.00     0.074 A 
ATOM     58  C   UNL     1       9.871   6.956  10.316  1.00  0.00     0.029 A 
ATOM     59  N   UNL     1      11.091   5.183  10.823  1.00  0.00    -0.354 N 
ATOM     60  N   UNL     1      12.637   2.175   8.362  1.00  0.00    -0.248 NA
ATOM     61  C   UNL     1      12.573   1.451  10.582  1.00  0.00     0.031 C 
ATOM     62  C   UNL     1      10.720   6.625   9.216  1.00  0.00     0.029 A 
ATOM     63  C   UNL     1      11.399   5.444   9.517  1.00  0.00     0.049 A 
ATOM     64  H   UNL     1      11.566   4.533  11.390  1.00  0.00     0.167 HD
ATOM     65  C   UNL     1      12.577   3.286   9.178  1.00  0.00     0.074 A 
ATOM     66  C   UNL     1      12.731   2.775  10.533  1.00  0.00     0.031 C 
ATOM     67  C   UNL     1      12.088   4.467   8.704  1.00  0.00     0.037 A 
BRANCH  54  68
ATOM     68  C   UNL     1       9.802   5.232  13.690  1.00  0.00     0.064 A 
ATOM     69  C   UNL     1      10.723   6.195  14.155  1.00  0.00     0.173 A 
ATOM     70  C   UNL     1       9.718   4.054  14.463  1.00  0.00     0.173 A 
ATOM     71  F   UNL     1      10.918   7.337  13.477  1.00  0.00    -0.203 F 
ATOM     72  C   UNL     1      11.530   5.969  15.276  1.00  0.00     0.198 A 
ATOM     73  C   UNL     1      10.488   3.853  15.608  1.00  0.00     0.198 A 
ATOM     74  F   UNL     1       8.982   3.005  14.079  1.00  0.00    -0.203 F 
ATOM     75  F   UNL     1      12.470   6.863  15.614  1.00  0.00    -0.200 F 
ATOM     76  C   UNL     1      11.413   4.797  16.000  1.00  0.00     0.200 A 
ATOM     77  F   UNL     1      10.382   2.696  16.278  1.00  0.00    -0.200 F 
ATOM     78  F   UNL     1      12.220   4.554  17.041  1.00  0.00    -0.200 F 
ENDBRANCH  54  68
BRANCH  55  79
ATOM     79  C   UNL     1      12.246  -1.403   9.005  1.00  0.00     0.064 A 
ATOM     80  C   UNL     1      13.639  -1.587   9.086  1.00  0.00     0.173 A 
ATOM     81  C   UNL     1      11.447  -2.450   9.502  1.00  0.00     0.173 A 
ATOM     82  F   UNL     1      14.473  -0.628   8.658  1.00  0.00    -0.203 F 
ATOM     83  C   UNL     1      14.196  -2.716   9.694  1.00  0.00     0.198 A 
ATOM     84  C   UNL     1      12.006  -3.580  10.102  1.00  0.00     0.198 A 
ATOM     85  F   UNL     1      10.111  -2.351   9.516  1.00  0.00    -0.203 F 
ATOM     86  F   UNL     1      15.526  -2.811   9.837  1.00  0.00    -0.200 F 
ATOM     87  C   UNL     1      13.378  -3.702  10.220  1.00  0.00     0.200 A 
ATOM     88  F   UNL     1      11.204  -4.512  10.635  1.00  0.00    -0.200 F 
ATOM     89  F   UNL     1      13.908  -4.742  10.879  1.00  0.00    -0.200 F 
ENDBRANCH  55  79
BRANCH  67  90
ATOM     90  C   UNL     1      12.118   4.674   7.220  1.00  0.00     0.064 A 
ATOM     91  C   UNL     1      11.382   3.918   6.293  1.00  0.00     0.173 A 
ATOM     92  C   UNL     1      12.886   5.737   6.726  1.00  0.00     0.173 A 
ATOM     93  F   UNL     1      10.558   2.942   6.695  1.00  0.00    -0.203 F 
ATOM     94  C   UNL     1      11.455   4.188   4.927  1.00  0.00     0.198 A 
ATOM     95  C   UNL     1      12.925   6.030   5.367  1.00  0.00     0.198 A 
ATOM     96  F   UNL     1      13.576   6.518   7.572  1.00  0.00    -0.203 F 
ATOM     97  F   UNL     1      10.765   3.438   4.055  1.00  0.00    -0.200 F 
ATOM     98  C   UNL     1      12.221   5.247   4.467  1.00  0.00     0.200 A 
ATOM     99  F   UNL     1      13.631   7.083   4.934  1.00  0.00    -0.200 F 
ATOM    100  F   UNL     1      12.264   5.529   3.157  1.00  0.00    -0.200 F 
ENDBRANCH  67  90
ENDBRANCH  41  42
ENDBRANCH  33  36
ENDBRANCH  31  32
ENDBRANCH  30  31
ENDBRANCH   1  30
TORSDOF 13
