REMARK SMILES COc1cc([C@H]2CC(c3ccc(S(C)(=O)=O)cc3)=NN2c2ccc(C(=O)NCCCCNC(=O)c3ccc(-c4c5nc(c(-c6c(F)c(F)c(F)c(F)c6F)c6ccc([nH]6)c(-c6c(F)c(F)c(F)c(F)c6F)c6nc(c(-c7c(F)c(F)c(F)c(F)c7F)c7ccc4[nH]7)C=C6)C=C5)cc3)cc2)cc(OC)c1OC
REMARK SMILES IDX 29 1 28 2 27 3 25 4 26 5 24 7 21 8 22 9 99 10 23 11 98 12
REMARK SMILES IDX 20 13 6 14 7 15 8 16 19 17 5 18 3 19 4 20 104 21 101 22
REMARK SMILES IDX 100 23 2 24 1 25 105 26 106 27 102 28 103 29 9 30 10 31
REMARK SMILES IDX 18 32 11 33 17 34 12 35 13 36 14 37 15 38 16 39 30 40 31 41
REMARK SMILES IDX 32 42 33 43 34 45 35 46 36 47 97 48 37 49 96 50 38 51 39 52
REMARK SMILES IDX 40 53 90 54 41 55 95 56 89 57 91 58 42 59 94 60 88 61 87 62
REMARK SMILES IDX 43 64 75 65 55 66 74 67 56 68 59 69 73 70 92 71 57 72 58 73
REMARK SMILES IDX 72 75 93 76 60 77 44 78 45 79 53 80 46 81 47 82 51 83 54 84
REMARK SMILES IDX 48 85 49 86 52 87 50 88 76 89 77 90 85 91 78 92 79 93 83 94
REMARK SMILES IDX 86 95 80 96 81 97 84 98 82 99 61 100 62 101 70 102 63 103
REMARK SMILES IDX 64 104 68 105 71 106 65 107 66 108 69 109 67 110
REMARK H PARENT 27 6 32 44 91 63 59 74
REMARK Flexibility Score: inf
ROOT
ATOM      1  C   UNL     1      -1.125   8.187  -1.662  1.00  0.00     0.023 C 
ENDROOT
BRANCH   1   2
ATOM      2  C   UNL     1      -0.045   7.103  -1.621  1.00  0.00     0.116 C 
BRANCH   2   3
ATOM      3  N   UNL     1       1.233   7.689  -1.276  1.00  0.00    -0.352 N 
ATOM      4  C   UNL     1       1.883   7.808  -0.073  1.00  0.00     0.251 C 
ATOM      5  O   UNL     1       2.975   8.378  -0.072  1.00  0.00    -0.269 OA
ATOM      6  H   UNL     1       1.723   8.069  -2.040  1.00  0.00     0.163 HD
BRANCH   4   7
ATOM      7  C   UNL     1       1.360   7.219   1.190  1.00  0.00     0.039 A 
ATOM      8  C   UNL     1       0.555   5.893   3.543  1.00  0.00     0.060 A 
ATOM      9  C   UNL     1       1.904   6.186   3.315  1.00  0.00     0.029 A 
ATOM     10  C   UNL     1      -0.391   6.347   2.629  1.00  0.00     0.029 A 
ATOM     11  C   UNL     1       2.307   6.825   2.142  1.00  0.00     0.016 A 
ATOM     12  C   UNL     1       0.005   7.041   1.485  1.00  0.00     0.016 A 
BRANCH   8  13
ATOM     13  N   UNL     1       0.190   5.162   4.656  1.00  0.00    -0.257 N 
ATOM     14  C   UNL     1      -0.422   3.832   4.613  1.00  0.00     0.144 C 
ATOM     15  C   UNL     1      -0.621   3.537   6.114  1.00  0.00     0.091 C 
ATOM     16  C   UNL     1      -0.345   4.906   6.685  1.00  0.00     0.071 C 
ATOM     17  N   UNL     1       0.104   5.787   5.850  1.00  0.00    -0.176 NA
BRANCH  14  18
ATOM     18  C   UNL     1       0.465   2.859   3.846  1.00  0.00    -0.015 A 
ATOM     19  C   UNL     1       1.011   1.655   1.780  1.00  0.00     0.164 A 
ATOM     20  C   UNL     1       0.101   2.382   2.576  1.00  0.00     0.056 A 
ATOM     21  C   UNL     1       2.322   1.399   2.226  1.00  0.00     0.203 A 
ATOM     22  C   UNL     1       2.679   1.852   3.513  1.00  0.00     0.164 A 
ATOM     23  C   UNL     1       1.752   2.555   4.302  1.00  0.00     0.056 A 
BRANCH  19  24
ATOM     24  O   UNL     1       0.615   1.381   0.494  1.00  0.00    -0.493 OA
ATOM     25  C   UNL     1      -0.149   0.177   0.405  1.00  0.00     0.278 C 
ENDBRANCH  19  24
BRANCH  21  26
ATOM     26  O   UNL     1       3.317   0.796   1.510  1.00  0.00    -0.490 OA
ATOM     27  C   UNL     1       3.050   0.077   0.322  1.00  0.00     0.278 C 
ENDBRANCH  21  26
BRANCH  22  28
ATOM     28  O   UNL     1       3.882   1.717   4.164  1.00  0.00    -0.493 OA
ATOM     29  C   UNL     1       5.031   1.344   3.419  1.00  0.00     0.278 C 
ENDBRANCH  22  28
ENDBRANCH  14  18
BRANCH  16  30
ATOM     30  C   UNL     1      -0.569   5.240   8.098  1.00  0.00    -0.002 A 
ATOM     31  C   UNL     1      -1.306   6.393   8.403  1.00  0.00     0.011 A 
ATOM     32  C   UNL     1       0.025   4.486   9.110  1.00  0.00     0.011 A 
ATOM     33  C   UNL     1      -1.467   6.786   9.732  1.00  0.00     0.021 A 
ATOM     34  C   UNL     1      -0.113   4.893  10.441  1.00  0.00     0.021 A 
ATOM     35  C   UNL     1      -0.855   6.041  10.744  1.00  0.00     0.067 A 
BRANCH  35  36
ATOM     36  S   UNL     1      -1.051   6.551  12.437  1.00  0.00     0.175 S 
ATOM     37  C   UNL     1      -0.310   8.161  12.510  1.00  0.00     0.163 C 
ATOM     38  O   UNL     1      -2.479   6.694  12.663  1.00  0.00    -0.224 OA
ATOM     39  O   UNL     1      -0.252   5.665  13.257  1.00  0.00    -0.224 OA
ENDBRANCH  35  36
ENDBRANCH  16  30
ENDBRANCH   8  13
ENDBRANCH   4   7
ENDBRANCH   2   3
ENDBRANCH   1   2
BRANCH   1  40
ATOM     40  C   UNL     1      -1.091   9.038  -2.931  1.00  0.00     0.023 C 
BRANCH  40  41
ATOM     41  C   UNL     1      -1.376   8.264  -4.210  1.00  0.00     0.116 C 
BRANCH  41  42
ATOM     42  N   UNL     1      -2.683   7.622  -4.214  1.00  0.00    -0.352 N 
ATOM     43  C   UNL     1      -3.521   7.427  -5.285  1.00  0.00     0.251 C 
ATOM     44  H   UNL     1      -3.005   7.288  -3.346  1.00  0.00     0.163 HD
ATOM     45  O   UNL     1      -4.646   6.966  -5.137  1.00  0.00    -0.269 OA
BRANCH  43  46
ATOM     46  C   UNL     1      -3.046   7.828  -6.622  1.00  0.00     0.039 A 
ATOM     47  C   UNL     1      -3.804   8.730  -7.369  1.00  0.00     0.014 A 
ATOM     48  C   UNL     1      -1.804   7.383  -7.080  1.00  0.00     0.014 A 
ATOM     49  C   UNL     1      -3.279   9.248  -8.554  1.00  0.00     0.010 A 
ATOM     50  C   UNL     1      -1.252   7.956  -8.218  1.00  0.00     0.010 A 
ATOM     51  C   UNL     1      -1.982   8.896  -8.963  1.00  0.00    -0.014 A 
BRANCH  51  52
ATOM     52  C   UNL     1      -1.356   9.490 -10.169  1.00  0.00     0.031 A 
ATOM     53  C   UNL     1      -0.983   8.602 -11.322  1.00  0.00     0.074 A 
ATOM     54  C   UNL     1      -1.038  10.799 -10.188  1.00  0.00     0.049 A 
ATOM     55  N   UNL     1      -0.301   8.887 -12.401  1.00  0.00    -0.248 NA
ATOM     56  C   UNL     1      -1.405   7.195 -11.230  1.00  0.00     0.031 C 
ATOM     57  C   UNL     1      -1.318  11.754  -9.115  1.00  0.00     0.029 A 
ATOM     58  N   UNL     1      -0.388  11.548 -11.137  1.00  0.00    -0.354 N 
ATOM     59  C   UNL     1      -0.194   7.694 -13.102  1.00  0.00     0.074 A 
ATOM     60  C   UNL     1      -0.835   6.672 -12.304  1.00  0.00     0.031 C 
ATOM     61  C   UNL     1      -0.854  12.963  -9.470  1.00  0.00     0.029 A 
ATOM     62  C   UNL     1      -0.202  12.859 -10.772  1.00  0.00     0.049 A 
ATOM     63  H   UNL     1      -0.084  11.179 -11.998  1.00  0.00     0.167 HD
ATOM     64  C   UNL     1       0.370   7.476 -14.314  1.00  0.00     0.037 A 
ATOM     65  C   UNL     1       0.441  13.857 -11.409  1.00  0.00     0.037 A 
ATOM     66  C   UNL     1       0.981   8.504 -15.113  1.00  0.00     0.049 A 
ATOM     67  C   UNL     1       1.080  13.584 -12.745  1.00  0.00     0.074 A 
ATOM     68  C   UNL     1       1.527   8.399 -16.380  1.00  0.00     0.029 A 
ATOM     69  N   UNL     1       1.131   9.826 -14.720  1.00  0.00    -0.354 N 
ATOM     70  N   UNL     1       1.121  12.466 -13.429  1.00  0.00    -0.248 NA
ATOM     71  C   UNL     1       1.762  14.710 -13.398  1.00  0.00     0.031 C 
ATOM     72  C   UNL     1       2.056   9.644 -16.731  1.00  0.00     0.029 A 
ATOM     73  C   UNL     1       1.784  10.541 -15.710  1.00  0.00     0.049 A 
ATOM     74  H   UNL     1       0.819  10.200 -13.864  1.00  0.00     0.167 HD
ATOM     75  C   UNL     1       1.798  12.762 -14.605  1.00  0.00     0.074 A 
ATOM     76  C   UNL     1       2.144  14.167 -14.545  1.00  0.00     0.031 C 
ATOM     77  C   UNL     1       2.102  11.945 -15.642  1.00  0.00     0.037 A 
BRANCH  64  78
ATOM     78  C   UNL     1       0.354   6.072 -14.846  1.00  0.00     0.064 A 
ATOM     79  C   UNL     1      -0.837   5.447 -15.245  1.00  0.00     0.173 A 
ATOM     80  C   UNL     1       1.551   5.355 -14.991  1.00  0.00     0.173 A 
ATOM     81  F   UNL     1      -2.010   6.085 -15.117  1.00  0.00    -0.203 F 
ATOM     82  C   UNL     1      -0.833   4.146 -15.739  1.00  0.00     0.198 A 
ATOM     83  C   UNL     1       1.556   4.066 -15.517  1.00  0.00     0.198 A 
ATOM     84  F   UNL     1       2.720   5.906 -14.629  1.00  0.00    -0.203 F 
ATOM     85  F   UNL     1      -1.989   3.550 -16.063  1.00  0.00    -0.200 F 
ATOM     86  C   UNL     1       0.363   3.459 -15.883  1.00  0.00     0.200 A 
ATOM     87  F   UNL     1       2.714   3.409 -15.668  1.00  0.00    -0.200 F 
ATOM     88  F   UNL     1       0.367   2.210 -16.366  1.00  0.00    -0.200 F 
ENDBRANCH  64  78
BRANCH  65  89
ATOM     89  C   UNL     1       0.504  15.212 -10.799  1.00  0.00     0.064 A 
ATOM     90  C   UNL     1      -0.181  16.292 -11.374  1.00  0.00     0.173 A 
ATOM     91  C   UNL     1       1.255  15.460  -9.640  1.00  0.00     0.173 A 
ATOM     92  F   UNL     1      -0.896  16.110 -12.494  1.00  0.00    -0.203 F 
ATOM     93  C   UNL     1      -0.099  17.571 -10.828  1.00  0.00     0.198 A 
ATOM     94  C   UNL     1       1.312  16.734  -9.078  1.00  0.00     0.198 A 
ATOM     95  F   UNL     1       1.926  14.462  -9.047  1.00  0.00    -0.203 F 
ATOM     96  F   UNL     1      -0.723  18.594 -11.428  1.00  0.00    -0.200 F 
ATOM     97  C   UNL     1       0.643  17.791  -9.678  1.00  0.00     0.200 A 
ATOM     98  F   UNL     1       2.018  16.939  -7.957  1.00  0.00    -0.200 F 
ATOM     99  F   UNL     1       0.720  19.021  -9.152  1.00  0.00    -0.200 F 
ENDBRANCH  65  89
BRANCH  77 100
ATOM    100  C   UNL     1       2.799  12.551 -16.826  1.00  0.00     0.064 A 
ATOM    101  C   UNL     1       4.146  12.936 -16.774  1.00  0.00     0.173 A 
ATOM    102  C   UNL     1       2.123  12.682 -18.050  1.00  0.00     0.173 A 
ATOM    103  F   UNL     1       4.831  12.845 -15.624  1.00  0.00    -0.203 F 
ATOM    104  C   UNL     1       4.787  13.444 -17.901  1.00  0.00     0.198 A 
ATOM    105  C   UNL     1       2.776  13.160 -19.181  1.00  0.00     0.198 A 
ATOM    106  F   UNL     1       0.835  12.322 -18.153  1.00  0.00    -0.203 F 
ATOM    107  F   UNL     1       6.065  13.841 -17.820  1.00  0.00    -0.200 F 
ATOM    108  C   UNL     1       4.106  13.545 -19.105  1.00  0.00     0.200 A 
ATOM    109  F   UNL     1       2.121  13.241 -20.348  1.00  0.00    -0.200 F 
ATOM    110  F   UNL     1       4.731  14.017 -20.193  1.00  0.00    -0.200 F 
ENDBRANCH  77 100
ENDBRANCH  51  52
ENDBRANCH  43  46
ENDBRANCH  41  42
ENDBRANCH  40  41
ENDBRANCH   1  40
TORSDOF 18
