REMARK SMILES Nc1c(Br)cc(C(=O)NCCCCNC(=O)c2ccc(-c3c4nc(c(-c5c(F)c(F)c(F)c(F)c5F)c5ccc([nH]5)c(-c5c(F)c(F)c(F)c(F)c5F)c5nc(c(-c6c(F)c(F)c(F)c(F)c6F)c6ccc3[nH]6)C=C5)C=C4)cc2)cc1Br
REMARK SMILES IDX 12 1 11 2 10 3 9 4 7 5 8 6 6 8 2 9 3 10 81 11 4 12 5 13
REMARK SMILES IDX 80 14 82 15 1 16 13 19 14 20 15 21 16 23 17 24 18 25 79 26
REMARK SMILES IDX 19 27 78 28 20 29 21 30 22 31 72 32 23 33 77 34 71 35 73 36
REMARK SMILES IDX 24 37 76 38 70 39 69 40 25 42 57 43 37 44 56 45 38 46 41 47
REMARK SMILES IDX 55 48 74 49 39 50 40 51 54 53 75 54 42 55 26 56 27 57 35 58
REMARK SMILES IDX 28 59 29 60 33 61 36 62 30 63 31 64 34 65 32 66 58 67 59 68
REMARK SMILES IDX 67 69 60 70 61 71 65 72 68 73 62 74 63 75 66 76 64 77 43 78
REMARK SMILES IDX 44 79 52 80 45 81 46 82 50 83 53 84 47 85 48 86 51 87 49 88
REMARK H PARENT 9 7 1 17 1 18 14 22 73 41 41 52
REMARK Flexibility Score: inf
ROOT
ATOM      1  C   UNL     1       3.587  -5.768   1.413  1.00  0.00     0.023 C 
ENDROOT
BRANCH   1   2
ATOM      2  C   UNL     1       3.246  -4.344   0.959  1.00  0.00     0.023 C 
BRANCH   2   3
ATOM      3  C   UNL     1       2.437  -4.275  -0.339  1.00  0.00     0.116 C 
BRANCH   3   4
ATOM      4  N   UNL     1       1.043  -4.580  -0.087  1.00  0.00    -0.352 N 
ATOM      5  C   UNL     1      -0.057  -3.798   0.145  1.00  0.00     0.251 C 
ATOM      6  O   UNL     1      -1.128  -4.382   0.320  1.00  0.00    -0.269 OA
ATOM      7  H   UNL     1       0.848  -5.545  -0.080  1.00  0.00     0.163 HD
BRANCH   5   8
ATOM      8  C   UNL     1      -0.047  -2.305   0.156  1.00  0.00     0.042 A 
ATOM      9  C   UNL     1      -0.247   0.539   0.115  1.00  0.00     0.060 A 
ATOM     10  C   UNL     1       0.973  -0.110   0.362  1.00  0.00     0.042 A 
ATOM     11  C   UNL     1      -1.370  -0.273  -0.106  1.00  0.00     0.042 A 
ATOM     12  Br  UNL     1       2.571   0.888   0.644  1.00  0.00    -0.049 Br
ATOM     13  C   UNL     1       1.066  -1.508   0.419  1.00  0.00     0.031 A 
ATOM     14  C   UNL     1      -1.274  -1.669  -0.086  1.00  0.00     0.031 A 
ATOM     15  Br  UNL     1      -3.082   0.492  -0.428  1.00  0.00    -0.049 Br
BRANCH   9  16
ATOM     16  N   UNL     1      -0.320   1.924  -0.004  1.00  0.00    -0.397 N 
ATOM     17  H   UNL     1       0.481   2.475   0.156  1.00  0.00     0.156 HD
ATOM     18  H   UNL     1      -1.172   2.354  -0.246  1.00  0.00     0.156 HD
ENDBRANCH   9  16
ENDBRANCH   5   8
ENDBRANCH   3   4
ENDBRANCH   2   3
ENDBRANCH   1   2
BRANCH   1  19
ATOM     19  C   UNL     1       4.475  -6.558   0.457  1.00  0.00     0.116 C 
BRANCH  19  20
ATOM     20  N   UNL     1       5.736  -5.897   0.160  1.00  0.00    -0.352 N 
ATOM     21  C   UNL     1       6.960  -6.460  -0.111  1.00  0.00     0.251 C 
ATOM     22  H   UNL     1       5.708  -4.913   0.152  1.00  0.00     0.163 HD
ATOM     23  O   UNL     1       7.951  -5.756  -0.247  1.00  0.00    -0.269 OA
BRANCH  21  24
ATOM     24  C   UNL     1       7.079  -7.930  -0.192  1.00  0.00     0.039 A 
ATOM     25  C   UNL     1       8.086  -8.561   0.543  1.00  0.00     0.014 A 
ATOM     26  C   UNL     1       6.188  -8.681  -0.963  1.00  0.00     0.014 A 
ATOM     27  C   UNL     1       8.155  -9.954   0.562  1.00  0.00     0.010 A 
ATOM     28  C   UNL     1       6.220 -10.071  -0.894  1.00  0.00     0.010 A 
ATOM     29  C   UNL     1       7.200 -10.719  -0.126  1.00  0.00    -0.014 A 
BRANCH  29  30
ATOM     30  C   UNL     1       7.200 -12.200  -0.039  1.00  0.00     0.031 A 
ATOM     31  C   UNL     1       7.480 -13.028  -1.260  1.00  0.00     0.074 A 
ATOM     32  C   UNL     1       6.877 -12.795   1.125  1.00  0.00     0.049 A 
ATOM     33  N   UNL     1       7.462 -14.330  -1.398  1.00  0.00    -0.248 NA
ATOM     34  C   UNL     1       7.797 -12.297  -2.496  1.00  0.00     0.031 C 
ATOM     35  C   UNL     1       6.533 -12.096   2.364  1.00  0.00     0.029 A 
ATOM     36  N   UNL     1       6.774 -14.123   1.453  1.00  0.00    -0.354 N 
ATOM     37  C   UNL     1       7.750 -14.571  -2.735  1.00  0.00     0.074 A 
ATOM     38  C   UNL     1       7.890 -13.282  -3.377  1.00  0.00     0.031 C 
ATOM     39  C   UNL     1       6.276 -13.001   3.322  1.00  0.00     0.029 A 
ATOM     40  C   UNL     1       6.405 -14.341   2.758  1.00  0.00     0.049 A 
ATOM     41  H   UNL     1       6.949 -14.851   0.814  1.00  0.00     0.167 HD
ATOM     42  C   UNL     1       7.907 -15.760  -3.362  1.00  0.00     0.037 A 
ATOM     43  C   UNL     1       6.190 -15.492   3.421  1.00  0.00     0.037 A 
ATOM     44  C   UNL     1       7.794 -17.040  -2.713  1.00  0.00     0.049 A 
ATOM     45  C   UNL     1       6.375 -16.800   2.701  1.00  0.00     0.074 A 
ATOM     46  C   UNL     1       8.003 -18.300  -3.246  1.00  0.00     0.029 A 
ATOM     47  N   UNL     1       7.439 -17.221  -1.385  1.00  0.00    -0.354 N 
ATOM     48  N   UNL     1       6.721 -17.016   1.455  1.00  0.00    -0.248 NA
ATOM     49  C   UNL     1       6.143 -18.024   3.480  1.00  0.00     0.031 C 
ATOM     50  C   UNL     1       7.734 -19.245  -2.251  1.00  0.00     0.029 A 
ATOM     51  C   UNL     1       7.401 -18.574  -1.086  1.00  0.00     0.049 A 
ATOM     52  H   UNL     1       7.242 -16.496  -0.748  1.00  0.00     0.167 HD
ATOM     53  C   UNL     1       6.773 -18.395   1.308  1.00  0.00     0.074 A 
ATOM     54  C   UNL     1       6.438 -18.966   2.596  1.00  0.00     0.031 C 
ATOM     55  C   UNL     1       7.069 -19.123   0.203  1.00  0.00     0.037 A 
BRANCH  42  56
ATOM     56  C   UNL     1       8.225 -15.732  -4.829  1.00  0.00     0.064 A 
ATOM     57  C   UNL     1       9.476 -15.305  -5.300  1.00  0.00     0.173 A 
ATOM     58  C   UNL     1       7.283 -16.170  -5.771  1.00  0.00     0.173 A 
ATOM     59  F   UNL     1      10.406 -14.865  -4.439  1.00  0.00    -0.203 F 
ATOM     60  C   UNL     1       9.761 -15.289  -6.662  1.00  0.00     0.198 A 
ATOM     61  C   UNL     1       7.582 -16.180  -7.131  1.00  0.00     0.198 A 
ATOM     62  F   UNL     1       6.074 -16.594  -5.373  1.00  0.00    -0.203 F 
ATOM     63  F   UNL     1      10.945 -14.831  -7.092  1.00  0.00    -0.200 F 
ATOM     64  C   UNL     1       8.817 -15.733  -7.576  1.00  0.00     0.200 A 
ATOM     65  F   UNL     1       6.673 -16.620  -8.013  1.00  0.00    -0.200 F 
ATOM     66  F   UNL     1       9.095 -15.723  -8.887  1.00  0.00    -0.200 F 
ENDBRANCH  42  56
BRANCH  43  67
ATOM     67  C   UNL     1       5.802 -15.462   4.855  1.00  0.00     0.064 A 
ATOM     68  C   UNL     1       6.697 -15.880   5.849  1.00  0.00     0.173 A 
ATOM     69  C   UNL     1       4.534 -15.020   5.260  1.00  0.00     0.173 A 
ATOM     70  F   UNL     1       7.913 -16.330   5.508  1.00  0.00    -0.203 F 
ATOM     71  C   UNL     1       6.332 -15.876   7.194  1.00  0.00     0.198 A 
ATOM     72  C   UNL     1       4.180 -14.992   6.607  1.00  0.00     0.198 A 
ATOM     73  F   UNL     1       3.644 -14.605   4.347  1.00  0.00    -0.203 F 
ATOM     74  F   UNL     1       7.192 -16.322   8.120  1.00  0.00    -0.200 F 
ATOM     75  C   UNL     1       5.076 -15.427   7.572  1.00  0.00     0.200 A 
ATOM     76  F   UNL     1       2.970 -14.546   6.970  1.00  0.00    -0.200 F 
ATOM     77  F   UNL     1       4.726 -15.421   8.866  1.00  0.00    -0.200 F 
ENDBRANCH  43  67
BRANCH  55  78
ATOM     78  C   UNL     1       7.068 -20.617   0.347  1.00  0.00     0.064 A 
ATOM     79  C   UNL     1       5.874 -21.341   0.472  1.00  0.00     0.173 A 
ATOM     80  C   UNL     1       8.274 -21.334   0.318  1.00  0.00     0.173 A 
ATOM     81  F   UNL     1       4.697 -20.698   0.521  1.00  0.00    -0.203 F 
ATOM     82  C   UNL     1       5.888 -22.728   0.586  1.00  0.00     0.198 A 
ATOM     83  C   UNL     1       8.282 -22.723   0.404  1.00  0.00     0.198 A 
ATOM     84  F   UNL     1       9.443 -20.688   0.195  1.00  0.00    -0.203 F 
ATOM     85  F   UNL     1       4.738 -23.397   0.748  1.00  0.00    -0.200 F 
ATOM     86  C   UNL     1       7.091 -23.418   0.544  1.00  0.00     0.200 A 
ATOM     87  F   UNL     1       9.444 -23.389   0.352  1.00  0.00    -0.200 F 
ATOM     88  F   UNL     1       7.101 -24.754   0.646  1.00  0.00    -0.200 F 
ENDBRANCH  55  78
ENDBRANCH  29  30
ENDBRANCH  21  24
ENDBRANCH  19  20
ENDBRANCH   1  19
TORSDOF 12
