REMARK SMILES O=C(NCCCCNC(=O)c1ccc(-c2c3nc(c(-c4c(F)c(F)c(F)c(F)c4F)c4ccc([nH]4)c(-c4c(F)c(F)c(F)c(F)c4F)c4nc(c(-c5c(F)c(F)c(F)c(F)c5F)c5ccc2[nH]5)C=C4)C=C3)cc1)c1ccc(-c2ccc(=O)[nH]c2)cc1
REMARK SMILES IDX 6 1 5 2 4 3 3 4 1 5 2 6 74 8 75 9 86 10 76 11 85 12 77 13
REMARK SMILES IDX 78 14 79 15 84 16 80 17 83 18 81 19 82 21 7 22 8 23 9 24
REMARK SMILES IDX 10 26 11 27 12 28 73 29 13 30 72 31 14 32 15 33 16 34 66 35
REMARK SMILES IDX 17 36 71 37 65 38 67 39 18 40 70 41 64 42 63 43 19 45 51 46
REMARK SMILES IDX 31 47 50 48 32 49 35 50 49 51 68 52 33 53 34 54 48 56 69 57
REMARK SMILES IDX 36 58 20 59 21 60 29 61 22 62 23 63 27 64 30 65 24 66 25 67
REMARK SMILES IDX 28 68 26 69 52 70 53 71 61 72 54 73 55 74 59 75 62 76 56 77
REMARK SMILES IDX 57 78 60 79 58 80 37 81 38 82 46 83 39 84 40 85 44 86 47 87
REMARK SMILES IDX 41 88 42 89 45 90 43 91
REMARK H PARENT 3 7 83 20 8 25 67 44 35 55
REMARK Flexibility Score: inf
ROOT
ATOM      1  C   UNL     1       4.392   3.452   1.472  1.00  0.00     0.023 C 
ENDROOT
BRANCH   1   2
ATOM      2  C   UNL     1       4.856   2.420   0.445  1.00  0.00     0.023 C 
BRANCH   2   3
ATOM      3  C   UNL     1       4.468   0.979   0.756  1.00  0.00     0.116 C 
BRANCH   3   4
ATOM      4  N   UNL     1       3.027   0.784   0.764  1.00  0.00    -0.352 N 
ATOM      5  O   UNL     1       1.049   0.012  -0.006  1.00  0.00    -0.269 OA
ATOM      6  C   UNL     1       2.273  -0.060  -0.013  1.00  0.00     0.251 C 
ATOM      7  H   UNL     1       2.526   1.330   1.412  1.00  0.00     0.163 HD
BRANCH   6   8
ATOM      8  C   UNL     1       2.950  -1.050  -0.873  1.00  0.00     0.039 A 
ATOM      9  C   UNL     1       3.892  -1.931  -0.332  1.00  0.00     0.014 A 
ATOM     10  C   UNL     1       2.636  -1.096  -2.232  1.00  0.00     0.014 A 
ATOM     11  C   UNL     1       4.575  -2.811  -1.169  1.00  0.00     0.009 A 
ATOM     12  C   UNL     1       3.308  -1.994  -3.066  1.00  0.00     0.009 A 
ATOM     13  C   UNL     1       4.285  -2.853  -2.542  1.00  0.00    -0.017 A 
BRANCH  13  14
ATOM     14  C   UNL     1       4.987  -3.810  -3.418  1.00  0.00    -0.002 A 
ATOM     15  C   UNL     1       5.748  -3.415  -4.595  1.00  0.00     0.016 A 
ATOM     16  C   UNL     1       4.910  -5.120  -3.121  1.00  0.00     0.094 A 
ATOM     17  C   UNL     1       6.360  -4.325  -5.368  1.00  0.00     0.072 A 
ATOM     18  N   UNL     1       5.536  -6.061  -3.899  1.00  0.00    -0.328 N 
ATOM     19  C   UNL     1       6.266  -5.765  -5.023  1.00  0.00     0.247 A 
ATOM     20  H   UNL     1       5.457  -7.006  -3.635  1.00  0.00     0.169 HD
ATOM     21  O   UNL     1       6.812  -6.623  -5.707  1.00  0.00    -0.270 OA
ENDBRANCH  13  14
ENDBRANCH   6   8
ENDBRANCH   3   4
ENDBRANCH   2   3
ENDBRANCH   1   2
BRANCH   1  22
ATOM     22  C   UNL     1       4.782   3.158   2.916  1.00  0.00     0.116 C 
BRANCH  22  23
ATOM     23  N   UNL     1       6.218   3.030   3.103  1.00  0.00    -0.352 N 
ATOM     24  C   UNL     1       7.050   3.640   4.009  1.00  0.00     0.251 C 
ATOM     25  H   UNL     1       6.664   2.409   2.482  1.00  0.00     0.163 HD
ATOM     26  O   UNL     1       8.265   3.497   3.908  1.00  0.00    -0.269 OA
BRANCH  24  27
ATOM     27  C   UNL     1       6.500   4.495   5.085  1.00  0.00     0.039 A 
ATOM     28  C   UNL     1       7.167   5.683   5.394  1.00  0.00     0.014 A 
ATOM     29  C   UNL     1       5.351   4.138   5.796  1.00  0.00     0.014 A 
ATOM     30  C   UNL     1       6.647   6.538   6.368  1.00  0.00     0.010 A 
ATOM     31  C   UNL     1       4.785   5.033   6.703  1.00  0.00     0.010 A 
ATOM     32  C   UNL     1       5.428   6.242   7.003  1.00  0.00    -0.014 A 
BRANCH  32  33
ATOM     33  C   UNL     1       4.823   7.211   7.953  1.00  0.00     0.031 A 
ATOM     34  C   UNL     1       4.629   6.861   9.402  1.00  0.00     0.074 A 
ATOM     35  C   UNL     1       4.424   8.415   7.496  1.00  0.00     0.049 A 
ATOM     36  N   UNL     1       4.181   7.608  10.381  1.00  0.00    -0.248 NA
ATOM     37  C   UNL     1       4.956   5.485   9.803  1.00  0.00     0.031 C 
ATOM     38  C   UNL     1       4.493   8.851   6.100  1.00  0.00     0.029 A 
ATOM     39  N   UNL     1       3.894   9.496   8.155  1.00  0.00    -0.354 N 
ATOM     40  C   UNL     1       4.167   6.794  11.506  1.00  0.00     0.074 A 
ATOM     41  C   UNL     1       4.592   5.479  11.077  1.00  0.00     0.031 C 
ATOM     42  C   UNL     1       4.079  10.125   6.016  1.00  0.00     0.029 A 
ATOM     43  C   UNL     1       3.681  10.583   7.343  1.00  0.00     0.049 A 
ATOM     44  H   UNL     1       3.687   9.492   9.117  1.00  0.00     0.167 HD
ATOM     45  C   UNL     1       3.850   7.118  12.784  1.00  0.00     0.037 A 
ATOM     46  C   UNL     1       3.230  11.817   7.638  1.00  0.00     0.037 A 
ATOM     47  C   UNL     1       3.437   8.432  13.207  1.00  0.00     0.049 A 
ATOM     48  C   UNL     1       2.892  12.152   9.064  1.00  0.00     0.074 A 
ATOM     49  C   UNL     1       3.165   8.882  14.488  1.00  0.00     0.029 A 
ATOM     50  N   UNL     1       3.223   9.508  12.356  1.00  0.00    -0.354 N 
ATOM     51  N   UNL     1       2.979  11.403  10.137  1.00  0.00    -0.248 NA
ATOM     52  C   UNL     1       2.405  13.514   9.320  1.00  0.00     0.031 C 
ATOM     53  C   UNL     1       2.723  10.207  14.404  1.00  0.00     0.029 A 
ATOM     54  C   UNL     1       2.789  10.608  13.080  1.00  0.00     0.049 A 
ATOM     55  H   UNL     1       3.360   9.491  11.381  1.00  0.00     0.167 HD
ATOM     56  C   UNL     1       2.588  12.210  11.198  1.00  0.00     0.074 A 
ATOM     57  C   UNL     1       2.290  13.513  10.639  1.00  0.00     0.031 C 
ATOM     58  C   UNL     1       2.485  11.900  12.514  1.00  0.00     0.037 A 
BRANCH  45  59
ATOM     59  C   UNL     1       3.926   6.027  13.817  1.00  0.00     0.064 A 
ATOM     60  C   UNL     1       5.148   5.453  14.202  1.00  0.00     0.173 A 
ATOM     61  C   UNL     1       2.761   5.567  14.451  1.00  0.00     0.173 A 
ATOM     62  F   UNL     1       6.292   5.848  13.623  1.00  0.00    -0.203 F 
ATOM     63  C   UNL     1       5.196   4.436  15.153  1.00  0.00     0.198 A 
ATOM     64  C   UNL     1       2.817   4.575  15.428  1.00  0.00     0.198 A 
ATOM     65  F   UNL     1       1.566   6.083  14.129  1.00  0.00    -0.203 F 
ATOM     66  F   UNL     1       6.369   3.863  15.459  1.00  0.00    -0.200 F 
ATOM     67  C   UNL     1       4.033   4.003  15.770  1.00  0.00     0.200 A 
ATOM     68  F   UNL     1       1.693   4.170  16.034  1.00  0.00    -0.200 F 
ATOM     69  F   UNL     1       4.082   3.028  16.688  1.00  0.00    -0.200 F 
ENDBRANCH  45  59
BRANCH  46  70
ATOM     70  C   UNL     1       3.122  12.844   6.568  1.00  0.00     0.064 A 
ATOM     71  C   UNL     1       3.969  13.963   6.559  1.00  0.00     0.173 A 
ATOM     72  C   UNL     1       2.174  12.736   5.541  1.00  0.00     0.173 A 
ATOM     73  F   UNL     1       4.879  14.121   7.531  1.00  0.00    -0.203 F 
ATOM     74  C   UNL     1       3.855  14.944   5.577  1.00  0.00     0.198 A 
ATOM     75  C   UNL     1       2.083  13.702   4.541  1.00  0.00     0.198 A 
ATOM     76  F   UNL     1       1.345  11.683   5.500  1.00  0.00    -0.203 F 
ATOM     77  F   UNL     1       4.642  16.028   5.622  1.00  0.00    -0.200 F 
ATOM     78  C   UNL     1       2.917  14.810   4.565  1.00  0.00     0.200 A 
ATOM     79  F   UNL     1       1.187  13.560   3.555  1.00  0.00    -0.200 F 
ATOM     80  F   UNL     1       2.811  15.752   3.618  1.00  0.00    -0.200 F 
ENDBRANCH  46  70
BRANCH  58  81
ATOM     81  C   UNL     1       2.064  13.005  13.443  1.00  0.00     0.064 A 
ATOM     82  C   UNL     1       0.774  13.559  13.402  1.00  0.00     0.173 A 
ATOM     83  C   UNL     1       2.968  13.528  14.381  1.00  0.00     0.173 A 
ATOM     84  F   UNL     1      -0.127  13.105  12.517  1.00  0.00    -0.203 F 
ATOM     85  C   UNL     1       0.425  14.628  14.223  1.00  0.00     0.198 A 
ATOM     86  C   UNL     1       2.603  14.570  15.229  1.00  0.00     0.198 A 
ATOM     87  F   UNL     1       4.211  13.032  14.473  1.00  0.00    -0.203 F 
ATOM     88  F   UNL     1      -0.785  15.192  14.107  1.00  0.00    -0.200 F 
ATOM     89  C   UNL     1       1.338  15.130  15.138  1.00  0.00     0.200 A 
ATOM     90  F   UNL     1       3.481  15.042  16.125  1.00  0.00    -0.200 F 
ATOM     91  F   UNL     1       1.003  16.163  15.923  1.00  0.00    -0.200 F 
ENDBRANCH  58  81
ENDBRANCH  32  33
ENDBRANCH  24  27
ENDBRANCH  22  23
ENDBRANCH   1  22
TORSDOF 12
