REMARK SMILES Cc1c(NC(=O)c2cccc(-c3cc4ccccc4oc3=O)c2)cccc1C(=O)NCCCCNC(=O)c1ccc(-c2c3nc(c(-c4c(F)c(F)c(F)c(F)c4F)c4ccc([nH]4)c(-c4c(F)c(F)c(F)c(F)c4F)c4nc(c(-c5c(F)c(F)c(F)c(F)c5F)c5ccc2[nH]5)C=C4)C=C3)cc1
REMARK SMILES IDX 32 1 31 2 30 3 28 4 29 5 27 7 1 8 2 9 3 10 24 11 26 12 25 13
REMARK SMILES IDX 4 14 5 15 6 17 7 18 8 19 23 20 9 21 11 22 10 23 12 24 13 25
REMARK SMILES IDX 21 26 14 27 20 28 22 29 15 30 19 31 16 32 18 33 17 34 33 35
REMARK SMILES IDX 34 36 35 37 36 38 37 40 38 41 39 42 100 43 40 44 99 45 41 46
REMARK SMILES IDX 42 47 43 48 93 49 44 50 98 51 92 52 94 53 45 54 97 55 91 56
REMARK SMILES IDX 90 57 46 59 78 60 58 61 77 62 59 63 62 64 76 65 95 66 60 67
REMARK SMILES IDX 61 68 75 70 96 71 63 72 47 73 48 74 56 75 49 76 50 77 54 78
REMARK SMILES IDX 57 79 51 80 52 81 55 82 53 83 79 84 80 85 88 86 81 87 82 88
REMARK SMILES IDX 86 89 89 90 83 91 84 92 87 93 85 94 64 95 65 96 73 97 66 98
REMARK SMILES IDX 67 99 71 100 74 101 68 102 69 103 72 104 70 105
REMARK H PARENT 30 6 4 16 35 39 94 58 62 69
REMARK Flexibility Score: inf
ROOT
ATOM      1  C   UNL     1       4.133   1.378  -0.965  1.00  0.00     0.023 C 
ENDROOT
BRANCH   1   2
ATOM      2  C   UNL     1       3.618   1.857   0.405  1.00  0.00     0.116 C 
BRANCH   2   3
ATOM      3  N   UNL     1       2.323   2.499   0.302  1.00  0.00    -0.352 N 
ATOM      4  C   UNL     1       0.996   2.186   0.406  1.00  0.00     0.251 C 
ATOM      5  O   UNL     1       0.283   3.184   0.211  1.00  0.00    -0.269 OA
ATOM      6  H   UNL     1       2.433   3.455   0.093  1.00  0.00     0.163 HD
BRANCH   4   7
ATOM      7  C   UNL     1       0.284   0.874   0.690  1.00  0.00     0.044 A 
ATOM      8  C   UNL     1       2.134  -0.879   0.370  1.00  0.00     0.047 C 
ATOM      9  C   UNL     1       0.728  -0.473   0.676  1.00  0.00    -0.015 A 
ATOM     10  C   UNL     1      -0.214  -1.533   0.874  1.00  0.00     0.045 A 
ATOM     11  C   UNL     1      -1.568  -1.272   1.077  1.00  0.00     0.026 A 
ATOM     12  C   UNL     1      -1.107   1.076   0.910  1.00  0.00     0.014 A 
ATOM     13  C   UNL     1      -2.018   0.034   1.090  1.00  0.00     0.003 A 
BRANCH  10  14
ATOM     14  N   UNL     1       0.246  -2.864   0.894  1.00  0.00    -0.322 N 
ATOM     15  C   UNL     1      -0.316  -4.045   0.471  1.00  0.00     0.255 C 
ATOM     16  H   UNL     1       1.143  -2.969   1.287  1.00  0.00     0.170 HD
ATOM     17  O   UNL     1       0.198  -5.100   0.849  1.00  0.00    -0.269 OA
BRANCH  15  18
ATOM     18  C   UNL     1      -1.425  -4.111  -0.523  1.00  0.00     0.040 A 
ATOM     19  C   UNL     1      -2.189  -5.282  -0.571  1.00  0.00     0.014 A 
ATOM     20  C   UNL     1      -1.635  -3.124  -1.496  1.00  0.00     0.022 A 
ATOM     21  C   UNL     1      -3.176  -5.443  -1.542  1.00  0.00     0.001 A 
ATOM     22  C   UNL     1      -2.633  -3.266  -2.475  1.00  0.00    -0.010 A 
ATOM     23  C   UNL     1      -3.402  -4.437  -2.482  1.00  0.00     0.009 A 
BRANCH  22  24
ATOM     24  C   UNL     1      -2.832  -2.300  -3.590  1.00  0.00     0.068 A 
ATOM     25  C   UNL     1      -2.687  -0.963  -3.449  1.00  0.00     0.028 A 
ATOM     26  C   UNL     1      -2.237  -2.749  -4.891  1.00  0.00     0.344 A 
ATOM     27  C   UNL     1      -1.272  -0.536  -3.534  1.00  0.00     0.018 A 
ATOM     28  O   UNL     1      -0.883  -2.428  -5.018  1.00  0.00    -0.422 OA
ATOM     29  O   UNL     1      -2.856  -3.416  -5.709  1.00  0.00    -0.246 OA
ATOM     30  C   UNL     1      -0.793   0.602  -2.894  1.00  0.00     0.012 A 
ATOM     31  C   UNL     1      -0.387  -1.353  -4.250  1.00  0.00     0.138 A 
ATOM     32  C   UNL     1       0.575   0.877  -2.932  1.00  0.00     0.001 A 
ATOM     33  C   UNL     1       0.979  -1.116  -4.252  1.00  0.00     0.048 A 
ATOM     34  C   UNL     1       1.460   0.005  -3.580  1.00  0.00     0.004 A 
ENDBRANCH  22  24
ENDBRANCH  15  18
ENDBRANCH  10  14
ENDBRANCH   4   7
ENDBRANCH   2   3
ENDBRANCH   1   2
BRANCH   1  35
ATOM     35  C   UNL     1       4.858   2.421  -1.815  1.00  0.00     0.023 C 
BRANCH  35  36
ATOM     36  C   UNL     1       6.265   2.712  -1.323  1.00  0.00     0.116 C 
BRANCH  36  37
ATOM     37  N   UNL     1       7.297   1.789  -1.788  1.00  0.00    -0.352 N 
ATOM     38  C   UNL     1       8.599   1.629  -1.336  1.00  0.00     0.251 C 
ATOM     39  H   UNL     1       7.031   1.197  -2.527  1.00  0.00     0.163 HD
ATOM     40  O   UNL     1       9.365   0.872  -1.928  1.00  0.00    -0.269 OA
BRANCH  38  41
ATOM     41  C   UNL     1       9.015   2.238  -0.047  1.00  0.00     0.039 A 
ATOM     42  C   UNL     1       9.673   1.417   0.877  1.00  0.00     0.014 A 
ATOM     43  C   UNL     1       8.487   3.456   0.360  1.00  0.00     0.014 A 
ATOM     44  C   UNL     1       9.504   1.657   2.236  1.00  0.00     0.010 A 
ATOM     45  C   UNL     1       8.186   3.611   1.696  1.00  0.00     0.010 A 
ATOM     46  C   UNL     1       8.623   2.663   2.626  1.00  0.00    -0.014 A 
BRANCH  46  47
ATOM     47  C   UNL     1       7.976   2.700   3.934  1.00  0.00     0.031 A 
ATOM     48  C   UNL     1       8.229   3.822   4.861  1.00  0.00     0.074 A 
ATOM     49  C   UNL     1       7.027   1.779   4.221  1.00  0.00     0.049 A 
ATOM     50  N   UNL     1       7.958   3.805   6.122  1.00  0.00    -0.248 NA
ATOM     51  C   UNL     1       8.875   5.056   4.436  1.00  0.00     0.031 C 
ATOM     52  C   UNL     1       6.034   1.831   5.291  1.00  0.00     0.029 A 
ATOM     53  N   UNL     1       6.891   0.485   3.686  1.00  0.00    -0.354 N 
ATOM     54  C   UNL     1       8.111   5.086   6.607  1.00  0.00     0.074 A 
ATOM     55  C   UNL     1       8.775   5.796   5.543  1.00  0.00     0.031 C 
ATOM     56  C   UNL     1       5.601   0.585   5.544  1.00  0.00     0.029 A 
ATOM     57  C   UNL     1       6.415  -0.317   4.749  1.00  0.00     0.049 A 
ATOM     58  H   UNL     1       7.085   0.198   2.764  1.00  0.00     0.167 HD
ATOM     59  C   UNL     1       7.525   5.406   7.800  1.00  0.00     0.037 A 
ATOM     60  C   UNL     1       7.165  -1.338   5.259  1.00  0.00     0.037 A 
ATOM     61  C   UNL     1       7.013   4.200   8.459  1.00  0.00     0.049 A 
ATOM     62  C   UNL     1       7.509  -1.177   6.722  1.00  0.00     0.074 A 
ATOM     63  C   UNL     1       5.744   3.658   8.587  1.00  0.00     0.029 A 
ATOM     64  N   UNL     1       7.905   3.203   8.848  1.00  0.00    -0.354 N 
ATOM     65  N   UNL     1       7.427  -0.046   7.366  1.00  0.00    -0.248 NA
ATOM     66  C   UNL     1       8.008  -2.262   7.562  1.00  0.00     0.031 C 
ATOM     67  C   UNL     1       5.883   2.304   8.987  1.00  0.00     0.029 A 
ATOM     68  C   UNL     1       7.232   2.029   9.127  1.00  0.00     0.049 A 
ATOM     69  H   UNL     1       8.880   3.319   8.915  1.00  0.00     0.167 HD
ATOM     70  C   UNL     1       7.875  -0.216   8.649  1.00  0.00     0.074 A 
ATOM     71  C   UNL     1       8.206  -1.626   8.731  1.00  0.00     0.031 C 
ATOM     72  C   UNL     1       7.953   0.828   9.527  1.00  0.00     0.037 A 
BRANCH  59  73
ATOM     73  C   UNL     1       7.144   6.817   8.239  1.00  0.00     0.064 A 
ATOM     74  C   UNL     1       6.147   7.013   9.224  1.00  0.00     0.173 A 
ATOM     75  C   UNL     1       7.629   8.014   7.678  1.00  0.00     0.173 A 
ATOM     76  F   UNL     1       5.659   5.992   9.941  1.00  0.00    -0.203 F 
ATOM     77  C   UNL     1       5.604   8.271   9.519  1.00  0.00     0.198 A 
ATOM     78  C   UNL     1       7.067   9.268   7.947  1.00  0.00     0.198 A 
ATOM     79  F   UNL     1       8.704   8.046   6.891  1.00  0.00    -0.203 F 
ATOM     80  F   UNL     1       4.641   8.380  10.444  1.00  0.00    -0.200 F 
ATOM     81  C   UNL     1       6.042   9.396   8.855  1.00  0.00     0.200 A 
ATOM     82  F   UNL     1       7.538  10.352   7.312  1.00  0.00    -0.200 F 
ATOM     83  F   UNL     1       5.502  10.595   9.107  1.00  0.00    -0.200 F 
ENDBRANCH  59  73
BRANCH  60  84
ATOM     84  C   UNL     1       8.031  -1.989   4.241  1.00  0.00     0.064 A 
ATOM     85  C   UNL     1       7.408  -2.656   3.168  1.00  0.00     0.173 A 
ATOM     86  C   UNL     1       9.379  -1.643   4.093  1.00  0.00     0.173 A 
ATOM     87  F   UNL     1       6.114  -3.001   3.256  1.00  0.00    -0.203 F 
ATOM     88  C   UNL     1       8.069  -2.857   1.958  1.00  0.00     0.198 A 
ATOM     89  C   UNL     1      10.041  -1.859   2.882  1.00  0.00     0.198 A 
ATOM     90  F   UNL     1      10.019  -0.980   5.067  1.00  0.00    -0.203 F 
ATOM     91  F   UNL     1       7.409  -3.386   0.918  1.00  0.00    -0.200 F 
ATOM     92  C   UNL     1       9.377  -2.432   1.807  1.00  0.00     0.200 A 
ATOM     93  F   UNL     1      11.295  -1.411   2.721  1.00  0.00    -0.200 F 
ATOM     94  F   UNL     1       9.982  -2.529   0.615  1.00  0.00    -0.200 F 
ENDBRANCH  60  84
BRANCH  72  95
ATOM     95  C   UNL     1       8.640   0.804  10.870  1.00  0.00     0.064 A 
ATOM     96  C   UNL     1       9.752  -0.000  11.168  1.00  0.00     0.173 A 
ATOM     97  C   UNL     1       8.274   1.733  11.874  1.00  0.00     0.173 A 
ATOM     98  F   UNL     1      10.268  -0.839  10.260  1.00  0.00    -0.203 F 
ATOM     99  C   UNL     1      10.413   0.078  12.398  1.00  0.00     0.198 A 
ATOM    100  C   UNL     1       8.971   1.849  13.076  1.00  0.00     0.198 A 
ATOM    101  F   UNL     1       7.243   2.575  11.705  1.00  0.00    -0.203 F 
ATOM    102  F   UNL     1      11.446  -0.738  12.648  1.00  0.00    -0.200 F 
ATOM    103  C   UNL     1      10.032   1.011  13.344  1.00  0.00     0.200 A 
ATOM    104  F   UNL     1       8.621   2.794  13.960  1.00  0.00    -0.200 F 
ATOM    105  F   UNL     1      10.699   1.115  14.501  1.00  0.00    -0.200 F 
ENDBRANCH  72  95
ENDBRANCH  46  47
ENDBRANCH  38  41
ENDBRANCH  36  37
ENDBRANCH  35  36
ENDBRANCH   1  35
TORSDOF 14
