REMARK SMILES O=C(NCCCCNC(=O)[C@H]1C=C[C@H](NS(=O)(=O)c2ccc(F)c(F)c2F)C1)c1ccc(-c2c3nc(c(-c4c(F)c(F)c(F)c(F)c4F)c4ccc([nH]4)c(-c4c(F)c(F)c(F)c(F)c4F)c4nc(c(-c5c(F)c(F)c(F)c(F)c5F)c5ccc2[nH]5)C=C4)C=C3)cc1
REMARK SMILES IDX 6 1 5 2 4 3 3 4 1 5 2 6 29 8 30 9 91 10 31 11 90 12 32 13
REMARK SMILES IDX 33 14 34 15 84 16 35 17 89 18 83 19 85 20 36 21 88 22 82 23
REMARK SMILES IDX 81 24 37 26 69 27 49 28 68 29 50 30 53 31 67 32 86 33 51 34
REMARK SMILES IDX 52 35 66 37 87 38 54 39 38 40 39 41 47 42 40 43 41 44 45 45
REMARK SMILES IDX 48 46 42 47 43 48 46 49 44 50 70 51 71 52 79 53 72 54 73 55
REMARK SMILES IDX 77 56 80 57 74 58 75 59 78 60 76 61 55 62 56 63 64 64 57 65
REMARK SMILES IDX 58 66 62 67 65 68 59 69 60 70 63 71 61 72 7 73 8 74 9 75
REMARK SMILES IDX 10 77 11 78 12 79 28 80 13 81 14 82 15 83 16 85 17 86 18 87
REMARK SMILES IDX 19 88 20 89 26 90 21 91 24 92 27 93 22 94 25 95 23 96
REMARK H PARENT 3 7 85 25 53 36 8 76 15 84
REMARK Flexibility Score: inf
ROOT
ATOM      1  C   UNL     1       4.394  -1.634   3.365  1.00  0.00     0.023 C 
ENDROOT
BRANCH   1   2
ATOM      2  C   UNL     1       4.882  -0.452   2.519  1.00  0.00     0.023 C 
BRANCH   2   3
ATOM      3  C   UNL     1       4.565  -0.532   1.028  1.00  0.00     0.116 C 
BRANCH   3   4
ATOM      4  N   UNL     1       3.144  -0.680   0.760  1.00  0.00    -0.352 N 
ATOM      5  O   UNL     1       1.143  -0.197  -0.154  1.00  0.00    -0.269 OA
ATOM      6  C   UNL     1       2.358  -0.026  -0.154  1.00  0.00     0.251 C 
ATOM      7  H   UNL     1       2.679  -1.347   1.315  1.00  0.00     0.163 HD
BRANCH   6   8
ATOM      8  C   UNL     1       2.968   0.909  -1.121  1.00  0.00     0.039 A 
ATOM      9  C   UNL     1       4.101   0.553  -1.858  1.00  0.00     0.014 A 
ATOM     10  C   UNL     1       2.370   2.159  -1.306  1.00  0.00     0.014 A 
ATOM     11  C   UNL     1       4.695   1.483  -2.708  1.00  0.00     0.010 A 
ATOM     12  C   UNL     1       2.935   3.071  -2.198  1.00  0.00     0.010 A 
ATOM     13  C   UNL     1       4.114   2.748  -2.888  1.00  0.00    -0.014 A 
BRANCH  13  14
ATOM     14  C   UNL     1       4.709   3.720  -3.835  1.00  0.00     0.031 A 
ATOM     15  C   UNL     1       5.336   4.987  -3.334  1.00  0.00     0.074 A 
ATOM     16  C   UNL     1       4.649   3.468  -5.155  1.00  0.00     0.049 A 
ATOM     17  N   UNL     1       5.824   5.992  -4.017  1.00  0.00    -0.248 NA
ATOM     18  C   UNL     1       5.423   5.152  -1.876  1.00  0.00     0.031 C 
ATOM     19  C   UNL     1       4.067   2.267  -5.754  1.00  0.00     0.029 A 
ATOM     20  N   UNL     1       5.072   4.208  -6.229  1.00  0.00    -0.354 N 
ATOM     21  C   UNL     1       6.252   6.917  -3.076  1.00  0.00     0.074 A 
ATOM     22  C   UNL     1       5.955   6.363  -1.772  1.00  0.00     0.031 C 
ATOM     23  C   UNL     1       4.182   2.344  -7.088  1.00  0.00     0.029 A 
ATOM     24  C   UNL     1       4.794   3.623  -7.438  1.00  0.00     0.049 A 
ATOM     25  H   UNL     1       5.531   5.075  -6.141  1.00  0.00     0.167 HD
ATOM     26  C   UNL     1       6.842   8.117  -3.288  1.00  0.00     0.037 A 
ATOM     27  C   UNL     1       4.982   4.076  -8.692  1.00  0.00     0.037 A 
ATOM     28  C   UNL     1       7.157   8.647  -4.588  1.00  0.00     0.049 A 
ATOM     29  C   UNL     1       5.595   5.429  -8.902  1.00  0.00     0.074 A 
ATOM     30  C   UNL     1       7.818   9.822  -4.902  1.00  0.00     0.029 A 
ATOM     31  N   UNL     1       6.826   8.040  -5.791  1.00  0.00    -0.354 N 
ATOM     32  N   UNL     1       6.023   6.284  -8.007  1.00  0.00    -0.248 NA
ATOM     33  C   UNL     1       5.741   5.887 -10.290  1.00  0.00     0.031 C 
ATOM     34  C   UNL     1       7.845   9.949  -6.293  1.00  0.00     0.029 A 
ATOM     35  C   UNL     1       7.239   8.833  -6.849  1.00  0.00     0.049 A 
ATOM     36  H   UNL     1       6.366   7.174  -5.879  1.00  0.00     0.167 HD
ATOM     37  C   UNL     1       6.498   7.376  -8.717  1.00  0.00     0.074 A 
ATOM     38  C   UNL     1       6.312   7.074 -10.122  1.00  0.00     0.031 C 
ATOM     39  C   UNL     1       7.043   8.522  -8.242  1.00  0.00     0.037 A 
BRANCH  26  40
ATOM     40  C   UNL     1       7.175   8.955  -2.090  1.00  0.00     0.064 A 
ATOM     41  C   UNL     1       6.453  10.129  -1.826  1.00  0.00     0.173 A 
ATOM     42  C   UNL     1       8.243   8.635  -1.239  1.00  0.00     0.173 A 
ATOM     43  F   UNL     1       5.426  10.482  -2.614  1.00  0.00    -0.203 F 
ATOM     44  C   UNL     1       6.792  10.955  -0.758  1.00  0.00     0.198 A 
ATOM     45  C   UNL     1       8.565   9.452  -0.158  1.00  0.00     0.198 A 
ATOM     46  F   UNL     1       8.958   7.519  -1.444  1.00  0.00    -0.203 F 
ATOM     47  F   UNL     1       6.102  12.083  -0.539  1.00  0.00    -0.200 F 
ATOM     48  C   UNL     1       7.845  10.614   0.077  1.00  0.00     0.200 A 
ATOM     49  F   UNL     1       9.569   9.110   0.661  1.00  0.00    -0.200 F 
ATOM     50  F   UNL     1       8.163  11.403   1.113  1.00  0.00    -0.200 F 
ENDBRANCH  26  40
BRANCH  27  51
ATOM     51  C   UNL     1       4.573   3.217  -9.829  1.00  0.00     0.064 A 
ATOM     52  C   UNL     1       3.219   2.994 -10.121  1.00  0.00     0.173 A 
ATOM     53  C   UNL     1       5.529   2.526 -10.583  1.00  0.00     0.173 A 
ATOM     54  F   UNL     1       2.268   3.628  -9.418  1.00  0.00    -0.203 F 
ATOM     55  C   UNL     1       2.837   2.082 -11.102  1.00  0.00     0.198 A 
ATOM     56  C   UNL     1       5.146   1.630 -11.579  1.00  0.00     0.198 A 
ATOM     57  F   UNL     1       6.835   2.720 -10.348  1.00  0.00    -0.203 F 
ATOM     58  F   UNL     1       1.537   1.849 -11.327  1.00  0.00    -0.200 F 
ATOM     59  C   UNL     1       3.801   1.399 -11.828  1.00  0.00     0.200 A 
ATOM     60  F   UNL     1       6.079   0.980 -12.288  1.00  0.00    -0.200 F 
ATOM     61  F   UNL     1       3.433   0.514 -12.765  1.00  0.00    -0.200 F 
ENDBRANCH  27  51
BRANCH  39  62
ATOM     62  C   UNL     1       7.491   9.547  -9.239  1.00  0.00     0.064 A 
ATOM     63  C   UNL     1       8.858   9.757  -9.475  1.00  0.00     0.173 A 
ATOM     64  C   UNL     1       6.572  10.396  -9.871  1.00  0.00     0.173 A 
ATOM     65  F   UNL     1       9.773   8.973  -8.886  1.00  0.00    -0.203 F 
ATOM     66  C   UNL     1       9.290  10.799 -10.289  1.00  0.00     0.198 A 
ATOM     67  C   UNL     1       7.008  11.425 -10.701  1.00  0.00     0.198 A 
ATOM     68  F   UNL     1       5.255  10.224  -9.684  1.00  0.00    -0.203 F 
ATOM     69  F   UNL     1      10.601  11.007 -10.469  1.00  0.00    -0.200 F 
ATOM     70  C   UNL     1       8.365  11.633 -10.900  1.00  0.00     0.200 A 
ATOM     71  F   UNL     1       6.114  12.221 -11.304  1.00  0.00    -0.200 F 
ATOM     72  F   UNL     1       8.783  12.641 -11.678  1.00  0.00    -0.200 F 
ENDBRANCH  39  62
ENDBRANCH  13  14
ENDBRANCH   6   8
ENDBRANCH   3   4
ENDBRANCH   2   3
ENDBRANCH   1   2
BRANCH   1  73
ATOM     73  C   UNL     1       4.805  -3.010   2.843  1.00  0.00     0.116 C 
BRANCH  73  74
ATOM     74  N   UNL     1       6.244  -3.182   2.847  1.00  0.00    -0.356 N 
ATOM     75  C   UNL     1       7.031  -3.894   3.706  1.00  0.00     0.226 C 
ATOM     76  H   UNL     1       6.725  -2.717   2.124  1.00  0.00     0.163 HD
ATOM     77  O   UNL     1       8.245  -3.908   3.497  1.00  0.00    -0.274 OA
BRANCH  75  78
ATOM     78  C   UNL     1       6.377  -4.669   4.849  1.00  0.00     0.103 C 
ATOM     79  C   UNL     1       6.219  -6.113   4.477  1.00  0.00    -0.016 C 
ATOM     80  C   UNL     1       7.274  -4.725   6.094  1.00  0.00     0.042 C 
ATOM     81  C   UNL     1       6.730  -6.928   5.405  1.00  0.00    -0.011 C 
ATOM     82  C   UNL     1       7.330  -6.189   6.550  1.00  0.00     0.093 C 
BRANCH  82  83
ATOM     83  N   UNL     1       6.482  -6.372   7.712  1.00  0.00    -0.204 NA
ATOM     84  H   UNL     1       5.598  -6.744   7.365  1.00  0.00     0.142 HD
BRANCH  83  85
ATOM     85  S   UNL     1       6.930  -7.343   8.981  1.00  0.00     0.244 S 
ATOM     86  O   UNL     1       5.796  -7.391   9.877  1.00  0.00    -0.207 OA
ATOM     87  O   UNL     1       7.506  -8.547   8.424  1.00  0.00    -0.207 OA
BRANCH  85  88
ATOM     88  C   UNL     1       8.218  -6.519   9.860  1.00  0.00     0.121 A 
ATOM     89  C   UNL     1       9.026  -7.291  10.711  1.00  0.00     0.028 A 
ATOM     90  C   UNL     1       8.471  -5.163   9.707  1.00  0.00     0.181 A 
ATOM     91  C   UNL     1      10.094  -6.697  11.387  1.00  0.00     0.044 A 
ATOM     92  C   UNL     1       9.555  -4.583  10.357  1.00  0.00     0.195 A 
ATOM     93  F   UNL     1       7.689  -4.376   8.962  1.00  0.00    -0.202 F 
ATOM     94  C   UNL     1      10.361  -5.346  11.191  1.00  0.00     0.161 A 
ATOM     95  F   UNL     1       9.822  -3.282  10.172  1.00  0.00    -0.200 F 
ATOM     96  F   UNL     1      11.402  -4.785  11.820  1.00  0.00    -0.204 F 
ENDBRANCH  85  88
ENDBRANCH  83  85
ENDBRANCH  82  83
ENDBRANCH  75  78
ENDBRANCH  73  74
ENDBRANCH   1  73
TORSDOF 14
