REMARK SMILES C[C@@H](C(=O)NCCCCNC(=O)c1ccc(-c2c3nc(c(-c4c(F)c(F)c(F)c(F)c4F)c4ccc([nH]4)c(-c4c(F)c(F)c(F)c(F)c4F)c4nc(c(-c5c(F)c(F)c(F)c(F)c5F)c5ccc2[nH]5)C=C4)C=C3)cc1)c1ccc(-c2cccc(OC(=O)NCCC3CCCCC3)c2)c(F)c1
REMARK SMILES IDX 3 1 4 2 5 3 2 5 1 6 76 7 77 8 100 9 78 10 98 11 79 12 99 13
REMARK SMILES IDX 80 14 81 15 97 16 82 17 84 18 83 19 85 20 86 21 87 22 88 23
REMARK SMILES IDX 89 25 90 26 91 27 92 28 96 29 93 30 95 31 94 32 6 33 7 34
REMARK SMILES IDX 8 35 9 36 10 37 11 38 12 40 13 41 14 42 75 43 15 44 74 45
REMARK SMILES IDX 16 46 17 47 18 48 68 49 19 50 73 51 67 52 69 53 20 54 72 55
REMARK SMILES IDX 66 56 65 57 21 59 53 60 33 61 52 62 34 63 37 64 51 65 70 66
REMARK SMILES IDX 35 67 36 68 50 70 71 71 38 72 22 73 23 74 31 75 24 76 25 77
REMARK SMILES IDX 29 78 32 79 26 80 27 81 30 82 28 83 54 84 55 85 63 86 56 87
REMARK SMILES IDX 57 88 61 89 64 90 58 91 59 92 62 93 60 94 39 95 40 96 48 97
REMARK SMILES IDX 41 98 42 99 46 100 49 101 43 102 44 103 47 104 45 105
REMARK H PARENT 5 4 88 24 10 39 69 58 37 69
REMARK Flexibility Score: inf
ROOT
ATOM      1  C   UNL     1       1.083   2.026  -0.906  1.00  0.00     0.227 C 
ATOM      2  O   UNL     1       0.438   2.531  -1.827  1.00  0.00    -0.274 OA
ATOM      3  N   UNL     1       2.403   2.371  -0.828  1.00  0.00    -0.356 N 
ATOM      4  H   UNL     1       2.676   3.121  -1.405  1.00  0.00     0.163 HD
ENDROOT
BRANCH   1   5
ATOM      5  C   UNL     1       0.468   1.099   0.159  1.00  0.00     0.105 C 
ATOM      6  C   UNL     1       0.975  -0.340  -0.011  1.00  0.00     0.023 C 
BRANCH   5   7
ATOM      7  C   UNL     1      -1.061   1.180   0.188  1.00  0.00    -0.033 A 
ATOM      8  C   UNL     1      -1.705   2.426   0.306  1.00  0.00     0.005 A 
ATOM      9  C   UNL     1      -1.866   0.036   0.128  1.00  0.00     0.044 A 
ATOM     10  C   UNL     1      -3.103   2.521   0.341  1.00  0.00     0.012 A 
ATOM     11  C   UNL     1      -3.249   0.135   0.174  1.00  0.00     0.131 A 
ATOM     12  C   UNL     1      -3.897   1.369   0.287  1.00  0.00     0.018 A 
ATOM     13  F   UNL     1      -3.958  -1.005   0.132  1.00  0.00    -0.206 F 
BRANCH  12  14
ATOM     14  C   UNL     1      -5.351   1.420   0.448  1.00  0.00    -0.012 A 
ATOM     15  C   UNL     1      -6.191   2.097  -0.444  1.00  0.00     0.009 A 
ATOM     16  C   UNL     1      -5.927   0.741   1.533  1.00  0.00     0.056 A 
ATOM     17  C   UNL     1      -7.577   2.078  -0.259  1.00  0.00     0.004 A 
ATOM     18  C   UNL     1      -7.301   0.737   1.732  1.00  0.00     0.133 A 
ATOM     19  C   UNL     1      -8.133   1.397   0.828  1.00  0.00     0.047 A 
BRANCH  18  20
ATOM     20  O   UNL     1      -7.936   0.087   2.818  1.00  0.00    -0.410 OA
BRANCH  20  21
ATOM     21  C   UNL     1      -7.269  -0.446   3.920  1.00  0.00     0.412 C 
ATOM     22  O   UNL     1      -6.056  -0.501   4.096  1.00  0.00    -0.224 OA
ATOM     23  N   UNL     1      -8.096  -0.919   4.892  1.00  0.00    -0.321 N 
ATOM     24  H   UNL     1      -7.656  -1.262   5.704  1.00  0.00     0.167 HD
BRANCH  23  25
ATOM     25  C   UNL     1      -9.539  -0.981   4.881  1.00  0.00     0.119 C 
BRANCH  25  26
ATOM     26  C   UNL     1     -10.027  -2.431   4.896  1.00  0.00     0.025 C 
BRANCH  26  27
ATOM     27  C   UNL     1      -9.587  -3.242   6.134  1.00  0.00    -0.009 C 
ATOM     28  C   UNL     1     -10.229  -2.713   7.428  1.00  0.00     0.003 C 
ATOM     29  C   UNL     1      -9.918  -4.729   5.929  1.00  0.00     0.003 C 
ATOM     30  C   UNL     1      -9.874  -3.570   8.641  1.00  0.00     0.000 C 
ATOM     31  C   UNL     1      -9.541  -5.568   7.147  1.00  0.00     0.000 C 
ATOM     32  C   UNL     1     -10.207  -5.040   8.413  1.00  0.00     0.000 C 
ENDBRANCH  26  27
ENDBRANCH  25  26
ENDBRANCH  23  25
ENDBRANCH  20  21
ENDBRANCH  18  20
ENDBRANCH  12  14
ENDBRANCH   5   7
ENDBRANCH   1   5
BRANCH   3  33
ATOM     33  C   UNL     1       3.458   1.796  -0.022  1.00  0.00     0.116 C 
BRANCH  33  34
ATOM     34  C   UNL     1       4.261   0.778  -0.838  1.00  0.00     0.023 C 
BRANCH  34  35
ATOM     35  C   UNL     1       5.054   1.385  -1.993  1.00  0.00     0.023 C 
BRANCH  35  36
ATOM     36  C   UNL     1       6.047   2.455  -1.576  1.00  0.00     0.116 C 
BRANCH  36  37
ATOM     37  N   UNL     1       7.054   1.959  -0.649  1.00  0.00    -0.352 N 
ATOM     38  C   UNL     1       8.410   2.183  -0.675  1.00  0.00     0.251 C 
ATOM     39  H   UNL     1       6.724   1.393   0.086  1.00  0.00     0.163 HD
ATOM     40  O   UNL     1       9.167   1.590   0.083  1.00  0.00    -0.269 OA
BRANCH  38  41
ATOM     41  C   UNL     1       8.938   3.133  -1.671  1.00  0.00     0.039 A 
ATOM     42  C   UNL     1       9.944   2.717  -2.545  1.00  0.00     0.014 A 
ATOM     43  C   UNL     1       8.352   4.394  -1.800  1.00  0.00     0.014 A 
ATOM     44  C   UNL     1      10.311   3.545  -3.607  1.00  0.00     0.010 A 
ATOM     45  C   UNL     1       8.655   5.174  -2.906  1.00  0.00     0.010 A 
ATOM     46  C   UNL     1       9.636   4.757  -3.821  1.00  0.00    -0.014 A 
BRANCH  46  47
ATOM     47  C   UNL     1       9.926   5.623  -4.989  1.00  0.00     0.031 A 
ATOM     48  C   UNL     1      10.421   7.022  -4.766  1.00  0.00     0.074 A 
ATOM     49  C   UNL     1       9.628   5.200  -6.232  1.00  0.00     0.049 A 
ATOM     50  N   UNL     1      10.568   7.999  -5.623  1.00  0.00    -0.248 NA
ATOM     51  C   UNL     1      10.756   7.381  -3.379  1.00  0.00     0.031 C 
ATOM     52  C   UNL     1       9.098   3.880  -6.573  1.00  0.00     0.029 A 
ATOM     53  N   UNL     1       9.695   5.854  -7.438  1.00  0.00    -0.354 N 
ATOM     54  C   UNL     1      10.980   9.093  -4.875  1.00  0.00     0.074 A 
ATOM     55  C   UNL     1      11.005   8.675  -3.490  1.00  0.00     0.031 C 
ATOM     56  C   UNL     1       8.888   3.820  -7.897  1.00  0.00     0.029 A 
ATOM     57  C   UNL     1       9.218   5.112  -8.491  1.00  0.00     0.049 A 
ATOM     58  H   UNL     1      10.052   6.766  -7.538  1.00  0.00     0.167 HD
ATOM     59  C   UNL     1      11.322  10.330  -5.308  1.00  0.00     0.037 A 
ATOM     60  C   UNL     1       9.037   5.446  -9.783  1.00  0.00     0.037 A 
ATOM     61  C   UNL     1      11.308  10.729  -6.691  1.00  0.00     0.049 A 
ATOM     62  C   UNL     1       9.414   6.827 -10.246  1.00  0.00     0.074 A 
ATOM     63  C   UNL     1      11.706  11.931  -7.245  1.00  0.00     0.029 A 
ATOM     64  N   UNL     1      10.857   9.934  -7.737  1.00  0.00    -0.354 N 
ATOM     65  N   UNL     1       9.873   7.836  -9.546  1.00  0.00    -0.248 NA
ATOM     66  C   UNL     1       9.255   7.115 -11.678  1.00  0.00     0.031 C 
ATOM     67  C   UNL     1      11.432  11.891  -8.616  1.00  0.00     0.029 A 
ATOM     68  C   UNL     1      10.935  10.635  -8.930  1.00  0.00     0.049 A 
ATOM     69  H   UNL     1      10.531   9.010  -7.645  1.00  0.00     0.167 HD
ATOM     70  C   UNL     1      10.086   8.866 -10.452  1.00  0.00     0.074 A 
ATOM     71  C   UNL     1       9.708   8.359 -11.755  1.00  0.00     0.031 C 
ATOM     72  C   UNL     1      10.561  10.116 -10.223  1.00  0.00     0.037 A 
BRANCH  59  73
ATOM     73  C   UNL     1      11.709  11.342  -4.267  1.00  0.00     0.064 A 
ATOM     74  C   UNL     1      12.866  11.199  -3.483  1.00  0.00     0.173 A 
ATOM     75  C   UNL     1      10.905  12.470  -4.042  1.00  0.00     0.173 A 
ATOM     76  F   UNL     1      13.668  10.136  -3.648  1.00  0.00    -0.203 F 
ATOM     77  C   UNL     1      13.169  12.114  -2.478  1.00  0.00     0.198 A 
ATOM     78  C   UNL     1      11.234  13.405  -3.064  1.00  0.00     0.198 A 
ATOM     79  F   UNL     1       9.792  12.664  -4.766  1.00  0.00    -0.203 F 
ATOM     80  F   UNL     1      14.234  11.911  -1.689  1.00  0.00    -0.200 F 
ATOM     81  C   UNL     1      12.357  13.218  -2.272  1.00  0.00     0.200 A 
ATOM     82  F   UNL     1      10.456  14.480  -2.879  1.00  0.00    -0.200 F 
ATOM     83  F   UNL     1      12.648  14.095  -1.302  1.00  0.00    -0.200 F 
ENDBRANCH  59  73
BRANCH  60  84
ATOM     84  C   UNL     1       8.474   4.441 -10.722  1.00  0.00     0.064 A 
ATOM     85  C   UNL     1       9.273   3.843 -11.706  1.00  0.00     0.173 A 
ATOM     86  C   UNL     1       7.138   4.025 -10.626  1.00  0.00     0.173 A 
ATOM     87  F   UNL     1      10.552   4.221 -11.850  1.00  0.00    -0.203 F 
ATOM     88  C   UNL     1       8.756   2.872 -12.561  1.00  0.00     0.198 A 
ATOM     89  C   UNL     1       6.629   3.034 -11.462  1.00  0.00     0.198 A 
ATOM     90  F   UNL     1       6.333   4.561  -9.695  1.00  0.00    -0.203 F 
ATOM     91  F   UNL     1       9.533   2.337 -13.512  1.00  0.00    -0.200 F 
ATOM     92  C   UNL     1       7.437   2.461 -12.432  1.00  0.00     0.200 A 
ATOM     93  F   UNL     1       5.361   2.626 -11.321  1.00  0.00    -0.200 F 
ATOM     94  F   UNL     1       6.946   1.514 -13.242  1.00  0.00    -0.200 F 
ENDBRANCH  60  84
BRANCH  72  95
ATOM     95  C   UNL     1      10.749  11.020 -11.408  1.00  0.00     0.064 A 
ATOM     96  C   UNL     1       9.664  11.586 -12.091  1.00  0.00     0.173 A 
ATOM     97  C   UNL     1      12.043  11.385 -11.815  1.00  0.00     0.173 A 
ATOM     98  F   UNL     1       8.407  11.259 -11.752  1.00  0.00    -0.203 F 
ATOM     99  C   UNL     1       9.866  12.474 -13.145  1.00  0.00     0.198 A 
ATOM    100  C   UNL     1      12.241  12.298 -12.846  1.00  0.00     0.198 A 
ATOM    101  F   UNL     1      13.116  10.877 -11.191  1.00  0.00    -0.203 F 
ATOM    102  F   UNL     1       8.815  12.976 -13.807  1.00  0.00    -0.200 F 
ATOM    103  C   UNL     1      11.153  12.838 -13.513  1.00  0.00     0.200 A 
ATOM    104  F   UNL     1      13.485  12.662 -13.187  1.00  0.00    -0.200 F 
ATOM    105  F   UNL     1      11.345  13.710 -14.514  1.00  0.00    -0.200 F 
ENDBRANCH  72  95
ENDBRANCH  46  47
ENDBRANCH  38  41
ENDBRANCH  36  37
ENDBRANCH  35  36
ENDBRANCH  34  35
ENDBRANCH  33  34
ENDBRANCH   3  33
TORSDOF 18
