REMARK SMILES Cc1ccc(C(=O)NCCCCNC(=O)c2ccc(-c3c4nc(c(-c5c(F)c(F)c(F)c(F)c5F)c5ccc([nH]5)c(-c5c(F)c(F)c(F)c(F)c5F)c5nc(c(-c6c(F)c(F)c(F)c(F)c6F)c6ccc3[nH]6)C=C5)C=C4)cc2)cc1/[NH+]=C1\NCCS1
REMARK SMILES IDX 11 1 10 2 9 3 8 4 6 5 7 6 5 8 1 9 2 10 3 11 80 12 4 13 79 14
REMARK SMILES IDX 81 15 82 16 83 18 86 19 84 20 85 22 12 23 13 24 14 25 15 27
REMARK SMILES IDX 16 28 17 29 78 30 18 31 77 32 19 33 20 34 21 35 71 36 22 37
REMARK SMILES IDX 76 38 70 39 72 40 23 41 75 42 69 43 68 44 24 46 56 47 36 48
REMARK SMILES IDX 55 49 37 50 40 51 54 52 73 53 38 54 39 55 53 57 74 58 41 59
REMARK SMILES IDX 25 60 26 61 34 62 27 63 28 64 32 65 35 66 29 67 30 68 33 69
REMARK SMILES IDX 31 70 57 71 58 72 66 73 59 74 60 75 64 76 67 77 61 78 62 79
REMARK SMILES IDX 65 80 63 81 42 82 43 83 51 84 44 85 45 86 49 87 52 88 46 89
REMARK SMILES IDX 47 90 50 91 48 92
REMARK H PARENT 8 7 81 17 83 21 13 26 72 45 40 56
REMARK Flexibility Score: inf
ROOT
ATOM      1  C   UNL     1      -4.653   3.497  -2.083  1.00  0.00     0.023 C 
ENDROOT
BRANCH   1   2
ATOM      2  C   UNL     1      -3.358   3.330  -1.274  1.00  0.00     0.023 C 
BRANCH   2   3
ATOM      3  C   UNL     1      -3.533   2.603   0.070  1.00  0.00     0.116 C 
BRANCH   3   4
ATOM      4  N   UNL     1      -3.823   1.192  -0.106  1.00  0.00    -0.352 N 
ATOM      5  C   UNL     1      -3.051   0.060  -0.171  1.00  0.00     0.251 C 
ATOM      6  O   UNL     1      -3.663  -1.004  -0.292  1.00  0.00    -0.269 OA
ATOM      7  H   UNL     1      -4.785   1.007  -0.201  1.00  0.00     0.163 HD
BRANCH   5   8
ATOM      8  C   UNL     1      -1.560   0.023  -0.089  1.00  0.00     0.044 A 
ATOM      9  C   UNL     1       2.740  -0.455   0.269  1.00  0.00     0.049 C 
ATOM     10  C   UNL     1       1.256  -0.261   0.144  1.00  0.00    -0.004 A 
ATOM     11  C   UNL     1       0.420  -1.384   0.176  1.00  0.00     0.008 A 
ATOM     12  C   UNL     1       0.679   1.003  -0.053  1.00  0.00     0.129 A 
ATOM     13  C   UNL     1      -0.967  -1.240   0.073  1.00  0.00     0.014 A 
ATOM     14  C   UNL     1      -0.713   1.126  -0.178  1.00  0.00     0.065 A 
BRANCH  12  15
ATOM     15  N   UNL     1       1.431   2.186  -0.058  1.00  0.00    -0.235 N 
ATOM     16  C   UNL     1       2.104   2.496  -1.106  1.00  0.00     0.309 C 
ATOM     17  H   UNL     1       1.442   2.772   0.733  1.00  0.00     0.313 HD
ATOM     18  N   UNL     1       2.255   1.860  -2.300  1.00  0.00    -0.268 N 
ATOM     19  S   UNL     1       3.045   3.985  -1.090  1.00  0.00    -0.035 SA
ATOM     20  C   UNL     1       3.049   2.524  -3.305  1.00  0.00     0.246 C 
ATOM     21  H   UNL     1       1.839   0.984  -2.471  1.00  0.00     0.305 HD
ATOM     22  C   UNL     1       3.984   3.476  -2.563  1.00  0.00     0.128 C 
ENDBRANCH  12  15
ENDBRANCH   5   8
ENDBRANCH   3   4
ENDBRANCH   2   3
ENDBRANCH   1   2
BRANCH   1  23
ATOM     23  C   UNL     1      -5.650   4.458  -1.447  1.00  0.00     0.116 C 
BRANCH  23  24
ATOM     24  N   UNL     1      -5.443   5.866  -1.752  1.00  0.00    -0.352 N 
ATOM     25  C   UNL     1      -5.968   6.998  -1.147  1.00  0.00     0.251 C 
ATOM     26  H   UNL     1      -4.835   6.043  -2.506  1.00  0.00     0.163 HD
ATOM     27  O   UNL     1      -5.775   8.095  -1.650  1.00  0.00    -0.269 OA
BRANCH  25  28
ATOM     28  C   UNL     1      -6.642   6.908   0.179  1.00  0.00     0.039 A 
ATOM     29  C   UNL     1      -6.407   7.930   1.112  1.00  0.00     0.014 A 
ATOM     30  C   UNL     1      -7.333   5.769   0.573  1.00  0.00     0.014 A 
ATOM     31  C   UNL     1      -6.625   7.692   2.469  1.00  0.00     0.010 A 
ATOM     32  C   UNL     1      -7.430   5.480   1.918  1.00  0.00     0.010 A 
ATOM     33  C   UNL     1      -7.012   6.418   2.867  1.00  0.00    -0.014 A 
BRANCH  33  34
ATOM     34  C   UNL     1      -6.930   5.918   4.232  1.00  0.00     0.031 A 
ATOM     35  C   UNL     1      -8.166   5.631   4.990  1.00  0.00     0.074 A 
ATOM     36  C   UNL     1      -5.726   5.503   4.690  1.00  0.00     0.049 A 
ATOM     37  N   UNL     1      -8.186   5.302   6.237  1.00  0.00    -0.248 NA
ATOM     38  C   UNL     1      -9.505   5.751   4.413  1.00  0.00     0.031 C 
ATOM     39  C   UNL     1      -5.457   4.571   5.784  1.00  0.00     0.029 A 
ATOM     40  N   UNL     1      -4.460   6.024   4.364  1.00  0.00    -0.354 N 
ATOM     41  C   UNL     1      -9.451   4.849   6.519  1.00  0.00     0.074 A 
ATOM     42  C   UNL     1     -10.262   5.287   5.414  1.00  0.00     0.031 C 
ATOM     43  C   UNL     1      -4.212   4.780   6.240  1.00  0.00     0.029 A 
ATOM     44  C   UNL     1      -3.721   5.972   5.573  1.00  0.00     0.049 A 
ATOM     45  H   UNL     1      -4.154   6.353   3.488  1.00  0.00     0.167 HD
ATOM     46  C   UNL     1      -9.617   4.013   7.580  1.00  0.00     0.037 A 
ATOM     47  C   UNL     1      -3.334   7.110   6.221  1.00  0.00     0.037 A 
ATOM     48  C   UNL     1      -8.450   4.056   8.460  1.00  0.00     0.049 A 
ATOM     49  C   UNL     1      -3.850   7.217   7.638  1.00  0.00     0.074 A 
ATOM     50  C   UNL     1      -7.425   3.170   8.736  1.00  0.00     0.029 A 
ATOM     51  N   UNL     1      -8.080   5.278   9.019  1.00  0.00    -0.354 N 
ATOM     52  N   UNL     1      -4.889   6.565   8.084  1.00  0.00    -0.248 NA
ATOM     53  C   UNL     1      -3.255   8.082   8.651  1.00  0.00     0.031 C 
ATOM     54  C   UNL     1      -6.378   3.906   9.360  1.00  0.00     0.029 A 
ATOM     55  C   UNL     1      -6.795   5.218   9.515  1.00  0.00     0.049 A 
ATOM     56  H   UNL     1      -8.657   6.075   9.055  1.00  0.00     0.167 HD
ATOM     57  C   UNL     1      -5.117   6.909   9.389  1.00  0.00     0.074 A 
ATOM     58  C   UNL     1      -4.059   7.852   9.704  1.00  0.00     0.031 C 
ATOM     59  C   UNL     1      -6.167   6.397  10.097  1.00  0.00     0.037 A 
BRANCH  46  60
ATOM     60  C   UNL     1     -10.736   3.002   7.729  1.00  0.00     0.064 A 
ATOM     61  C   UNL     1     -10.842   2.233   8.909  1.00  0.00     0.173 A 
ATOM     62  C   UNL     1     -11.640   2.634   6.707  1.00  0.00     0.173 A 
ATOM     63  F   UNL     1     -10.036   2.461   9.957  1.00  0.00    -0.203 F 
ATOM     64  C   UNL     1     -11.762   1.186   9.046  1.00  0.00     0.198 A 
ATOM     65  C   UNL     1     -12.596   1.626   6.866  1.00  0.00     0.198 A 
ATOM     66  F   UNL     1     -11.602   3.179   5.487  1.00  0.00    -0.203 F 
ATOM     67  F   UNL     1     -11.772   0.450  10.165  1.00  0.00    -0.200 F 
ATOM     68  C   UNL     1     -12.647   0.890   8.029  1.00  0.00     0.200 A 
ATOM     69  F   UNL     1     -13.442   1.353   5.862  1.00  0.00    -0.200 F 
ATOM     70  F   UNL     1     -13.529  -0.109   8.157  1.00  0.00    -0.200 F 
ENDBRANCH  46  60
BRANCH  47  71
ATOM     71  C   UNL     1      -3.130   8.259   5.298  1.00  0.00     0.064 A 
ATOM     72  C   UNL     1      -2.126   8.150   4.316  1.00  0.00     0.173 A 
ATOM     73  C   UNL     1      -4.130   9.219   5.101  1.00  0.00     0.173 A 
ATOM     74  F   UNL     1      -1.143   7.247   4.462  1.00  0.00    -0.203 F 
ATOM     75  C   UNL     1      -2.200   8.867   3.124  1.00  0.00     0.198 A 
ATOM     76  C   UNL     1      -4.187   9.951   3.913  1.00  0.00     0.198 A 
ATOM     77  F   UNL     1      -5.119   9.363   5.993  1.00  0.00    -0.203 F 
ATOM     78  F   UNL     1      -1.304   8.644   2.152  1.00  0.00    -0.200 F 
ATOM     79  C   UNL     1      -3.250   9.743   2.910  1.00  0.00     0.200 A 
ATOM     80  F   UNL     1      -5.218  10.780   3.692  1.00  0.00    -0.200 F 
ATOM     81  F   UNL     1      -3.387  10.353   1.724  1.00  0.00    -0.200 F 
ENDBRANCH  47  71
BRANCH  59  82
ATOM     82  C   UNL     1      -6.652   6.903  11.435  1.00  0.00     0.064 A 
ATOM     83  C   UNL     1      -6.515   8.234  11.866  1.00  0.00     0.173 A 
ATOM     84  C   UNL     1      -7.421   6.067  12.280  1.00  0.00     0.173 A 
ATOM     85  F   UNL     1      -5.923   9.159  11.098  1.00  0.00    -0.203 F 
ATOM     86  C   UNL     1      -7.041   8.676  13.084  1.00  0.00     0.198 A 
ATOM     87  C   UNL     1      -7.994   6.526  13.465  1.00  0.00     0.198 A 
ATOM     88  F   UNL     1      -7.662   4.786  11.965  1.00  0.00    -0.203 F 
ATOM     89  F   UNL     1      -6.843   9.944  13.470  1.00  0.00    -0.200 F 
ATOM     90  C   UNL     1      -7.787   7.826  13.877  1.00  0.00     0.200 A 
ATOM     91  F   UNL     1      -8.763   5.706  14.195  1.00  0.00    -0.200 F 
ATOM     92  F   UNL     1      -8.325   8.265  15.023  1.00  0.00    -0.200 F 
ENDBRANCH  59  82
ENDBRANCH  33  34
ENDBRANCH  25  28
ENDBRANCH  23  24
ENDBRANCH   1  23
TORSDOF 12
