REMARK SMILES CC(C)N(CC1CC[NH2+]CC1)S(=O)(=O)[C@H](C)C(=O)NCCCCNC(=O)c1ccc(-c2c3nc(c(-c4c(F)c(F)c(F)c(F)c4F)c4ccc([nH]4)c(-c4c(F)c(F)c(F)c(F)c4F)c4nc(c(-c5c(F)c(F)c(F)c(F)c5F)c5ccc2[nH]5)C=C4)C=C3)cc1
REMARK SMILES IDX 20 1 19 2 17 3 18 4 15 6 16 7 12 8 13 9 14 10 4 11 2 12 1 13
REMARK SMILES IDX 3 14 5 15 6 16 7 17 11 18 8 19 10 20 9 21 21 24 22 25 23 26
REMARK SMILES IDX 24 27 25 28 26 30 27 31 28 32 89 33 29 34 88 35 30 36 31 37
REMARK SMILES IDX 32 38 82 39 33 40 87 41 81 42 83 43 34 44 86 45 80 46 79 47
REMARK SMILES IDX 35 49 67 50 47 51 66 52 48 53 51 54 65 55 84 56 49 57 50 58
REMARK SMILES IDX 64 60 85 61 52 62 36 63 37 64 45 65 38 66 39 67 43 68 46 69
REMARK SMILES IDX 40 70 41 71 44 72 42 73 68 74 69 75 77 76 70 77 71 78 75 79
REMARK SMILES IDX 78 80 72 81 73 82 76 83 74 84 53 85 54 86 62 87 55 88 56 89
REMARK SMILES IDX 60 90 63 91 57 92 58 93 61 94 59 95
REMARK H PARENT 19 5 9 22 9 23 24 29 83 48 51 59
REMARK Flexibility Score: inf
ROOT
ATOM      1  C   UNL     1      -2.688   1.881   2.190  1.00  0.00     0.116 C 
ENDROOT
BRANCH   1   2
ATOM      2  N   UNL     1      -3.669   2.626   1.444  1.00  0.00    -0.355 N 
ATOM      3  C   UNL     1      -4.206   2.364   0.215  1.00  0.00     0.239 C 
ATOM      4  O   UNL     1      -5.189   3.048  -0.093  1.00  0.00    -0.274 OA
ATOM      5  H   UNL     1      -4.001   3.443   1.882  1.00  0.00     0.163 HD
BRANCH   3   6
ATOM      6  C   UNL     1      -3.576   1.436  -0.801  1.00  0.00     0.210 C 
ATOM      7  C   UNL     1      -2.155   1.802  -1.187  1.00  0.00     0.037 C 
BRANCH   6   8
ATOM      8  S   UNL     1      -3.969  -0.302  -0.601  1.00  0.00     0.226 S 
ATOM      9  O   UNL     1      -3.498  -0.989  -1.785  1.00  0.00    -0.211 OA
ATOM     10  O   UNL     1      -5.376  -0.377  -0.261  1.00  0.00    -0.211 OA
BRANCH   8  11
ATOM     11  N   UNL     1      -3.080  -0.931   0.695  1.00  0.00    -0.198 NA
BRANCH  11  12
ATOM     12  C   UNL     1      -3.694  -1.941   1.637  1.00  0.00     0.066 C 
ATOM     13  C   UNL     1      -4.923  -1.404   2.370  1.00  0.00     0.025 C 
ATOM     14  C   UNL     1      -4.002  -3.279   0.972  1.00  0.00     0.025 C 
ENDBRANCH  11  12
BRANCH  11  15
ATOM     15  C   UNL     1      -1.588  -1.028   0.593  1.00  0.00     0.106 C 
BRANCH  15  16
ATOM     16  C   UNL     1      -1.038  -2.212  -0.215  1.00  0.00     0.015 C 
ATOM     17  C   UNL     1      -0.071  -3.042   0.650  1.00  0.00     0.066 C 
ATOM     18  C   UNL     1      -0.281  -1.756  -1.478  1.00  0.00     0.066 C 
ATOM     19  C   UNL     1       1.245  -2.304   0.918  1.00  0.00     0.260 C 
ATOM     20  C   UNL     1       1.048  -1.070  -1.162  1.00  0.00     0.260 C 
ATOM     21  N   UNL     1       1.897  -1.911  -0.326  1.00  0.00    -0.346 N 
ATOM     22  H   UNL     1       2.138  -2.753  -0.849  1.00  0.00     0.346 HD
ATOM     23  H   UNL     1       2.727  -1.370  -0.084  1.00  0.00     0.346 HD
ENDBRANCH  15  16
ENDBRANCH  11  15
ENDBRANCH   8  11
ENDBRANCH   6   8
ENDBRANCH   3   6
ENDBRANCH   1   2
BRANCH   1  24
ATOM     24  C   UNL     1      -1.476   2.682   2.640  1.00  0.00     0.023 C 
BRANCH  24  25
ATOM     25  C   UNL     1      -1.714   3.641   3.800  1.00  0.00     0.023 C 
BRANCH  25  26
ATOM     26  C   UNL     1      -2.417   3.053   5.019  1.00  0.00     0.116 C 
BRANCH  26  27
ATOM     27  N   UNL     1      -1.790   1.851   5.547  1.00  0.00    -0.352 N 
ATOM     28  C   UNL     1      -1.624   1.459   6.855  1.00  0.00     0.251 C 
ATOM     29  H   UNL     1      -1.433   1.229   4.872  1.00  0.00     0.163 HD
ATOM     30  O   UNL     1      -1.012   0.427   7.112  1.00  0.00    -0.269 OA
BRANCH  28  31
ATOM     31  C   UNL     1      -2.135   2.309   7.953  1.00  0.00     0.039 A 
ATOM     32  C   UNL     1      -1.299   2.566   9.043  1.00  0.00     0.014 A 
ATOM     33  C   UNL     1      -3.411   2.876   7.901  1.00  0.00     0.014 A 
ATOM     34  C   UNL     1      -1.711   3.458  10.036  1.00  0.00     0.010 A 
ATOM     35  C   UNL     1      -3.788   3.825   8.848  1.00  0.00     0.010 A 
ATOM     36  C   UNL     1      -2.941   4.128   9.923  1.00  0.00    -0.014 A 
BRANCH  36  37
ATOM     37  C   UNL     1      -3.332   5.163  10.913  1.00  0.00     0.031 A 
ATOM     38  C   UNL     1      -4.528   4.962  11.801  1.00  0.00     0.074 A 
ATOM     39  C   UNL     1      -2.634   6.314  10.975  1.00  0.00     0.049 A 
ATOM     40  N   UNL     1      -5.004   5.746  12.736  1.00  0.00    -0.248 NA
ATOM     41  C   UNL     1      -5.312   3.736  11.591  1.00  0.00     0.031 C 
ATOM     42  C   UNL     1      -1.509   6.668  10.108  1.00  0.00     0.029 A 
ATOM     43  N   UNL     1      -2.768   7.400  11.804  1.00  0.00    -0.354 N 
ATOM     44  C   UNL     1      -6.144   5.115  13.213  1.00  0.00     0.074 A 
ATOM     45  C   UNL     1      -6.323   3.913  12.428  1.00  0.00     0.031 C 
ATOM     46  C   UNL     1      -1.033   7.870  10.473  1.00  0.00     0.029 A 
ATOM     47  C   UNL     1      -1.829   8.377  11.586  1.00  0.00     0.049 A 
ATOM     48  H   UNL     1      -3.471   7.471  12.489  1.00  0.00     0.167 HD
ATOM     49  C   UNL     1      -6.955   5.490  14.232  1.00  0.00     0.037 A 
ATOM     50  C   UNL     1      -1.621   9.544  12.225  1.00  0.00     0.037 A 
ATOM     51  C   UNL     1      -6.758   6.670  15.033  1.00  0.00     0.049 A 
ATOM     52  C   UNL     1      -2.493   9.905  13.396  1.00  0.00     0.074 A 
ATOM     53  C   UNL     1      -7.480   7.100  16.133  1.00  0.00     0.029 A 
ATOM     54  N   UNL     1      -5.761   7.610  14.818  1.00  0.00    -0.354 N 
ATOM     55  N   UNL     1      -3.510   9.252  13.902  1.00  0.00    -0.248 NA
ATOM     56  C   UNL     1      -2.173  11.155  14.097  1.00  0.00     0.031 C 
ATOM     57  C   UNL     1      -6.940   8.317  16.563  1.00  0.00     0.029 A 
ATOM     58  C   UNL     1      -5.856   8.624  15.757  1.00  0.00     0.049 A 
ATOM     59  H   UNL     1      -5.086   7.564  14.103  1.00  0.00     0.167 HD
ATOM     60  C   UNL     1      -3.936   9.996  14.993  1.00  0.00     0.074 A 
ATOM     61  C   UNL     1      -3.054  11.140  15.087  1.00  0.00     0.031 C 
ATOM     62  C   UNL     1      -4.967   9.754  15.840  1.00  0.00     0.037 A 
BRANCH  49  63
ATOM     63  C   UNL     1      -8.123   4.602  14.548  1.00  0.00     0.064 A 
ATOM     64  C   UNL     1      -7.946   3.337  15.128  1.00  0.00     0.173 A 
ATOM     65  C   UNL     1      -9.434   5.030  14.294  1.00  0.00     0.173 A 
ATOM     66  F   UNL     1      -6.712   2.875  15.378  1.00  0.00    -0.203 F 
ATOM     67  C   UNL     1      -9.037   2.521  15.415  1.00  0.00     0.198 A 
ATOM     68  C   UNL     1     -10.525   4.223  14.609  1.00  0.00     0.198 A 
ATOM     69  F   UNL     1      -9.659   6.233  13.745  1.00  0.00    -0.203 F 
ATOM     70  F   UNL     1      -8.841   1.296  15.922  1.00  0.00    -0.200 F 
ATOM     71  C   UNL     1     -10.325   2.967  15.161  1.00  0.00     0.200 A 
ATOM     72  F   UNL     1     -11.770   4.660  14.373  1.00  0.00    -0.200 F 
ATOM     73  F   UNL     1     -11.375   2.182  15.442  1.00  0.00    -0.200 F 
ENDBRANCH  49  63
BRANCH  50  74
ATOM     74  C   UNL     1      -0.498  10.423  11.812  1.00  0.00     0.064 A 
ATOM     75  C   UNL     1       0.645  10.551  12.612  1.00  0.00     0.173 A 
ATOM     76  C   UNL     1      -0.540  11.146  10.611  1.00  0.00     0.173 A 
ATOM     77  F   UNL     1       0.723   9.892  13.778  1.00  0.00    -0.203 F 
ATOM     78  C   UNL     1       1.697  11.384  12.238  1.00  0.00     0.198 A 
ATOM     79  C   UNL     1       0.523  11.960  10.226  1.00  0.00     0.198 A 
ATOM     80  F   UNL     1      -1.609  11.050   9.807  1.00  0.00    -0.203 F 
ATOM     81  F   UNL     1       2.761  11.519  13.041  1.00  0.00    -0.200 F 
ATOM     82  C   UNL     1       1.637  12.084  11.043  1.00  0.00     0.200 A 
ATOM     83  F   UNL     1       0.468  12.624   9.063  1.00  0.00    -0.200 F 
ATOM     84  F   UNL     1       2.651  12.882  10.680  1.00  0.00    -0.200 F 
ENDBRANCH  50  74
BRANCH  62  85
ATOM     85  C   UNL     1      -5.174  10.732  16.958  1.00  0.00     0.064 A 
ATOM     86  C   UNL     1      -5.679  12.020  16.725  1.00  0.00     0.173 A 
ATOM     87  C   UNL     1      -4.877  10.371  18.281  1.00  0.00     0.173 A 
ATOM     88  F   UNL     1      -5.963  12.417  15.475  1.00  0.00    -0.203 F 
ATOM     89  C   UNL     1      -5.848  12.922  17.771  1.00  0.00     0.198 A 
ATOM     90  C   UNL     1      -5.074  11.266  19.328  1.00  0.00     0.198 A 
ATOM     91  F   UNL     1      -4.397   9.149  18.557  1.00  0.00    -0.203 F 
ATOM     92  F   UNL     1      -6.280  14.165  17.519  1.00  0.00    -0.200 F 
ATOM     93  C   UNL     1      -5.550  12.543  19.072  1.00  0.00     0.200 A 
ATOM     94  F   UNL     1      -4.795  10.896  20.586  1.00  0.00    -0.200 F 
ATOM     95  F   UNL     1      -5.711  13.414  20.078  1.00  0.00    -0.200 F 
ENDBRANCH  62  85
ENDBRANCH  36  37
ENDBRANCH  28  31
ENDBRANCH  26  27
ENDBRANCH  25  26
ENDBRANCH  24  25
ENDBRANCH   1  24
TORSDOF 16
