REMARK SMILES Cc1cc(O[C@@H](C)C(=O)NCCC(=O)NCCCCNC(=O)c2ccc(-c3c4nc(c(-c5c(F)c(F)c(F)c(F)c5F)c5ccc([nH]5)c(-c5c(F)c(F)c(F)c(F)c5F)c5nc(c(-c6c(F)c(F)c(F)c(F)c6F)c6ccc3[nH]6)C=C5)C=C4)cc2)c2c3c(c(=O)oc2c1)CCCC3
REMARK SMILES IDX 16 1 15 2 13 3 14 4 12 6 11 7 10 8 8 9 9 10 6 12 7 13 5 14
REMARK SMILES IDX 4 15 1 16 2 17 3 18 93 19 92 20 86 21 91 22 87 23 89 24
REMARK SMILES IDX 88 25 97 26 90 27 94 28 96 29 95 30 17 31 18 32 19 33 20 34
REMARK SMILES IDX 21 35 22 37 23 38 24 39 85 40 25 41 84 42 26 43 27 44 28 45
REMARK SMILES IDX 78 46 29 47 83 48 77 49 79 50 30 51 82 52 76 53 75 54 31 56
REMARK SMILES IDX 63 57 43 58 62 59 44 60 47 61 61 62 80 63 45 64 46 65 60 67
REMARK SMILES IDX 81 68 48 69 32 70 33 71 41 72 34 73 35 74 39 75 42 76 36 77
REMARK SMILES IDX 37 78 40 79 38 80 64 81 65 82 73 83 66 84 67 85 71 86 74 87
REMARK SMILES IDX 68 88 69 89 72 90 70 91 49 92 50 93 58 94 51 95 52 96 56 97
REMARK SMILES IDX 59 98 53 99 54 100 57 101 55 102
REMARK H PARENT 15 5 10 11 20 36 79 55 47 66
REMARK Flexibility Score: inf
ROOT
ATOM      1  C   UNL     1      -2.984   3.255  -0.421  1.00  0.00     0.116 C 
ENDROOT
BRANCH   1   2
ATOM      2  N   UNL     1      -2.840   1.862  -0.775  1.00  0.00    -0.356 N 
ATOM      3  C   UNL     1      -1.843   1.006  -0.420  1.00  0.00     0.221 C 
ATOM      4  O   UNL     1      -1.797  -0.102  -0.955  1.00  0.00    -0.275 OA
ATOM      5  H   UNL     1      -3.550   1.485  -1.344  1.00  0.00     0.163 HD
BRANCH   3   6
ATOM      6  C   UNL     1      -0.828   1.415   0.627  1.00  0.00     0.121 C 
BRANCH   6   7
ATOM      7  C   UNL     1       0.306   2.286   0.086  1.00  0.00     0.126 C 
BRANCH   7   8
ATOM      8  N   UNL     1       0.185   3.674   0.507  1.00  0.00    -0.352 N 
ATOM      9  C   UNL     1       0.395   4.313   1.682  1.00  0.00     0.260 C 
ATOM     10  O   UNL     1      -0.292   5.330   1.851  1.00  0.00    -0.271 OA
ATOM     11  H   UNL     1      -0.112   4.274  -0.214  1.00  0.00     0.163 HD
BRANCH   9  12
ATOM     12  C   UNL     1       1.512   3.948   2.688  1.00  0.00     0.258 C 
ATOM     13  C   UNL     1       2.892   4.052   2.039  1.00  0.00     0.064 C 
BRANCH  12  14
ATOM     14  O   UNL     1       1.409   2.995   3.729  1.00  0.00    -0.480 OA
BRANCH  14  15
ATOM     15  C   UNL     1       1.217   1.664   3.542  1.00  0.00     0.132 A 
ATOM     16  C   UNL     1       2.374  -1.073   1.158  1.00  0.00     0.044 C 
ATOM     17  C   UNL     1       1.727  -0.402   2.333  1.00  0.00    -0.044 A 
ATOM     18  C   UNL     1       1.954   0.957   2.583  1.00  0.00     0.050 A 
ATOM     19  C   UNL     1       0.808  -1.074   3.126  1.00  0.00     0.051 A 
ATOM     20  C   UNL     1       0.172  -0.396   4.168  1.00  0.00     0.142 A 
ATOM     21  C   UNL     1       0.353   0.970   4.422  1.00  0.00     0.063 A 
ATOM     22  O   UNL     1      -0.663  -1.202   4.959  1.00  0.00    -0.422 OA
ATOM     23  C   UNL     1      -0.357   1.538   5.603  1.00  0.00    -0.023 A 
ATOM     24  C   UNL     1      -1.252  -0.724   6.110  1.00  0.00     0.339 A 
ATOM     25  C   UNL     1      -1.092   0.723   6.389  1.00  0.00     0.042 A 
ATOM     26  C   UNL     1      -0.214   3.007   5.949  1.00  0.00     0.037 C 
ATOM     27  O   UNL     1      -1.890  -1.464   6.851  1.00  0.00    -0.246 OA
ATOM     28  C   UNL     1      -1.822   1.187   7.627  1.00  0.00     0.043 C 
ATOM     29  C   UNL     1      -0.699   3.399   7.348  1.00  0.00     0.005 C 
ATOM     30  C   UNL     1      -1.996   2.699   7.705  1.00  0.00     0.005 C 
ENDBRANCH  14  15
ENDBRANCH  12  14
ENDBRANCH   9  12
ENDBRANCH   7   8
ENDBRANCH   6   7
ENDBRANCH   3   6
ENDBRANCH   1   2
BRANCH   1  31
ATOM     31  C   UNL     1      -2.294   4.142  -1.458  1.00  0.00     0.023 C 
BRANCH  31  32
ATOM     32  C   UNL     1      -3.013   4.278  -2.786  1.00  0.00     0.023 C 
BRANCH  32  33
ATOM     33  C   UNL     1      -4.441   4.761  -2.673  1.00  0.00     0.116 C 
BRANCH  33  34
ATOM     34  N   UNL     1      -4.607   5.984  -1.896  1.00  0.00    -0.352 N 
ATOM     35  C   UNL     1      -5.561   6.962  -2.091  1.00  0.00     0.251 C 
ATOM     36  H   UNL     1      -3.974   6.125  -1.155  1.00  0.00     0.163 HD
ATOM     37  O   UNL     1      -5.613   7.968  -1.406  1.00  0.00    -0.269 OA
BRANCH  35  38
ATOM     38  C   UNL     1      -6.481   6.757  -3.224  1.00  0.00     0.039 A 
ATOM     39  C   UNL     1      -7.209   5.569  -3.285  1.00  0.00     0.014 A 
ATOM     40  C   UNL     1      -6.379   7.608  -4.325  1.00  0.00     0.014 A 
ATOM     41  C   UNL     1      -7.656   5.127  -4.520  1.00  0.00     0.010 A 
ATOM     42  C   UNL     1      -6.932   7.209  -5.540  1.00  0.00     0.010 A 
ATOM     43  C   UNL     1      -7.517   5.938  -5.661  1.00  0.00    -0.014 A 
BRANCH  43  44
ATOM     44  C   UNL     1      -7.979   5.431  -6.976  1.00  0.00     0.031 A 
ATOM     45  C   UNL     1      -7.017   5.241  -8.118  1.00  0.00     0.074 A 
ATOM     46  C   UNL     1      -9.274   5.093  -7.117  1.00  0.00     0.049 A 
ATOM     47  N   UNL     1      -7.268   4.906  -9.359  1.00  0.00    -0.248 NA
ATOM     48  C   UNL     1      -5.588   5.457  -7.837  1.00  0.00     0.031 C 
ATOM     49  C   UNL     1     -10.287   5.193  -6.065  1.00  0.00     0.029 A 
ATOM     50  N   UNL     1      -9.953   4.571  -8.185  1.00  0.00    -0.354 N 
ATOM     51  C   UNL     1      -6.043   4.914 -10.013  1.00  0.00     0.074 A 
ATOM     52  C   UNL     1      -5.044   5.286  -9.034  1.00  0.00     0.031 C 
ATOM     53  C   UNL     1     -11.441   4.685  -6.516  1.00  0.00     0.029 A 
ATOM     54  C   UNL     1     -11.275   4.319  -7.917  1.00  0.00     0.049 A 
ATOM     55  H   UNL     1      -9.535   4.395  -9.059  1.00  0.00     0.167 HD
ATOM     56  C   UNL     1      -5.784   4.637 -11.314  1.00  0.00     0.037 A 
ATOM     57  C   UNL     1     -12.258   3.876  -8.720  1.00  0.00     0.037 A 
ATOM     58  C   UNL     1      -6.784   4.230 -12.268  1.00  0.00     0.049 A 
ATOM     59  C   UNL     1     -11.951   3.614 -10.162  1.00  0.00     0.074 A 
ATOM     60  C   UNL     1      -6.627   3.930 -13.611  1.00  0.00     0.029 A 
ATOM     61  N   UNL     1      -8.128   4.049 -11.974  1.00  0.00    -0.354 N 
ATOM     62  N   UNL     1     -10.803   3.700 -10.788  1.00  0.00    -0.248 NA
ATOM     63  C   UNL     1     -13.080   3.224 -11.014  1.00  0.00     0.031 C 
ATOM     64  C   UNL     1      -7.880   3.596 -14.135  1.00  0.00     0.029 A 
ATOM     65  C   UNL     1      -8.812   3.651 -13.111  1.00  0.00     0.049 A 
ATOM     66  H   UNL     1      -8.535   4.183 -11.088  1.00  0.00     0.167 HD
ATOM     67  C   UNL     1     -11.069   3.383 -12.111  1.00  0.00     0.074 A 
ATOM     68  C   UNL     1     -12.483   3.073 -12.189  1.00  0.00     0.031 C 
ATOM     69  C   UNL     1     -10.222   3.363 -13.167  1.00  0.00     0.037 A 
BRANCH  56  70
ATOM     70  C   UNL     1      -4.372   4.784 -11.800  1.00  0.00     0.064 A 
ATOM     71  C   UNL     1      -3.383   3.840 -11.490  1.00  0.00     0.173 A 
ATOM     72  C   UNL     1      -4.023   5.846 -12.649  1.00  0.00     0.173 A 
ATOM     73  F   UNL     1      -3.661   2.814 -10.672  1.00  0.00    -0.203 F 
ATOM     74  C   UNL     1      -2.094   3.958 -12.007  1.00  0.00     0.198 A 
ATOM     75  C   UNL     1      -2.740   5.949 -13.181  1.00  0.00     0.198 A 
ATOM     76  F   UNL     1      -4.934   6.774 -12.980  1.00  0.00    -0.203 F 
ATOM     77  F   UNL     1      -1.156   3.058 -11.677  1.00  0.00    -0.200 F 
ATOM     78  C   UNL     1      -1.776   5.006 -12.858  1.00  0.00     0.200 A 
ATOM     79  F   UNL     1      -2.438   6.957 -14.011  1.00  0.00    -0.200 F 
ATOM     80  F   UNL     1      -0.539   5.110 -13.364  1.00  0.00    -0.200 F 
ENDBRANCH  56  70
BRANCH  57  81
ATOM     81  C   UNL     1     -13.620   3.692  -8.164  1.00  0.00     0.064 A 
ATOM     82  C   UNL     1     -14.145   2.409  -7.969  1.00  0.00     0.173 A 
ATOM     83  C   UNL     1     -14.395   4.788  -7.755  1.00  0.00     0.173 A 
ATOM     84  F   UNL     1     -13.447   1.333  -8.360  1.00  0.00    -0.203 F 
ATOM     85  C   UNL     1     -15.395   2.229  -7.380  1.00  0.00     0.198 A 
ATOM     86  C   UNL     1     -15.630   4.606  -7.142  1.00  0.00     0.198 A 
ATOM     87  F   UNL     1     -13.929   6.036  -7.915  1.00  0.00    -0.203 F 
ATOM     88  F   UNL     1     -15.884   0.992  -7.220  1.00  0.00    -0.200 F 
ATOM     89  C   UNL     1     -16.131   3.326  -6.957  1.00  0.00     0.200 A 
ATOM     90  F   UNL     1     -16.327   5.668  -6.715  1.00  0.00    -0.200 F 
ATOM     91  F   UNL     1     -17.321   3.150  -6.368  1.00  0.00    -0.200 F 
ENDBRANCH  57  81
BRANCH  69  92
ATOM     92  C   UNL     1     -10.807   2.995 -14.495  1.00  0.00     0.064 A 
ATOM     93  C   UNL     1     -11.594   3.904 -15.218  1.00  0.00     0.173 A 
ATOM     94  C   UNL     1     -10.557   1.738 -15.062  1.00  0.00     0.173 A 
ATOM     95  F   UNL     1     -11.873   5.112 -14.705  1.00  0.00    -0.203 F 
ATOM     96  C   UNL     1     -12.126   3.558 -16.456  1.00  0.00     0.198 A 
ATOM     97  C   UNL     1     -11.072   1.404 -16.311  1.00  0.00     0.198 A 
ATOM     98  F   UNL     1      -9.807   0.839 -14.408  1.00  0.00    -0.203 F 
ATOM     99  F   UNL     1     -12.908   4.426 -17.113  1.00  0.00    -0.200 F 
ATOM    100  C   UNL     1     -11.861   2.311 -17.004  1.00  0.00     0.200 A 
ATOM    101  F   UNL     1     -10.810   0.202 -16.843  1.00  0.00    -0.200 F 
ATOM    102  F   UNL     1     -12.372   1.981 -18.197  1.00  0.00    -0.200 F 
ENDBRANCH  69  92
ENDBRANCH  43  44
ENDBRANCH  35  38
ENDBRANCH  33  34
ENDBRANCH  32  33
ENDBRANCH  31  32
ENDBRANCH   1  31
TORSDOF 16
