REMARK SMILES C[C@@H]1CCC[C@](CCSc2ccccc2)(C(=O)NCCCCNC(=O)c2ccc(-c3c4nc(c(-c5c(F)c(F)c(F)c(F)c5F)c5ccc([nH]5)c(-c5c(F)c(F)c(F)c(F)c5F)c5nc(c(-c6c(F)c(F)c(F)c(F)c6F)c6ccc3[nH]6)C=C5)C=C4)cc2)C1
REMARK SMILES IDX 19 1 18 2 16 3 17 4 6 6 1 7 2 8 3 9 89 10 4 11 5 12 7 13
REMARK SMILES IDX 8 14 9 15 10 16 11 17 15 18 12 19 14 20 13 21 20 22 21 23
REMARK SMILES IDX 22 24 23 25 24 26 25 28 26 29 27 30 88 31 28 32 87 33 29 34
REMARK SMILES IDX 30 35 31 36 81 37 32 38 86 39 80 40 82 41 33 42 85 43 79 44
REMARK SMILES IDX 78 45 34 47 66 48 46 49 65 50 47 51 50 52 64 53 83 54 48 55
REMARK SMILES IDX 49 56 63 58 84 59 51 60 35 61 36 62 44 63 37 64 38 65 42 66
REMARK SMILES IDX 45 67 39 68 40 69 43 70 41 71 67 72 68 73 76 74 69 75 70 76
REMARK SMILES IDX 74 77 77 78 71 79 72 80 75 81 73 82 52 83 53 84 61 85 54 86
REMARK SMILES IDX 55 87 59 88 62 89 56 90 57 91 60 92 58 93
REMARK H PARENT 18 5 23 27 82 46 50 57
REMARK Flexibility Score: inf
ROOT
ATOM      1  C   UNL     1      -0.737   1.331   2.183  1.00  0.00     0.116 C 
ENDROOT
BRANCH   1   2
ATOM      2  N   UNL     1      -1.724   0.291   2.291  1.00  0.00    -0.356 N 
ATOM      3  C   UNL     1      -2.160  -0.658   1.434  1.00  0.00     0.226 C 
ATOM      4  O   UNL     1      -3.234  -1.169   1.781  1.00  0.00    -0.274 OA
ATOM      5  H   UNL     1      -2.173   0.266   3.166  1.00  0.00     0.163 HD
BRANCH   3   6
ATOM      6  C   UNL     1      -1.480  -1.055   0.085  1.00  0.00     0.050 C 
ATOM      7  C   UNL     1       2.099   0.382   0.218  1.00  0.00     0.007 C 
ATOM      8  C   UNL     1       0.895  -0.028  -0.653  1.00  0.00    -0.013 C 
ATOM      9  C   UNL     1       0.169   1.179  -1.261  1.00  0.00     0.003 C 
ATOM     10  C   UNL     1       0.061  -1.101   0.074  1.00  0.00     0.020 C 
ATOM     11  C   UNL     1      -1.351   1.219  -1.152  1.00  0.00     0.001 C 
ATOM     12  C   UNL     1      -2.020  -0.140  -1.039  1.00  0.00     0.017 C 
BRANCH   6  13
ATOM     13  C   UNL     1      -2.019  -2.519  -0.226  1.00  0.00     0.028 C 
BRANCH  13  14
ATOM     14  C   UNL     1      -1.385  -3.744   0.476  1.00  0.00     0.076 C 
BRANCH  14  15
ATOM     15  S   UNL     1      -1.652  -3.979   2.270  1.00  0.00    -0.126 SA
BRANCH  15  16
ATOM     16  C   UNL     1      -0.250  -3.155   3.003  1.00  0.00     0.007 A 
ATOM     17  C   UNL     1      -0.485  -2.253   4.047  1.00  0.00     0.015 A 
ATOM     18  C   UNL     1       1.069  -3.393   2.602  1.00  0.00     0.015 A 
ATOM     19  C   UNL     1       0.568  -1.543   4.629  1.00  0.00     0.001 A 
ATOM     20  C   UNL     1       2.124  -2.680   3.180  1.00  0.00     0.001 A 
ATOM     21  C   UNL     1       1.872  -1.746   4.184  1.00  0.00     0.000 A 
ENDBRANCH  15  16
ENDBRANCH  14  15
ENDBRANCH  13  14
ENDBRANCH   6  13
ENDBRANCH   3   6
ENDBRANCH   1   2
BRANCH   1  22
ATOM     22  C   UNL     1      -1.385   2.702   2.369  1.00  0.00     0.023 C 
BRANCH  22  23
ATOM     23  C   UNL     1      -1.438   3.160   3.823  1.00  0.00     0.023 C 
BRANCH  23  24
ATOM     24  C   UNL     1      -0.072   3.343   4.474  1.00  0.00     0.116 C 
BRANCH  24  25
ATOM     25  N   UNL     1       0.796   4.271   3.759  1.00  0.00    -0.352 N 
ATOM     26  C   UNL     1       1.691   5.161   4.300  1.00  0.00     0.251 C 
ATOM     27  H   UNL     1       0.733   4.258   2.776  1.00  0.00     0.163 HD
ATOM     28  O   UNL     1       2.323   5.947   3.603  1.00  0.00    -0.269 OA
BRANCH  26  29
ATOM     29  C   UNL     1       1.844   5.163   5.763  1.00  0.00     0.039 A 
ATOM     30  C   UNL     1       1.485   6.305   6.481  1.00  0.00     0.014 A 
ATOM     31  C   UNL     1       2.199   3.978   6.411  1.00  0.00     0.014 A 
ATOM     32  C   UNL     1       1.414   6.237   7.872  1.00  0.00     0.010 A 
ATOM     33  C   UNL     1       2.062   3.896   7.789  1.00  0.00     0.010 A 
ATOM     34  C   UNL     1       1.665   5.023   8.529  1.00  0.00    -0.014 A 
BRANCH  34  35
ATOM     35  C   UNL     1       1.552   4.894  10.001  1.00  0.00     0.031 A 
ATOM     36  C   UNL     1       2.783   4.576  10.799  1.00  0.00     0.074 A 
ATOM     37  C   UNL     1       0.347   4.958  10.597  1.00  0.00     0.049 A 
ATOM     38  N   UNL     1       2.893   4.242  12.058  1.00  0.00    -0.248 NA
ATOM     39  C   UNL     1       4.059   4.596  10.065  1.00  0.00     0.031 C 
ATOM     40  C   UNL     1      -0.923   5.224   9.919  1.00  0.00     0.029 A 
ATOM     41  N   UNL     1      -0.008   4.779  11.910  1.00  0.00    -0.354 N 
ATOM     42  C   UNL     1       4.240   3.978  12.256  1.00  0.00     0.074 A 
ATOM     43  C   UNL     1       4.902   4.146  10.981  1.00  0.00     0.031 C 
ATOM     44  C   UNL     1      -1.917   5.200  10.824  1.00  0.00     0.029 A 
ATOM     45  C   UNL     1      -1.359   4.879  12.135  1.00  0.00     0.049 A 
ATOM     46  H   UNL     1       0.645   4.596  12.624  1.00  0.00     0.167 HD
ATOM     47  C   UNL     1       4.872   3.645  13.406  1.00  0.00     0.037 A 
ATOM     48  C   UNL     1      -2.065   4.715  13.270  1.00  0.00     0.037 A 
ATOM     49  C   UNL     1       4.214   3.525  14.678  1.00  0.00     0.049 A 
ATOM     50  C   UNL     1      -1.336   4.372  14.542  1.00  0.00     0.074 A 
ATOM     51  C   UNL     1       4.767   3.240  15.914  1.00  0.00     0.029 A 
ATOM     52  N   UNL     1       2.851   3.696  14.877  1.00  0.00    -0.354 N 
ATOM     53  N   UNL     1      -0.055   4.163  14.730  1.00  0.00    -0.248 NA
ATOM     54  C   UNL     1      -2.148   4.247  15.760  1.00  0.00     0.031 C 
ATOM     55  C   UNL     1       3.734   3.214  16.857  1.00  0.00     0.029 A 
ATOM     56  C   UNL     1       2.545   3.522  16.215  1.00  0.00     0.049 A 
ATOM     57  H   UNL     1       2.200   3.910  14.170  1.00  0.00     0.167 HD
ATOM     58  C   UNL     1       0.097   3.919  16.088  1.00  0.00     0.074 A 
ATOM     59  C   UNL     1      -1.222   4.007  16.679  1.00  0.00     0.031 C 
ATOM     60  C   UNL     1       1.228   3.648  16.783  1.00  0.00     0.037 A 
BRANCH  47  61
ATOM     61  C   UNL     1       6.348   3.394  13.333  1.00  0.00     0.064 A 
ATOM     62  C   UNL     1       7.260   4.436  13.105  1.00  0.00     0.173 A 
ATOM     63  C   UNL     1       6.859   2.099  13.501  1.00  0.00     0.173 A 
ATOM     64  F   UNL     1       6.819   5.689  12.919  1.00  0.00    -0.203 F 
ATOM     65  C   UNL     1       8.626   4.185  13.014  1.00  0.00     0.198 A 
ATOM     66  C   UNL     1       8.229   1.856  13.440  1.00  0.00     0.198 A 
ATOM     67  F   UNL     1       6.031   1.067  13.723  1.00  0.00    -0.203 F 
ATOM     68  F   UNL     1       9.472   5.187  12.738  1.00  0.00    -0.200 F 
ATOM     69  C   UNL     1       9.110   2.897  13.188  1.00  0.00     0.200 A 
ATOM     70  F   UNL     1       8.697   0.613  13.618  1.00  0.00    -0.200 F 
ATOM     71  F   UNL     1      10.425   2.658  13.101  1.00  0.00    -0.200 F 
ENDBRANCH  47  61
BRANCH  48  72
ATOM     72  C   UNL     1      -3.539   4.901  13.264  1.00  0.00     0.064 A 
ATOM     73  C   UNL     1      -4.122   6.015  13.884  1.00  0.00     0.173 A 
ATOM     74  C   UNL     1      -4.393   3.975  12.648  1.00  0.00     0.173 A 
ATOM     75  F   UNL     1      -3.347   6.917  14.503  1.00  0.00    -0.203 F 
ATOM     76  C   UNL     1      -5.505   6.186  13.905  1.00  0.00     0.198 A 
ATOM     77  C   UNL     1      -5.774   4.160  12.648  1.00  0.00     0.198 A 
ATOM     78  F   UNL     1      -3.884   2.896  12.036  1.00  0.00    -0.203 F 
ATOM     79  F   UNL     1      -6.037   7.238  14.541  1.00  0.00    -0.200 F 
ATOM     80  C   UNL     1      -6.329   5.261  13.283  1.00  0.00     0.200 A 
ATOM     81  F   UNL     1      -6.567   3.271  12.035  1.00  0.00    -0.200 F 
ATOM     82  F   UNL     1      -7.659   5.427  13.302  1.00  0.00    -0.200 F 
ENDBRANCH  48  72
BRANCH  60  83
ATOM     83  C   UNL     1       1.105   3.488  18.269  1.00  0.00     0.064 A 
ATOM     84  C   UNL     1       0.567   2.329  18.843  1.00  0.00     0.173 A 
ATOM     85  C   UNL     1       1.600   4.482  19.126  1.00  0.00     0.173 A 
ATOM     86  F   UNL     1       0.069   1.357  18.062  1.00  0.00    -0.203 F 
ATOM     87  C   UNL     1       0.518   2.175  20.225  1.00  0.00     0.198 A 
ATOM     88  C   UNL     1       1.572   4.315  20.507  1.00  0.00     0.198 A 
ATOM     89  F   UNL     1       2.130   5.607  18.622  1.00  0.00    -0.203 F 
ATOM     90  F   UNL     1      -0.027   1.071  20.756  1.00  0.00    -0.200 F 
ATOM     91  C   UNL     1       1.029   3.163  21.055  1.00  0.00     0.200 A 
ATOM     92  F   UNL     1       2.076   5.264  21.306  1.00  0.00    -0.200 F 
ATOM     93  F   UNL     1       0.994   3.006  22.386  1.00  0.00    -0.200 F 
ENDBRANCH  60  83
ENDBRANCH  34  35
ENDBRANCH  26  29
ENDBRANCH  24  25
ENDBRANCH  23  24
ENDBRANCH  22  23
ENDBRANCH   1  22
TORSDOF 15
