REMARK SMILES O=C(NCCCCNC(=O)c1ccc(-c2c3nc(c(-c4c(F)c(F)c(F)c(F)c4F)c4ccc([nH]4)c(-c4c(F)c(F)c(F)c(F)c4F)c4nc(c(-c5c(F)c(F)c(F)c(F)c5F)c5ccc2[nH]5)C=C4)C=C3)cc1)C1=Cc2cc(Cl)c(Cl)cc2O[C@@H]1C(F)(F)F
REMARK SMILES IDX 6 1 5 2 4 3 3 4 1 5 2 6 74 8 75 9 85 10 76 11 84 12 77 13
REMARK SMILES IDX 83 14 78 15 82 16 79 17 80 18 81 19 86 20 87 21 88 22 89 23
REMARK SMILES IDX 7 24 8 25 9 26 10 28 11 29 12 30 73 31 13 32 72 33 14 34
REMARK SMILES IDX 15 35 16 36 66 37 17 38 71 39 65 40 67 41 18 42 70 43 64 44
REMARK SMILES IDX 63 45 19 47 51 48 31 49 50 50 32 51 35 52 49 53 68 54 33 55
REMARK SMILES IDX 34 56 48 58 69 59 36 60 20 61 21 62 29 63 22 64 23 65 27 66
REMARK SMILES IDX 30 67 24 68 25 69 28 70 26 71 52 72 53 73 61 74 54 75 55 76
REMARK SMILES IDX 59 77 62 78 56 79 57 80 60 81 58 82 37 83 38 84 46 85 39 86
REMARK SMILES IDX 40 87 44 88 47 89 41 90 42 91 45 92 43 93
REMARK H PARENT 3 7 8 27 67 46 35 57
REMARK Flexibility Score: inf
ROOT
ATOM      1  C   UNL     1       4.048   1.232   4.146  1.00  0.00     0.023 C 
ENDROOT
BRANCH   1   2
ATOM      2  C   UNL     1       4.308   1.677   2.709  1.00  0.00     0.023 C 
BRANCH   2   3
ATOM      3  C   UNL     1       3.842   0.699   1.631  1.00  0.00     0.116 C 
BRANCH   3   4
ATOM      4  N   UNL     1       2.642   1.119   0.909  1.00  0.00    -0.352 N 
ATOM      5  O   UNL     1       1.145   1.116  -0.790  1.00  0.00    -0.270 OA
ATOM      6  C   UNL     1       2.292   0.916  -0.409  1.00  0.00     0.251 C 
ATOM      7  H   UNL     1       1.987   1.623   1.444  1.00  0.00     0.163 HD
BRANCH   6   8
ATOM      8  C   UNL     1       3.288   0.299  -1.313  1.00  0.00     0.067 C 
ATOM      9  C   UNL     1       4.461   0.890  -1.587  1.00  0.00     0.025 C 
ATOM     10  C   UNL     1       3.070  -1.141  -1.671  1.00  0.00     0.314 C 
ATOM     11  C   UNL     1       5.585  -0.011  -1.246  1.00  0.00     0.019 A 
ATOM     12  O   UNL     1       4.121  -1.979  -1.133  1.00  0.00    -0.475 OA
ATOM     13  C   UNL     1       6.790   0.568  -0.822  1.00  0.00     0.034 A 
ATOM     14  C   UNL     1       5.334  -1.363  -0.935  1.00  0.00     0.129 A 
ATOM     15  C   UNL     1       7.701  -0.176  -0.059  1.00  0.00     0.060 A 
ATOM     16  C   UNL     1       6.263  -2.116  -0.216  1.00  0.00     0.069 A 
ATOM     17  Cl  UNL     1       9.076   0.656   0.576  1.00  0.00    -0.083 Cl
ATOM     18  C   UNL     1       7.435  -1.517   0.246  1.00  0.00     0.063 A 
ATOM     19  Cl  UNL     1       8.466  -2.462   1.258  1.00  0.00    -0.083 Cl
BRANCH  10  20
ATOM     20  C   UNL     1       2.945  -1.326  -3.196  1.00  0.00     0.429 C 
ATOM     21  F   UNL     1       2.640  -2.609  -3.509  1.00  0.00    -0.167 F 
ATOM     22  F   UNL     1       1.966  -0.551  -3.720  1.00  0.00    -0.167 F 
ATOM     23  F   UNL     1       4.091  -1.020  -3.851  1.00  0.00    -0.167 F 
ENDBRANCH  10  20
ENDBRANCH   6   8
ENDBRANCH   3   4
ENDBRANCH   2   3
ENDBRANCH   1   2
BRANCH   1  24
ATOM     24  C   UNL     1       4.642  -0.113   4.561  1.00  0.00     0.116 C 
BRANCH  24  25
ATOM     25  N   UNL     1       6.090  -0.211   4.439  1.00  0.00    -0.352 N 
ATOM     26  C   UNL     1       7.000  -0.723   5.339  1.00  0.00     0.251 C 
ATOM     27  H   UNL     1       6.471   0.137   3.600  1.00  0.00     0.163 HD
ATOM     28  O   UNL     1       8.204  -0.689   5.100  1.00  0.00    -0.269 OA
BRANCH  26  29
ATOM     29  C   UNL     1       6.524  -1.256   6.634  1.00  0.00     0.039 A 
ATOM     30  C   UNL     1       7.098  -0.770   7.811  1.00  0.00     0.014 A 
ATOM     31  C   UNL     1       5.455  -2.152   6.689  1.00  0.00     0.014 A 
ATOM     32  C   UNL     1       6.521  -1.089   9.042  1.00  0.00     0.010 A 
ATOM     33  C   UNL     1       4.830  -2.400   7.907  1.00  0.00     0.010 A 
ATOM     34  C   UNL     1       5.343  -1.853   9.093  1.00  0.00    -0.014 A 
BRANCH  34  35
ATOM     35  C   UNL     1       4.610  -2.050  10.371  1.00  0.00     0.031 A 
ATOM     36  C   UNL     1       4.427  -3.429  10.935  1.00  0.00     0.074 A 
ATOM     37  C   UNL     1       4.037  -0.991  10.977  1.00  0.00     0.049 A 
ATOM     38  N   UNL     1       3.762  -3.808  11.998  1.00  0.00    -0.248 NA
ATOM     39  C   UNL     1       5.045  -4.536  10.188  1.00  0.00     0.031 C 
ATOM     40  C   UNL     1       4.080   0.390  10.490  1.00  0.00     0.029 A 
ATOM     41  N   UNL     1       3.295  -0.910  12.130  1.00  0.00    -0.354 N 
ATOM     42  C   UNL     1       3.865  -5.191  12.034  1.00  0.00     0.074 A 
ATOM     43  C   UNL     1       4.610  -5.591  10.860  1.00  0.00     0.031 C 
ATOM     44  C   UNL     1       3.423   1.183  11.351  1.00  0.00     0.029 A 
ATOM     45  C   UNL     1       2.883   0.366  12.433  1.00  0.00     0.049 A 
ATOM     46  H   UNL     1       3.079  -1.692  12.687  1.00  0.00     0.167 HD
ATOM     47  C   UNL     1       3.402  -6.048  12.975  1.00  0.00     0.037 A 
ATOM     48  C   UNL     1       2.153   0.824  13.467  1.00  0.00     0.037 A 
ATOM     49  C   UNL     1       2.693  -5.644  14.159  1.00  0.00     0.049 A 
ATOM     50  C   UNL     1       1.682  -0.144  14.517  1.00  0.00     0.074 A 
ATOM     51  C   UNL     1       2.243  -6.428  15.207  1.00  0.00     0.029 A 
ATOM     52  N   UNL     1       2.332  -4.337  14.454  1.00  0.00    -0.354 N 
ATOM     53  N   UNL     1       1.852  -1.442  14.581  1.00  0.00    -0.248 NA
ATOM     54  C   UNL     1       0.924   0.417  15.645  1.00  0.00     0.031 C 
ATOM     55  C   UNL     1       1.578  -5.601  16.119  1.00  0.00     0.029 A 
ATOM     56  C   UNL     1       1.652  -4.295  15.661  1.00  0.00     0.049 A 
ATOM     57  H   UNL     1       2.530  -3.555  13.890  1.00  0.00     0.167 HD
ATOM     58  C   UNL     1       1.249  -1.849  15.762  1.00  0.00     0.074 A 
ATOM     59  C   UNL     1       0.721  -0.658  16.393  1.00  0.00     0.031 C 
ATOM     60  C   UNL     1       1.141  -3.098  16.278  1.00  0.00     0.037 A 
BRANCH  47  61
ATOM     61  C   UNL     1       3.659  -7.512  12.762  1.00  0.00     0.064 A 
ATOM     62  C   UNL     1       4.949  -8.054  12.871  1.00  0.00     0.173 A 
ATOM     63  C   UNL     1       2.602  -8.386  12.470  1.00  0.00     0.173 A 
ATOM     64  F   UNL     1       5.996  -7.258  13.135  1.00  0.00    -0.203 F 
ATOM     65  C   UNL     1       5.175  -9.412  12.663  1.00  0.00     0.198 A 
ATOM     66  C   UNL     1       2.828  -9.749  12.293  1.00  0.00     0.198 A 
ATOM     67  F   UNL     1       1.349  -7.920  12.359  1.00  0.00    -0.203 F 
ATOM     68  F   UNL     1       6.423  -9.898  12.720  1.00  0.00    -0.200 F 
ATOM     69  C   UNL     1       4.114 -10.259  12.381  1.00  0.00     0.200 A 
ATOM     70  F   UNL     1       1.800 -10.568  12.030  1.00  0.00    -0.200 F 
ATOM     71  F   UNL     1       4.333 -11.567  12.185  1.00  0.00    -0.200 F 
ENDBRANCH  47  61
BRANCH  48  72
ATOM     72  C   UNL     1       1.860   2.277  13.584  1.00  0.00     0.064 A 
ATOM     73  C   UNL     1       2.475   3.056  14.574  1.00  0.00     0.173 A 
ATOM     74  C   UNL     1       0.965   2.915  12.714  1.00  0.00     0.173 A 
ATOM     75  F   UNL     1       3.323   2.486  15.443  1.00  0.00    -0.203 F 
ATOM     76  C   UNL     1       2.192   4.414  14.702  1.00  0.00     0.198 A 
ATOM     77  C   UNL     1       0.702   4.279  12.826  1.00  0.00     0.198 A 
ATOM     78  F   UNL     1       0.355   2.216  11.746  1.00  0.00    -0.203 F 
ATOM     79  F   UNL     1       2.762   5.125  15.684  1.00  0.00    -0.200 F 
ATOM     80  C   UNL     1       1.310   5.026  13.824  1.00  0.00     0.200 A 
ATOM     81  F   UNL     1      -0.141   4.870  11.968  1.00  0.00    -0.200 F 
ATOM     82  F   UNL     1       1.041   6.333  13.944  1.00  0.00    -0.200 F 
ENDBRANCH  48  72
BRANCH  60  83
ATOM     83  C   UNL     1       0.454  -3.236  17.604  1.00  0.00     0.064 A 
ATOM     84  C   UNL     1      -0.935  -3.096  17.729  1.00  0.00     0.173 A 
ATOM     85  C   UNL     1       1.192  -3.551  18.755  1.00  0.00     0.173 A 
ATOM     86  F   UNL     1      -1.681  -2.780  16.660  1.00  0.00    -0.203 F 
ATOM     87  C   UNL     1      -1.559  -3.245  18.965  1.00  0.00     0.198 A 
ATOM     88  C   UNL     1       0.561  -3.725  19.983  1.00  0.00     0.198 A 
ATOM     89  F   UNL     1       2.523  -3.700  18.685  1.00  0.00    -0.203 F 
ATOM     90  F   UNL     1      -2.883  -3.064  19.070  1.00  0.00    -0.200 F 
ATOM     91  C   UNL     1      -0.812  -3.566  20.088  1.00  0.00     0.200 A 
ATOM     92  F   UNL     1       1.283  -4.047  21.066  1.00  0.00    -0.200 F 
ATOM     93  F   UNL     1      -1.416  -3.715  21.276  1.00  0.00    -0.200 F 
ENDBRANCH  60  83
ENDBRANCH  34  35
ENDBRANCH  26  29
ENDBRANCH  24  25
ENDBRANCH   1  24
TORSDOF 12
