REMARK SMILES CC[N@@H+]1CCO[C@H](C[NH2+][C@@H]2CCC[C@H](C(=O)NCCCCNC(=O)c3ccc(-c4c5nc(c(-c6c(F)c(F)c(F)c(F)c6F)c6ccc([nH]6)c(-c6c(F)c(F)c(F)c(F)c6F)c6nc(c(-c7c(F)c(F)c(F)c(F)c7F)c7ccc4[nH]7)C=C6)C=C5)cc3)C2)C1
REMARK SMILES IDX 18 1 17 2 15 3 16 4 14 6 10 7 11 8 88 9 12 10 13 11 9 12
REMARK SMILES IDX 8 15 7 16 3 17 4 18 89 19 5 21 6 22 2 23 1 24 19 25 20 26
REMARK SMILES IDX 21 27 22 28 23 29 24 31 25 32 26 33 87 34 27 35 86 36 28 37
REMARK SMILES IDX 29 38 30 39 80 40 31 41 85 42 79 43 81 44 32 45 84 46 78 47
REMARK SMILES IDX 77 48 33 50 65 51 45 52 64 53 46 54 49 55 63 56 82 57 47 58
REMARK SMILES IDX 48 59 62 61 83 62 50 63 34 64 35 65 43 66 36 67 37 68 41 69
REMARK SMILES IDX 44 70 38 71 39 72 42 73 40 74 66 75 67 76 75 77 68 78 69 79
REMARK SMILES IDX 73 80 76 81 70 82 71 83 74 84 72 85 51 86 52 87 60 88 53 89
REMARK SMILES IDX 54 90 58 91 61 92 55 93 56 94 59 95 57 96
REMARK H PARENT 17 5 9 13 9 14 3 20 22 30 81 49 49 60
REMARK Flexibility Score: inf
ROOT
ATOM      1  C   UNL     1       1.055  -1.423   5.625  1.00  0.00     0.116 C 
ENDROOT
BRANCH   1   2
ATOM      2  N   UNL     1      -0.160  -1.631   6.398  1.00  0.00    -0.356 N 
ATOM      3  C   UNL     1      -1.466  -1.394   6.086  1.00  0.00     0.223 C 
ATOM      4  O   UNL     1      -2.320  -1.665   6.933  1.00  0.00    -0.275 OA
ATOM      5  H   UNL     1      -0.015  -2.006   7.296  1.00  0.00     0.163 HD
BRANCH   3   6
ATOM      6  C   UNL     1      -1.867  -0.809   4.737  1.00  0.00     0.084 C 
ATOM      7  C   UNL     1      -1.369  -1.169   2.206  1.00  0.00     0.183 C 
ATOM      8  C   UNL     1      -0.745   0.243   2.245  1.00  0.00     0.065 C 
ATOM      9  C   UNL     1      -1.503  -1.784   3.603  1.00  0.00     0.078 C 
ATOM     10  C   UNL     1      -1.469   1.167   3.206  1.00  0.00     0.007 C 
ATOM     11  C   UNL     1      -1.364   0.634   4.618  1.00  0.00     0.014 C 
BRANCH   7  12
ATOM     12  N   UNL     1      -0.666  -2.180   1.378  1.00  0.00    -0.341 N 
ATOM     13  H   UNL     1      -0.211  -2.846   2.003  1.00  0.00     0.346 HD
ATOM     14  H   UNL     1      -1.370  -2.618   0.784  1.00  0.00     0.346 HD
BRANCH  12  15
ATOM     15  C   UNL     1       0.347  -1.617   0.490  1.00  0.00     0.299 C 
BRANCH  15  16
ATOM     16  C   UNL     1       0.839  -2.495  -0.671  1.00  0.00     0.227 C 
ATOM     17  N   UNL     1       1.248  -0.677  -2.454  1.00  0.00    -0.331 N 
ATOM     18  C   UNL     1       0.122  -1.299  -3.185  1.00  0.00     0.291 C 
ATOM     19  C   UNL     1       1.834  -1.699  -1.561  1.00  0.00     0.300 C 
ATOM     20  H   UNL     1       2.017  -0.396  -3.063  1.00  0.00     0.348 HD
ATOM     21  C   UNL     1      -0.878  -2.047  -2.281  1.00  0.00     0.222 C 
ATOM     22  O   UNL     1      -0.244  -3.030  -1.455  1.00  0.00    -0.361 OA
BRANCH  17  23
ATOM     23  C   UNL     1       0.856   0.618  -1.880  1.00  0.00     0.258 C 
ATOM     24  C   UNL     1       1.820   1.242  -0.874  1.00  0.00     0.071 C 
ENDBRANCH  17  23
ENDBRANCH  15  16
ENDBRANCH  12  15
ENDBRANCH   7  12
ENDBRANCH   3   6
ENDBRANCH   1   2
BRANCH   1  25
ATOM     25  C   UNL     1       2.008  -0.448   6.308  1.00  0.00     0.023 C 
BRANCH  25  26
ATOM     26  C   UNL     1       2.567  -0.935   7.643  1.00  0.00     0.023 C 
BRANCH  26  27
ATOM     27  C   UNL     1       3.268  -2.287   7.592  1.00  0.00     0.116 C 
BRANCH  27  28
ATOM     28  N   UNL     1       4.405  -2.307   6.685  1.00  0.00    -0.352 N 
ATOM     29  C   UNL     1       5.667  -2.814   6.895  1.00  0.00     0.251 C 
ATOM     30  H   UNL     1       4.251  -1.902   5.801  1.00  0.00     0.163 HD
ATOM     31  O   UNL     1       6.554  -2.636   6.073  1.00  0.00    -0.269 OA
BRANCH  29  32
ATOM     32  C   UNL     1       5.949  -3.545   8.148  1.00  0.00     0.039 A 
ATOM     33  C   UNL     1       7.082  -3.200   8.889  1.00  0.00     0.014 A 
ATOM     34  C   UNL     1       5.078  -4.537   8.607  1.00  0.00     0.014 A 
ATOM     35  C   UNL     1       7.301  -3.800  10.131  1.00  0.00     0.010 A 
ATOM     36  C   UNL     1       5.256  -5.075   9.877  1.00  0.00     0.010 A 
ATOM     37  C   UNL     1       6.367  -4.712  10.652  1.00  0.00    -0.014 A 
BRANCH  37  38
ATOM     38  C   UNL     1       6.536  -5.297  12.006  1.00  0.00     0.031 A 
ATOM     39  C   UNL     1       6.737  -6.778  12.165  1.00  0.00     0.074 A 
ATOM     40  C   UNL     1       6.447  -4.505  13.093  1.00  0.00     0.049 A 
ATOM     41  N   UNL     1       6.829  -7.489  13.261  1.00  0.00    -0.248 NA
ATOM     42  C   UNL     1       6.819  -7.569  10.928  1.00  0.00     0.031 C 
ATOM     43  C   UNL     1       6.210  -3.060  13.071  1.00  0.00     0.029 A 
ATOM     44  N   UNL     1       6.534  -4.806  14.429  1.00  0.00    -0.354 N 
ATOM     45  C   UNL     1       6.973  -8.805  12.845  1.00  0.00     0.074 A 
ATOM     46  C   UNL     1       6.892  -8.805  11.400  1.00  0.00     0.031 C 
ATOM     47  C   UNL     1       6.196  -2.598  14.332  1.00  0.00     0.029 A 
ATOM     48  C   UNL     1       6.383  -3.715  15.251  1.00  0.00     0.049 A 
ATOM     49  H   UNL     1       6.691  -5.717  14.767  1.00  0.00     0.167 HD
ATOM     50  C   UNL     1       7.183  -9.912  13.597  1.00  0.00     0.037 A 
ATOM     51  C   UNL     1       6.388  -3.631  16.595  1.00  0.00     0.037 A 
ATOM     52  C   UNL     1       7.279  -9.908  15.033  1.00  0.00     0.049 A 
ATOM     53  C   UNL     1       6.599  -4.881  17.408  1.00  0.00     0.074 A 
ATOM     54  C   UNL     1       7.522 -10.971  15.885  1.00  0.00     0.029 A 
ATOM     55  N   UNL     1       7.136  -8.781  15.829  1.00  0.00    -0.354 N 
ATOM     56  N   UNL     1       6.794  -6.111  17.000  1.00  0.00    -0.248 NA
ATOM     57  C   UNL     1       6.598  -4.727  18.869  1.00  0.00     0.031 C 
ATOM     58  C   UNL     1       7.489 -10.494  17.199  1.00  0.00     0.029 A 
ATOM     59  C   UNL     1       7.274  -9.126  17.164  1.00  0.00     0.049 A 
ATOM     60  H   UNL     1       6.963  -7.871  15.495  1.00  0.00     0.167 HD
ATOM     61  C   UNL     1       6.974  -6.870  18.149  1.00  0.00     0.074 A 
ATOM     62  C   UNL     1       6.878  -5.959  19.270  1.00  0.00     0.031 C 
ATOM     63  C   UNL     1       7.197  -8.202  18.266  1.00  0.00     0.037 A 
BRANCH  50  64
ATOM     64  C   UNL     1       7.338 -11.219  12.876  1.00  0.00     0.064 A 
ATOM     65  C   UNL     1       8.474 -11.494  12.098  1.00  0.00     0.173 A 
ATOM     66  C   UNL     1       6.364 -12.221  12.990  1.00  0.00     0.173 A 
ATOM     67  F   UNL     1       9.429 -10.564  11.945  1.00  0.00    -0.203 F 
ATOM     68  C   UNL     1       8.614 -12.712  11.438  1.00  0.00     0.198 A 
ATOM     69  C   UNL     1       6.522 -13.450  12.354  1.00  0.00     0.198 A 
ATOM     70  F   UNL     1       5.261 -12.013  13.726  1.00  0.00    -0.203 F 
ATOM     71  F   UNL     1       9.684 -12.932  10.662  1.00  0.00    -0.200 F 
ATOM     72  C   UNL     1       7.642 -13.692  11.574  1.00  0.00     0.200 A 
ATOM     73  F   UNL     1       5.588 -14.402  12.497  1.00  0.00    -0.200 F 
ATOM     74  F   UNL     1       7.782 -14.867  10.945  1.00  0.00    -0.200 F 
ENDBRANCH  50  64
BRANCH  51  75
ATOM     75  C   UNL     1       6.213  -2.314  17.265  1.00  0.00     0.064 A 
ATOM     76  C   UNL     1       7.269  -1.723  17.973  1.00  0.00     0.173 A 
ATOM     77  C   UNL     1       4.987  -1.635  17.236  1.00  0.00     0.173 A 
ATOM     78  F   UNL     1       8.455  -2.344  18.047  1.00  0.00    -0.203 F 
ATOM     79  C   UNL     1       7.096  -0.519  18.652  1.00  0.00     0.198 A 
ATOM     80  C   UNL     1       4.824  -0.416  17.890  1.00  0.00     0.198 A 
ATOM     81  F   UNL     1       3.946  -2.155  16.569  1.00  0.00    -0.203 F 
ATOM     82  F   UNL     1       8.106  -0.006  19.368  1.00  0.00    -0.200 F 
ATOM     83  C   UNL     1       5.875   0.136  18.607  1.00  0.00     0.200 A 
ATOM     84  F   UNL     1       3.646   0.221  17.833  1.00  0.00    -0.200 F 
ATOM     85  F   UNL     1       5.708   1.293  19.262  1.00  0.00    -0.200 F 
ENDBRANCH  51  75
BRANCH  63  86
ATOM     86  C   UNL     1       7.404  -8.746  19.649  1.00  0.00     0.064 A 
ATOM     87  C   UNL     1       6.349  -8.856  20.565  1.00  0.00     0.173 A 
ATOM     88  C   UNL     1       8.672  -9.199  20.048  1.00  0.00     0.173 A 
ATOM     89  F   UNL     1       5.122  -8.423  20.238  1.00  0.00    -0.203 F 
ATOM     90  C   UNL     1       6.560  -9.374  21.840  1.00  0.00     0.198 A 
ATOM     91  C   UNL     1       8.872  -9.745  21.312  1.00  0.00     0.198 A 
ATOM     92  F   UNL     1       9.713  -9.122  19.206  1.00  0.00    -0.203 F 
ATOM     93  F   UNL     1       5.548  -9.424  22.717  1.00  0.00    -0.200 F 
ATOM     94  C   UNL     1       7.819  -9.825  22.209  1.00  0.00     0.200 A 
ATOM     95  F   UNL     1      10.086 -10.192  21.662  1.00  0.00    -0.200 F 
ATOM     96  F   UNL     1       8.018 -10.330  23.434  1.00  0.00    -0.200 F 
ENDBRANCH  63  86
ENDBRANCH  37  38
ENDBRANCH  29  32
ENDBRANCH  27  28
ENDBRANCH  26  27
ENDBRANCH  25  26
ENDBRANCH   1  25
TORSDOF 15
