REMARK SMILES CC(C)N(CC(F)(F)F)C(=O)N(CC(=O)NCCCCNC(=O)c1ccc(-c2c3nc(c(-c4c(F)c(F)c(F)c(F)c4F)c4ccc([nH]4)c(-c4c(F)c(F)c(F)c(F)c4F)c4nc(c(-c5c(F)c(F)c(F)c(F)c5F)c5ccc2[nH]5)C=C4)C=C3)cc1)C(C)(C)C
REMARK SMILES IDX 17 1 16 2 14 3 15 4 13 6 12 7 10 8 11 9 4 10 2 11 1 12 3 13
REMARK SMILES IDX 5 14 6 15 7 16 8 17 9 18 87 19 88 20 89 21 90 22 18 23 19 24
REMARK SMILES IDX 20 25 21 26 22 27 23 29 24 30 25 31 86 32 26 33 85 34 27 35
REMARK SMILES IDX 28 36 29 37 79 38 30 39 84 40 78 41 80 42 31 43 83 44 77 45
REMARK SMILES IDX 76 46 32 48 64 49 44 50 63 51 45 52 48 53 62 54 81 55 46 56
REMARK SMILES IDX 47 57 61 59 82 60 49 61 33 62 34 63 42 64 35 65 36 66 40 67
REMARK SMILES IDX 43 68 37 69 38 70 41 71 39 72 65 73 66 74 74 75 67 76 68 77
REMARK SMILES IDX 72 78 75 79 69 80 70 81 73 82 71 83 50 84 51 85 59 86 52 87
REMARK SMILES IDX 53 88 57 89 60 90 54 91 55 92 58 93 56 94
REMARK H PARENT 16 5 21 28 80 47 48 58
REMARK Flexibility Score: inf
ROOT
ATOM      1  C   UNL     1      -2.908  -2.120   3.516  1.00  0.00     0.116 C 
ENDROOT
BRANCH   1   2
ATOM      2  N   UNL     1      -4.330  -2.056   3.270  1.00  0.00    -0.355 N 
ATOM      3  C   UNL     1      -4.993  -1.735   2.126  1.00  0.00     0.239 C 
ATOM      4  O   UNL     1      -6.179  -2.076   2.048  1.00  0.00    -0.273 OA
ATOM      5  H   UNL     1      -4.902  -2.276   4.041  1.00  0.00     0.163 HD
BRANCH   3   6
ATOM      6  C   UNL     1      -4.282  -1.134   0.901  1.00  0.00     0.221 C 
BRANCH   6   7
ATOM      7  N   UNL     1      -3.341  -0.018   1.090  1.00  0.00    -0.311 N 
BRANCH   7   8
ATOM      8  C   UNL     1      -1.947  -0.069   1.021  1.00  0.00     0.321 C 
ATOM      9  O   UNL     1      -1.301   0.888   1.462  1.00  0.00    -0.248 OA
BRANCH   8  10
ATOM     10  N   UNL     1      -1.222  -1.154   0.537  1.00  0.00    -0.313 N 
BRANCH  10  11
ATOM     11  C   UNL     1       0.263  -1.128   0.740  1.00  0.00     0.081 C 
ATOM     12  C   UNL     1       0.957  -0.059  -0.111  1.00  0.00     0.031 C 
ATOM     13  C   UNL     1       0.702  -1.080   2.208  1.00  0.00     0.031 C 
ENDBRANCH  10  11
BRANCH  10  14
ATOM     14  C   UNL     1      -1.647  -2.300  -0.309  1.00  0.00     0.237 C 
BRANCH  14  15
ATOM     15  C   UNL     1      -1.788  -3.657   0.415  1.00  0.00     0.406 C 
ATOM     16  F   UNL     1      -2.956  -3.779   1.080  1.00  0.00    -0.169 F 
ATOM     17  F   UNL     1      -1.734  -4.676  -0.473  1.00  0.00    -0.169 F 
ATOM     18  F   UNL     1      -0.798  -3.858   1.315  1.00  0.00    -0.169 F 
ENDBRANCH  14  15
ENDBRANCH  10  14
ENDBRANCH   8  10
ENDBRANCH   7   8
BRANCH   7  19
ATOM     19  C   UNL     1      -3.974   1.298   1.575  1.00  0.00     0.037 C 
ATOM     20  C   UNL     1      -3.658   1.569   3.062  1.00  0.00     0.034 C 
ATOM     21  C   UNL     1      -3.505   2.499   0.718  1.00  0.00     0.034 C 
ATOM     22  C   UNL     1      -5.528   1.335   1.483  1.00  0.00     0.034 C 
ENDBRANCH   7  19
ENDBRANCH   6   7
ENDBRANCH   3   6
ENDBRANCH   1   2
BRANCH   1  23
ATOM     23  C   UNL     1      -2.474  -1.370   4.767  1.00  0.00     0.023 C 
BRANCH  23  24
ATOM     24  C   UNL     1      -3.022  -1.962   6.056  1.00  0.00     0.023 C 
BRANCH  24  25
ATOM     25  C   UNL     1      -2.634  -3.414   6.268  1.00  0.00     0.116 C 
BRANCH  25  26
ATOM     26  N   UNL     1      -1.190  -3.599   6.320  1.00  0.00    -0.352 N 
ATOM     27  C   UNL     1      -0.440  -4.200   7.301  1.00  0.00     0.251 C 
ATOM     28  H   UNL     1      -0.686  -3.246   5.551  1.00  0.00     0.163 HD
ATOM     29  O   UNL     1       0.778  -4.113   7.306  1.00  0.00    -0.269 OA
BRANCH  27  30
ATOM     30  C   UNL     1      -1.143  -4.940   8.367  1.00  0.00     0.039 A 
ATOM     31  C   UNL     1      -0.783  -4.725   9.696  1.00  0.00     0.014 A 
ATOM     32  C   UNL     1      -2.191  -5.806   8.042  1.00  0.00     0.014 A 
ATOM     33  C   UNL     1      -1.514  -5.347  10.708  1.00  0.00     0.010 A 
ATOM     34  C   UNL     1      -2.983  -6.333   9.050  1.00  0.00     0.010 A 
ATOM     35  C   UNL     1      -2.636  -6.132  10.394  1.00  0.00    -0.014 A 
BRANCH  35  36
ATOM     36  C   UNL     1      -3.427  -6.803  11.454  1.00  0.00     0.031 A 
ATOM     37  C   UNL     1      -3.505  -8.306  11.480  1.00  0.00     0.074 A 
ATOM     38  C   UNL     1      -4.097  -6.068  12.362  1.00  0.00     0.049 A 
ATOM     39  N   UNL     1      -4.175  -9.088  12.288  1.00  0.00    -0.248 NA
ATOM     40  C   UNL     1      -2.755  -9.028  10.438  1.00  0.00     0.031 C 
ATOM     41  C   UNL     1      -4.139  -4.605  12.407  1.00  0.00     0.029 A 
ATOM     42  N   UNL     1      -4.875  -6.455  13.423  1.00  0.00    -0.354 N 
ATOM     43  C   UNL     1      -3.926 -10.382  11.851  1.00  0.00     0.074 A 
ATOM     44  C   UNL     1      -3.119 -10.281  10.656  1.00  0.00     0.031 C 
ATOM     45  C   UNL     1      -4.875  -4.219  13.462  1.00  0.00     0.029 A 
ATOM     46  C   UNL     1      -5.387  -5.403  14.144  1.00  0.00     0.049 A 
ATOM     47  H   UNL     1      -5.050  -7.397  13.648  1.00  0.00     0.167 HD
ATOM     48  C   UNL     1      -4.298 -11.554  12.417  1.00  0.00     0.037 A 
ATOM     49  C   UNL     1      -6.180  -5.402  15.232  1.00  0.00     0.037 A 
ATOM     50  C   UNL     1      -5.088 -11.651  13.615  1.00  0.00     0.049 A 
ATOM     51  C   UNL     1      -6.597  -6.721  15.829  1.00  0.00     0.074 A 
ATOM     52  C   UNL     1      -5.514 -12.787  14.280  1.00  0.00     0.029 A 
ATOM     53  N   UNL     1      -5.567 -10.563  14.331  1.00  0.00    -0.354 N 
ATOM     54  N   UNL     1      -6.308  -7.940  15.439  1.00  0.00    -0.248 NA
ATOM     55  C   UNL     1      -7.439  -6.663  17.032  1.00  0.00     0.031 C 
ATOM     56  C   UNL     1      -6.282 -12.387  15.378  1.00  0.00     0.029 A 
ATOM     57  C   UNL     1      -6.286 -11.002  15.430  1.00  0.00     0.049 A 
ATOM     58  H   UNL     1      -5.418  -9.620  14.092  1.00  0.00     0.167 HD
ATOM     59  C   UNL     1      -6.890  -8.788  16.372  1.00  0.00     0.074 A 
ATOM     60  C   UNL     1      -7.535  -7.944  17.355  1.00  0.00     0.031 C 
ATOM     61  C   UNL     1      -6.894 -10.143  16.413  1.00  0.00     0.037 A 
BRANCH  48  62
ATOM     62  C   UNL     1      -3.831 -12.820  11.758  1.00  0.00     0.064 A 
ATOM     63  C   UNL     1      -2.474 -13.184  11.755  1.00  0.00     0.173 A 
ATOM     64  C   UNL     1      -4.745 -13.694  11.152  1.00  0.00     0.173 A 
ATOM     65  F   UNL     1      -1.556 -12.376  12.306  1.00  0.00    -0.203 F 
ATOM     66  C   UNL     1      -2.048 -14.360  11.144  1.00  0.00     0.198 A 
ATOM     67  C   UNL     1      -4.319 -14.887  10.572  1.00  0.00     0.198 A 
ATOM     68  F   UNL     1      -6.052 -13.397  11.127  1.00  0.00    -0.203 F 
ATOM     69  F   UNL     1      -0.742 -14.658  11.106  1.00  0.00    -0.200 F 
ATOM     70  C   UNL     1      -2.971 -15.215  10.562  1.00  0.00     0.200 A 
ATOM     71  F   UNL     1      -5.213 -15.719  10.021  1.00  0.00    -0.200 F 
ATOM     72  F   UNL     1      -2.561 -16.352   9.984  1.00  0.00    -0.200 F 
ENDBRANCH  48  62
BRANCH  49  73
ATOM     73  C   UNL     1      -6.614  -4.120  15.851  1.00  0.00     0.064 A 
ATOM     74  C   UNL     1      -6.190  -3.760  17.139  1.00  0.00     0.173 A 
ATOM     75  C   UNL     1      -7.500  -3.255  15.193  1.00  0.00     0.173 A 
ATOM     76  F   UNL     1      -5.355  -4.561  17.817  1.00  0.00    -0.203 F 
ATOM     77  C   UNL     1      -6.672  -2.610  17.762  1.00  0.00     0.198 A 
ATOM     78  C   UNL     1      -7.953  -2.087  15.803  1.00  0.00     0.198 A 
ATOM     79  F   UNL     1      -7.931  -3.545  13.957  1.00  0.00    -0.203 F 
ATOM     80  F   UNL     1      -6.308  -2.332  19.021  1.00  0.00    -0.200 F 
ATOM     81  C   UNL     1      -7.552  -1.774  17.093  1.00  0.00     0.200 A 
ATOM     82  F   UNL     1      -8.790  -1.272  15.147  1.00  0.00    -0.200 F 
ATOM     83  F   UNL     1      -8.024  -0.674  17.696  1.00  0.00    -0.200 F 
ENDBRANCH  49  73
BRANCH  61  84
ATOM     84  C   UNL     1      -7.550 -10.792  17.599  1.00  0.00     0.064 A 
ATOM     85  C   UNL     1      -8.938 -10.751  17.797  1.00  0.00     0.173 A 
ATOM     86  C   UNL     1      -6.772 -11.480  18.544  1.00  0.00     0.173 A 
ATOM     87  F   UNL     1      -9.725 -10.098  16.930  1.00  0.00    -0.203 F 
ATOM     88  C   UNL     1      -9.517 -11.334  18.921  1.00  0.00     0.198 A 
ATOM     89  C   UNL     1      -7.358 -12.095  19.645  1.00  0.00     0.198 A 
ATOM     90  F   UNL     1      -5.441 -11.560  18.395  1.00  0.00    -0.203 F 
ATOM     91  F   UNL     1     -10.836 -11.222  19.126  1.00  0.00    -0.200 F 
ATOM     92  C   UNL     1      -8.728 -12.010  19.841  1.00  0.00     0.200 A 
ATOM     93  F   UNL     1      -6.597 -12.763  20.522  1.00  0.00    -0.200 F 
ATOM     94  F   UNL     1      -9.288 -12.571  20.921  1.00  0.00    -0.200 F 
ENDBRANCH  61  84
ENDBRANCH  35  36
ENDBRANCH  27  30
ENDBRANCH  25  26
ENDBRANCH  24  25
ENDBRANCH  23  24
ENDBRANCH   1  23
TORSDOF 18
