REMARK SMILES O=C(NCCCCNC(=O)[C@@H]1CC=CC[C@H]1C(=O)N1CC[NH+](Cc2ccc3c(c2)OCO3)CC1)c1ccc(-c2c3nc(c(-c4c(F)c(F)c(F)c(F)c4F)c4ccc([nH]4)c(-c4c(F)c(F)c(F)c(F)c4F)c4nc(c(-c5c(F)c(F)c(F)c(F)c5F)c5ccc2[nH]5)C=C4)C=C3)cc1
REMARK SMILES IDX 6 1 5 2 4 3 3 4 1 5 2 6 35 8 36 9 97 10 37 11 96 12 38 13
REMARK SMILES IDX 39 14 40 15 90 16 41 17 95 18 89 19 91 20 42 21 94 22 88 23
REMARK SMILES IDX 87 24 43 26 75 27 55 28 74 29 56 30 59 31 73 32 92 33 57 34
REMARK SMILES IDX 58 35 72 37 93 38 60 39 44 40 45 41 53 42 46 43 47 44 51 45
REMARK SMILES IDX 54 46 48 47 49 48 52 49 50 50 76 51 77 52 85 53 78 54 79 55
REMARK SMILES IDX 83 56 86 57 80 58 81 59 84 60 82 61 61 62 62 63 70 64 63 65
REMARK SMILES IDX 64 66 68 67 71 68 65 69 66 70 69 71 67 72 7 73 8 74 9 75
REMARK SMILES IDX 10 77 11 78 12 79 16 80 13 81 15 82 14 83 17 84 18 85 19 86
REMARK SMILES IDX 20 87 34 88 21 89 33 90 22 91 23 93 24 94 25 95 29 96 26 97
REMARK SMILES IDX 28 98 27 99 30 100 32 101 31 102
REMARK H PARENT 3 7 91 25 59 36 8 76 22 92
REMARK Flexibility Score: inf
ROOT
ATOM      1  C   UNL     1       3.065  -2.949   7.474  1.00  0.00     0.023 C 
ENDROOT
BRANCH   1   2
ATOM      2  C   UNL     1       2.069  -4.075   7.284  1.00  0.00     0.023 C 
BRANCH   2   3
ATOM      3  C   UNL     1       1.513  -4.585   8.593  1.00  0.00     0.116 C 
BRANCH   3   4
ATOM      4  N   UNL     1       0.973  -3.515   9.432  1.00  0.00    -0.352 N 
ATOM      5  O   UNL     1      -0.625  -2.510  10.690  1.00  0.00    -0.269 OA
ATOM      6  C   UNL     1      -0.194  -3.519  10.147  1.00  0.00     0.251 C 
ATOM      7  H   UNL     1       1.514  -2.695   9.489  1.00  0.00     0.163 HD
BRANCH   6   8
ATOM      8  C   UNL     1      -0.919  -4.792  10.223  1.00  0.00     0.039 A 
ATOM      9  C   UNL     1      -0.201  -5.945  10.554  1.00  0.00     0.014 A 
ATOM     10  C   UNL     1      -2.258  -4.847   9.844  1.00  0.00     0.014 A 
ATOM     11  C   UNL     1      -0.783  -7.179  10.357  1.00  0.00     0.010 A 
ATOM     12  C   UNL     1      -2.882  -6.088   9.773  1.00  0.00     0.010 A 
ATOM     13  C   UNL     1      -2.141  -7.256  10.015  1.00  0.00    -0.014 A 
BRANCH  13  14
ATOM     14  C   UNL     1      -2.798  -8.576  10.053  1.00  0.00     0.031 A 
ATOM     15  C   UNL     1      -3.395  -9.180   8.825  1.00  0.00     0.074 A 
ATOM     16  C   UNL     1      -2.845  -9.201  11.243  1.00  0.00     0.049 A 
ATOM     17  N   UNL     1      -4.081 -10.286   8.708  1.00  0.00    -0.248 NA
ATOM     18  C   UNL     1      -3.217  -8.443   7.564  1.00  0.00     0.031 C 
ATOM     19  C   UNL     1      -2.290  -8.669  12.493  1.00  0.00     0.029 A 
ATOM     20  N   UNL     1      -3.373 -10.409  11.604  1.00  0.00    -0.354 N 
ATOM     21  C   UNL     1      -4.448 -10.364   7.373  1.00  0.00     0.074 A 
ATOM     22  C   UNL     1      -3.917  -9.187   6.718  1.00  0.00     0.031 C 
ATOM     23  C   UNL     1      -2.477  -9.559  13.474  1.00  0.00     0.029 A 
ATOM     24  C   UNL     1      -3.244 -10.675  12.944  1.00  0.00     0.049 A 
ATOM     25  H   UNL     1      -3.802 -11.025  10.967  1.00  0.00     0.167 HD
ATOM     26  C   UNL     1      -5.170 -11.335   6.766  1.00  0.00     0.037 A 
ATOM     27  C   UNL     1      -3.737 -11.685  13.679  1.00  0.00     0.037 A 
ATOM     28  C   UNL     1      -5.670 -12.502   7.449  1.00  0.00     0.049 A 
ATOM     29  C   UNL     1      -4.542 -12.737  12.984  1.00  0.00     0.074 A 
ATOM     30  C   UNL     1      -6.370 -13.575   6.929  1.00  0.00     0.029 A 
ATOM     31  N   UNL     1      -5.525 -12.741   8.811  1.00  0.00    -0.354 N 
ATOM     32  N   UNL     1      -4.866 -12.818  11.716  1.00  0.00    -0.248 NA
ATOM     33  C   UNL     1      -5.053 -13.832  13.813  1.00  0.00     0.031 C 
ATOM     34  C   UNL     1      -6.692 -14.437   7.983  1.00  0.00     0.029 A 
ATOM     35  C   UNL     1      -6.148 -13.930   9.154  1.00  0.00     0.049 A 
ATOM     36  H   UNL     1      -5.049 -12.151   9.440  1.00  0.00     0.167 HD
ATOM     37  C   UNL     1      -5.616 -13.975  11.588  1.00  0.00     0.074 A 
ATOM     38  C   UNL     1      -5.680 -14.573  12.909  1.00  0.00     0.031 C 
ATOM     39  C   UNL     1      -6.200 -14.494  10.481  1.00  0.00     0.037 A 
BRANCH  26  40
ATOM     40  C   UNL     1      -5.495 -11.155   5.311  1.00  0.00     0.064 A 
ATOM     41  C   UNL     1      -4.515 -11.244   4.311  1.00  0.00     0.173 A 
ATOM     42  C   UNL     1      -6.817 -10.905   4.909  1.00  0.00     0.173 A 
ATOM     43  F   UNL     1      -3.234 -11.469   4.639  1.00  0.00    -0.203 F 
ATOM     44  C   UNL     1      -4.840 -11.057   2.969  1.00  0.00     0.198 A 
ATOM     45  C   UNL     1      -7.143 -10.748   3.564  1.00  0.00     0.198 A 
ATOM     46  F   UNL     1      -7.796 -10.815   5.822  1.00  0.00    -0.203 F 
ATOM     47  F   UNL     1      -3.878 -11.094   2.036  1.00  0.00    -0.200 F 
ATOM     48  C   UNL     1      -6.154 -10.814   2.596  1.00  0.00     0.200 A 
ATOM     49  F   UNL     1      -8.416 -10.525   3.207  1.00  0.00    -0.200 F 
ATOM     50  F   UNL     1      -6.464 -10.635   1.305  1.00  0.00    -0.200 F 
ENDBRANCH  26  40
BRANCH  27  51
ATOM     51  C   UNL     1      -3.492 -11.696  15.141  1.00  0.00     0.064 A 
ATOM     52  C   UNL     1      -2.606 -12.612  15.718  1.00  0.00     0.173 A 
ATOM     53  C   UNL     1      -4.069 -10.725  15.976  1.00  0.00     0.173 A 
ATOM     54  F   UNL     1      -2.035 -13.560  14.961  1.00  0.00    -0.203 F 
ATOM     55  C   UNL     1      -2.305 -12.558  17.078  1.00  0.00     0.198 A 
ATOM     56  C   UNL     1      -3.744 -10.653  17.328  1.00  0.00     0.198 A 
ATOM     57  F   UNL     1      -4.909  -9.812  15.465  1.00  0.00    -0.203 F 
ATOM     58  F   UNL     1      -1.466 -13.456  17.611  1.00  0.00    -0.200 F 
ATOM     59  C   UNL     1      -2.865 -11.572  17.878  1.00  0.00     0.200 A 
ATOM     60  F   UNL     1      -4.265  -9.682  18.089  1.00  0.00    -0.200 F 
ATOM     61  F   UNL     1      -2.552 -11.505  19.179  1.00  0.00    -0.200 F 
ENDBRANCH  27  51
BRANCH  39  62
ATOM     62  C   UNL     1      -6.942 -15.783  10.655  1.00  0.00     0.064 A 
ATOM     63  C   UNL     1      -8.191 -15.828  11.290  1.00  0.00     0.173 A 
ATOM     64  C   UNL     1      -6.415 -16.977  10.143  1.00  0.00     0.173 A 
ATOM     65  F   UNL     1      -8.723 -14.713  11.814  1.00  0.00    -0.203 F 
ATOM     66  C   UNL     1      -8.881 -17.029  11.419  1.00  0.00     0.198 A 
ATOM     67  C   UNL     1      -7.121 -18.171  10.249  1.00  0.00     0.198 A 
ATOM     68  F   UNL     1      -5.224 -16.981   9.527  1.00  0.00    -0.203 F 
ATOM     69  F   UNL     1     -10.055 -17.059  12.065  1.00  0.00    -0.200 F 
ATOM     70  C   UNL     1      -8.350 -18.197  10.891  1.00  0.00     0.200 A 
ATOM     71  F   UNL     1      -6.611 -19.296   9.730  1.00  0.00    -0.200 F 
ATOM     72  F   UNL     1      -9.021 -19.351  11.007  1.00  0.00    -0.200 F 
ENDBRANCH  39  62
ENDBRANCH  13  14
ENDBRANCH   6   8
ENDBRANCH   3   4
ENDBRANCH   2   3
ENDBRANCH   1   2
BRANCH   1  73
ATOM     73  C   UNL     1       4.344  -3.335   8.217  1.00  0.00     0.116 C 
BRANCH  73  74
ATOM     74  N   UNL     1       5.262  -4.122   7.416  1.00  0.00    -0.356 N 
ATOM     75  C   UNL     1       6.343  -3.745   6.676  1.00  0.00     0.224 C 
ATOM     76  H   UNL     1       5.073  -5.088   7.404  1.00  0.00     0.163 HD
ATOM     77  O   UNL     1       7.003  -4.633   6.128  1.00  0.00    -0.275 OA
BRANCH  75  78
ATOM     78  C   UNL     1       6.775  -2.286   6.548  1.00  0.00     0.095 C 
ATOM     79  C   UNL     1       7.379  -1.773   7.867  1.00  0.00     0.041 C 
ATOM     80  C   UNL     1       5.682  -1.381   5.970  1.00  0.00     0.095 C 
ATOM     81  C   UNL     1       7.294  -0.285   8.060  1.00  0.00    -0.030 C 
ATOM     82  C   UNL     1       6.097   0.093   5.904  1.00  0.00     0.041 C 
ATOM     83  C   UNL     1       6.728   0.553   7.181  1.00  0.00    -0.030 C 
BRANCH  80  84
ATOM     84  C   UNL     1       5.150  -1.908   4.640  1.00  0.00     0.227 C 
ATOM     85  O   UNL     1       4.305  -2.796   4.555  1.00  0.00    -0.275 OA
ATOM     86  N   UNL     1       5.692  -1.331   3.513  1.00  0.00    -0.331 N 
ATOM     87  C   UNL     1       4.726  -0.822   2.551  1.00  0.00     0.181 C 
ATOM     88  C   UNL     1       6.818  -2.036   2.918  1.00  0.00     0.181 C 
ATOM     89  C   UNL     1       5.390  -0.038   1.410  1.00  0.00     0.284 C 
ATOM     90  C   UNL     1       7.480  -1.225   1.795  1.00  0.00     0.284 C 
ATOM     91  N   UNL     1       6.562  -0.671   0.788  1.00  0.00    -0.328 N 
ATOM     92  H   UNL     1       7.071   0.085   0.331  1.00  0.00     0.348 HD
BRANCH  91  93
ATOM     93  C   UNL     1       6.285  -1.538  -0.363  1.00  0.00     0.299 C 
BRANCH  93  94
ATOM     94  C   UNL     1       5.613  -2.866  -0.093  1.00  0.00     0.010 A 
ATOM     95  C   UNL     1       4.203  -2.958  -0.023  1.00  0.00     0.013 A 
ATOM     96  C   UNL     1       6.387  -4.017   0.136  1.00  0.00     0.060 A 
ATOM     97  C   UNL     1       3.574  -4.146   0.363  1.00  0.00     0.051 A 
ATOM     98  C   UNL     1       5.740  -5.174   0.517  1.00  0.00     0.166 A 
ATOM     99  C   UNL     1       4.373  -5.232   0.642  1.00  0.00     0.165 A 
ATOM    100  O   UNL     1       6.342  -6.348   0.844  1.00  0.00    -0.454 OA
ATOM    101  O   UNL     1       3.942  -6.449   1.070  1.00  0.00    -0.454 OA
ATOM    102  C   UNL     1       5.201  -7.127   1.260  1.00  0.00     0.468 C 
ENDBRANCH  93  94
ENDBRANCH  91  93
ENDBRANCH  80  84
ENDBRANCH  75  78
ENDBRANCH  73  74
ENDBRANCH   1  73
TORSDOF 14
