REMARK SMILES Cc1cccc(-c2ccccc2C(=O)N2CC[C@H](O)C[C@@H]2C(=O)NCCCCNC(=O)c2ccc(-c3c4nc(c(-c5c(F)c(F)c(F)c(F)c5F)c5ccc([nH]5)c(-c5c(F)c(F)c(F)c(F)c5F)c5nc(c(-c6c(F)c(F)c(F)c(F)c6F)c6ccc3[nH]6)C=C5)C=C4)cc2)c1
REMARK SMILES IDX 26 1 25 2 24 3 22 4 23 5 21 7 15 8 16 9 17 10 20 11 18 12
REMARK SMILES IDX 13 13 14 14 12 15 7 16 8 17 9 18 11 19 10 20 6 21 1 22 2 23
REMARK SMILES IDX 3 24 95 25 4 26 5 27 19 28 27 30 28 31 29 32 30 33 31 35
REMARK SMILES IDX 32 36 33 37 94 38 34 39 93 40 35 41 36 42 37 43 87 44 38 45
REMARK SMILES IDX 92 46 86 47 88 48 39 49 91 50 85 51 84 52 40 54 72 55 52 56
REMARK SMILES IDX 71 57 53 58 56 59 70 60 89 61 54 62 55 63 69 65 90 66 57 67
REMARK SMILES IDX 41 68 42 69 50 70 43 71 44 72 48 73 51 74 45 75 46 76 49 77
REMARK SMILES IDX 47 78 73 79 74 80 82 81 75 82 76 83 80 84 83 85 77 86 78 87
REMARK SMILES IDX 81 88 79 89 58 90 59 91 67 92 60 93 61 94 65 95 68 96 62 97
REMARK SMILES IDX 63 98 66 99 64 100
REMARK H PARENT 24 6 19 29 29 34 88 53 56 64
REMARK Flexibility Score: inf
ROOT
ATOM      1  C   UNL     1      -4.536   3.486  -3.268  1.00  0.00     0.023 C 
ENDROOT
BRANCH   1   2
ATOM      2  C   UNL     1      -3.849   3.293  -4.629  1.00  0.00     0.116 C 
BRANCH   2   3
ATOM      3  N   UNL     1      -3.183   4.486  -5.133  1.00  0.00    -0.354 N 
ATOM      4  C   UNL     1      -1.864   4.819  -5.226  1.00  0.00     0.242 C 
ATOM      5  O   UNL     1      -1.609   5.929  -5.709  1.00  0.00    -0.273 OA
ATOM      6  H   UNL     1      -3.798   5.179  -5.468  1.00  0.00     0.163 HD
BRANCH   4   7
ATOM      7  C   UNL     1      -0.743   3.916  -4.659  1.00  0.00     0.177 C 
ATOM      8  N   UNL     1      -0.600   4.163  -3.213  1.00  0.00    -0.326 N 
ATOM      9  C   UNL     1       0.069   5.406  -2.822  1.00  0.00     0.123 C 
ATOM     10  C   UNL     1       1.449   5.509  -3.458  1.00  0.00     0.053 C 
ATOM     11  C   UNL     1       0.593   4.108  -5.399  1.00  0.00     0.067 C 
ATOM     12  C   UNL     1       1.400   5.338  -4.971  1.00  0.00     0.118 C 
BRANCH   8  13
ATOM     13  C   UNL     1      -1.139   3.214  -2.345  1.00  0.00     0.255 C 
ATOM     14  O   UNL     1      -1.401   2.079  -2.743  1.00  0.00    -0.269 OA
BRANCH  13  15
ATOM     15  C   UNL     1      -1.597   3.592  -0.968  1.00  0.00     0.047 A 
ATOM     16  C   UNL     1      -1.654   2.628   0.065  1.00  0.00    -0.006 A 
ATOM     17  C   UNL     1      -2.406   2.935   1.220  1.00  0.00     0.009 A 
ATOM     18  C   UNL     1      -3.069   4.154   1.360  1.00  0.00     0.001 A 
ATOM     19  C   UNL     1      -2.259   4.827  -0.803  1.00  0.00     0.014 A 
ATOM     20  C   UNL     1      -2.981   5.109   0.356  1.00  0.00     0.001 A 
BRANCH  16  21
ATOM     21  C   UNL     1      -0.978   1.319   0.009  1.00  0.00    -0.017 A 
ATOM     22  C   UNL     1       2.577  -0.084   0.029  1.00  0.00     0.044 C 
ATOM     23  C   UNL     1       1.079  -0.004   0.016  1.00  0.00    -0.051 A 
ATOM     24  C   UNL     1       0.319  -1.178  -0.002  1.00  0.00     0.003 A 
ATOM     25  C   UNL     1       0.424   1.236   0.020  1.00  0.00     0.012 A 
ATOM     26  C   UNL     1      -1.073  -1.115  -0.019  1.00  0.00     0.001 A 
ATOM     27  C   UNL     1      -1.716   0.124  -0.012  1.00  0.00     0.009 A 
ENDBRANCH  16  21
ENDBRANCH  13  15
ENDBRANCH   8  13
BRANCH  12  28
ATOM     28  O   UNL     1       0.939   6.541  -5.579  1.00  0.00    -0.393 OA
ATOM     29  H   UNL     1       0.037   6.731  -5.277  1.00  0.00     0.210 HD
ENDBRANCH  12  28
ENDBRANCH   4   7
ENDBRANCH   2   3
ENDBRANCH   1   2
BRANCH   1  30
ATOM     30  C   UNL     1      -5.343   4.774  -3.081  1.00  0.00     0.023 C 
BRANCH  30  31
ATOM     31  C   UNL     1      -6.628   4.810  -3.893  1.00  0.00     0.116 C 
BRANCH  31  32
ATOM     32  N   UNL     1      -7.821   4.404  -3.159  1.00  0.00    -0.352 N 
ATOM     33  C   UNL     1      -9.098   4.147  -3.639  1.00  0.00     0.251 C 
ATOM     34  H   UNL     1      -7.705   4.296  -2.188  1.00  0.00     0.163 HD
ATOM     35  O   UNL     1     -10.007   3.872  -2.874  1.00  0.00    -0.269 OA
BRANCH  33  36
ATOM     36  C   UNL     1      -9.310   4.078  -5.106  1.00  0.00     0.039 A 
ATOM     37  C   UNL     1      -9.943   2.942  -5.623  1.00  0.00     0.014 A 
ATOM     38  C   UNL     1      -8.687   4.984  -5.957  1.00  0.00     0.014 A 
ATOM     39  C   UNL     1      -9.712   2.581  -6.949  1.00  0.00     0.010 A 
ATOM     40  C   UNL     1      -8.367   4.575  -7.236  1.00  0.00     0.010 A 
ATOM     41  C   UNL     1      -8.815   3.335  -7.705  1.00  0.00    -0.014 A 
BRANCH  41  42
ATOM     42  C   UNL     1      -8.168   2.836  -8.914  1.00  0.00     0.031 A 
ATOM     43  C   UNL     1      -8.494   3.388 -10.242  1.00  0.00     0.074 A 
ATOM     44  C   UNL     1      -7.161   1.940  -8.800  1.00  0.00     0.049 A 
ATOM     45  N   UNL     1      -8.248   2.779 -11.354  1.00  0.00    -0.248 NA
ATOM     46  C   UNL     1      -9.151   4.677 -10.422  1.00  0.00     0.031 C 
ATOM     47  C   UNL     1      -6.193   1.550  -9.823  1.00  0.00     0.029 A 
ATOM     48  N   UNL     1      -6.948   1.023  -7.757  1.00  0.00    -0.354 N 
ATOM     49  C   UNL     1      -8.453   3.674 -12.373  1.00  0.00     0.074 A 
ATOM     50  C   UNL     1      -9.063   4.827 -11.747  1.00  0.00     0.031 C 
ATOM     51  C   UNL     1      -5.722   0.328  -9.527  1.00  0.00     0.029 A 
ATOM     52  C   UNL     1      -6.486  -0.157  -8.392  1.00  0.00     0.049 A 
ATOM     53  H   UNL     1      -7.089   1.168  -6.794  1.00  0.00     0.167 HD
ATOM     54  C   UNL     1      -7.978   3.397 -13.621  1.00  0.00     0.037 A 
ATOM     55  C   UNL     1      -7.229  -1.302  -8.370  1.00  0.00     0.037 A 
ATOM     56  C   UNL     1      -7.349   2.082 -13.696  1.00  0.00     0.049 A 
ATOM     57  C   UNL     1      -7.614  -1.842  -9.733  1.00  0.00     0.074 A 
ATOM     58  C   UNL     1      -6.040   1.626 -13.687  1.00  0.00     0.029 A 
ATOM     59  N   UNL     1      -8.138   0.962 -13.504  1.00  0.00    -0.354 N 
ATOM     60  N   UNL     1      -7.394  -1.228 -10.862  1.00  0.00    -0.248 NA
ATOM     61  C   UNL     1      -8.394  -3.068  -9.910  1.00  0.00     0.031 C 
ATOM     62  C   UNL     1      -6.058   0.213 -13.510  1.00  0.00     0.029 A 
ATOM     63  C   UNL     1      -7.377  -0.185 -13.405  1.00  0.00     0.049 A 
ATOM     64  H   UNL     1      -9.120   0.981 -13.445  1.00  0.00     0.167 HD
ATOM     65  C   UNL     1      -8.028  -1.901 -11.873  1.00  0.00     0.074 A 
ATOM     66  C   UNL     1      -8.644  -3.044 -11.229  1.00  0.00     0.031 C 
ATOM     67  C   UNL     1      -8.046  -1.449 -13.160  1.00  0.00     0.037 A 
BRANCH  54  68
ATOM     68  C   UNL     1      -7.891   4.438 -14.706  1.00  0.00     0.064 A 
ATOM     69  C   UNL     1      -6.804   4.466 -15.603  1.00  0.00     0.173 A 
ATOM     70  C   UNL     1      -8.833   5.468 -14.876  1.00  0.00     0.173 A 
ATOM     71  F   UNL     1      -5.886   3.493 -15.624  1.00  0.00    -0.203 F 
ATOM     72  C   UNL     1      -6.611   5.513 -16.508  1.00  0.00     0.198 A 
ATOM     73  C   UNL     1      -8.610   6.547 -15.736  1.00  0.00     0.198 A 
ATOM     74  F   UNL     1     -10.011   5.439 -14.235  1.00  0.00    -0.203 F 
ATOM     75  F   UNL     1      -5.553   5.493 -17.331  1.00  0.00    -0.200 F 
ATOM     76  C   UNL     1      -7.490   6.576 -16.543  1.00  0.00     0.200 A 
ATOM     77  F   UNL     1      -9.484   7.563 -15.770  1.00  0.00    -0.200 F 
ATOM     78  F   UNL     1      -7.270   7.611 -17.365  1.00  0.00    -0.200 F 
ENDBRANCH  54  68
BRANCH  55  79
ATOM     79  C   UNL     1      -8.076  -1.421  -7.151  1.00  0.00     0.064 A 
ATOM     80  C   UNL     1      -7.456  -1.390  -5.885  1.00  0.00     0.173 A 
ATOM     81  C   UNL     1      -9.459  -1.210  -7.197  1.00  0.00     0.173 A 
ATOM     82  F   UNL     1      -6.130  -1.579  -5.782  1.00  0.00    -0.203 F 
ATOM     83  C   UNL     1      -8.166  -1.043  -4.739  1.00  0.00     0.198 A 
ATOM     84  C   UNL     1     -10.172  -0.891  -6.042  1.00  0.00     0.198 A 
ATOM     85  F   UNL     1     -10.108  -1.200  -8.370  1.00  0.00    -0.203 F 
ATOM     86  F   UNL     1      -7.523  -0.896  -3.572  1.00  0.00    -0.200 F 
ATOM     87  C   UNL     1      -9.521  -0.772  -4.823  1.00  0.00     0.200 A 
ATOM     88  F   UNL     1     -11.477  -0.598  -6.129  1.00  0.00    -0.200 F 
ATOM     89  F   UNL     1     -10.191  -0.349  -3.743  1.00  0.00    -0.200 F 
ENDBRANCH  55  79
BRANCH  67  90
ATOM     90  C   UNL     1      -8.727  -2.165 -14.291  1.00  0.00     0.064 A 
ATOM     91  C   UNL     1      -8.623  -3.552 -14.478  1.00  0.00     0.173 A 
ATOM     92  C   UNL     1      -9.423  -1.456 -15.294  1.00  0.00     0.173 A 
ATOM     93  F   UNL     1      -7.916  -4.309 -13.625  1.00  0.00    -0.203 F 
ATOM     94  C   UNL     1      -9.227  -4.194 -15.562  1.00  0.00     0.198 A 
ATOM     95  C   UNL     1      -9.979  -2.091 -16.402  1.00  0.00     0.198 A 
ATOM     96  F   UNL     1      -9.605  -0.130 -15.217  1.00  0.00    -0.203 F 
ATOM     97  F   UNL     1      -9.153  -5.527 -15.669  1.00  0.00    -0.200 F 
ATOM     98  C   UNL     1      -9.896  -3.463 -16.527  1.00  0.00     0.200 A 
ATOM     99  F   UNL     1     -10.601  -1.365 -17.342  1.00  0.00    -0.200 F 
ATOM    100  F   UNL     1     -10.460  -4.078 -17.575  1.00  0.00    -0.200 F 
ENDBRANCH  67  90
ENDBRANCH  41  42
ENDBRANCH  33  36
ENDBRANCH  31  32
ENDBRANCH  30  31
ENDBRANCH   1  30
TORSDOF 15
