REMARK SMILES CSc1ccc(C[NH+]2CCC(CC(=O)NCCCCNC(=O)c3ccc(-c4c5nc(c(-c6c(F)c(F)c(F)c(F)c6F)c6ccc([nH]6)c(-c6c(F)c(F)c(F)c(F)c6F)c6nc(c(-c7c(F)c(F)c(F)c(F)c7F)c7ccc4[nH]7)C=C6)C=C5)cc3)CC2)cc1
REMARK SMILES IDX 16 1 15 2 13 3 14 4 12 6 11 7 8 8 9 9 87 10 10 12 86 13 7 14
REMARK SMILES IDX 6 15 3 16 4 17 89 18 5 19 88 20 2 21 1 22 17 23 18 24 19 25
REMARK SMILES IDX 20 26 21 27 22 29 23 30 24 31 85 32 25 33 84 34 26 35 27 36
REMARK SMILES IDX 28 37 78 38 29 39 83 40 77 41 79 42 30 43 82 44 76 45 75 46
REMARK SMILES IDX 31 48 63 49 43 50 62 51 44 52 47 53 61 54 80 55 45 56 46 57
REMARK SMILES IDX 60 59 81 60 48 61 32 62 33 63 41 64 34 65 35 66 39 67 42 68
REMARK SMILES IDX 36 69 37 70 40 71 38 72 64 73 65 74 73 75 66 76 67 77 71 78
REMARK SMILES IDX 74 79 68 80 69 81 72 82 70 83 49 84 50 85 58 86 51 87 52 88
REMARK SMILES IDX 56 89 59 90 53 91 54 92 57 93 55 94
REMARK H PARENT 15 5 8 11 20 28 79 47 47 58
REMARK Flexibility Score: inf
ROOT
ATOM      1  C   UNL     1       4.443   8.563   2.525  1.00  0.00     0.116 C 
ENDROOT
BRANCH   1   2
ATOM      2  N   UNL     1       5.289   7.469   2.977  1.00  0.00    -0.356 N 
ATOM      3  C   UNL     1       6.196   6.702   2.301  1.00  0.00     0.220 C 
ATOM      4  O   UNL     1       6.766   5.803   2.923  1.00  0.00    -0.275 OA
ATOM      5  H   UNL     1       5.192   7.243   3.930  1.00  0.00     0.163 HD
BRANCH   3   6
ATOM      6  C   UNL     1       6.486   6.925   0.819  1.00  0.00     0.104 C 
BRANCH   6   7
ATOM      7  C   UNL     1       5.628   6.039  -0.109  1.00  0.00     0.009 C 
ATOM      8  N   UNL     1       3.645   6.063  -2.294  1.00  0.00    -0.331 N 
ATOM      9  C   UNL     1       3.206   5.777  -0.932  1.00  0.00     0.262 C 
ATOM     10  C   UNL     1       4.988   5.523  -2.524  1.00  0.00     0.262 C 
ATOM     11  H   UNL     1       3.722   7.073  -2.411  1.00  0.00     0.348 HD
ATOM     12  C   UNL     1       4.158   6.372   0.076  1.00  0.00     0.066 C 
ATOM     13  C   UNL     1       6.008   6.198  -1.587  1.00  0.00     0.066 C 
BRANCH   8  14
ATOM     14  C   UNL     1       2.643   5.652  -3.296  1.00  0.00     0.299 C 
BRANCH  14  15
ATOM     15  C   UNL     1       1.952   4.327  -3.032  1.00  0.00     0.006 A 
ATOM     16  C   UNL     1       0.789   1.885  -2.258  1.00  0.00     0.007 A 
ATOM     17  C   UNL     1       2.020   1.904  -2.919  1.00  0.00     0.015 A 
ATOM     18  C   UNL     1       0.117   3.085  -2.021  1.00  0.00     0.015 A 
ATOM     19  C   UNL     1       2.597   3.116  -3.307  1.00  0.00     0.011 A 
ATOM     20  C   UNL     1       0.694   4.298  -2.405  1.00  0.00     0.011 A 
BRANCH  16  21
ATOM     21  S   UNL     1       0.083   0.343  -1.715  1.00  0.00    -0.130 SA
ATOM     22  C   UNL     1       1.015   0.142  -0.173  1.00  0.00     0.091 C 
ENDBRANCH  16  21
ENDBRANCH  14  15
ENDBRANCH   8  14
ENDBRANCH   6   7
ENDBRANCH   3   6
ENDBRANCH   1   2
BRANCH   1  23
ATOM     23  C   UNL     1       2.971   8.146   2.405  1.00  0.00     0.023 C 
BRANCH  23  24
ATOM     24  C   UNL     1       2.131   8.297   3.658  1.00  0.00     0.023 C 
BRANCH  24  25
ATOM     25  C   UNL     1       1.854   9.733   4.044  1.00  0.00     0.116 C 
BRANCH  25  26
ATOM     26  N   UNL     1       1.129  10.486   3.027  1.00  0.00    -0.352 N 
ATOM     27  C   UNL     1       0.077  11.358   3.196  1.00  0.00     0.251 C 
ATOM     28  H   UNL     1       1.431  10.354   2.099  1.00  0.00     0.163 HD
ATOM     29  O   UNL     1      -0.492  11.858   2.237  1.00  0.00    -0.269 OA
BRANCH  27  30
ATOM     30  C   UNL     1      -0.386  11.634   4.571  1.00  0.00     0.039 A 
ATOM     31  C   UNL     1      -1.743  11.500   4.870  1.00  0.00     0.014 A 
ATOM     32  C   UNL     1       0.543  11.906   5.576  1.00  0.00     0.014 A 
ATOM     33  C   UNL     1      -2.155  11.552   6.201  1.00  0.00     0.010 A 
ATOM     34  C   UNL     1       0.149  11.836   6.902  1.00  0.00     0.010 A 
ATOM     35  C   UNL     1      -1.205  11.670   7.229  1.00  0.00    -0.014 A 
BRANCH  35  36
ATOM     36  C   UNL     1      -1.596  11.658   8.658  1.00  0.00     0.031 A 
ATOM     37  C   UNL     1      -1.294  12.857   9.513  1.00  0.00     0.074 A 
ATOM     38  C   UNL     1      -2.135  10.550   9.202  1.00  0.00     0.049 A 
ATOM     39  N   UNL     1      -1.444  13.016  10.803  1.00  0.00    -0.248 NA
ATOM     40  C   UNL     1      -0.696  14.018   8.832  1.00  0.00     0.031 C 
ATOM     41  C   UNL     1      -2.411   9.300   8.489  1.00  0.00     0.029 A 
ATOM     42  N   UNL     1      -2.539  10.293  10.487  1.00  0.00    -0.354 N 
ATOM     43  C   UNL     1      -0.933  14.275  11.086  1.00  0.00     0.074 A 
ATOM     44  C   UNL     1      -0.406  14.811   9.851  1.00  0.00     0.031 C 
ATOM     45  C   UNL     1      -2.969   8.423   9.339  1.00  0.00     0.029 A 
ATOM     46  C   UNL     1      -3.058   9.033  10.661  1.00  0.00     0.049 A 
ATOM     47  H   UNL     1      -2.464  10.950  11.217  1.00  0.00     0.167 HD
ATOM     48  C   UNL     1      -0.934  14.941  12.264  1.00  0.00     0.037 A 
ATOM     49  C   UNL     1      -3.552   8.444  11.767  1.00  0.00     0.037 A 
ATOM     50  C   UNL     1      -1.512  14.426  13.474  1.00  0.00     0.049 A 
ATOM     51  C   UNL     1      -3.583   9.221  13.055  1.00  0.00     0.074 A 
ATOM     52  C   UNL     1      -1.636  15.045  14.704  1.00  0.00     0.029 A 
ATOM     53  N   UNL     1      -2.076  13.164  13.599  1.00  0.00    -0.354 N 
ATOM     54  N   UNL     1      -3.158  10.438  13.297  1.00  0.00    -0.248 NA
ATOM     55  C   UNL     1      -4.168   8.546  14.221  1.00  0.00     0.031 C 
ATOM     56  C   UNL     1      -2.249  14.146  15.583  1.00  0.00     0.029 A 
ATOM     57  C   UNL     1      -2.542  12.983  14.890  1.00  0.00     0.049 A 
ATOM     58  H   UNL     1      -2.136  12.498  12.877  1.00  0.00     0.167 HD
ATOM     59  C   UNL     1      -3.449  10.685  14.632  1.00  0.00     0.074 A 
ATOM     60  C   UNL     1      -4.098   9.496  15.144  1.00  0.00     0.031 C 
ATOM     61  C   UNL     1      -3.199  11.794  15.369  1.00  0.00     0.037 A 
BRANCH  48  62
ATOM     62  C   UNL     1      -0.308  16.304  12.287  1.00  0.00     0.064 A 
ATOM     63  C   UNL     1      -0.898  17.394  11.627  1.00  0.00     0.173 A 
ATOM     64  C   UNL     1       0.888  16.528  12.983  1.00  0.00     0.173 A 
ATOM     65  F   UNL     1      -2.033  17.228  10.931  1.00  0.00    -0.203 F 
ATOM     66  C   UNL     1      -0.296  18.649  11.636  1.00  0.00     0.198 A 
ATOM     67  C   UNL     1       1.472  17.792  13.016  1.00  0.00     0.198 A 
ATOM     68  F   UNL     1       1.493  15.521  13.631  1.00  0.00    -0.203 F 
ATOM     69  F   UNL     1      -0.847  19.659  10.950  1.00  0.00    -0.200 F 
ATOM     70  C   UNL     1       0.885  18.848  12.335  1.00  0.00     0.200 A 
ATOM     71  F   UNL     1       2.608  17.986  13.700  1.00  0.00    -0.200 F 
ATOM     72  F   UNL     1       1.462  20.058  12.345  1.00  0.00    -0.200 F 
ENDBRANCH  48  62
BRANCH  49  73
ATOM     73  C   UNL     1      -4.101   7.065  11.694  1.00  0.00     0.064 A 
ATOM     74  C   UNL     1      -5.480   6.838  11.797  1.00  0.00     0.173 A 
ATOM     75  C   UNL     1      -3.267   5.951  11.523  1.00  0.00     0.173 A 
ATOM     76  F   UNL     1      -6.316   7.870  11.980  1.00  0.00    -0.203 F 
ATOM     77  C   UNL     1      -6.003   5.547  11.753  1.00  0.00     0.198 A 
ATOM     78  C   UNL     1      -3.793   4.662  11.454  1.00  0.00     0.198 A 
ATOM     79  F   UNL     1      -1.940   6.116  11.413  1.00  0.00    -0.203 F 
ATOM     80  F   UNL     1      -7.322   5.356  11.898  1.00  0.00    -0.200 F 
ATOM     81  C   UNL     1      -5.160   4.461  11.577  1.00  0.00     0.200 A 
ATOM     82  F   UNL     1      -2.977   3.616  11.271  1.00  0.00    -0.200 F 
ATOM     83  F   UNL     1      -5.663   3.220  11.533  1.00  0.00    -0.200 F 
ENDBRANCH  49  73
BRANCH  61  84
ATOM     84  C   UNL     1      -3.661  11.788  16.795  1.00  0.00     0.064 A 
ATOM     85  C   UNL     1      -3.001  11.036  17.776  1.00  0.00     0.173 A 
ATOM     86  C   UNL     1      -4.748  12.582  17.190  1.00  0.00     0.173 A 
ATOM     87  F   UNL     1      -1.966  10.250  17.442  1.00  0.00    -0.203 F 
ATOM     88  C   UNL     1      -3.426  11.063  19.101  1.00  0.00     0.198 A 
ATOM     89  C   UNL     1      -5.152  12.628  18.520  1.00  0.00     0.198 A 
ATOM     90  F   UNL     1      -5.406  13.325  16.288  1.00  0.00    -0.203 F 
ATOM     91  F   UNL     1      -2.807  10.305  20.017  1.00  0.00    -0.200 F 
ATOM     92  C   UNL     1      -4.496  11.864  19.473  1.00  0.00     0.200 A 
ATOM     93  F   UNL     1      -6.178  13.412  18.881  1.00  0.00    -0.200 F 
ATOM     94  F   UNL     1      -4.898  11.895  20.751  1.00  0.00    -0.200 F 
ENDBRANCH  61  84
ENDBRANCH  35  36
ENDBRANCH  27  30
ENDBRANCH  25  26
ENDBRANCH  24  25
ENDBRANCH  23  24
ENDBRANCH   1  23
TORSDOF 15
