REMARK SMILES O=C(NCCCCNC(=O)c1cccc([C@@H]2CCC[N@@H+](Cc3cccc(OCCO)c3)C2)c1)c1ccc(-c2c3nc(c(-c4c(F)c(F)c(F)c(F)c4F)c4ccc([nH]4)c(-c4c(F)c(F)c(F)c(F)c4F)c4nc(c(-c5c(F)c(F)c(F)c(F)c5F)c5ccc2[nH]5)C=C4)C=C3)cc1
REMARK SMILES IDX 8 1 9 2 10 3 7 5 6 6 5 7 4 8 3 9 1 10 2 11 34 13 35 14 96 15
REMARK SMILES IDX 36 16 95 17 37 18 38 19 39 20 89 21 40 22 94 23 88 24 90 25
REMARK SMILES IDX 41 26 93 27 87 28 86 29 42 31 74 32 54 33 73 34 55 35 58 36
REMARK SMILES IDX 72 37 91 38 56 39 57 40 71 42 92 43 59 44 43 45 44 46 52 47
REMARK SMILES IDX 45 48 46 49 50 50 53 51 47 52 48 53 51 54 49 55 75 56 76 57
REMARK SMILES IDX 84 58 77 59 78 60 82 61 85 62 79 63 80 64 83 65 81 66 60 67
REMARK SMILES IDX 61 68 69 69 62 70 63 71 67 72 70 73 64 74 65 75 68 76 66 77
REMARK SMILES IDX 11 78 12 79 33 80 13 81 15 82 14 83 16 84 17 85 32 86 18 87
REMARK SMILES IDX 20 88 19 89 21 91 22 92 23 93 31 94 24 95 26 96 25 97 27 98
REMARK SMILES IDX 28 99 29 100 30 101
REMARK H PARENT 8 4 3 12 90 30 58 41 20 90 30 102
REMARK Flexibility Score: inf
ROOT
ATOM      1  N   UNL     1       6.520  -3.647   2.545  1.00  0.00    -0.352 N 
ATOM      2  C   UNL     1       7.324  -4.690   2.950  1.00  0.00     0.251 C 
ATOM      3  O   UNL     1       8.529  -4.519   3.103  1.00  0.00    -0.269 OA
ATOM      4  H   UNL     1       6.990  -2.822   2.286  1.00  0.00     0.163 HD
ENDROOT
BRANCH   1   5
ATOM      5  C   UNL     1       5.066  -3.603   2.447  1.00  0.00     0.116 C 
BRANCH   5   6
ATOM      6  C   UNL     1       4.471  -2.305   2.980  1.00  0.00     0.023 C 
BRANCH   6   7
ATOM      7  C   UNL     1       4.885  -1.046   2.222  1.00  0.00     0.023 C 
BRANCH   7   8
ATOM      8  C   UNL     1       4.551  -1.051   0.735  1.00  0.00     0.116 C 
BRANCH   8   9
ATOM      9  N   UNL     1       3.118  -1.058   0.480  1.00  0.00    -0.352 N 
ATOM     10  O   UNL     1       1.099  -0.234  -0.083  1.00  0.00    -0.269 OA
ATOM     11  C   UNL     1       2.314  -0.099  -0.089  1.00  0.00     0.251 C 
ATOM     12  H   UNL     1       2.651  -1.879   0.759  1.00  0.00     0.163 HD
BRANCH  11  13
ATOM     13  C   UNL     1       2.917   1.115  -0.683  1.00  0.00     0.039 A 
ATOM     14  C   UNL     1       4.021   1.027  -1.534  1.00  0.00     0.014 A 
ATOM     15  C   UNL     1       2.357   2.361  -0.389  1.00  0.00     0.014 A 
ATOM     16  C   UNL     1       4.658   2.187  -1.964  1.00  0.00     0.010 A 
ATOM     17  C   UNL     1       2.949   3.523  -0.890  1.00  0.00     0.010 A 
ATOM     18  C   UNL     1       4.127   3.447  -1.651  1.00  0.00    -0.014 A 
BRANCH  18  19
ATOM     19  C   UNL     1       4.788   4.678  -2.151  1.00  0.00     0.031 A 
ATOM     20  C   UNL     1       5.389   5.671  -1.197  1.00  0.00     0.074 A 
ATOM     21  C   UNL     1       4.835   4.904  -3.478  1.00  0.00     0.049 A 
ATOM     22  N   UNL     1       5.948   6.828  -1.450  1.00  0.00    -0.248 NA
ATOM     23  C   UNL     1       5.351   5.322   0.231  1.00  0.00     0.031 C 
ATOM     24  C   UNL     1       4.288   4.013  -4.502  1.00  0.00     0.029 A 
ATOM     25  N   UNL     1       5.361   5.950  -4.191  1.00  0.00    -0.354 N 
ATOM     26  C   UNL     1       6.306   7.356  -0.215  1.00  0.00     0.074 A 
ATOM     27  C   UNL     1       5.878   6.403   0.788  1.00  0.00     0.031 C 
ATOM     28  C   UNL     1       4.521   4.541  -5.712  1.00  0.00     0.029 A 
ATOM     29  C   UNL     1       5.177   5.833  -5.546  1.00  0.00     0.049 A 
ATOM     30  H   UNL     1       5.825   6.711  -3.773  1.00  0.00     0.167 HD
ATOM     31  C   UNL     1       6.938   8.525   0.052  1.00  0.00     0.037 A 
ATOM     32  C   UNL     1       5.474   6.685  -6.545  1.00  0.00     0.037 A 
ATOM     33  C   UNL     1       7.369   9.461  -0.955  1.00  0.00     0.049 A 
ATOM     34  C   UNL     1       6.139   7.992  -6.221  1.00  0.00     0.074 A 
ATOM     35  C   UNL     1       8.049  10.656  -0.788  1.00  0.00     0.029 A 
ATOM     36  N   UNL     1       7.155   9.312  -2.318  1.00  0.00    -0.354 N 
ATOM     37  N   UNL     1       6.498   8.468  -5.054  1.00  0.00    -0.248 NA
ATOM     38  C   UNL     1       6.440   8.880  -7.351  1.00  0.00     0.031 C 
ATOM     39  C   UNL     1       8.198  11.255  -2.044  1.00  0.00     0.029 A 
ATOM     40  C   UNL     1       7.665  10.405  -3.001  1.00  0.00     0.049 A 
ATOM     41  H   UNL     1       6.706   8.544  -2.738  1.00  0.00     0.167 HD
ATOM     42  C   UNL     1       7.091   9.696  -5.309  1.00  0.00     0.074 A 
ATOM     43  C   UNL     1       7.050   9.889  -6.744  1.00  0.00     0.031 C 
ATOM     44  C   UNL     1       7.625  10.581  -4.431  1.00  0.00     0.037 A 
BRANCH  31  45
ATOM     45  C   UNL     1       7.175   8.873   1.495  1.00  0.00     0.064 A 
ATOM     46  C   UNL     1       8.098   8.172   2.285  1.00  0.00     0.173 A 
ATOM     47  C   UNL     1       6.485   9.941   2.089  1.00  0.00     0.173 A 
ATOM     48  F   UNL     1       8.779   7.136   1.771  1.00  0.00    -0.203 F 
ATOM     49  C   UNL     1       8.296   8.505   3.623  1.00  0.00     0.198 A 
ATOM     50  C   UNL     1       6.708  10.292   3.418  1.00  0.00     0.198 A 
ATOM     51  F   UNL     1       5.596  10.652   1.377  1.00  0.00    -0.203 F 
ATOM     52  F   UNL     1       9.144   7.787   4.373  1.00  0.00    -0.200 F 
ATOM     53  C   UNL     1       7.606   9.568   4.187  1.00  0.00     0.200 A 
ATOM     54  F   UNL     1       6.050  11.329   3.956  1.00  0.00    -0.200 F 
ATOM     55  F   UNL     1       7.799   9.888   5.474  1.00  0.00    -0.200 F 
ENDBRANCH  31  45
BRANCH  32  56
ATOM     56  C   UNL     1       5.132   6.316  -7.942  1.00  0.00     0.064 A 
ATOM     57  C   UNL     1       6.132   5.992  -8.868  1.00  0.00     0.173 A 
ATOM     58  C   UNL     1       3.797   6.239  -8.366  1.00  0.00     0.173 A 
ATOM     59  F   UNL     1       7.423   6.068  -8.512  1.00  0.00    -0.203 F 
ATOM     60  C   UNL     1       5.810   5.612 -10.169  1.00  0.00     0.198 A 
ATOM     61  C   UNL     1       3.475   5.831  -9.658  1.00  0.00     0.198 A 
ATOM     62  F   UNL     1       2.803   6.531  -7.514  1.00  0.00    -0.203 F 
ATOM     63  F   UNL     1       6.786   5.337 -11.044  1.00  0.00    -0.200 F 
ATOM     64  C   UNL     1       4.482   5.523 -10.560  1.00  0.00     0.200 A 
ATOM     65  F   UNL     1       2.191   5.727 -10.025  1.00  0.00    -0.200 F 
ATOM     66  F   UNL     1       4.173   5.141 -11.806  1.00  0.00    -0.200 F 
ENDBRANCH  32  56
BRANCH  44  67
ATOM     67  C   UNL     1       8.254  11.820  -4.999  1.00  0.00     0.064 A 
ATOM     68  C   UNL     1       7.482  12.862  -5.534  1.00  0.00     0.173 A 
ATOM     69  C   UNL     1       9.647  11.986  -4.961  1.00  0.00     0.173 A 
ATOM     70  F   UNL     1       6.148  12.744  -5.609  1.00  0.00    -0.203 F 
ATOM     71  C   UNL     1       8.085  14.017  -6.026  1.00  0.00     0.198 A 
ATOM     72  C   UNL     1      10.243  13.154  -5.426  1.00  0.00     0.198 A 
ATOM     73  F   UNL     1      10.429  11.020  -4.455  1.00  0.00    -0.203 F 
ATOM     74  F   UNL     1       7.332  14.983  -6.571  1.00  0.00    -0.200 F 
ATOM     75  C   UNL     1       9.462  14.166  -5.964  1.00  0.00     0.200 A 
ATOM     76  F   UNL     1      11.573  13.300  -5.353  1.00  0.00    -0.200 F 
ATOM     77  F   UNL     1      10.039  15.283  -6.427  1.00  0.00    -0.200 F 
ENDBRANCH  44  67
ENDBRANCH  18  19
ENDBRANCH  11  13
ENDBRANCH   8   9
ENDBRANCH   7   8
ENDBRANCH   6   7
ENDBRANCH   5   6
ENDBRANCH   1   5
BRANCH   2  78
ATOM     78  C   UNL     1       6.726  -6.018   3.208  1.00  0.00     0.040 A 
ATOM     79  C   UNL     1       7.056  -6.728   4.360  1.00  0.00     0.014 A 
ATOM     80  C   UNL     1       5.811  -6.549   2.299  1.00  0.00     0.018 A 
ATOM     81  C   UNL     1       6.407  -7.934   4.628  1.00  0.00     0.001 A 
ATOM     82  C   UNL     1       5.115  -7.727   2.571  1.00  0.00    -0.039 A 
ATOM     83  C   UNL     1       5.431  -8.420   3.750  1.00  0.00     0.004 A 
BRANCH  82  84
ATOM     84  C   UNL     1       3.979  -8.188   1.675  1.00  0.00     0.074 C 
ATOM     85  C   UNL     1       4.387  -8.507   0.228  1.00  0.00     0.020 C 
ATOM     86  C   UNL     1       2.787  -7.203   1.708  1.00  0.00     0.270 C 
ATOM     87  C   UNL     1       4.439  -7.286  -0.690  1.00  0.00     0.062 C 
ATOM     88  N   UNL     1       2.919  -6.013   0.845  1.00  0.00    -0.331 N 
ATOM     89  C   UNL     1       3.211  -6.386  -0.547  1.00  0.00     0.262 C 
ATOM     90  H   UNL     1       3.722  -5.486   1.189  1.00  0.00     0.348 HD
BRANCH  88  91
ATOM     91  C   UNL     1       1.754  -5.099   0.954  1.00  0.00     0.299 C 
BRANCH  91  92
ATOM     92  C   UNL     1       0.492  -5.537   0.232  1.00  0.00     0.010 A 
ATOM     93  C   UNL     1       0.123  -4.953  -0.987  1.00  0.00     0.010 A 
ATOM     94  C   UNL     1      -0.263  -6.615   0.720  1.00  0.00     0.056 A 
ATOM     95  C   UNL     1      -0.932  -5.486  -1.727  1.00  0.00     0.004 A 
ATOM     96  C   UNL     1      -1.248  -7.216  -0.059  1.00  0.00     0.119 A 
ATOM     97  C   UNL     1      -1.595  -6.629  -1.276  1.00  0.00     0.046 A 
BRANCH  96  98
ATOM     98  O   UNL     1      -1.889  -8.390   0.229  1.00  0.00    -0.491 OA
BRANCH  98  99
ATOM     99  C   UNL     1      -1.376  -9.225   1.276  1.00  0.00     0.257 C 
BRANCH  99 100
ATOM    100  C   UNL     1      -0.326 -10.222   0.772  1.00  0.00     0.197 C 
BRANCH 100 101
ATOM    101  O   UNL     1       0.824  -9.592   0.219  1.00  0.00    -0.393 OA
ATOM    102  H   UNL     1       0.563  -9.062  -0.550  1.00  0.00     0.210 HD
ENDBRANCH 100 101
ENDBRANCH  99 100
ENDBRANCH  98  99
ENDBRANCH  96  98
ENDBRANCH  91  92
ENDBRANCH  88  91
ENDBRANCH  82  84
ENDBRANCH   2  78
TORSDOF 18
