REMARK SMILES Cc1cc(O[C@@H]2C[C@H](C)C[C@H](C)C2)cc(C(=O)NCCCCNC(=O)c2ccc(-c3c4nc(c(-c5c(F)c(F)c(F)c(F)c5F)c5ccc([nH]5)c(-c5c(F)c(F)c(F)c(F)c5F)c5nc(c(-c6c(F)c(F)c(F)c(F)c6F)c6ccc3[nH]6)C=C5)C=C4)cc2)c1N
REMARK SMILES IDX 20 1 19 2 18 3 16 4 17 5 15 7 1 8 2 9 3 10 89 11 4 12 14 13
REMARK SMILES IDX 90 14 5 17 6 18 13 19 7 20 11 21 8 22 12 23 10 24 9 25 21 26
REMARK SMILES IDX 22 27 23 28 24 29 25 31 26 32 27 33 88 34 28 35 87 36 29 37
REMARK SMILES IDX 30 38 31 39 81 40 32 41 86 42 80 43 82 44 33 45 85 46 79 47
REMARK SMILES IDX 78 48 34 50 66 51 46 52 65 53 47 54 50 55 64 56 83 57 48 58
REMARK SMILES IDX 49 59 63 61 84 62 51 63 35 64 36 65 44 66 37 67 38 68 42 69
REMARK SMILES IDX 45 70 39 71 40 72 43 73 41 74 67 75 68 76 76 77 69 78 70 79
REMARK SMILES IDX 74 80 77 81 71 82 72 83 75 84 73 85 52 86 53 87 61 88 54 89
REMARK SMILES IDX 55 90 59 91 62 92 56 93 57 94 60 95 58 96
REMARK H PARENT 18 6 90 15 90 16 23 30 82 49 50 60
REMARK Flexibility Score: inf
ROOT
ATOM      1  C   UNL     1      -4.059  -3.519  -1.681  1.00  0.00     0.023 C 
ENDROOT
BRANCH   1   2
ATOM      2  C   UNL     1      -3.319  -2.817  -0.548  1.00  0.00     0.116 C 
BRANCH   2   3
ATOM      3  N   UNL     1      -2.074  -3.450  -0.175  1.00  0.00    -0.352 N 
ATOM      4  C   UNL     1      -0.930  -2.955   0.403  1.00  0.00     0.253 C 
ATOM      5  O   UNL     1      -0.029  -3.777   0.599  1.00  0.00    -0.269 OA
ATOM      6  H   UNL     1      -2.040  -4.415  -0.371  1.00  0.00     0.163 HD
BRANCH   4   7
ATOM      7  C   UNL     1      -0.714  -1.515   0.768  1.00  0.00     0.066 A 
ATOM      8  C   UNL     1       2.201   0.954   1.123  1.00  0.00     0.047 C 
ATOM      9  C   UNL     1       0.849   0.298   1.238  1.00  0.00    -0.024 A 
ATOM     10  C   UNL     1      -0.231   1.097   1.631  1.00  0.00     0.052 A 
ATOM     11  C   UNL     1       0.623  -1.028   0.815  1.00  0.00     0.048 A 
ATOM     12  C   UNL     1      -1.503   0.730   1.249  1.00  0.00     0.120 A 
ATOM     13  C   UNL     1      -1.767  -0.618   1.013  1.00  0.00     0.062 A 
BRANCH  11  14
ATOM     14  N   UNL     1       1.680  -1.750   0.245  1.00  0.00    -0.398 N 
ATOM     15  H   UNL     1       2.598  -1.397   0.288  1.00  0.00     0.156 HD
ATOM     16  H   UNL     1       1.505  -2.611  -0.199  1.00  0.00     0.156 HD
ENDBRANCH  11  14
BRANCH  12  17
ATOM     17  O   UNL     1      -2.494   1.627   0.941  1.00  0.00    -0.490 OA
BRANCH  17  18
ATOM     18  C   UNL     1      -2.173   2.891   0.267  1.00  0.00     0.173 C 
ATOM     19  C   UNL     1      -0.793   3.111  -0.364  1.00  0.00     0.048 C 
ATOM     20  C   UNL     1      -3.265   3.183  -0.818  1.00  0.00     0.048 C 
ATOM     21  C   UNL     1      -0.630   2.492  -1.751  1.00  0.00    -0.010 C 
ATOM     22  C   UNL     1      -2.814   3.703  -2.237  1.00  0.00    -0.010 C 
ATOM     23  C   UNL     1      -1.131   1.064  -1.975  1.00  0.00     0.008 C 
ATOM     24  C   UNL     1      -1.357   3.441  -2.678  1.00  0.00     0.007 C 
ATOM     25  C   UNL     1      -3.766   3.214  -3.340  1.00  0.00     0.008 C 
ENDBRANCH  17  18
ENDBRANCH  12  17
ENDBRANCH   4   7
ENDBRANCH   2   3
ENDBRANCH   1   2
BRANCH   1  26
ATOM     26  C   UNL     1      -4.370  -5.000  -1.479  1.00  0.00     0.023 C 
BRANCH  26  27
ATOM     27  C   UNL     1      -5.012  -5.372  -0.149  1.00  0.00     0.116 C 
BRANCH  27  28
ATOM     28  N   UNL     1      -6.293  -4.718   0.080  1.00  0.00    -0.352 N 
ATOM     29  C   UNL     1      -7.536  -5.269   0.286  1.00  0.00     0.251 C 
ATOM     30  H   UNL     1      -6.265  -3.734   0.089  1.00  0.00     0.163 HD
ATOM     31  O   UNL     1      -8.530  -4.552   0.362  1.00  0.00    -0.269 OA
BRANCH  29  32
ATOM     32  C   UNL     1      -7.681  -6.737   0.367  1.00  0.00     0.039 A 
ATOM     33  C   UNL     1      -8.634  -7.366  -0.436  1.00  0.00     0.014 A 
ATOM     34  C   UNL     1      -6.840  -7.492   1.187  1.00  0.00     0.014 A 
ATOM     35  C   UNL     1      -8.670  -8.761  -0.500  1.00  0.00     0.010 A 
ATOM     36  C   UNL     1      -6.819  -8.877   1.059  1.00  0.00     0.010 A 
ATOM     37  C   UNL     1      -7.723  -9.525   0.202  1.00  0.00    -0.014 A 
BRANCH  37  38
ATOM     38  C   UNL     1      -7.635 -10.997   0.025  1.00  0.00     0.031 A 
ATOM     39  C   UNL     1      -7.866 -11.916   1.191  1.00  0.00     0.074 A 
ATOM     40  C   UNL     1      -7.261 -11.502  -1.167  1.00  0.00     0.049 A 
ATOM     41  N   UNL     1      -7.756 -13.219   1.253  1.00  0.00    -0.248 NA
ATOM     42  C   UNL     1      -8.241 -11.283   2.465  1.00  0.00     0.031 C 
ATOM     43  C   UNL     1      -6.948 -10.712  -2.360  1.00  0.00     0.029 A 
ATOM     44  N   UNL     1      -7.066 -12.800  -1.571  1.00  0.00    -0.354 N 
ATOM     45  C   UNL     1      -8.031 -13.558   2.571  1.00  0.00     0.074 A 
ATOM     46  C   UNL     1      -8.258 -12.321   3.287  1.00  0.00     0.031 C 
ATOM     47  C   UNL     1      -6.625 -11.541  -3.365  1.00  0.00     0.029 A 
ATOM     48  C   UNL     1      -6.668 -12.917  -2.881  1.00  0.00     0.049 A 
ATOM     49  H   UNL     1      -7.199 -13.574  -0.977  1.00  0.00     0.167 HD
ATOM     50  C   UNL     1      -8.112 -14.790   3.127  1.00  0.00     0.037 A 
ATOM     51  C   UNL     1      -6.367 -14.010  -3.607  1.00  0.00     0.037 A 
ATOM     52  C   UNL     1      -7.909 -16.019   2.406  1.00  0.00     0.049 A 
ATOM     53  C   UNL     1      -6.467 -15.367  -2.967  1.00  0.00     0.074 A 
ATOM     54  C   UNL     1      -8.032 -17.319   2.863  1.00  0.00     0.029 A 
ATOM     55  N   UNL     1      -7.534 -16.098   1.072  1.00  0.00    -0.354 N 
ATOM     56  N   UNL     1      -6.805 -15.680  -1.740  1.00  0.00    -0.248 NA
ATOM     57  C   UNL     1      -6.150 -16.525  -3.815  1.00  0.00     0.031 C 
ATOM     58  C   UNL     1      -7.687 -18.184   1.820  1.00  0.00     0.029 A 
ATOM     59  C   UNL     1      -7.400 -17.425   0.697  1.00  0.00     0.049 A 
ATOM     60  H   UNL     1      -7.385 -15.325   0.480  1.00  0.00     0.167 HD
ATOM     61  C   UNL     1      -6.771 -17.066  -1.676  1.00  0.00     0.074 A 
ATOM     62  C   UNL     1      -6.391 -17.536  -2.992  1.00  0.00     0.031 C 
ATOM     63  C   UNL     1      -7.031 -17.877  -0.621  1.00  0.00     0.037 A 
BRANCH  50  64
ATOM     64  C   UNL     1      -8.438 -14.867   4.591  1.00  0.00     0.064 A 
ATOM     65  C   UNL     1      -9.707 -14.520   5.081  1.00  0.00     0.173 A 
ATOM     66  C   UNL     1      -7.482 -15.319   5.512  1.00  0.00     0.173 A 
ATOM     67  F   UNL     1     -10.655 -14.071   4.244  1.00  0.00    -0.203 F 
ATOM     68  C   UNL     1      -9.994 -14.588   6.441  1.00  0.00     0.198 A 
ATOM     69  C   UNL     1      -7.783 -15.418   6.868  1.00  0.00     0.198 A 
ATOM     70  F   UNL     1      -6.255 -15.670   5.098  1.00  0.00    -0.203 F 
ATOM     71  F   UNL     1     -11.195 -14.199   6.891  1.00  0.00    -0.200 F 
ATOM     72  C   UNL     1      -9.035 -15.043   7.333  1.00  0.00     0.200 A 
ATOM     73  F   UNL     1      -6.859 -15.870   7.727  1.00  0.00    -0.200 F 
ATOM     74  F   UNL     1      -9.314 -15.114   8.642  1.00  0.00    -0.200 F 
ENDBRANCH  50  64
BRANCH  51  75
ATOM     75  C   UNL     1      -5.973 -13.867  -5.034  1.00  0.00     0.064 A 
ATOM     76  C   UNL     1      -6.825 -14.295  -6.061  1.00  0.00     0.173 A 
ATOM     77  C   UNL     1      -4.743 -13.302  -5.400  1.00  0.00     0.173 A 
ATOM     78  F   UNL     1      -8.004 -14.861  -5.760  1.00  0.00    -0.203 F 
ATOM     79  C   UNL     1      -6.455 -14.180  -7.399  1.00  0.00     0.198 A 
ATOM     80  C   UNL     1      -4.386 -13.162  -6.740  1.00  0.00     0.198 A 
ATOM     81  F   UNL     1      -3.893 -12.871  -4.456  1.00  0.00    -0.203 F 
ATOM     82  F   UNL     1      -7.271 -14.637  -8.359  1.00  0.00    -0.200 F 
ATOM     83  C   UNL     1      -5.239 -13.608  -7.738  1.00  0.00     0.200 A 
ATOM     84  F   UNL     1      -3.215 -12.595  -7.064  1.00  0.00    -0.200 F 
ATOM     85  F   UNL     1      -4.885 -13.493  -9.025  1.00  0.00    -0.200 F 
ENDBRANCH  51  75
BRANCH  63  86
ATOM     86  C   UNL     1      -6.954 -19.358  -0.854  1.00  0.00     0.064 A 
ATOM     87  C   UNL     1      -5.727 -20.013  -1.036  1.00  0.00     0.173 A 
ATOM     88  C   UNL     1      -8.121 -20.136  -0.852  1.00  0.00     0.173 A 
ATOM     89  F   UNL     1      -4.584 -19.312  -1.062  1.00  0.00    -0.203 F 
ATOM     90  C   UNL     1      -5.675 -21.391  -1.231  1.00  0.00     0.198 A 
ATOM     91  C   UNL     1      -8.063 -21.517  -1.016  1.00  0.00     0.198 A 
ATOM     92  F   UNL     1      -9.319 -19.559  -0.676  1.00  0.00    -0.203 F 
ATOM     93  F   UNL     1      -4.496 -21.990  -1.448  1.00  0.00    -0.200 F 
ATOM     94  C   UNL     1      -6.841 -22.142  -1.212  1.00  0.00     0.200 A 
ATOM     95  F   UNL     1      -9.189 -22.243  -0.985  1.00  0.00    -0.200 F 
ATOM     96  F   UNL     1      -6.787 -23.469  -1.391  1.00  0.00    -0.200 F 
ENDBRANCH  63  86
ENDBRANCH  37  38
ENDBRANCH  29  32
ENDBRANCH  27  28
ENDBRANCH  26  27
ENDBRANCH   1  26
TORSDOF 14
