REMARK SMILES O=C(NCCCCNC(=O)c1ccc(-c2c3nc(c(-c4c(F)c(F)c(F)c(F)c4F)c4ccc([nH]4)c(-c4c(F)c(F)c(F)c(F)c4F)c4nc(c(-c5c(F)c(F)c(F)c(F)c5F)c5ccc2[nH]5)C=C4)C=C3)cc1)C1=Cc2cc(Cl)cc(-c3ccc(CO)cc3)c2O[C@@H]1C(F)(F)F
REMARK SMILES IDX 5 1 4 2 3 3 1 4 2 5 74 7 75 8 92 9 76 10 91 11 77 12 90 13
REMARK SMILES IDX 78 14 81 15 79 16 80 17 93 18 94 19 95 20 96 21 82 22 83 23
REMARK SMILES IDX 89 24 84 25 88 26 85 27 86 28 87 29 6 31 7 32 8 33 9 34
REMARK SMILES IDX 10 36 11 37 12 38 73 39 13 40 72 41 14 42 15 43 16 44 66 45
REMARK SMILES IDX 17 46 71 47 65 48 67 49 18 50 70 51 64 52 63 53 19 55 51 56
REMARK SMILES IDX 31 57 50 58 32 59 35 60 49 61 68 62 33 63 34 64 48 66 69 67
REMARK SMILES IDX 36 68 20 69 21 70 29 71 22 72 23 73 27 74 30 75 24 76 25 77
REMARK SMILES IDX 28 78 26 79 52 80 53 81 61 82 54 83 55 84 59 85 62 86 56 87
REMARK SMILES IDX 57 88 60 89 58 90 37 91 38 92 46 93 39 94 40 95 44 96 47 97
REMARK SMILES IDX 41 98 42 99 45 100 43 101
REMARK H PARENT 3 6 87 30 8 35 67 54 35 65
REMARK Flexibility Score: inf
ROOT
ATOM      1  C   UNL     1       4.444   3.512  -0.049  1.00  0.00     0.023 C 
ENDROOT
BRANCH   1   2
ATOM      2  C   UNL     1       4.021   2.098   0.329  1.00  0.00     0.116 C 
BRANCH   2   3
ATOM      3  N   UNL     1       2.756   1.663  -0.237  1.00  0.00    -0.352 N 
ATOM      4  O   UNL     1       1.154   0.238  -0.888  1.00  0.00    -0.270 OA
ATOM      5  C   UNL     1       2.344   0.419  -0.630  1.00  0.00     0.251 C 
ATOM      6  H   UNL     1       2.089   2.377  -0.357  1.00  0.00     0.163 HD
BRANCH   5   7
ATOM      7  C   UNL     1       3.257  -0.763  -0.678  1.00  0.00     0.067 C 
ATOM      8  C   UNL     1       4.520  -0.687  -1.132  1.00  0.00     0.025 C 
ATOM      9  C   UNL     1       2.957  -1.769   0.405  1.00  0.00     0.314 C 
ATOM     10  C   UNL     1       5.512  -0.789  -0.024  1.00  0.00     0.019 A 
ATOM     11  O   UNL     1       3.812  -1.536   1.557  1.00  0.00    -0.475 OA
ATOM     12  C   UNL     1       6.788  -0.272  -0.271  1.00  0.00     0.032 A 
ATOM     13  C   UNL     1       5.069  -1.027   1.299  1.00  0.00     0.135 A 
ATOM     14  C   UNL     1       7.585   0.098   0.803  1.00  0.00     0.042 A 
ATOM     15  C   UNL     1       5.847  -0.589   2.390  1.00  0.00     0.026 A 
ATOM     16  Cl  UNL     1       9.079   0.899   0.512  1.00  0.00    -0.084 Cl
ATOM     17  C   UNL     1       7.120  -0.044   2.111  1.00  0.00     0.033 A 
BRANCH   9  18
ATOM     18  C   UNL     1       3.031  -3.217  -0.118  1.00  0.00     0.429 C 
ATOM     19  F   UNL     1       2.633  -4.107   0.820  1.00  0.00    -0.167 F 
ATOM     20  F   UNL     1       2.226  -3.393  -1.196  1.00  0.00    -0.167 F 
ATOM     21  F   UNL     1       4.281  -3.572  -0.501  1.00  0.00    -0.167 F 
ENDBRANCH   9  18
BRANCH  15  22
ATOM     22  C   UNL     1       5.317  -0.471   3.769  1.00  0.00    -0.015 A 
ATOM     23  C   UNL     1       5.346   0.781   4.411  1.00  0.00     0.009 A 
ATOM     24  C   UNL     1       4.774  -1.546   4.484  1.00  0.00     0.009 A 
ATOM     25  C   UNL     1       4.884   0.950   5.716  1.00  0.00     0.007 A 
ATOM     26  C   UNL     1       4.306  -1.378   5.799  1.00  0.00     0.007 A 
ATOM     27  C   UNL     1       4.374  -0.132   6.434  1.00  0.00    -0.023 A 
BRANCH  27  28
ATOM     28  C   UNL     1       3.876   0.073   7.841  1.00  0.00     0.191 C 
BRANCH  28  29
ATOM     29  O   UNL     1       4.798   0.855   8.596  1.00  0.00    -0.392 OA
ATOM     30  H   UNL     1       5.652   0.397   8.638  1.00  0.00     0.211 HD
ENDBRANCH  28  29
ENDBRANCH  27  28
ENDBRANCH  15  22
ENDBRANCH   5   7
ENDBRANCH   2   3
ENDBRANCH   1   2
BRANCH   1  31
ATOM     31  C   UNL     1       4.170   4.595   0.990  1.00  0.00     0.023 C 
BRANCH  31  32
ATOM     32  C   UNL     1       4.709   4.348   2.398  1.00  0.00     0.116 C 
BRANCH  32  33
ATOM     33  N   UNL     1       6.129   4.042   2.477  1.00  0.00    -0.352 N 
ATOM     34  C   UNL     1       7.025   4.321   3.493  1.00  0.00     0.251 C 
ATOM     35  H   UNL     1       6.504   3.571   1.699  1.00  0.00     0.163 HD
ATOM     36  O   UNL     1       8.192   3.986   3.385  1.00  0.00    -0.269 OA
BRANCH  34  37
ATOM     37  C   UNL     1       6.579   5.063   4.699  1.00  0.00     0.039 A 
ATOM     38  C   UNL     1       7.376   6.112   5.168  1.00  0.00     0.014 A 
ATOM     39  C   UNL     1       5.379   4.760   5.347  1.00  0.00     0.014 A 
ATOM     40  C   UNL     1       6.916   6.918   6.213  1.00  0.00     0.010 A 
ATOM     41  C   UNL     1       4.897   5.588   6.356  1.00  0.00     0.010 A 
ATOM     42  C   UNL     1       5.649   6.692   6.777  1.00  0.00    -0.014 A 
BRANCH  42  43
ATOM     43  C   UNL     1       5.046   7.682   7.700  1.00  0.00     0.031 A 
ATOM     44  C   UNL     1       4.813   7.366   9.145  1.00  0.00     0.074 A 
ATOM     45  C   UNL     1       4.634   8.857   7.186  1.00  0.00     0.049 A 
ATOM     46  N   UNL     1       4.372   8.149  10.097  1.00  0.00    -0.248 NA
ATOM     47  C   UNL     1       5.083   5.987   9.575  1.00  0.00     0.031 C 
ATOM     48  C   UNL     1       4.713   9.230   5.772  1.00  0.00     0.029 A 
ATOM     49  N   UNL     1       4.067   9.951   7.786  1.00  0.00    -0.354 N 
ATOM     50  C   UNL     1       4.321   7.364  11.240  1.00  0.00     0.074 A 
ATOM     51  C   UNL     1       4.719   6.027  10.849  1.00  0.00     0.031 C 
ATOM     52  C   UNL     1       4.254  10.481   5.620  1.00  0.00     0.029 A 
ATOM     53  C   UNL     1       3.833  10.991   6.920  1.00  0.00     0.049 A 
ATOM     54  H   UNL     1       3.848   9.988   8.745  1.00  0.00     0.167 HD
ATOM     55  C   UNL     1       3.990   7.734  12.501  1.00  0.00     0.037 A 
ATOM     56  C   UNL     1       3.355  12.226   7.154  1.00  0.00     0.037 A 
ATOM     57  C   UNL     1       3.581   9.067  12.870  1.00  0.00     0.049 A 
ATOM     58  C   UNL     1       3.022  12.620   8.566  1.00  0.00     0.074 A 
ATOM     59  C   UNL     1       3.301   9.571  14.129  1.00  0.00     0.029 A 
ATOM     60  N   UNL     1       3.370  10.106  11.972  1.00  0.00    -0.354 N 
ATOM     61  N   UNL     1       3.109  11.912   9.666  1.00  0.00    -0.248 NA
ATOM     62  C   UNL     1       2.544  13.993   8.768  1.00  0.00     0.031 C 
ATOM     63  C   UNL     1       2.866  10.894  13.986  1.00  0.00     0.029 A 
ATOM     64  C   UNL     1       2.933  11.237  12.646  1.00  0.00     0.049 A 
ATOM     65  H   UNL     1       3.511  10.047  11.000  1.00  0.00     0.167 HD
ATOM     66  C   UNL     1       2.727  12.760  10.696  1.00  0.00     0.074 A 
ATOM     67  C   UNL     1       2.431  14.042  10.087  1.00  0.00     0.031 C 
ATOM     68  C   UNL     1       2.629  12.503  12.024  1.00  0.00     0.037 A 
BRANCH  55  69
ATOM     69  C   UNL     1       4.055   6.683  13.574  1.00  0.00     0.064 A 
ATOM     70  C   UNL     1       5.277   6.134  13.994  1.00  0.00     0.173 A 
ATOM     71  C   UNL     1       2.887   6.243  14.216  1.00  0.00     0.173 A 
ATOM     72  F   UNL     1       6.424   6.514  13.412  1.00  0.00    -0.203 F 
ATOM     73  C   UNL     1       5.324   5.161  14.990  1.00  0.00     0.198 A 
ATOM     74  C   UNL     1       2.941   5.294  15.234  1.00  0.00     0.198 A 
ATOM     75  F   UNL     1       1.692   6.739  13.862  1.00  0.00    -0.203 F 
ATOM     76  F   UNL     1       6.498   4.616  15.338  1.00  0.00    -0.200 F 
ATOM     77  C   UNL     1       4.157   4.747  15.614  1.00  0.00     0.200 A 
ATOM     78  F   UNL     1       1.814   4.907  15.848  1.00  0.00    -0.200 F 
ATOM     79  F   UNL     1       4.204   3.817  16.578  1.00  0.00    -0.200 F 
ENDBRANCH  55  69
BRANCH  56  80
ATOM     80  C   UNL     1       3.244  13.200   6.038  1.00  0.00     0.064 A 
ATOM     81  C   UNL     1       4.105  14.304   5.963  1.00  0.00     0.173 A 
ATOM     82  C   UNL     1       2.292  13.044   5.020  1.00  0.00     0.173 A 
ATOM     83  F   UNL     1       5.022  14.503   6.921  1.00  0.00    -0.203 F 
ATOM     84  C   UNL     1       4.006  15.226   4.925  1.00  0.00     0.198 A 
ATOM     85  C   UNL     1       2.213  13.952   3.966  1.00  0.00     0.198 A 
ATOM     86  F   UNL     1       1.453  11.999   5.039  1.00  0.00    -0.203 F 
ATOM     87  F   UNL     1       4.814  16.295   4.901  1.00  0.00    -0.200 F 
ATOM     88  C   UNL     1       3.064  15.047   3.923  1.00  0.00     0.200 A 
ATOM     89  F   UNL     1       1.313  13.765   2.990  1.00  0.00    -0.200 F 
ATOM     90  F   UNL     1       2.973  15.930   2.920  1.00  0.00    -0.200 F 
ENDBRANCH  56  80
BRANCH  68  91
ATOM     91  C   UNL     1       2.207  13.646  12.904  1.00  0.00     0.064 A 
ATOM     92  C   UNL     1       0.909  14.177  12.854  1.00  0.00     0.173 A 
ATOM     93  C   UNL     1       3.118  14.226  13.800  1.00  0.00     0.173 A 
ATOM     94  F   UNL     1       0.004  13.669  12.004  1.00  0.00    -0.203 F 
ATOM     95  C   UNL     1       0.554  15.277  13.630  1.00  0.00     0.198 A 
ATOM     96  C   UNL     1       2.748  15.303  14.602  1.00  0.00     0.198 A 
ATOM     97  F   UNL     1       4.369  13.754  13.896  1.00  0.00    -0.203 F 
ATOM     98  F   UNL     1      -0.668  15.815  13.507  1.00  0.00    -0.200 F 
ATOM     99  C   UNL     1       1.472  15.837  14.505  1.00  0.00     0.200 A 
ATOM    100  F   UNL     1       3.632  15.833  15.458  1.00  0.00    -0.200 F 
ATOM    101  F   UNL     1       1.132  16.901  15.246  1.00  0.00    -0.200 F 
ENDBRANCH  68  91
ENDBRANCH  42  43
ENDBRANCH  34  37
ENDBRANCH  32  33
ENDBRANCH  31  32
ENDBRANCH   1  31
TORSDOF 15
