REMARK SMILES C=C[C@@H]1[C@@H](O)C[C@H]2[C@]3(CC[C@]4(C)[C@@H]([C@H](C)CCC=C(C)C)CC[C@]24C)C[C@]13CCC(=O)NCCCCNC(=O)c1ccc(-c2c3nc(c(-c4c(F)c(F)c(F)c(F)c4F)c4ccc([nH]4)c(-c4c(F)c(F)c(F)c(F)c4F)c4nc(c(-c5c(F)c(F)c(F)c(F)c5F)c5ccc2[nH]5)C=C4)C=C3)cc1
REMARK SMILES IDX 30 1 31 2 32 3 29 5 28 6 27 7 3 8 4 9 6 10 8 11 26 12 7 13
REMARK SMILES IDX 9 14 24 15 10 16 11 17 23 18 25 19 13 20 12 21 22 22 2 23
REMARK SMILES IDX 1 24 5 25 14 27 15 28 16 29 17 30 18 31 19 32 20 33 21 34
REMARK SMILES IDX 33 35 34 36 35 37 36 38 37 39 38 40 39 42 40 43 41 44 102 45
REMARK SMILES IDX 42 46 101 47 43 48 44 49 45 50 95 51 46 52 100 53 94 54
REMARK SMILES IDX 96 55 47 56 99 57 93 58 92 59 48 61 80 62 60 63 79 64 61 65
REMARK SMILES IDX 64 66 78 67 97 68 62 69 63 70 77 72 98 73 65 74 49 75 50 76
REMARK SMILES IDX 58 77 51 78 52 79 56 80 59 81 53 82 54 83 57 84 55 85 81 86
REMARK SMILES IDX 82 87 90 88 83 89 84 90 88 91 91 92 85 93 86 94 89 95 87 96
REMARK SMILES IDX 66 97 67 98 75 99 68 100 69 101 73 102 76 103 70 104 71 105
REMARK SMILES IDX 74 106 72 107
REMARK H PARENT 32 4 5 26 37 41 96 60 64 71
REMARK Flexibility Score: inf
ROOT
ATOM      1  C   UNL     1       0.692  -0.099  -4.832  1.00  0.00     0.220 C 
ATOM      2  O   UNL     1       0.087   0.329  -5.819  1.00  0.00    -0.275 OA
ATOM      3  N   UNL     1       1.518  -1.172  -5.028  1.00  0.00    -0.356 N 
ATOM      4  H   UNL     1       1.620  -1.430  -5.972  1.00  0.00     0.163 HD
ENDROOT
BRANCH   1   5
ATOM      5  C   UNL     1       0.536   0.585  -3.473  1.00  0.00     0.100 C 
BRANCH   5   6
ATOM      6  C   UNL     1      -0.926   0.696  -2.960  1.00  0.00     0.018 C 
BRANCH   6   7
ATOM      7  C   UNL     1      -1.401  -0.359  -1.908  1.00  0.00    -0.014 C 
ATOM      8  C   UNL     1      -1.707   0.217  -0.509  1.00  0.00     0.047 C 
ATOM      9  C   UNL     1      -2.704  -0.654   0.330  1.00  0.00     0.122 C 
ATOM     10  C   UNL     1      -2.973  -2.100  -0.125  1.00  0.00     0.037 C 
ATOM     11  C   UNL     1      -2.035  -1.671  -2.431  1.00  0.00    -0.019 C 
ATOM     12  C   UNL     1      -0.662  -1.661  -1.823  1.00  0.00     0.016 C 
ATOM     13  C   UNL     1      -3.206  -2.260  -1.649  1.00  0.00     0.005 C 
ATOM     14  C   UNL     1      -2.161  -1.871  -3.923  1.00  0.00     0.008 C 
ATOM     15  C   UNL     1      -3.541  -3.767  -2.098  1.00  0.00    -0.023 C 
ATOM     16  C   UNL     1      -2.308  -3.338  -4.275  1.00  0.00     0.008 C 
ATOM     17  C   UNL     1      -3.554  -3.983  -3.678  1.00  0.00    -0.024 C 
ATOM     18  C   UNL     1      -5.019  -4.083  -1.746  1.00  0.00     0.008 C 
ATOM     19  C   UNL     1      -2.584  -4.764  -1.397  1.00  0.00     0.012 C 
ATOM     20  C   UNL     1      -4.886  -3.309  -4.104  1.00  0.00    -0.002 C 
ATOM     21  C   UNL     1      -3.575  -5.485  -4.057  1.00  0.00     0.012 C 
ATOM     22  C   UNL     1      -5.857  -3.816  -3.014  1.00  0.00     0.005 C 
BRANCH   8  23
ATOM     23  C   UNL     1      -0.384   0.556   0.197  1.00  0.00    -0.028 C 
ATOM     24  C   UNL     1      -0.146   0.758   1.499  1.00  0.00     0.004 C 
ENDBRANCH   8  23
BRANCH   9  25
ATOM     25  O   UNL     1      -3.966   0.027   0.405  1.00  0.00    -0.392 OA
ATOM     26  H   UNL     1      -4.355   0.085  -0.482  1.00  0.00     0.210 HD
ENDBRANCH   9  25
BRANCH  20  27
ATOM     27  C   UNL     1      -5.444  -3.334  -5.577  1.00  0.00    -0.010 C 
ATOM     28  C   UNL     1      -6.594  -4.308  -5.843  1.00  0.00     0.008 C 
BRANCH  27  29
ATOM     29  C   UNL     1      -4.497  -3.164  -6.806  1.00  0.00     0.008 C 
BRANCH  29  30
ATOM     30  C   UNL     1      -3.672  -4.284  -7.497  1.00  0.00     0.027 C 
BRANCH  30  31
ATOM     31  C   UNL     1      -4.119  -5.717  -7.444  1.00  0.00    -0.028 C 
ATOM     32  C   UNL     1      -3.307  -6.795  -7.389  1.00  0.00    -0.080 C 
ATOM     33  C   UNL     1      -3.864  -8.172  -7.143  1.00  0.00     0.039 C 
ATOM     34  C   UNL     1      -1.810  -6.745  -7.539  1.00  0.00     0.039 C 
ENDBRANCH  30  31
ENDBRANCH  29  30
ENDBRANCH  27  29
ENDBRANCH  20  27
ENDBRANCH   6   7
ENDBRANCH   5   6
ENDBRANCH   1   5
BRANCH   3  35
ATOM     35  C   UNL     1       2.275  -2.005  -4.100  1.00  0.00     0.116 C 
BRANCH  35  36
ATOM     36  C   UNL     1       1.404  -3.124  -3.533  1.00  0.00     0.023 C 
BRANCH  36  37
ATOM     37  C   UNL     1       1.581  -4.547  -4.009  1.00  0.00     0.023 C 
BRANCH  37  38
ATOM     38  C   UNL     1       2.278  -5.405  -2.971  1.00  0.00     0.116 C 
BRANCH  38  39
ATOM     39  N   UNL     1       1.600  -5.530  -1.674  1.00  0.00    -0.352 N 
ATOM     40  C   UNL     1       1.661  -6.577  -0.773  1.00  0.00     0.251 C 
ATOM     41  H   UNL     1       1.029  -4.771  -1.413  1.00  0.00     0.163 HD
ATOM     42  O   UNL     1       1.049  -6.540   0.290  1.00  0.00    -0.269 OA
BRANCH  40  43
ATOM     43  C   UNL     1       2.418  -7.786  -1.161  1.00  0.00     0.039 A 
ATOM     44  C   UNL     1       1.812  -9.040  -1.070  1.00  0.00     0.014 A 
ATOM     45  C   UNL     1       3.643  -7.641  -1.801  1.00  0.00     0.014 A 
ATOM     46  C   UNL     1       2.380 -10.122  -1.748  1.00  0.00     0.010 A 
ATOM     47  C   UNL     1       4.085  -8.654  -2.628  1.00  0.00     0.010 A 
ATOM     48  C   UNL     1       3.481  -9.919  -2.595  1.00  0.00    -0.014 A 
BRANCH  48  49
ATOM     49  C   UNL     1       4.066 -10.998  -3.433  1.00  0.00     0.031 A 
ATOM     50  C   UNL     1       5.549 -11.264  -3.354  1.00  0.00     0.074 A 
ATOM     51  C   UNL     1       3.316 -11.638  -4.352  1.00  0.00     0.049 A 
ATOM     52  N   UNL     1       6.306 -11.999  -4.126  1.00  0.00    -0.248 NA
ATOM     53  C   UNL     1       6.296 -10.525  -2.321  1.00  0.00     0.031 C 
ATOM     54  C   UNL     1       1.896 -11.396  -4.619  1.00  0.00     0.029 A 
ATOM     55  N   UNL     1       3.655 -12.621  -5.247  1.00  0.00    -0.354 N 
ATOM     56  C   UNL     1       7.610 -11.739  -3.723  1.00  0.00     0.074 A 
ATOM     57  C   UNL     1       7.546 -10.713  -2.710  1.00  0.00     0.031 C 
ATOM     58  C   UNL     1       1.476 -12.242  -5.573  1.00  0.00     0.029 A 
ATOM     59  C   UNL     1       2.601 -13.062  -6.010  1.00  0.00     0.049 A 
ATOM     60  H   UNL     1       4.569 -12.978  -5.334  1.00  0.00     0.167 HD
ATOM     61  C   UNL     1       8.757 -12.338  -4.121  1.00  0.00     0.037 A 
ATOM     62  C   UNL     1       2.553 -14.030  -6.944  1.00  0.00     0.037 A 
ATOM     63  C   UNL     1       8.793 -13.448  -5.031  1.00  0.00     0.049 A 
ATOM     64  C   UNL     1       3.807 -14.800  -7.255  1.00  0.00     0.074 A 
ATOM     65  C   UNL     1       9.871 -14.226  -5.407  1.00  0.00     0.029 A 
ATOM     66  N   UNL     1       7.679 -13.956  -5.685  1.00  0.00    -0.354 N 
ATOM     67  N   UNL     1       5.026 -14.609  -6.810  1.00  0.00    -0.248 NA
ATOM     68  C   UNL     1       3.678 -15.932  -8.182  1.00  0.00     0.031 C 
ATOM     69  C   UNL     1       9.412 -15.198  -6.303  1.00  0.00     0.029 A 
ATOM     70  C   UNL     1       8.043 -15.045  -6.458  1.00  0.00     0.049 A 
ATOM     71  H   UNL     1       6.766 -13.596  -5.611  1.00  0.00     0.167 HD
ATOM     72  C   UNL     1       5.803 -15.607  -7.379  1.00  0.00     0.074 A 
ATOM     73  C   UNL     1       4.913 -16.413  -8.192  1.00  0.00     0.031 C 
ATOM     74  C   UNL     1       7.132 -15.838  -7.244  1.00  0.00     0.037 A 
BRANCH  61  75
ATOM     75  C   UNL     1      10.043 -11.822  -3.539  1.00  0.00     0.064 A 
ATOM     76  C   UNL     1      10.339 -11.940  -2.170  1.00  0.00     0.173 A 
ATOM     77  C   UNL     1      10.978 -11.167  -4.353  1.00  0.00     0.173 A 
ATOM     78  F   UNL     1       9.473 -12.544  -1.342  1.00  0.00    -0.203 F 
ATOM     79  C   UNL     1      11.486 -11.365  -1.630  1.00  0.00     0.198 A 
ATOM     80  C   UNL     1      12.146 -10.630  -3.816  1.00  0.00     0.198 A 
ATOM     81  F   UNL     1      10.754 -11.031  -5.669  1.00  0.00    -0.203 F 
ATOM     82  F   UNL     1      11.695 -11.410  -0.307  1.00  0.00    -0.200 F 
ATOM     83  C   UNL     1      12.390 -10.714  -2.454  1.00  0.00     0.200 A 
ATOM     84  F   UNL     1      13.027 -10.012  -4.615  1.00  0.00    -0.200 F 
ATOM     85  F   UNL     1      13.489 -10.152  -1.931  1.00  0.00    -0.200 F 
ENDBRANCH  61  75
BRANCH  62  86
ATOM     86  C   UNL     1       1.255 -14.376  -7.579  1.00  0.00     0.064 A 
ATOM     87  C   UNL     1       0.576 -15.550  -7.220  1.00  0.00     0.173 A 
ATOM     88  C   UNL     1       0.649 -13.535  -8.522  1.00  0.00     0.173 A 
ATOM     89  F   UNL     1       1.123 -16.393  -6.331  1.00  0.00    -0.203 F 
ATOM     90  C   UNL     1      -0.652 -15.876  -7.790  1.00  0.00     0.198 A 
ATOM     91  C   UNL     1      -0.591 -13.851  -9.076  1.00  0.00     0.198 A 
ATOM     92  F   UNL     1       1.252 -12.395  -8.890  1.00  0.00    -0.203 F 
ATOM     93  F   UNL     1      -1.264 -17.019  -7.450  1.00  0.00    -0.200 F 
ATOM     94  C   UNL     1      -1.238 -15.023  -8.713  1.00  0.00     0.200 A 
ATOM     95  F   UNL     1      -1.162 -13.018  -9.956  1.00  0.00    -0.200 F 
ATOM     96  F   UNL     1      -2.425 -15.332  -9.253  1.00  0.00    -0.200 F 
ENDBRANCH  62  86
BRANCH  74  97
ATOM     97  C   UNL     1       7.698 -17.026  -7.959  1.00  0.00     0.064 A 
ATOM     98  C   UNL     1       7.882 -17.027  -9.349  1.00  0.00     0.173 A 
ATOM     99  C   UNL     1       8.110 -18.156  -7.236  1.00  0.00     0.173 A 
ATOM    100  F   UNL     1       7.492 -15.974 -10.082  1.00  0.00    -0.203 F 
ATOM    101  C   UNL     1       8.440 -18.128  -9.993  1.00  0.00     0.198 A 
ATOM    102  C   UNL     1       8.692 -19.243  -7.880  1.00  0.00     0.198 A 
ATOM    103  F   UNL     1       7.962 -18.197  -5.904  1.00  0.00    -0.203 F 
ATOM    104  F   UNL     1       8.570 -18.125 -11.326  1.00  0.00    -0.200 F 
ATOM    105  C   UNL     1       8.851 -19.230  -9.258  1.00  0.00     0.200 A 
ATOM    106  F   UNL     1       9.101 -20.302  -7.168  1.00  0.00    -0.200 F 
ATOM    107  F   UNL     1       9.396 -20.285  -9.880  1.00  0.00    -0.200 F 
ENDBRANCH  74  97
ENDBRANCH  48  49
ENDBRANCH  40  43
ENDBRANCH  38  39
ENDBRANCH  37  38
ENDBRANCH  36  37
ENDBRANCH  35  36
ENDBRANCH   3  35
TORSDOF 19
