REMARK SMILES CC(C)(C)OC(=O)[C@@H]1[NH2+][C@H](C(=O)NCCCCNC(=O)c2ccc(-c3c4nc(c(-c5c(F)c(F)c(F)c(F)c5F)c5ccc([nH]5)c(-c5c(F)c(F)c(F)c(F)c5F)c5nc(c(-c6c(F)c(F)c(F)c(F)c6F)c6ccc3[nH]6)C=C5)C=C4)cc2)C(C)(C)S1
REMARK SMILES IDX 15 1 14 2 13 3 11 4 12 5 10 7 8 8 9 9 87 10 84 13 85 14
REMARK SMILES IDX 86 15 6 16 7 17 5 18 2 19 1 20 3 21 4 22 16 23 17 24 18 25
REMARK SMILES IDX 19 26 20 28 21 29 22 30 83 31 23 32 82 33 24 34 25 35 26 36
REMARK SMILES IDX 76 37 27 38 81 39 75 40 77 41 28 42 80 43 74 44 73 45 29 47
REMARK SMILES IDX 61 48 41 49 60 50 42 51 45 52 59 53 78 54 43 55 44 56 58 58
REMARK SMILES IDX 79 59 46 60 30 61 31 62 39 63 32 64 33 65 37 66 40 67 34 68
REMARK SMILES IDX 35 69 38 70 36 71 62 72 63 73 71 74 64 75 65 76 69 77 72 78
REMARK SMILES IDX 66 79 67 80 70 81 68 82 47 83 48 84 56 85 49 86 50 87 54 88
REMARK SMILES IDX 57 89 51 90 52 91 55 92 53 93
REMARK H PARENT 13 6 9 11 9 12 18 27 77 46 45 57
REMARK Flexibility Score: inf
ROOT
ATOM      1  C   UNL     1       3.483  10.019   3.075  1.00  0.00     0.023 C 
ENDROOT
BRANCH   1   2
ATOM      2  C   UNL     1       3.578   8.646   2.405  1.00  0.00     0.116 C 
BRANCH   2   3
ATOM      3  N   UNL     1       3.456   7.601   3.400  1.00  0.00    -0.351 N 
ATOM      4  C   UNL     1       2.341   6.908   3.778  1.00  0.00     0.279 C 
ATOM      5  O   UNL     1       2.388   6.338   4.866  1.00  0.00    -0.268 OA
ATOM      6  H   UNL     1       4.289   7.358   3.865  1.00  0.00     0.163 HD
BRANCH   4   7
ATOM      7  C   UNL     1       1.131   6.849   2.815  1.00  0.00     0.289 C 
ATOM      8  C   UNL     1       1.108   4.530   2.154  1.00  0.00     0.354 C 
ATOM      9  N   UNL     1       1.449   5.906   1.699  1.00  0.00    -0.314 N 
ATOM     10  S   UNL     1      -0.186   4.625   3.422  1.00  0.00    -0.074 SA
ATOM     11  H   UNL     1       0.898   6.145   0.875  1.00  0.00     0.348 HD
ATOM     12  H   UNL     1       2.437   5.965   1.454  1.00  0.00     0.348 HD
ATOM     13  C   UNL     1      -0.231   6.447   3.419  1.00  0.00     0.078 C 
ATOM     14  C   UNL     1      -1.376   6.889   2.482  1.00  0.00     0.030 C 
ATOM     15  C   UNL     1      -0.507   7.012   4.813  1.00  0.00     0.030 C 
BRANCH   8  16
ATOM     16  C   UNL     1       2.368   3.729   2.538  1.00  0.00     0.376 C 
ATOM     17  O   UNL     1       3.089   3.205   1.691  1.00  0.00    -0.244 OA
BRANCH  16  18
ATOM     18  O   UNL     1       2.624   3.727   3.871  1.00  0.00    -0.455 OA
BRANCH  18  19
ATOM     19  C   UNL     1       3.857   3.179   4.405  1.00  0.00     0.104 C 
ATOM     20  C   UNL     1       3.810   3.461   5.916  1.00  0.00     0.056 C 
ATOM     21  C   UNL     1       5.086   3.889   3.823  1.00  0.00     0.056 C 
ATOM     22  C   UNL     1       3.922   1.663   4.199  1.00  0.00     0.056 C 
ENDBRANCH  18  19
ENDBRANCH  16  18
ENDBRANCH   8  16
ENDBRANCH   4   7
ENDBRANCH   2   3
ENDBRANCH   1   2
BRANCH   1  23
ATOM     23  C   UNL     1       4.575  10.285   4.120  1.00  0.00     0.023 C 
BRANCH  23  24
ATOM     24  C   UNL     1       6.004  10.111   3.618  1.00  0.00     0.116 C 
BRANCH  24  25
ATOM     25  N   UNL     1       6.324  11.014   2.524  1.00  0.00    -0.352 N 
ATOM     26  C   UNL     1       7.434  11.803   2.351  1.00  0.00     0.251 C 
ATOM     27  H   UNL     1       5.651  11.067   1.807  1.00  0.00     0.163 HD
ATOM     28  O   UNL     1       7.470  12.628   1.442  1.00  0.00    -0.269 OA
BRANCH  26  29
ATOM     29  C   UNL     1       8.574  11.680   3.283  1.00  0.00     0.039 A 
ATOM     30  C   UNL     1       9.148  12.843   3.803  1.00  0.00     0.014 A 
ATOM     31  C   UNL     1       9.068  10.426   3.651  1.00  0.00     0.014 A 
ATOM     32  C   UNL     1      10.175  12.746   4.745  1.00  0.00     0.010 A 
ATOM     33  C   UNL     1      10.040  10.330   4.643  1.00  0.00     0.010 A 
ATOM     34  C   UNL     1      10.603  11.488   5.201  1.00  0.00    -0.014 A 
BRANCH  34  35
ATOM     35  C   UNL     1      11.636  11.360   6.262  1.00  0.00     0.031 A 
ATOM     36  C   UNL     1      12.949  10.693   5.958  1.00  0.00     0.074 A 
ATOM     37  C   UNL     1      11.367  11.785   7.513  1.00  0.00     0.049 A 
ATOM     38  N   UNL     1      13.935  10.396   6.767  1.00  0.00    -0.248 NA
ATOM     39  C   UNL     1      13.175  10.284   4.562  1.00  0.00     0.031 C 
ATOM     40  C   UNL     1      10.120  12.419   7.942  1.00  0.00     0.029 A 
ATOM     41  N   UNL     1      12.122  11.733   8.659  1.00  0.00    -0.354 N 
ATOM     42  C   UNL     1      14.889   9.761   5.983  1.00  0.00     0.074 A 
ATOM     43  C   UNL     1      14.343   9.665   4.647  1.00  0.00     0.031 C 
ATOM     44  C   UNL     1      10.201  12.713   9.249  1.00  0.00     0.029 A 
ATOM     45  C   UNL     1      11.485  12.246   9.763  1.00  0.00     0.049 A 
ATOM     46  H   UNL     1      13.034  11.363   8.686  1.00  0.00     0.167 HD
ATOM     47  C   UNL     1      16.119   9.321   6.340  1.00  0.00     0.037 A 
ATOM     48  C   UNL     1      11.885  12.315  11.048  1.00  0.00     0.037 A 
ATOM     49  C   UNL     1      16.665   9.433   7.667  1.00  0.00     0.049 A 
ATOM     50  C   UNL     1      13.243  11.781  11.423  1.00  0.00     0.074 A 
ATOM     51  C   UNL     1      17.915   9.047   8.120  1.00  0.00     0.029 A 
ATOM     52  N   UNL     1      15.994   9.971   8.755  1.00  0.00    -0.354 N 
ATOM     53  N   UNL     1      14.158  11.232  10.661  1.00  0.00    -0.248 NA
ATOM     54  C   UNL     1      13.628  11.883  12.838  1.00  0.00     0.031 C 
ATOM     55  C   UNL     1      17.982   9.305   9.492  1.00  0.00     0.029 A 
ATOM     56  C   UNL     1      16.798   9.911   9.882  1.00  0.00     0.049 A 
ATOM     57  H   UNL     1      15.082  10.341   8.730  1.00  0.00     0.167 HD
ATOM     58  C   UNL     1      15.238  10.966  11.492  1.00  0.00     0.074 A 
ATOM     59  C   UNL     1      14.869  11.421  12.816  1.00  0.00     0.031 C 
ATOM     60  C   UNL     1      16.429  10.396  11.187  1.00  0.00     0.037 A 
BRANCH  47  61
ATOM     61  C   UNL     1      16.969   8.684   5.279  1.00  0.00     0.064 A 
ATOM     62  C   UNL     1      17.519   9.436   4.230  1.00  0.00     0.173 A 
ATOM     63  C   UNL     1      17.291   7.319   5.346  1.00  0.00     0.173 A 
ATOM     64  F   UNL     1      17.235  10.742   4.114  1.00  0.00    -0.203 F 
ATOM     65  C   UNL     1      18.341   8.842   3.276  1.00  0.00     0.198 A 
ATOM     66  C   UNL     1      18.139   6.736   4.409  1.00  0.00     0.198 A 
ATOM     67  F   UNL     1      16.798   6.555   6.332  1.00  0.00    -0.203 F 
ATOM     68  F   UNL     1      18.821   9.572   2.259  1.00  0.00    -0.200 F 
ATOM     69  C   UNL     1      18.659   7.495   3.372  1.00  0.00     0.200 A 
ATOM     70  F   UNL     1      18.459   5.438   4.513  1.00  0.00    -0.200 F 
ATOM     71  F   UNL     1      19.464   6.929   2.462  1.00  0.00    -0.200 F 
ENDBRANCH  47  61
BRANCH  48  72
ATOM     72  C   UNL     1      10.999  12.917  12.081  1.00  0.00     0.064 A 
ATOM     73  C   UNL     1      11.355  14.107  12.731  1.00  0.00     0.173 A 
ATOM     74  C   UNL     1       9.802  12.297  12.470  1.00  0.00     0.173 A 
ATOM     75  F   UNL     1      12.500  14.728  12.410  1.00  0.00    -0.203 F 
ATOM     76  C   UNL     1      10.569  14.634  13.755  1.00  0.00     0.198 A 
ATOM     77  C   UNL     1       8.999  12.844  13.469  1.00  0.00     0.198 A 
ATOM     78  F   UNL     1       9.410  11.160  11.877  1.00  0.00    -0.203 F 
ATOM     79  F   UNL     1      10.970  15.736  14.403  1.00  0.00    -0.200 F 
ATOM     80  C   UNL     1       9.390  14.004  14.120  1.00  0.00     0.200 A 
ATOM     81  F   UNL     1       7.851  12.240  13.808  1.00  0.00    -0.200 F 
ATOM     82  F   UNL     1       8.637  14.507  15.108  1.00  0.00    -0.200 F 
ENDBRANCH  48  72
BRANCH  60  83
ATOM     83  C   UNL     1      17.452  10.294  12.281  1.00  0.00     0.064 A 
ATOM     84  C   UNL     1      17.308   9.401  13.353  1.00  0.00     0.173 A 
ATOM     85  C   UNL     1      18.621  11.070  12.226  1.00  0.00     0.173 A 
ATOM     86  F   UNL     1      16.203   8.647  13.460  1.00  0.00    -0.203 F 
ATOM     87  C   UNL     1      18.284   9.308  14.342  1.00  0.00     0.198 A 
ATOM     88  C   UNL     1      19.610  10.949  13.198  1.00  0.00     0.198 A 
ATOM     89  F   UNL     1      18.812  11.934  11.218  1.00  0.00    -0.203 F 
ATOM     90  F   UNL     1      18.102   8.483  15.383  1.00  0.00    -0.200 F 
ATOM     91  C   UNL     1      19.437  10.074  14.259  1.00  0.00     0.200 A 
ATOM     92  F   UNL     1      20.731  11.677  13.106  1.00  0.00    -0.200 F 
ATOM     93  F   UNL     1      20.380   9.972  15.206  1.00  0.00    -0.200 F 
ENDBRANCH  60  83
ENDBRANCH  34  35
ENDBRANCH  26  29
ENDBRANCH  24  25
ENDBRANCH  23  24
ENDBRANCH   1  23
TORSDOF 14
