REMARK SMILES CC1(C)CCC[C@]1([NH2+]Cc1cccs1)C(=O)NCCCCNC(=O)c1ccc(-c2c3nc(c(-c4c(F)c(F)c(F)c(F)c4F)c4ccc([nH]4)c(-c4c(F)c(F)c(F)c(F)c4F)c4nc(c(-c5c(F)c(F)c(F)c(F)c5F)c5ccc2[nH]5)C=C4)C=C3)cc1
REMARK SMILES IDX 19 1 18 2 17 3 15 4 16 5 7 7 1 8 2 9 3 10 4 11 5 12 6 13
REMARK SMILES IDX 8 14 9 17 10 18 11 19 14 20 12 21 13 22 20 23 21 24 22 25
REMARK SMILES IDX 23 26 24 28 25 29 26 30 87 31 27 32 86 33 28 34 29 35 30 36
REMARK SMILES IDX 80 37 31 38 85 39 79 40 81 41 32 42 84 43 78 44 77 45 33 47
REMARK SMILES IDX 65 48 45 49 64 50 46 51 49 52 63 53 82 54 47 55 48 56 62 58
REMARK SMILES IDX 83 59 50 60 34 61 35 62 43 63 36 64 37 65 41 66 44 67 38 68
REMARK SMILES IDX 39 69 42 70 40 71 66 72 67 73 75 74 68 75 69 76 73 77 76 78
REMARK SMILES IDX 70 79 71 80 74 81 72 82 51 83 52 84 60 85 53 86 54 87 58 88
REMARK SMILES IDX 61 89 55 90 56 91 59 92 57 93
REMARK H PARENT 17 6 8 15 8 16 22 27 81 46 49 57
REMARK Flexibility Score: inf
ROOT
ATOM      1  C   UNL     1       3.748   2.031  -0.015  1.00  0.00     0.023 C 
ENDROOT
BRANCH   1   2
ATOM      2  C   UNL     1       2.489   2.581   0.657  1.00  0.00     0.116 C 
BRANCH   2   3
ATOM      3  N   UNL     1       1.478   2.887  -0.326  1.00  0.00    -0.351 N 
ATOM      4  C   UNL     1       0.325   2.253  -0.664  1.00  0.00     0.281 C 
ATOM      5  O   UNL     1      -0.298   2.784  -1.593  1.00  0.00    -0.268 OA
ATOM      6  H   UNL     1       1.655   3.705  -0.845  1.00  0.00     0.163 HD
BRANCH   4   7
ATOM      7  C   UNL     1      -0.233   0.984   0.078  1.00  0.00     0.180 C 
ATOM      8  C   UNL     1       1.720  -0.682   0.868  1.00  0.00     0.018 C 
ATOM      9  C   UNL     1       0.569  -0.374  -0.109  1.00  0.00     0.029 C 
ATOM     10  C   UNL     1       1.102  -0.545  -1.550  1.00  0.00     0.018 C 
ATOM     11  C   UNL     1      -0.515  -1.455   0.158  1.00  0.00     0.014 C 
ATOM     12  C   UNL     1      -1.841  -0.874  -0.302  1.00  0.00     0.008 C 
ATOM     13  C   UNL     1      -1.562   0.582  -0.634  1.00  0.00     0.080 C 
BRANCH   7  14
ATOM     14  N   UNL     1      -0.421   1.261   1.532  1.00  0.00    -0.329 N 
ATOM     15  H   UNL     1       0.506   1.373   1.942  1.00  0.00     0.347 HD
ATOM     16  H   UNL     1      -0.964   0.469   1.875  1.00  0.00     0.347 HD
BRANCH  14  17
ATOM     17  C   UNL     1      -1.211   2.439   1.911  1.00  0.00     0.309 C 
BRANCH  17  18
ATOM     18  C   UNL     1      -2.694   2.196   1.928  1.00  0.00     0.059 A 
ATOM     19  C   UNL     1      -3.401   1.119   2.433  1.00  0.00     0.021 A 
ATOM     20  S   UNL     1      -3.755   3.372   1.261  1.00  0.00    -0.143 S 
ATOM     21  C   UNL     1      -4.797   1.208   2.163  1.00  0.00     0.012 A 
ATOM     22  C   UNL     1      -5.122   2.381   1.521  1.00  0.00     0.065 A 
ENDBRANCH  17  18
ENDBRANCH  14  17
ENDBRANCH   7  14
ENDBRANCH   4   7
ENDBRANCH   2   3
ENDBRANCH   1   2
BRANCH   1  23
ATOM     23  C   UNL     1       4.522   3.032  -0.868  1.00  0.00     0.023 C 
BRANCH  23  24
ATOM     24  C   UNL     1       5.056   4.233  -0.108  1.00  0.00     0.116 C 
BRANCH  24  25
ATOM     25  N   UNL     1       5.960   3.874   0.977  1.00  0.00    -0.352 N 
ATOM     26  C   UNL     1       7.119   4.510   1.357  1.00  0.00     0.251 C 
ATOM     27  H   UNL     1       5.710   3.080   1.502  1.00  0.00     0.163 HD
ATOM     28  O   UNL     1       7.841   4.051   2.229  1.00  0.00    -0.269 OA
BRANCH  26  29
ATOM     29  C   UNL     1       7.494   5.749   0.649  1.00  0.00     0.039 A 
ATOM     30  C   UNL     1       8.736   5.819   0.015  1.00  0.00     0.014 A 
ATOM     31  C   UNL     1       6.563   6.782   0.523  1.00  0.00     0.014 A 
ATOM     32  C   UNL     1       9.014   6.899  -0.824  1.00  0.00     0.010 A 
ATOM     33  C   UNL     1       6.811   7.814  -0.371  1.00  0.00     0.010 A 
ATOM     34  C   UNL     1       8.035   7.877  -1.059  1.00  0.00    -0.014 A 
BRANCH  34  35
ATOM     35  C   UNL     1       8.247   8.989  -2.016  1.00  0.00     0.031 A 
ATOM     36  C   UNL     1       8.236  10.403  -1.513  1.00  0.00     0.074 A 
ATOM     37  C   UNL     1       8.328   8.735  -3.336  1.00  0.00     0.049 A 
ATOM     38  N   UNL     1       8.208  11.523  -2.187  1.00  0.00    -0.248 NA
ATOM     39  C   UNL     1       8.210  10.576  -0.052  1.00  0.00     0.031 C 
ATOM     40  C   UNL     1       8.310   7.406  -3.950  1.00  0.00     0.029 A 
ATOM     41  N   UNL     1       8.417   9.592  -4.404  1.00  0.00    -0.354 N 
ATOM     42  C   UNL     1       8.114  12.529  -1.234  1.00  0.00     0.074 A 
ATOM     43  C   UNL     1       8.058  11.887   0.061  1.00  0.00     0.031 C 
ATOM     44  C   UNL     1       8.403   7.536  -5.283  1.00  0.00     0.029 A 
ATOM     45  C   UNL     1       8.441   8.955  -5.621  1.00  0.00     0.049 A 
ATOM     46  H   UNL     1       8.459  10.571  -4.308  1.00  0.00     0.167 HD
ATOM     47  C   UNL     1       8.091  13.868  -1.426  1.00  0.00     0.037 A 
ATOM     48  C   UNL     1       8.475   9.464  -6.867  1.00  0.00     0.037 A 
ATOM     49  C   UNL     1       8.205  14.501  -2.712  1.00  0.00     0.049 A 
ATOM     50  C   UNL     1       8.480  10.957  -7.050  1.00  0.00     0.074 A 
ATOM     51  C   UNL     1       8.273  15.851  -3.007  1.00  0.00     0.029 A 
ATOM     52  N   UNL     1       8.277  13.821  -3.919  1.00  0.00    -0.354 N 
ATOM     53  N   UNL     1       8.440  11.902  -6.143  1.00  0.00    -0.248 NA
ATOM     54  C   UNL     1       8.533  11.455  -8.432  1.00  0.00     0.031 C 
ATOM     55  C   UNL     1       8.359  15.989  -4.397  1.00  0.00     0.029 A 
ATOM     56  C   UNL     1       8.380  14.724  -4.963  1.00  0.00     0.049 A 
ATOM     57  H   UNL     1       8.258  12.842  -4.018  1.00  0.00     0.167 HD
ATOM     58  C   UNL     1       8.496  13.101  -6.838  1.00  0.00     0.074 A 
ATOM     59  C   UNL     1       8.576  12.766  -8.245  1.00  0.00     0.031 C 
ATOM     60  C   UNL     1       8.484  14.367  -6.354  1.00  0.00     0.037 A 
BRANCH  47  61
ATOM     61  C   UNL     1       7.936  14.736  -0.213  1.00  0.00     0.064 A 
ATOM     62  C   UNL     1       8.968  14.883   0.725  1.00  0.00     0.173 A 
ATOM     63  C   UNL     1       6.744  15.443   0.005  1.00  0.00     0.173 A 
ATOM     64  F   UNL     1      10.121  14.215   0.570  1.00  0.00    -0.203 F 
ATOM     65  C   UNL     1       8.802  15.681   1.854  1.00  0.00     0.198 A 
ATOM     66  C   UNL     1       6.592  16.263   1.119  1.00  0.00     0.198 A 
ATOM     67  F   UNL     1       5.727  15.339  -0.864  1.00  0.00    -0.203 F 
ATOM     68  F   UNL     1       9.782  15.764   2.764  1.00  0.00    -0.200 F 
ATOM     69  C   UNL     1       7.617  16.375   2.047  1.00  0.00     0.200 A 
ATOM     70  F   UNL     1       5.449  16.941   1.300  1.00  0.00    -0.200 F 
ATOM     71  F   UNL     1       7.459  17.144   3.132  1.00  0.00    -0.200 F 
ENDBRANCH  47  61
BRANCH  48  72
ATOM     72  C   UNL     1       8.541   8.555  -8.039  1.00  0.00     0.064 A 
ATOM     73  C   UNL     1       9.723   8.437  -8.783  1.00  0.00     0.173 A 
ATOM     74  C   UNL     1       7.437   7.790  -8.441  1.00  0.00     0.173 A 
ATOM     75  F   UNL     1      10.798   9.166  -8.448  1.00  0.00    -0.203 F 
ATOM     76  C   UNL     1       9.795   7.601  -9.895  1.00  0.00     0.198 A 
ATOM     77  C   UNL     1       7.516   6.936  -9.540  1.00  0.00     0.198 A 
ATOM     78  F   UNL     1       6.284   7.865  -7.760  1.00  0.00    -0.203 F 
ATOM     79  F   UNL     1      10.925   7.537 -10.610  1.00  0.00    -0.200 F 
ATOM     80  C   UNL     1       8.693   6.847 -10.269  1.00  0.00     0.200 A 
ATOM     81  F   UNL     1       6.453   6.201  -9.893  1.00  0.00    -0.200 F 
ATOM     82  F   UNL     1       8.762   6.041 -11.337  1.00  0.00    -0.200 F 
ENDBRANCH  48  72
BRANCH  60  83
ATOM     83  C   UNL     1       8.614  15.483  -7.346  1.00  0.00     0.064 A 
ATOM     84  C   UNL     1       7.545  15.866  -8.167  1.00  0.00     0.173 A 
ATOM     85  C   UNL     1       9.809  16.213  -7.433  1.00  0.00     0.173 A 
ATOM     86  F   UNL     1       6.388  15.187  -8.129  1.00  0.00    -0.203 F 
ATOM     87  C   UNL     1       7.673  16.932  -9.053  1.00  0.00     0.198 A 
ATOM     88  C   UNL     1       9.925  17.293  -8.302  1.00  0.00     0.198 A 
ATOM     89  F   UNL     1      10.858  15.887  -6.663  1.00  0.00    -0.203 F 
ATOM     90  F   UNL     1       6.650  17.261  -9.854  1.00  0.00    -0.200 F 
ATOM     91  C   UNL     1       8.859  17.649  -9.114  1.00  0.00     0.200 A 
ATOM     92  F   UNL     1      11.068  17.991  -8.352  1.00  0.00    -0.200 F 
ATOM     93  F   UNL     1       8.976  18.682  -9.960  1.00  0.00    -0.200 F 
ENDBRANCH  60  83
ENDBRANCH  34  35
ENDBRANCH  26  29
ENDBRANCH  24  25
ENDBRANCH  23  24
ENDBRANCH   1  23
TORSDOF 14
