REMARK SMILES O=C(NCCCCNC(=O)[C@H]1CC2(CCN(S(=O)(=O)N3CCOCC3)CC2)C[NH2+]1)c1ccc(-c2c3nc(c(-c4c(F)c(F)c(F)c(F)c4F)c4ccc([nH]4)c(-c4c(F)c(F)c(F)c(F)c4F)c4nc(c(-c5c(F)c(F)c(F)c(F)c5F)c5ccc2[nH]5)C=C4)C=C3)cc1
REMARK SMILES IDX 5 1 4 2 3 3 1 4 2 5 30 7 31 8 92 9 32 10 91 11 33 12 34 13
REMARK SMILES IDX 35 14 85 15 36 16 90 17 84 18 86 19 37 20 89 21 83 22 82 23
REMARK SMILES IDX 38 25 70 26 50 27 69 28 51 29 54 30 68 31 87 32 52 33 53 34
REMARK SMILES IDX 67 36 88 37 55 38 39 39 40 40 48 41 41 42 42 43 46 44 49 45
REMARK SMILES IDX 43 46 44 47 47 48 45 49 71 50 72 51 80 52 73 53 74 54 78 55
REMARK SMILES IDX 81 56 75 57 76 58 79 59 77 60 56 61 57 62 65 63 58 64 59 65
REMARK SMILES IDX 63 66 66 67 60 68 61 69 64 70 62 71 6 72 7 73 8 74 9 75
REMARK SMILES IDX 10 77 11 78 12 79 29 80 13 81 28 82 14 85 27 86 15 87 26 88
REMARK SMILES IDX 16 89 17 90 18 91 19 92 20 93 21 94 25 95 22 96 24 97 23 98
REMARK H PARENT 3 6 86 24 54 35 8 76 29 83 29 84
REMARK Flexibility Score: inf
ROOT
ATOM      1  C   UNL     1       4.047   9.127  -4.663  1.00  0.00     0.023 C 
ENDROOT
BRANCH   1   2
ATOM      2  C   UNL     1       2.619   9.575  -4.400  1.00  0.00     0.116 C 
BRANCH   2   3
ATOM      3  N   UNL     1       2.524  10.966  -3.982  1.00  0.00    -0.352 N 
ATOM      4  O   UNL     1       1.781  13.102  -4.097  1.00  0.00    -0.269 OA
ATOM      5  C   UNL     1       1.662  11.933  -4.444  1.00  0.00     0.251 C 
ATOM      6  H   UNL     1       3.154  11.250  -3.281  1.00  0.00     0.163 HD
BRANCH   5   7
ATOM      7  C   UNL     1       0.604  11.538  -5.395  1.00  0.00     0.039 A 
ATOM      8  C   UNL     1      -0.157  10.394  -5.149  1.00  0.00     0.014 A 
ATOM      9  C   UNL     1       0.416  12.278  -6.564  1.00  0.00     0.014 A 
ATOM     10  C   UNL     1      -0.985   9.896  -6.142  1.00  0.00     0.010 A 
ATOM     11  C   UNL     1      -0.506  11.836  -7.515  1.00  0.00     0.010 A 
ATOM     12  C   UNL     1      -1.194  10.627  -7.323  1.00  0.00    -0.014 A 
BRANCH  12  13
ATOM     13  C   UNL     1      -2.213  10.146  -8.289  1.00  0.00     0.031 A 
ATOM     14  C   UNL     1      -1.846   9.747  -9.688  1.00  0.00     0.074 A 
ATOM     15  C   UNL     1      -3.488  10.050  -7.864  1.00  0.00     0.049 A 
ATOM     16  N   UNL     1      -2.622   9.302 -10.646  1.00  0.00    -0.248 NA
ATOM     17  C   UNL     1      -0.432   9.868 -10.071  1.00  0.00     0.031 C 
ATOM     18  C   UNL     1      -3.957  10.420  -6.525  1.00  0.00     0.029 A 
ATOM     19  N   UNL     1      -4.617   9.601  -8.496  1.00  0.00    -0.354 N 
ATOM     20  C   UNL     1      -1.798   9.105 -11.746  1.00  0.00     0.074 A 
ATOM     21  C   UNL     1      -0.465   9.507 -11.348  1.00  0.00     0.031 C 
ATOM     22  C   UNL     1      -5.261  10.136  -6.420  1.00  0.00     0.029 A 
ATOM     23  C   UNL     1      -5.739   9.646  -7.706  1.00  0.00     0.049 A 
ATOM     24  H   UNL     1      -4.624   9.278  -9.426  1.00  0.00     0.167 HD
ATOM     25  C   UNL     1      -2.128   8.627 -12.970  1.00  0.00     0.037 A 
ATOM     26  C   UNL     1      -7.020   9.354  -7.991  1.00  0.00     0.037 A 
ATOM     27  C   UNL     1      -3.462   8.228 -13.351  1.00  0.00     0.049 A 
ATOM     28  C   UNL     1      -7.360   8.873  -9.371  1.00  0.00     0.074 A 
ATOM     29  C   UNL     1      -3.893   7.700 -14.555  1.00  0.00     0.029 A 
ATOM     30  N   UNL     1      -4.582   8.324 -12.535  1.00  0.00    -0.354 N 
ATOM     31  N   UNL     1      -6.566   8.653 -10.390  1.00  0.00    -0.248 NA
ATOM     32  C   UNL     1      -8.777   8.602  -9.642  1.00  0.00     0.031 C 
ATOM     33  C   UNL     1      -5.281   7.538 -14.492  1.00  0.00     0.029 A 
ATOM     34  C   UNL     1      -5.708   7.896 -13.223  1.00  0.00     0.049 A 
ATOM     35  H   UNL     1      -4.577   8.647 -11.606  1.00  0.00     0.167 HD
ATOM     36  C   UNL     1      -7.380   8.196 -11.415  1.00  0.00     0.074 A 
ATOM     37  C   UNL     1      -8.728   8.147 -10.885  1.00  0.00     0.031 C 
ATOM     38  C   UNL     1      -7.043   7.851 -12.682  1.00  0.00     0.037 A 
BRANCH  25  39
ATOM     39  C   UNL     1      -1.041   8.526 -14.004  1.00  0.00     0.064 A 
ATOM     40  C   UNL     1      -0.003   7.588 -13.900  1.00  0.00     0.173 A 
ATOM     41  C   UNL     1      -1.071   9.342 -15.147  1.00  0.00     0.173 A 
ATOM     42  F   UNL     1       0.080   6.788 -12.826  1.00  0.00    -0.203 F 
ATOM     43  C   UNL     1       0.977   7.488 -14.886  1.00  0.00     0.198 A 
ATOM     44  C   UNL     1      -0.109   9.217 -16.146  1.00  0.00     0.198 A 
ATOM     45  F   UNL     1      -2.045  10.251 -15.304  1.00  0.00    -0.203 F 
ATOM     46  F   UNL     1       1.983   6.615 -14.742  1.00  0.00    -0.200 F 
ATOM     47  C   UNL     1       0.918   8.296 -16.012  1.00  0.00     0.200 A 
ATOM     48  F   UNL     1      -0.179   9.986 -17.241  1.00  0.00    -0.200 F 
ATOM     49  F   UNL     1       1.854   8.189 -16.965  1.00  0.00    -0.200 F 
ENDBRANCH  25  39
BRANCH  26  50
ATOM     50  C   UNL     1      -8.068   9.531  -6.953  1.00  0.00     0.064 A 
ATOM     51  C   UNL     1      -8.763   8.432  -6.431  1.00  0.00     0.173 A 
ATOM     52  C   UNL     1      -8.396  10.804  -6.460  1.00  0.00     0.173 A 
ATOM     53  F   UNL     1      -8.496   7.197  -6.879  1.00  0.00    -0.203 F 
ATOM     54  C   UNL     1      -9.763   8.602  -5.476  1.00  0.00     0.198 A 
ATOM     55  C   UNL     1      -9.368  10.969  -5.478  1.00  0.00     0.198 A 
ATOM     56  F   UNL     1      -7.753  11.889  -6.918  1.00  0.00    -0.203 F 
ATOM     57  F   UNL     1     -10.450   7.540  -5.034  1.00  0.00    -0.200 F 
ATOM     58  C   UNL     1     -10.060   9.869  -4.996  1.00  0.00     0.200 A 
ATOM     59  F   UNL     1      -9.635  12.192  -5.001  1.00  0.00    -0.200 F 
ATOM     60  F   UNL     1     -11.019  10.030  -4.074  1.00  0.00    -0.200 F 
ENDBRANCH  26  50
BRANCH  38  61
ATOM     61  C   UNL     1      -8.148   7.353 -13.569  1.00  0.00     0.064 A 
ATOM     62  C   UNL     1      -9.165   8.201 -14.033  1.00  0.00     0.173 A 
ATOM     63  C   UNL     1      -8.179   6.010 -13.975  1.00  0.00     0.173 A 
ATOM     64  F   UNL     1      -9.193   9.490 -13.660  1.00  0.00    -0.203 F 
ATOM     65  C   UNL     1     -10.190   7.715 -14.841  1.00  0.00     0.198 A 
ATOM     66  C   UNL     1      -9.184   5.536 -14.814  1.00  0.00     0.198 A 
ATOM     67  F   UNL     1      -7.228   5.157 -13.565  1.00  0.00    -0.203 F 
ATOM     68  F   UNL     1     -11.185   8.529 -15.220  1.00  0.00    -0.200 F 
ATOM     69  C   UNL     1     -10.194   6.386 -15.237  1.00  0.00     0.200 A 
ATOM     70  F   UNL     1      -9.176   4.255 -15.208  1.00  0.00    -0.200 F 
ATOM     71  F   UNL     1     -11.178   5.921 -16.019  1.00  0.00    -0.200 F 
ENDBRANCH  38  61
ENDBRANCH  12  13
ENDBRANCH   5   7
ENDBRANCH   2   3
ENDBRANCH   1   2
BRANCH   1  72
ATOM     72  C   UNL     1       4.959   9.195  -3.444  1.00  0.00     0.023 C 
BRANCH  72  73
ATOM     73  C   UNL     1       4.457   8.395  -2.242  1.00  0.00     0.116 C 
BRANCH  73  74
ATOM     74  N   UNL     1       4.449   6.969  -2.499  1.00  0.00    -0.351 N 
ATOM     75  C   UNL     1       5.224   5.980  -1.968  1.00  0.00     0.278 C 
ATOM     76  H   UNL     1       3.782   6.668  -3.159  1.00  0.00     0.163 HD
ATOM     77  O   UNL     1       5.000   4.823  -2.336  1.00  0.00    -0.268 OA
BRANCH  75  78
ATOM     78  C   UNL     1       6.359   6.272  -0.974  1.00  0.00     0.273 C 
ATOM     79  C   UNL     1       7.513   7.079  -1.552  1.00  0.00     0.088 C 
ATOM     80  N   UNL     1       5.891   7.059   0.181  1.00  0.00    -0.336 N 
ATOM     81  C   UNL     1       8.017   7.969  -0.390  1.00  0.00     0.028 C 
ATOM     82  C   UNL     1       7.103   7.595   0.792  1.00  0.00     0.268 C 
ATOM     83  H   UNL     1       5.391   6.462   0.841  1.00  0.00     0.346 HD
ATOM     84  H   UNL     1       5.244   7.797  -0.095  1.00  0.00     0.346 HD
ATOM     85  C   UNL     1       7.858   9.461  -0.752  1.00  0.00     0.030 C 
ATOM     86  C   UNL     1       9.491   7.661  -0.035  1.00  0.00     0.030 C 
ATOM     87  C   UNL     1       8.903   9.893  -1.763  1.00  0.00     0.104 C 
ATOM     88  C   UNL     1      10.497   8.224  -1.042  1.00  0.00     0.104 C 
ATOM     89  N   UNL     1      10.272   9.679  -1.264  1.00  0.00    -0.189 NA
BRANCH  89  90
ATOM     90  S   UNL     1      10.909  10.688  -0.057  1.00  0.00     0.282 S 
ATOM     91  O   UNL     1      10.040  10.639   1.097  1.00  0.00    -0.195 OA
ATOM     92  O   UNL     1      12.307  10.354   0.061  1.00  0.00    -0.195 OA
BRANCH  90  93
ATOM     93  N   UNL     1      10.804  12.190  -0.740  1.00  0.00    -0.184 NA
ATOM     94  C   UNL     1      11.629  12.559  -1.897  1.00  0.00     0.132 C 
ATOM     95  C   UNL     1       9.726  13.151  -0.449  1.00  0.00     0.132 C 
ATOM     96  C   UNL     1      10.716  12.728  -3.108  1.00  0.00     0.177 C 
ATOM     97  C   UNL     1       8.923  13.505  -1.711  1.00  0.00     0.177 C 
ATOM     98  O   UNL     1       9.729  13.747  -2.874  1.00  0.00    -0.379 OA
ENDBRANCH  90  93
ENDBRANCH  89  90
ENDBRANCH  75  78
ENDBRANCH  73  74
ENDBRANCH  72  73
ENDBRANCH   1  72
TORSDOF 13
