REMARK SMILES O=C(Cc1ccccc1)Nc1cccc(C(=O)Nc2ccccc2C(=O)NCCCCNC(=O)c2ccc(-c3c4nc(c(-c5c(F)c(F)c(F)c(F)c5F)c5ccc([nH]5)c(-c5c(F)c(F)c(F)c(F)c5F)c5nc(c(-c6c(F)c(F)c(F)c(F)c6F)c6ccc3[nH]6)C=C5)C=C4)cc2)c1
REMARK SMILES IDX 28 1 27 2 25 3 26 4 24 6 19 7 20 8 21 9 23 10 22 11 18 12
REMARK SMILES IDX 16 13 17 14 15 16 11 17 12 18 98 19 13 20 14 21 10 22 1 23
REMARK SMILES IDX 2 24 3 26 4 27 5 28 9 29 6 30 8 31 7 32 29 33 30 34 31 35
REMARK SMILES IDX 32 36 33 37 34 39 35 40 36 41 97 42 37 43 96 44 38 45 39 46
REMARK SMILES IDX 40 47 90 48 41 49 95 50 89 51 91 52 42 53 94 54 88 55 87 56
REMARK SMILES IDX 43 58 75 59 55 60 74 61 56 62 59 63 73 64 92 65 57 66 58 67
REMARK SMILES IDX 72 69 93 70 60 71 44 72 45 73 53 74 46 75 47 76 51 77 54 78
REMARK SMILES IDX 48 79 49 80 52 81 50 82 76 83 77 84 85 85 78 86 79 87 83 88
REMARK SMILES IDX 86 89 80 90 81 91 84 92 82 93 61 94 62 95 70 96 63 97 64 98
REMARK SMILES IDX 68 99 71 100 65 101 66 102 69 103 67 104
REMARK H PARENT 27 5 18 15 10 25 32 38 91 57 59 68
REMARK Flexibility Score: inf
ROOT
ATOM      1  C   UNL     1      -0.099  -0.927   5.876  1.00  0.00     0.116 C 
ENDROOT
BRANCH   1   2
ATOM      2  N   UNL     1       1.204  -0.745   5.276  1.00  0.00    -0.352 N 
ATOM      3  C   UNL     1       1.579  -0.876   3.962  1.00  0.00     0.253 C 
ATOM      4  O   UNL     1       2.768  -0.710   3.682  1.00  0.00    -0.269 OA
ATOM      5  H   UNL     1       1.923  -0.491   5.898  1.00  0.00     0.163 HD
BRANCH   3   6
ATOM      6  C   UNL     1       0.631  -1.321   2.900  1.00  0.00     0.063 A 
ATOM      7  C   UNL     1      -0.704  -0.908   2.697  1.00  0.00     0.054 A 
ATOM      8  C   UNL     1      -1.476  -1.597   1.742  1.00  0.00     0.027 A 
ATOM      9  C   UNL     1      -0.915  -2.569   0.910  1.00  0.00     0.002 A 
ATOM     10  C   UNL     1       1.185  -2.295   2.037  1.00  0.00     0.016 A 
ATOM     11  C   UNL     1       0.425  -2.899   1.038  1.00  0.00     0.001 A 
BRANCH   7  12
ATOM     12  N   UNL     1      -1.390   0.179   3.300  1.00  0.00    -0.321 N 
ATOM     13  C   UNL     1      -0.972   1.431   3.715  1.00  0.00     0.255 C 
ATOM     14  O   UNL     1      -1.707   2.108   4.432  1.00  0.00    -0.269 OA
ATOM     15  H   UNL     1      -2.347   0.010   3.453  1.00  0.00     0.170 HD
BRANCH  13  16
ATOM     16  C   UNL     1       0.324   1.992   3.280  1.00  0.00     0.042 A 
ATOM     17  C   UNL     1       2.164   1.889   1.735  1.00  0.00     0.041 A 
ATOM     18  C   UNL     1       2.928   2.663   2.615  1.00  0.00     0.026 A 
ATOM     19  C   UNL     1       0.827   1.666   2.024  1.00  0.00     0.040 A 
ATOM     20  C   UNL     1       2.365   3.156   3.797  1.00  0.00     0.003 A 
ATOM     21  C   UNL     1       1.065   2.796   4.147  1.00  0.00     0.014 A 
BRANCH  17  22
ATOM     22  N   UNL     1       2.808   1.246   0.663  1.00  0.00    -0.326 N 
ATOM     23  O   UNL     1       1.017   0.259  -0.479  1.00  0.00    -0.274 OA
ATOM     24  C   UNL     1       2.219   0.427  -0.294  1.00  0.00     0.228 C 
ATOM     25  H   UNL     1       3.778   1.393   0.580  1.00  0.00     0.169 HD
BRANCH  24  26
ATOM     26  C   UNL     1       3.232  -0.296  -1.159  1.00  0.00     0.135 C 
BRANCH  26  27
ATOM     27  C   UNL     1       4.113   0.615  -1.980  1.00  0.00    -0.039 A 
ATOM     28  C   UNL     1       5.308   0.107  -2.505  1.00  0.00     0.004 A 
ATOM     29  C   UNL     1       3.766   1.948  -2.253  1.00  0.00     0.004 A 
ATOM     30  C   UNL     1       6.160   0.929  -3.241  1.00  0.00     0.000 A 
ATOM     31  C   UNL     1       4.628   2.773  -2.970  1.00  0.00     0.000 A 
ATOM     32  C   UNL     1       5.827   2.265  -3.460  1.00  0.00     0.000 A 
ENDBRANCH  26  27
ENDBRANCH  24  26
ENDBRANCH  17  22
ENDBRANCH  13  16
ENDBRANCH   7  12
ENDBRANCH   3   6
ENDBRANCH   1   2
BRANCH   1  33
ATOM     33  C   UNL     1      -0.059  -1.336   7.341  1.00  0.00     0.023 C 
BRANCH  33  34
ATOM     34  C   UNL     1       0.605  -0.341   8.293  1.00  0.00     0.023 C 
BRANCH  34  35
ATOM     35  C   UNL     1       0.210   1.125   8.133  1.00  0.00     0.116 C 
BRANCH  35  36
ATOM     36  N   UNL     1      -1.214   1.375   8.302  1.00  0.00    -0.352 N 
ATOM     37  C   UNL     1      -1.883   2.114   9.253  1.00  0.00     0.251 C 
ATOM     38  H   UNL     1      -1.791   0.948   7.629  1.00  0.00     0.163 HD
ATOM     39  O   UNL     1      -3.104   2.105   9.300  1.00  0.00    -0.269 OA
BRANCH  37  40
ATOM     40  C   UNL     1      -1.118   2.896  10.250  1.00  0.00     0.039 A 
ATOM     41  C   UNL     1      -1.482   2.812  11.596  1.00  0.00     0.014 A 
ATOM     42  C   UNL     1      -0.043   3.698   9.865  1.00  0.00     0.014 A 
ATOM     43  C   UNL     1      -0.709   3.459  12.564  1.00  0.00     0.010 A 
ATOM     44  C   UNL     1       0.779   4.265  10.835  1.00  0.00     0.010 A 
ATOM     45  C   UNL     1       0.456   4.151  12.196  1.00  0.00    -0.014 A 
BRANCH  45  46
ATOM     46  C   UNL     1       1.344   4.768  13.217  1.00  0.00     0.031 A 
ATOM     47  C   UNL     1       1.569   6.256  13.221  1.00  0.00     0.074 A 
ATOM     48  C   UNL     1       1.994   3.987  14.102  1.00  0.00     0.049 A 
ATOM     49  N   UNL     1       2.361   6.973  13.979  1.00  0.00    -0.248 NA
ATOM     50  C   UNL     1       0.828   7.040  12.220  1.00  0.00     0.031 C 
ATOM     51  C   UNL     1       1.908   2.527  14.169  1.00  0.00     0.029 A 
ATOM     52  N   UNL     1       2.868   4.312  15.112  1.00  0.00    -0.354 N 
ATOM     53  C   UNL     1       2.217   8.284  13.541  1.00  0.00     0.074 A 
ATOM     54  C   UNL     1       1.319   8.255  12.408  1.00  0.00     0.031 C 
ATOM     55  C   UNL     1       2.676   2.085  15.179  1.00  0.00     0.029 A 
ATOM     56  C   UNL     1       3.336   3.224  15.809  1.00  0.00     0.049 A 
ATOM     57  H   UNL     1       3.133   5.238  15.316  1.00  0.00     0.167 HD
ATOM     58  C   UNL     1       2.755   9.414  14.058  1.00  0.00     0.037 A 
ATOM     59  C   UNL     1       4.201   3.155  16.839  1.00  0.00     0.037 A 
ATOM     60  C   UNL     1       3.632   9.447  15.198  1.00  0.00     0.049 A 
ATOM     61  C   UNL     1       4.782   4.429  17.396  1.00  0.00     0.074 A 
ATOM     62  C   UNL     1       4.217  10.543  15.808  1.00  0.00     0.029 A 
ATOM     63  N   UNL     1       4.045   8.328  15.905  1.00  0.00    -0.354 N 
ATOM     64  N   UNL     1       4.595   5.666  17.006  1.00  0.00    -0.248 NA
ATOM     65  C   UNL     1       5.684   4.295  18.549  1.00  0.00     0.031 C 
ATOM     66  C   UNL     1       5.007  10.085  16.868  1.00  0.00     0.029 A 
ATOM     67  C   UNL     1       4.877   8.708  16.947  1.00  0.00     0.049 A 
ATOM     68  H   UNL     1       3.787   7.401  15.698  1.00  0.00     0.167 HD
ATOM     69  C   UNL     1       5.320   6.458  17.887  1.00  0.00     0.074 A 
ATOM     70  C   UNL     1       5.939   5.562  18.840  1.00  0.00     0.031 C 
ATOM     71  C   UNL     1       5.462   7.806  17.904  1.00  0.00     0.037 A 
BRANCH  58  72
ATOM     72  C   UNL     1       2.385  10.715  13.405  1.00  0.00     0.064 A 
ATOM     73  C   UNL     1       1.086  11.239  13.508  1.00  0.00     0.173 A 
ATOM     74  C   UNL     1       3.339  11.463  12.700  1.00  0.00     0.173 A 
ATOM     75  F   UNL     1       0.133  10.556  14.160  1.00  0.00    -0.203 F 
ATOM     76  C   UNL     1       0.750  12.447  12.904  1.00  0.00     0.198 A 
ATOM     77  C   UNL     1       3.007  12.688  12.125  1.00  0.00     0.198 A 
ATOM     78  F   UNL     1       4.596  11.012  12.576  1.00  0.00    -0.203 F 
ATOM     79  F   UNL     1      -0.509  12.900  12.973  1.00  0.00    -0.200 F 
ATOM     80  C   UNL     1       1.712  13.174  12.221  1.00  0.00     0.200 A 
ATOM     81  F   UNL     1       3.941  13.397  11.476  1.00  0.00    -0.200 F 
ATOM     82  F   UNL     1       1.389  14.342  11.648  1.00  0.00    -0.200 F 
ENDBRANCH  58  72
BRANCH  59  83
ATOM     83  C   UNL     1       4.556   1.840  17.437  1.00  0.00     0.064 A 
ATOM     84  C   UNL     1       4.153   1.508  18.739  1.00  0.00     0.173 A 
ATOM     85  C   UNL     1       5.334   0.906  16.739  1.00  0.00     0.173 A 
ATOM     86  F   UNL     1       3.424   2.376  19.456  1.00  0.00    -0.203 F 
ATOM     87  C   UNL     1       4.547   0.310  19.332  1.00  0.00     0.198 A 
ATOM     88  C   UNL     1       5.701  -0.305  17.321  1.00  0.00     0.198 A 
ATOM     89  F   UNL     1       5.741   1.171  15.488  1.00  0.00    -0.203 F 
ATOM     90  F   UNL     1       4.202   0.048  20.600  1.00  0.00    -0.200 F 
ATOM     91  C   UNL     1       5.318  -0.597  18.622  1.00  0.00     0.200 A 
ATOM     92  F   UNL     1       6.434  -1.186  16.627  1.00  0.00    -0.200 F 
ATOM     93  F   UNL     1       5.703  -1.745  19.195  1.00  0.00    -0.200 F 
ENDBRANCH  59  83
BRANCH  71  94
ATOM     94  C   UNL     1       6.266   8.399  19.025  1.00  0.00     0.064 A 
ATOM     95  C   UNL     1       7.659   8.251  19.097  1.00  0.00     0.173 A 
ATOM     96  C   UNL     1       5.631   9.147  20.028  1.00  0.00     0.173 A 
ATOM     97  F   UNL     1       8.310   7.532  18.170  1.00  0.00    -0.203 F 
ATOM     98  C   UNL     1       8.382   8.801  20.151  1.00  0.00     0.198 A 
ATOM     99  C   UNL     1       6.362   9.724  21.063  1.00  0.00     0.198 A 
ATOM    100  F   UNL     1       4.302   9.326  20.001  1.00  0.00    -0.203 F 
ATOM    101  F   UNL     1       9.705   8.600  20.231  1.00  0.00    -0.200 F 
ATOM    102  C   UNL     1       7.735   9.542  21.129  1.00  0.00     0.200 A 
ATOM    103  F   UNL     1       5.737  10.450  21.999  1.00  0.00    -0.200 F 
ATOM    104  F   UNL     1       8.434  10.073  22.142  1.00  0.00    -0.200 F 
ENDBRANCH  71  94
ENDBRANCH  45  46
ENDBRANCH  37  40
ENDBRANCH  35  36
ENDBRANCH  34  35
ENDBRANCH  33  34
ENDBRANCH   1  33
TORSDOF 16
