REMARK SMILES O=C(CCc1cc2n(n1)CCCN(c1ccc(C(=O)N3CCCC3)cn1)C2)NCCCCNC(=O)c1ccc(-c2c3nc(c(-c4c(F)c(F)c(F)c(F)c4F)c4ccc([nH]4)c(-c4c(F)c(F)c(F)c(F)c4F)c4nc(c(-c5c(F)c(F)c(F)c(F)c5F)c5ccc2[nH]5)C=C4)C=C3)cc1
REMARK SMILES IDX 1 1 2 2 28 3 3 5 4 6 5 7 6 8 9 9 7 10 8 11 27 12 13 13 12 14
REMARK SMILES IDX 14 16 15 17 26 18 16 19 25 20 17 21 18 22 19 23 20 24 21 25
REMARK SMILES IDX 24 26 22 27 23 28 10 29 11 30 29 32 30 33 31 34 32 35 33 36
REMARK SMILES IDX 34 37 35 39 36 40 37 41 98 42 38 43 97 44 39 45 40 46 41 47
REMARK SMILES IDX 91 48 42 49 96 50 90 51 92 52 43 53 95 54 89 55 88 56 44 58
REMARK SMILES IDX 76 59 56 60 75 61 57 62 60 63 74 64 93 65 58 66 59 67 73 69
REMARK SMILES IDX 94 70 61 71 45 72 46 73 54 74 47 75 48 76 52 77 55 78 49 79
REMARK SMILES IDX 50 80 53 81 51 82 77 83 78 84 86 85 79 86 80 87 84 88 87 89
REMARK SMILES IDX 81 90 82 91 85 92 83 93 62 94 63 95 71 96 64 97 65 98 69 99
REMARK SMILES IDX 72 100 66 101 67 102 70 103 68 104
REMARK H PARENT 28 4 33 38 92 57 60 68
REMARK Flexibility Score: 90.00
ROOT
ATOM      1  O   UNL     1       0.742   0.020   0.073  1.00  0.00    -0.275 OA
ATOM      2  C   UNL     1       1.961  -0.074   0.198  1.00  0.00     0.220 C 
ATOM      3  N   UNL     1       2.675   0.620   1.156  1.00  0.00    -0.356 N 
ATOM      4  H   UNL     1       3.647   0.479   1.220  1.00  0.00     0.163 HD
ENDROOT
BRANCH   2   5
ATOM      5  C   UNL     1       2.756  -1.045  -0.663  1.00  0.00     0.106 C 
BRANCH   5   6
ATOM      6  C   UNL     1       3.670  -0.388  -1.690  1.00  0.00     0.068 C 
BRANCH   6   7
ATOM      7  C   UNL     1       4.922   0.170  -1.104  1.00  0.00     0.063 A 
ATOM      8  C   UNL     1       5.912  -0.456  -0.299  1.00  0.00     0.051 A 
ATOM      9  N   UNL     1       5.178   1.469  -1.258  1.00  0.00    -0.178 NA
ATOM     10  C   UNL     1       6.767   0.560   0.084  1.00  0.00     0.058 A 
ATOM     11  N   UNL     1       6.335   1.655  -0.613  1.00  0.00    -0.267 N 
BRANCH  10  12
ATOM     12  C   UNL     1       7.907   0.643   1.069  1.00  0.00     0.173 C 
BRANCH  12  13
ATOM     13  N   UNL     1       7.792   1.705   2.082  1.00  0.00    -0.351 N 
BRANCH  13  14
ATOM     14  C   UNL     1       6.614   2.560   2.124  1.00  0.00     0.120 CG0
ATOM     15  G   UNL     1       6.425   3.499   0.930  1.00  0.00     0.000 G0
ENDBRANCH  13  14
BRANCH  13  16
ATOM     16  C   UNL     1       8.601   1.567   3.210  1.00  0.00     0.128 A 
ATOM     17  C   UNL     1       8.080   1.646   4.508  1.00  0.00     0.048 A 
ATOM     18  N   UNL     1       9.931   1.419   3.042  1.00  0.00    -0.239 NA
ATOM     19  C   UNL     1       8.917   1.659   5.633  1.00  0.00     0.019 A 
ATOM     20  C   UNL     1      10.738   1.448   4.153  1.00  0.00     0.127 A 
ATOM     21  C   UNL     1      10.290   1.564   5.464  1.00  0.00     0.058 A 
BRANCH  21  22
ATOM     22  C   UNL     1      11.260   1.827   6.562  1.00  0.00     0.255 C 
ATOM     23  O   UNL     1      12.312   2.392   6.265  1.00  0.00    -0.269 OA
ATOM     24  N   UNL     1      10.916   1.577   7.880  1.00  0.00    -0.339 N 
ATOM     25  C   UNL     1      10.156   0.470   8.431  1.00  0.00     0.120 C 
ATOM     26  C   UNL     1      11.494   2.366   8.956  1.00  0.00     0.120 C 
ATOM     27  C   UNL     1       9.603   1.050   9.721  1.00  0.00     0.023 C 
ATOM     28  C   UNL     1      10.730   1.958  10.216  1.00  0.00     0.023 C 
ENDBRANCH  21  22
ENDBRANCH  13  16
ENDBRANCH  12  13
ENDBRANCH  10  12
BRANCH  11  29
ATOM     29  C   UNL     1       6.821   2.998  -0.435  1.00  0.00     0.146 C 
BRANCH  29  30
ATOM     30  C   UNL     1       6.425   3.499   0.930  1.00  0.00     0.045 CG0
ATOM     31  G   UNL     1       6.614   2.560   2.124  1.00  0.00     0.000 G0
ENDBRANCH  29  30
ENDBRANCH  11  29
ENDBRANCH   6   7
ENDBRANCH   5   6
ENDBRANCH   2   5
BRANCH   3  32
ATOM     32  C   UNL     1       2.036   1.554   2.073  1.00  0.00     0.116 C 
BRANCH  32  33
ATOM     33  C   UNL     1       2.179   1.174   3.558  1.00  0.00     0.023 C 
BRANCH  33  34
ATOM     34  C   UNL     1       3.566   1.350   4.192  1.00  0.00     0.023 C 
BRANCH  34  35
ATOM     35  C   UNL     1       4.074   2.788   4.286  1.00  0.00     0.116 C 
BRANCH  35  36
ATOM     36  N   UNL     1       3.654   3.574   5.440  1.00  0.00    -0.352 N 
ATOM     37  C   UNL     1       4.246   4.766   5.874  1.00  0.00     0.251 C 
ATOM     38  H   UNL     1       2.888   3.237   5.958  1.00  0.00     0.163 HD
ATOM     39  O   UNL     1       4.139   5.147   7.026  1.00  0.00    -0.269 OA
BRANCH  37  40
ATOM     40  C   UNL     1       5.010   5.571   4.885  1.00  0.00     0.039 A 
ATOM     41  C   UNL     1       6.256   6.157   5.146  1.00  0.00     0.014 A 
ATOM     42  C   UNL     1       4.455   5.688   3.625  1.00  0.00     0.014 A 
ATOM     43  C   UNL     1       6.993   6.734   4.090  1.00  0.00     0.010 A 
ATOM     44  C   UNL     1       5.237   6.123   2.580  1.00  0.00     0.010 A 
ATOM     45  C   UNL     1       6.510   6.670   2.773  1.00  0.00    -0.014 A 
BRANCH  45  46
ATOM     46  C   UNL     1       7.335   7.009   1.579  1.00  0.00     0.031 A 
ATOM     47  C   UNL     1       8.790   6.580   1.572  1.00  0.00     0.074 A 
ATOM     48  C   UNL     1       6.777   7.420   0.402  1.00  0.00     0.049 A 
ATOM     49  N   UNL     1       9.801   7.268   1.140  1.00  0.00    -0.248 NA
ATOM     50  C   UNL     1       9.194   5.250   2.063  1.00  0.00     0.031 C 
ATOM     51  C   UNL     1       5.363   7.704   0.100  1.00  0.00     0.029 A 
ATOM     52  N   UNL     1       7.347   7.549  -0.838  1.00  0.00    -0.354 N 
ATOM     53  C   UNL     1      10.925   6.436   1.183  1.00  0.00     0.074 A 
ATOM     54  C   UNL     1      10.490   5.189   1.745  1.00  0.00     0.031 C 
ATOM     55  C   UNL     1       5.151   7.693  -1.232  1.00  0.00     0.029 A 
ATOM     56  C   UNL     1       6.436   7.634  -1.895  1.00  0.00     0.049 A 
ATOM     57  H   UNL     1       8.322   7.579  -0.974  1.00  0.00     0.167 HD
ATOM     58  C   UNL     1      12.120   6.819   0.653  1.00  0.00     0.037 A 
ATOM     59  C   UNL     1       6.682   7.719  -3.228  1.00  0.00     0.037 A 
ATOM     60  C   UNL     1      12.198   8.249   0.548  1.00  0.00     0.049 A 
ATOM     61  C   UNL     1       8.056   8.243  -3.372  1.00  0.00     0.074 A 
ATOM     62  C   UNL     1      12.100   9.270   1.474  1.00  0.00     0.029 A 
ATOM     63  N   UNL     1      11.999   8.841  -0.672  1.00  0.00    -0.354 N 
ATOM     64  N   UNL     1       8.401   9.454  -3.039  1.00  0.00    -0.248 NA
ATOM     65  C   UNL     1       9.135   7.276  -3.464  1.00  0.00     0.031 C 
ATOM     66  C   UNL     1      11.295  10.253   0.831  1.00  0.00     0.029 A 
ATOM     67  C   UNL     1      11.055   9.815  -0.471  1.00  0.00     0.049 A 
ATOM     68  H   UNL     1      12.444   8.613  -1.521  1.00  0.00     0.167 HD
ATOM     69  C   UNL     1       9.627   9.294  -2.421  1.00  0.00     0.074 A 
ATOM     70  C   UNL     1      10.073   7.951  -2.795  1.00  0.00     0.031 C 
ATOM     71  C   UNL     1      10.037  10.144  -1.437  1.00  0.00     0.037 A 
BRANCH  58  72
ATOM     72  C   UNL     1      13.117   5.917  -0.021  1.00  0.00     0.064 A 
ATOM     73  C   UNL     1      14.390   6.422  -0.364  1.00  0.00     0.173 A 
ATOM     74  C   UNL     1      12.746   4.710  -0.646  1.00  0.00     0.173 A 
ATOM     75  F   UNL     1      14.838   7.568   0.171  1.00  0.00    -0.203 F 
ATOM     76  C   UNL     1      15.185   5.817  -1.340  1.00  0.00     0.198 A 
ATOM     77  C   UNL     1      13.562   4.087  -1.592  1.00  0.00     0.198 A 
ATOM     78  F   UNL     1      11.537   4.166  -0.453  1.00  0.00    -0.203 F 
ATOM     79  F   UNL     1      16.323   6.408  -1.732  1.00  0.00    -0.200 F 
ATOM     80  C   UNL     1      14.764   4.659  -1.965  1.00  0.00     0.200 A 
ATOM     81  F   UNL     1      13.132   2.976  -2.207  1.00  0.00    -0.200 F 
ATOM     82  F   UNL     1      15.484   4.123  -2.959  1.00  0.00    -0.200 F 
ENDBRANCH  58  72
BRANCH  59  83
ATOM     83  C   UNL     1       5.897   7.236  -4.393  1.00  0.00     0.064 A 
ATOM     84  C   UNL     1       6.200   7.656  -5.702  1.00  0.00     0.173 A 
ATOM     85  C   UNL     1       5.038   6.127  -4.281  1.00  0.00     0.173 A 
ATOM     86  F   UNL     1       7.032   8.688  -5.907  1.00  0.00    -0.203 F 
ATOM     87  C   UNL     1       5.718   6.974  -6.827  1.00  0.00     0.198 A 
ATOM     88  C   UNL     1       4.552   5.451  -5.405  1.00  0.00     0.198 A 
ATOM     89  F   UNL     1       4.732   5.618  -3.079  1.00  0.00    -0.203 F 
ATOM     90  F   UNL     1       6.094   7.360  -8.055  1.00  0.00    -0.200 F 
ATOM     91  C   UNL     1       4.909   5.862  -6.676  1.00  0.00     0.200 A 
ATOM     92  F   UNL     1       3.791   4.359  -5.247  1.00  0.00    -0.200 F 
ATOM     93  F   UNL     1       4.509   5.165  -7.749  1.00  0.00    -0.200 F 
ENDBRANCH  59  83
BRANCH  71  94
ATOM     94  C   UNL     1       9.237  11.393  -1.178  1.00  0.00     0.064 A 
ATOM     95  C   UNL     1       7.880  11.409  -0.810  1.00  0.00     0.173 A 
ATOM     96  C   UNL     1       9.919  12.617  -1.144  1.00  0.00     0.173 A 
ATOM     97  F   UNL     1       7.172  10.280  -0.711  1.00  0.00    -0.203 F 
ATOM     98  C   UNL     1       7.230  12.595  -0.470  1.00  0.00     0.198 A 
ATOM     99  C   UNL     1       9.279  13.794  -0.766  1.00  0.00     0.198 A 
ATOM    100  F   UNL     1      11.230  12.664  -1.428  1.00  0.00    -0.203 F 
ATOM    101  F   UNL     1       5.931  12.576  -0.133  1.00  0.00    -0.200 F 
ATOM    102  C   UNL     1       7.933  13.785  -0.441  1.00  0.00     0.200 A 
ATOM    103  F   UNL     1       9.978  14.935  -0.688  1.00  0.00    -0.200 F 
ATOM    104  F   UNL     1       7.320  14.920  -0.074  1.00  0.00    -0.200 F 
ENDBRANCH  71  94
ENDBRANCH  45  46
ENDBRANCH  37  40
ENDBRANCH  35  36
ENDBRANCH  34  35
ENDBRANCH  33  34
ENDBRANCH  32  33
ENDBRANCH   3  32
TORSDOF 15
