REMARK SMILES Cc1cc(Br)cc2c1O[C@H](C(F)(F)F)C(C(=O)NCCCCNC(=O)c1ccc(-c3c4nc(c(-c5c(F)c(F)c(F)c(F)c5F)c5ccc([nH]5)c(-c5c(F)c(F)c(F)c(F)c5F)c5nc(c(-c6c(F)c(F)c(F)c(F)c6F)c6ccc3[nH]6)C=C5)C=C4)cc1)=C2
REMARK SMILES IDX 21 1 20 2 19 3 18 4 16 5 17 6 15 8 1 9 2 10 3 11 8 12 4 13
REMARK SMILES IDX 7 14 9 15 5 16 6 17 89 18 10 19 11 20 12 21 13 22 14 23
REMARK SMILES IDX 22 24 23 25 24 26 25 28 26 29 27 30 88 31 28 32 87 33 29 34
REMARK SMILES IDX 30 35 31 36 81 37 32 38 86 39 80 40 82 41 33 42 85 43 79 44
REMARK SMILES IDX 78 45 34 47 66 48 46 49 65 50 47 51 50 52 64 53 83 54 48 55
REMARK SMILES IDX 49 56 63 58 84 59 51 60 35 61 36 62 44 63 37 64 38 65 42 66
REMARK SMILES IDX 45 67 39 68 40 69 43 70 41 71 67 72 68 73 76 74 69 75 70 76
REMARK SMILES IDX 74 77 77 78 71 79 72 80 75 81 73 82 52 83 53 84 61 85 54 86
REMARK SMILES IDX 55 87 59 88 62 89 56 90 57 91 60 92 58 93
REMARK H PARENT 18 7 23 27 82 46 50 57
REMARK Flexibility Score: inf
ROOT
ATOM      1  C   UNL     1      -0.147  -7.100   5.008  1.00  0.00     0.023 C 
ENDROOT
BRANCH   1   2
ATOM      2  C   UNL     1      -0.039  -5.896   4.070  1.00  0.00     0.023 C 
BRANCH   2   3
ATOM      3  C   UNL     1      -1.321  -5.074   3.963  1.00  0.00     0.116 C 
BRANCH   3   4
ATOM      4  N   UNL     1      -1.436  -4.109   5.040  1.00  0.00    -0.352 N 
ATOM      5  C   UNL     1      -1.228  -2.781   5.199  1.00  0.00     0.251 C 
ATOM      6  O   UNL     1      -1.445  -2.352   6.337  1.00  0.00    -0.270 OA
ATOM      7  H   UNL     1      -1.748  -4.531   5.874  1.00  0.00     0.163 HD
BRANCH   5   8
ATOM      8  C   UNL     1      -0.773  -1.845   4.130  1.00  0.00     0.067 C 
ATOM      9  C   UNL     1       1.150   0.426  -0.078  1.00  0.00     0.048 C 
ATOM     10  C   UNL     1       0.702   0.881   1.282  1.00  0.00    -0.007 A 
ATOM     11  C   UNL     1       0.758   2.242   1.613  1.00  0.00     0.023 A 
ATOM     12  C   UNL     1       0.271  -0.030   2.256  1.00  0.00     0.130 A 
ATOM     13  C   UNL     1       0.377   2.672   2.885  1.00  0.00     0.019 A 
ATOM     14  C   UNL     1      -0.107   0.400   3.533  1.00  0.00     0.019 A 
ATOM     15  O   UNL     1       0.280  -1.359   1.928  1.00  0.00    -0.475 OA
ATOM     16  Br  UNL     1       0.457   4.513   3.311  1.00  0.00    -0.051 Br
ATOM     17  C   UNL     1      -0.054   1.760   3.847  1.00  0.00     0.027 A 
ATOM     18  C   UNL     1      -0.518  -0.584   4.529  1.00  0.00     0.025 C 
ATOM     19  C   UNL     1      -0.630  -2.207   2.679  1.00  0.00     0.314 C 
BRANCH  19  20
ATOM     20  C   UNL     1      -1.984  -2.284   1.948  1.00  0.00     0.429 C 
ATOM     21  F   UNL     1      -1.842  -2.917   0.756  1.00  0.00    -0.167 F 
ATOM     22  F   UNL     1      -2.909  -2.988   2.645  1.00  0.00    -0.167 F 
ATOM     23  F   UNL     1      -2.520  -1.069   1.701  1.00  0.00    -0.167 F 
ENDBRANCH  19  20
ENDBRANCH   5   8
ENDBRANCH   3   4
ENDBRANCH   2   3
ENDBRANCH   1   2
BRANCH   1  24
ATOM     24  C   UNL     1      -1.288  -8.067   4.702  1.00  0.00     0.116 C 
BRANCH  24  25
ATOM     25  N   UNL     1      -1.341  -8.500   3.312  1.00  0.00    -0.352 N 
ATOM     26  C   UNL     1      -1.743  -9.718   2.820  1.00  0.00     0.251 C 
ATOM     27  H   UNL     1      -1.052  -7.838   2.642  1.00  0.00     0.163 HD
ATOM     28  O   UNL     1      -1.681  -9.972   1.624  1.00  0.00    -0.269 OA
BRANCH  26  29
ATOM     29  C   UNL     1      -2.207 -10.737   3.777  1.00  0.00     0.039 A 
ATOM     30  C   UNL     1      -1.532 -11.957   3.834  1.00  0.00     0.014 A 
ATOM     31  C   UNL     1      -3.234 -10.439   4.678  1.00  0.00     0.014 A 
ATOM     32  C   UNL     1      -1.837 -12.856   4.853  1.00  0.00     0.010 A 
ATOM     33  C   UNL     1      -3.494 -11.310   5.729  1.00  0.00     0.010 A 
ATOM     34  C   UNL     1      -2.790 -12.520   5.829  1.00  0.00    -0.014 A 
BRANCH  34  35
ATOM     35  C   UNL     1      -3.050 -13.428   6.969  1.00  0.00     0.031 A 
ATOM     36  C   UNL     1      -4.366 -14.136   7.080  1.00  0.00     0.074 A 
ATOM     37  C   UNL     1      -2.109 -13.583   7.920  1.00  0.00     0.049 A 
ATOM     38  N   UNL     1      -4.773 -14.982   7.991  1.00  0.00    -0.248 NA
ATOM     39  C   UNL     1      -5.368 -13.838   6.044  1.00  0.00     0.031 C 
ATOM     40  C   UNL     1      -0.814 -12.899   7.948  1.00  0.00     0.029 A 
ATOM     41  N   UNL     1      -2.094 -14.369   9.044  1.00  0.00    -0.354 N 
ATOM     42  C   UNL     1      -6.072 -15.315   7.638  1.00  0.00     0.074 A 
ATOM     43  C   UNL     1      -6.411 -14.537   6.468  1.00  0.00     0.031 C 
ATOM     44  C   UNL     1      -0.115 -13.326   9.011  1.00  0.00     0.029 A 
ATOM     45  C   UNL     1      -0.917 -14.297   9.749  1.00  0.00     0.049 A 
ATOM     46  H   UNL     1      -2.854 -14.930   9.319  1.00  0.00     0.167 HD
ATOM     47  C   UNL     1      -6.895 -16.217   8.220  1.00  0.00     0.037 A 
ATOM     48  C   UNL     1      -0.528 -14.957  10.856  1.00  0.00     0.037 A 
ATOM     49  C   UNL     1      -6.542 -17.015   9.361  1.00  0.00     0.049 A 
ATOM     50  C   UNL     1      -1.463 -15.950  11.487  1.00  0.00     0.074 A 
ATOM     51  C   UNL     1      -7.275 -18.015   9.975  1.00  0.00     0.029 A 
ATOM     52  N   UNL     1      -5.348 -16.904  10.058  1.00  0.00    -0.354 N 
ATOM     53  N   UNL     1      -2.659 -16.317  11.098  1.00  0.00    -0.248 NA
ATOM     54  C   UNL     1      -0.996 -16.620  12.709  1.00  0.00     0.031 C 
ATOM     55  C   UNL     1      -6.536 -18.489  11.063  1.00  0.00     0.029 A 
ATOM     56  C   UNL     1      -5.333 -17.802  11.110  1.00  0.00     0.049 A 
ATOM     57  H   UNL     1      -4.621 -16.278   9.837  1.00  0.00     0.167 HD
ATOM     58  C   UNL     1      -3.082 -17.270  12.013  1.00  0.00     0.074 A 
ATOM     59  C   UNL     1      -2.010 -17.433  12.974  1.00  0.00     0.031 C 
ATOM     60  C   UNL     1      -4.254 -17.948  12.053  1.00  0.00     0.037 A 
BRANCH  47  61
ATOM     61  C   UNL     1      -8.249 -16.407   7.609  1.00  0.00     0.064 A 
ATOM     62  C   UNL     1      -8.405 -17.084   6.390  1.00  0.00     0.173 A 
ATOM     63  C   UNL     1      -9.400 -15.940   8.257  1.00  0.00     0.173 A 
ATOM     64  F   UNL     1      -7.330 -17.537   5.727  1.00  0.00    -0.203 F 
ATOM     65  C   UNL     1      -9.665 -17.267   5.830  1.00  0.00     0.198 A 
ATOM     66  C   UNL     1     -10.662 -16.144   7.705  1.00  0.00     0.198 A 
ATOM     67  F   UNL     1      -9.302 -15.288   9.425  1.00  0.00    -0.203 F 
ATOM     68  F   UNL     1      -9.788 -17.881   4.645  1.00  0.00    -0.200 F 
ATOM     69  C   UNL     1     -10.793 -16.802   6.490  1.00  0.00     0.200 A 
ATOM     70  F   UNL     1     -11.752 -15.700   8.345  1.00  0.00    -0.200 F 
ATOM     71  F   UNL     1     -12.007 -16.982   5.952  1.00  0.00    -0.200 F 
ENDBRANCH  47  61
BRANCH  48  72
ATOM     72  C   UNL     1       0.835 -14.739  11.402  1.00  0.00     0.064 A 
ATOM     73  C   UNL     1       1.831 -15.709  11.234  1.00  0.00     0.173 A 
ATOM     74  C   UNL     1       1.175 -13.558  12.076  1.00  0.00     0.173 A 
ATOM     75  F   UNL     1       1.545 -16.861  10.609  1.00  0.00    -0.203 F 
ATOM     76  C   UNL     1       3.119 -15.510  11.727  1.00  0.00     0.198 A 
ATOM     77  C   UNL     1       2.468 -13.353  12.554  1.00  0.00     0.198 A 
ATOM     78  F   UNL     1       0.256 -12.599  12.257  1.00  0.00    -0.203 F 
ATOM     79  F   UNL     1       4.048 -16.463  11.574  1.00  0.00    -0.200 F 
ATOM     80  C   UNL     1       3.438 -14.330  12.382  1.00  0.00     0.200 A 
ATOM     81  F   UNL     1       2.776 -12.208  13.178  1.00  0.00    -0.200 F 
ATOM     82  F   UNL     1       4.678 -14.136  12.850  1.00  0.00    -0.200 F 
ENDBRANCH  48  72
BRANCH  60  83
ATOM     83  C   UNL     1      -4.449 -18.930  13.166  1.00  0.00     0.064 A 
ATOM     84  C   UNL     1      -4.790 -18.502  14.456  1.00  0.00     0.173 A 
ATOM     85  C   UNL     1      -4.388 -20.309  12.918  1.00  0.00     0.173 A 
ATOM     86  F   UNL     1      -4.846 -17.192  14.739  1.00  0.00    -0.203 F 
ATOM     87  C   UNL     1      -5.066 -19.423  15.461  1.00  0.00     0.198 A 
ATOM     88  C   UNL     1      -4.683 -21.226  13.921  1.00  0.00     0.198 A 
ATOM     89  F   UNL     1      -4.070 -20.763  11.697  1.00  0.00    -0.203 F 
ATOM     90  F   UNL     1      -5.378 -18.994  16.692  1.00  0.00    -0.200 F 
ATOM     91  C   UNL     1      -5.023 -20.783  15.191  1.00  0.00     0.200 A 
ATOM     92  F   UNL     1      -4.651 -22.540  13.657  1.00  0.00    -0.200 F 
ATOM     93  F   UNL     1      -5.309 -21.668  16.156  1.00  0.00    -0.200 F 
ENDBRANCH  60  83
ENDBRANCH  34  35
ENDBRANCH  26  29
ENDBRANCH  24  25
ENDBRANCH   1  24
TORSDOF 12
