REMARK SMILES CN(CC(=O)NCCCCNC(=O)c1ccc(-c2c3nc(c(-c4c(F)c(F)c(F)c(F)c4F)c4ccc([nH]4)c(-c4c(F)c(F)c(F)c(F)c4F)c4nc(c(-c5c(F)c(F)c(F)c(F)c5F)c5ccc2[nH]5)C=C4)C=C3)cc1)c1ncc(-c2nnnn2-c2ccccc2)c(-c2ccc(Cl)cc2)n1
REMARK SMILES IDX 7 1 6 2 4 3 5 4 3 6 2 7 1 8 77 9 78 10 100 11 79 12 92 13
REMARK SMILES IDX 80 14 93 15 94 16 99 17 95 18 98 19 96 20 97 21 81 22 82 23
REMARK SMILES IDX 85 24 83 25 84 26 86 27 87 28 91 29 88 30 90 31 89 32 8 33
REMARK SMILES IDX 9 34 10 35 11 36 12 37 13 39 14 40 15 41 76 42 16 43 75 44
REMARK SMILES IDX 17 45 18 46 19 47 69 48 20 49 74 50 68 51 70 52 21 53 73 54
REMARK SMILES IDX 67 55 66 56 22 58 54 59 34 60 53 61 35 62 38 63 52 64 71 65
REMARK SMILES IDX 36 66 37 67 51 69 72 70 39 71 23 72 24 73 32 74 25 75 26 76
REMARK SMILES IDX 30 77 33 78 27 79 28 80 31 81 29 82 55 83 56 84 64 85 57 86
REMARK SMILES IDX 58 87 62 88 65 89 59 90 60 91 63 92 61 93 40 94 41 95 49 96
REMARK SMILES IDX 42 97 43 98 47 99 50 100 44 101 45 102 48 103 46 104
REMARK H PARENT 6 5 11 38 70 57 38 68
REMARK Flexibility Score: inf
ROOT
ATOM      1  C   UNL     1      -2.062  -0.275  -0.119  1.00  0.00     0.116 C 
ENDROOT
BRANCH   1   2
ATOM      2  N   UNL     1      -2.381  -0.029   1.270  1.00  0.00    -0.355 N 
ATOM      3  C   UNL     1      -1.561   0.445   2.258  1.00  0.00     0.239 C 
ATOM      4  O   UNL     1      -2.051   0.616   3.378  1.00  0.00    -0.273 OA
ATOM      5  H   UNL     1      -3.306  -0.228   1.539  1.00  0.00     0.163 HD
BRANCH   3   6
ATOM      6  C   UNL     1      -0.124   0.877   1.931  1.00  0.00     0.219 C 
BRANCH   6   7
ATOM      7  N   UNL     1       0.721  -0.165   1.345  1.00  0.00    -0.335 N 
ATOM      8  C   UNL     1       1.557   0.127   0.202  1.00  0.00     0.147 C 
BRANCH   7   9
ATOM      9  C   UNL     1       1.088  -1.218   2.152  1.00  0.00     0.226 A 
ATOM     10  N   UNL     1       0.156  -1.765   2.934  1.00  0.00    -0.221 NA
ATOM     11  N   UNL     1       2.341  -1.697   2.085  1.00  0.00    -0.212 NA
ATOM     12  C   UNL     1       0.485  -2.880   3.607  1.00  0.00     0.129 A 
ATOM     13  C   UNL     1       2.672  -2.789   2.822  1.00  0.00     0.087 A 
ATOM     14  C   UNL     1       1.728  -3.477   3.561  1.00  0.00     0.066 A 
BRANCH  13  15
ATOM     15  C   UNL     1       4.104  -3.135   2.764  1.00  0.00     0.001 A 
ATOM     16  C   UNL     1       5.061  -2.200   3.204  1.00  0.00     0.012 A 
ATOM     17  C   UNL     1       4.568  -4.368   2.278  1.00  0.00     0.012 A 
ATOM     18  C   UNL     1       6.428  -2.490   3.174  1.00  0.00     0.021 A 
ATOM     19  C   UNL     1       5.937  -4.661   2.244  1.00  0.00     0.021 A 
ATOM     20  C   UNL     1       6.860  -3.722   2.694  1.00  0.00     0.041 A 
ATOM     21  Cl  UNL     1       8.540  -4.084   2.648  1.00  0.00    -0.084 Cl
ENDBRANCH  13  15
BRANCH  14  22
ATOM     22  C   UNL     1       1.944  -4.738   4.243  1.00  0.00     0.190 A 
ATOM     23  N   UNL     1       2.659  -4.933   5.333  1.00  0.00    -0.108 NA
ATOM     24  N   UNL     1       1.251  -5.913   3.969  1.00  0.00    -0.193 N 
ATOM     25  N   UNL     1       2.325  -6.179   5.794  1.00  0.00    -0.023 NA
ATOM     26  N   UNL     1       1.415  -6.749   5.017  1.00  0.00    -0.040 NA
BRANCH  24  27
ATOM     27  C   UNL     1       0.465  -6.264   2.845  1.00  0.00     0.069 A 
ATOM     28  C   UNL     1      -0.637  -7.111   3.015  1.00  0.00     0.028 A 
ATOM     29  C   UNL     1       0.780  -5.782   1.566  1.00  0.00     0.028 A 
ATOM     30  C   UNL     1      -1.440  -7.432   1.918  1.00  0.00     0.002 A 
ATOM     31  C   UNL     1      -0.003  -6.144   0.469  1.00  0.00     0.002 A 
ATOM     32  C   UNL     1      -1.120  -6.956   0.647  1.00  0.00     0.000 A 
ENDBRANCH  24  27
ENDBRANCH  14  22
ENDBRANCH   7   9
ENDBRANCH   6   7
ENDBRANCH   3   6
ENDBRANCH   1   2
BRANCH   1  33
ATOM     33  C   UNL     1      -1.834  -1.759  -0.403  1.00  0.00     0.023 C 
BRANCH  33  34
ATOM     34  C   UNL     1      -3.075  -2.637  -0.226  1.00  0.00     0.023 C 
BRANCH  34  35
ATOM     35  C   UNL     1      -4.287  -2.223  -1.054  1.00  0.00     0.116 C 
BRANCH  35  36
ATOM     36  N   UNL     1      -4.028  -2.228  -2.486  1.00  0.00    -0.352 N 
ATOM     37  C   UNL     1      -4.825  -2.687  -3.506  1.00  0.00     0.251 C 
ATOM     38  H   UNL     1      -3.162  -1.849  -2.762  1.00  0.00     0.163 HD
ATOM     39  O   UNL     1      -4.395  -2.733  -4.655  1.00  0.00    -0.269 OA
BRANCH  37  40
ATOM     40  C   UNL     1      -6.194  -3.163  -3.210  1.00  0.00     0.039 A 
ATOM     41  C   UNL     1      -6.619  -4.375  -3.759  1.00  0.00     0.014 A 
ATOM     42  C   UNL     1      -7.045  -2.429  -2.380  1.00  0.00     0.014 A 
ATOM     43  C   UNL     1      -7.873  -4.885  -3.420  1.00  0.00     0.010 A 
ATOM     44  C   UNL     1      -8.263  -2.975  -1.983  1.00  0.00     0.010 A 
ATOM     45  C   UNL     1      -8.690  -4.209  -2.498  1.00  0.00    -0.014 A 
BRANCH  45  46
ATOM     46  C   UNL     1      -9.993  -4.775  -2.063  1.00  0.00     0.031 A 
ATOM     47  C   UNL     1     -11.272  -4.047  -2.374  1.00  0.00     0.074 A 
ATOM     48  C   UNL     1     -10.022  -5.914  -1.344  1.00  0.00     0.049 A 
ATOM     49  N   UNL     1     -12.499  -4.338  -2.021  1.00  0.00    -0.248 NA
ATOM     50  C   UNL     1     -11.155  -2.814  -3.169  1.00  0.00     0.031 C 
ATOM     51  C   UNL     1      -8.850  -6.696  -0.948  1.00  0.00     0.029 A 
ATOM     52  N   UNL     1     -11.079  -6.611  -0.811  1.00  0.00    -0.354 N 
ATOM     53  C   UNL     1     -13.294  -3.329  -2.548  1.00  0.00     0.074 A 
ATOM     54  C   UNL     1     -12.407  -2.382  -3.187  1.00  0.00     0.031 C 
ATOM     55  C   UNL     1      -9.253  -7.776  -0.259  1.00  0.00     0.029 A 
ATOM     56  C   UNL     1     -10.706  -7.742  -0.127  1.00  0.00     0.049 A 
ATOM     57  H   UNL     1     -12.016  -6.326  -0.911  1.00  0.00     0.167 HD
ATOM     58  C   UNL     1     -14.643  -3.218  -2.529  1.00  0.00     0.037 A 
ATOM     59  C   UNL     1     -11.452  -8.644   0.539  1.00  0.00     0.037 A 
ATOM     60  C   UNL     1     -15.526  -4.166  -1.902  1.00  0.00     0.049 A 
ATOM     61  C   UNL     1     -12.948  -8.468   0.583  1.00  0.00     0.074 A 
ATOM     62  C   UNL     1     -16.909  -4.152  -1.845  1.00  0.00     0.029 A 
ATOM     63  N   UNL     1     -15.110  -5.301  -1.222  1.00  0.00    -0.354 N 
ATOM     64  N   UNL     1     -13.691  -7.538   0.034  1.00  0.00    -0.248 NA
ATOM     65  C   UNL     1     -13.710  -9.474   1.337  1.00  0.00     0.031 C 
ATOM     66  C   UNL     1     -17.328  -5.255  -1.095  1.00  0.00     0.029 A 
ATOM     67  C   UNL     1     -16.209  -5.987  -0.731  1.00  0.00     0.049 A 
ATOM     68  H   UNL     1     -14.173  -5.578  -1.105  1.00  0.00     0.167 HD
ATOM     69  C   UNL     1     -15.005  -7.870   0.339  1.00  0.00     0.074 A 
ATOM     70  C   UNL     1     -14.958  -9.094   1.110  1.00  0.00     0.031 C 
ATOM     71  C   UNL     1     -16.148  -7.219   0.012  1.00  0.00     0.037 A 
BRANCH  58  72
ATOM     72  C   UNL     1     -15.252  -2.034  -3.225  1.00  0.00     0.064 A 
ATOM     73  C   UNL     1     -15.225  -1.915  -4.624  1.00  0.00     0.173 A 
ATOM     74  C   UNL     1     -15.907  -1.031  -2.495  1.00  0.00     0.173 A 
ATOM     75  F   UNL     1     -14.601  -2.841  -5.368  1.00  0.00    -0.203 F 
ATOM     76  C   UNL     1     -15.809  -0.825  -5.263  1.00  0.00     0.198 A 
ATOM     77  C   UNL     1     -16.518   0.042  -3.140  1.00  0.00     0.198 A 
ATOM     78  F   UNL     1     -15.967  -1.097  -1.157  1.00  0.00    -0.203 F 
ATOM     79  F   UNL     1     -15.728  -0.711  -6.596  1.00  0.00    -0.200 F 
ATOM     80  C   UNL     1     -16.462   0.148  -4.522  1.00  0.00     0.200 A 
ATOM     81  F   UNL     1     -17.162   0.974  -2.424  1.00  0.00    -0.200 F 
ATOM     82  F   UNL     1     -17.033   1.191  -5.139  1.00  0.00    -0.200 F 
ENDBRANCH  58  72
BRANCH  59  83
ATOM     83  C   UNL     1     -10.812  -9.809   1.208  1.00  0.00     0.064 A 
ATOM     84  C   UNL     1     -11.048 -11.116   0.757  1.00  0.00     0.173 A 
ATOM     85  C   UNL     1      -9.990  -9.648   2.333  1.00  0.00     0.173 A 
ATOM     86  F   UNL     1     -11.843 -11.324  -0.303  1.00  0.00    -0.203 F 
ATOM     87  C   UNL     1     -10.520 -12.217   1.427  1.00  0.00     0.198 A 
ATOM     88  C   UNL     1      -9.434 -10.749   2.982  1.00  0.00     0.198 A 
ATOM     89  F   UNL     1      -9.725  -8.420   2.803  1.00  0.00    -0.203 F 
ATOM     90  F   UNL     1     -10.817 -13.456   1.013  1.00  0.00    -0.200 F 
ATOM     91  C   UNL     1      -9.710 -12.033   2.537  1.00  0.00     0.200 A 
ATOM     92  F   UNL     1      -8.638 -10.566   4.045  1.00  0.00    -0.200 F 
ATOM     93  F   UNL     1      -9.207 -13.092   3.185  1.00  0.00    -0.200 F 
ENDBRANCH  59  83
BRANCH  71  94
ATOM     94  C   UNL     1     -17.445  -7.848   0.433  1.00  0.00     0.064 A 
ATOM     95  C   UNL     1     -17.848  -7.889   1.776  1.00  0.00     0.173 A 
ATOM     96  C   UNL     1     -18.314  -8.386  -0.530  1.00  0.00     0.173 A 
ATOM     97  F   UNL     1     -17.047  -7.402   2.736  1.00  0.00    -0.203 F 
ATOM     98  C   UNL     1     -19.058  -8.473   2.142  1.00  0.00     0.198 A 
ATOM     99  C   UNL     1     -19.538  -8.938  -0.163  1.00  0.00     0.198 A 
ATOM    100  F   UNL     1     -17.980  -8.365  -1.829  1.00  0.00    -0.203 F 
ATOM    101  F   UNL     1     -19.396  -8.551   3.437  1.00  0.00    -0.200 F 
ATOM    102  C   UNL     1     -19.904  -8.990   1.173  1.00  0.00     0.200 A 
ATOM    103  F   UNL     1     -20.361  -9.422  -1.103  1.00  0.00    -0.200 F 
ATOM    104  F   UNL     1     -21.072  -9.545   1.527  1.00  0.00    -0.200 F 
ENDBRANCH  71  94
ENDBRANCH  45  46
ENDBRANCH  37  40
ENDBRANCH  35  36
ENDBRANCH  34  35
ENDBRANCH  33  34
ENDBRANCH   1  33
TORSDOF 16
