REMARK SMILES CS(=O)(=O)N(Cc1ccc(Cl)cc1)c1ccc(C(=O)Nc2ccccc2C(=O)NCCCCNC(=O)c2ccc(-c3c4nc(c(-c5c(F)c(F)c(F)c(F)c5F)c5ccc([nH]5)c(-c5c(F)c(F)c(F)c(F)c5F)c5nc(c(-c6c(F)c(F)c(F)c(F)c6F)c6ccc3[nH]6)C=C5)C=C4)cc2)cc1
REMARK SMILES IDX 30 1 29 2 27 3 28 4 26 6 21 7 22 8 23 9 25 10 24 11 20 12
REMARK SMILES IDX 18 13 19 14 17 16 14 17 15 18 101 19 16 20 100 21 5 22 2 23
REMARK SMILES IDX 1 24 3 25 4 26 6 27 7 28 8 29 13 30 9 31 12 32 10 33 11 34
REMARK SMILES IDX 31 35 32 36 33 37 34 38 35 39 36 41 37 42 38 43 99 44 39 45
REMARK SMILES IDX 98 46 40 47 41 48 42 49 92 50 43 51 97 52 91 53 93 54 44 55
REMARK SMILES IDX 96 56 90 57 89 58 45 60 77 61 57 62 76 63 58 64 61 65 75 66
REMARK SMILES IDX 94 67 59 68 60 69 74 71 95 72 62 73 46 74 47 75 55 76 48 77
REMARK SMILES IDX 49 78 53 79 56 80 50 81 51 82 54 83 52 84 78 85 79 86 87 87
REMARK SMILES IDX 80 88 81 89 85 90 88 91 82 92 83 93 86 94 84 95 63 96 64 97
REMARK SMILES IDX 72 98 65 99 66 100 70 101 73 102 67 103 68 104 71 105 69 106
REMARK H PARENT 29 5 20 15 34 40 93 59 61 70
REMARK Flexibility Score: inf
ROOT
ATOM      1  C   UNL     1      -1.725  -5.577   7.530  1.00  0.00     0.116 C 
ENDROOT
BRANCH   1   2
ATOM      2  N   UNL     1      -1.832  -5.407   6.099  1.00  0.00    -0.352 N 
ATOM      3  C   UNL     1      -2.427  -4.406   5.365  1.00  0.00     0.253 C 
ATOM      4  O   UNL     1      -2.311  -4.473   4.139  1.00  0.00    -0.269 OA
ATOM      5  H   UNL     1      -1.413  -6.120   5.564  1.00  0.00     0.163 HD
BRANCH   3   6
ATOM      6  C   UNL     1      -3.276  -3.320   5.957  1.00  0.00     0.063 A 
ATOM      7  C   UNL     1      -3.104  -2.639   7.179  1.00  0.00     0.054 A 
ATOM      8  C   UNL     1      -4.126  -1.794   7.651  1.00  0.00     0.027 A 
ATOM      9  C   UNL     1      -5.223  -1.476   6.853  1.00  0.00     0.002 A 
ATOM     10  C   UNL     1      -4.386  -2.964   5.157  1.00  0.00     0.016 A 
ATOM     11  C   UNL     1      -5.334  -2.033   5.588  1.00  0.00     0.001 A 
BRANCH   7  12
ATOM     12  N   UNL     1      -1.946  -2.598   7.979  1.00  0.00    -0.321 N 
ATOM     13  C   UNL     1      -0.616  -2.547   7.631  1.00  0.00     0.255 C 
ATOM     14  O   UNL     1       0.236  -2.724   8.501  1.00  0.00    -0.269 OA
ATOM     15  H   UNL     1      -2.116  -2.606   8.949  1.00  0.00     0.170 HD
BRANCH  13  16
ATOM     16  C   UNL     1      -0.186  -2.250   6.248  1.00  0.00     0.040 A 
ATOM     17  C   UNL     1       0.695  -1.763   3.595  1.00  0.00     0.052 A 
ATOM     18  C   UNL     1       1.419  -2.583   4.478  1.00  0.00     0.028 A 
ATOM     19  C   UNL     1      -0.464  -1.163   4.101  1.00  0.00     0.028 A 
ATOM     20  C   UNL     1       0.986  -2.835   5.783  1.00  0.00     0.016 A 
ATOM     21  C   UNL     1      -0.878  -1.369   5.420  1.00  0.00     0.016 A 
BRANCH  17  22
ATOM     22  N   UNL     1       1.200  -1.495   2.239  1.00  0.00    -0.266 N 
BRANCH  22  23
ATOM     23  S   UNL     1       0.420  -0.282   1.344  1.00  0.00     0.232 S 
ATOM     24  C   UNL     1       1.372  -0.078  -0.147  1.00  0.00     0.183 C 
ATOM     25  O   UNL     1       0.554   0.960   2.091  1.00  0.00    -0.207 OA
ATOM     26  O   UNL     1      -0.883  -0.764   0.951  1.00  0.00    -0.207 OA
ENDBRANCH  22  23
BRANCH  22  27
ATOM     27  C   UNL     1       1.793  -2.646   1.499  1.00  0.00     0.170 C 
BRANCH  27  28
ATOM     28  C   UNL     1       3.237  -2.900   1.920  1.00  0.00    -0.027 A 
ATOM     29  C   UNL     1       3.700  -4.212   2.108  1.00  0.00     0.007 A 
ATOM     30  C   UNL     1       4.082  -1.826   2.259  1.00  0.00     0.007 A 
ATOM     31  C   UNL     1       4.939  -4.440   2.715  1.00  0.00     0.021 A 
ATOM     32  C   UNL     1       5.316  -2.057   2.869  1.00  0.00     0.021 A 
ATOM     33  C   UNL     1       5.729  -3.363   3.114  1.00  0.00     0.041 A 
ATOM     34  Cl  UNL     1       7.204  -3.648   3.952  1.00  0.00    -0.084 Cl
ENDBRANCH  27  28
ENDBRANCH  22  27
ENDBRANCH  17  22
ENDBRANCH  13  16
ENDBRANCH   7  12
ENDBRANCH   3   6
ENDBRANCH   1   2
BRANCH   1  35
ATOM     35  C   UNL     1      -1.489  -7.006   8.003  1.00  0.00     0.023 C 
BRANCH  35  36
ATOM     36  C   UNL     1      -0.166  -7.652   7.585  1.00  0.00     0.023 C 
BRANCH  36  37
ATOM     37  C   UNL     1       1.104  -6.820   7.760  1.00  0.00     0.116 C 
BRANCH  37  38
ATOM     38  N   UNL     1       1.376  -6.417   9.133  1.00  0.00    -0.352 N 
ATOM     39  C   UNL     1       2.385  -6.793   9.992  1.00  0.00     0.251 C 
ATOM     40  H   UNL     1       0.735  -5.771   9.508  1.00  0.00     0.163 HD
ATOM     41  O   UNL     1       2.381  -6.422  11.161  1.00  0.00    -0.269 OA
BRANCH  39  42
ATOM     42  C   UNL     1       3.460  -7.693   9.521  1.00  0.00     0.039 A 
ATOM     43  C   UNL     1       3.772  -8.827  10.276  1.00  0.00     0.014 A 
ATOM     44  C   UNL     1       4.130  -7.445   8.322  1.00  0.00     0.014 A 
ATOM     45  C   UNL     1       4.656  -9.778   9.761  1.00  0.00     0.010 A 
ATOM     46  C   UNL     1       4.945  -8.431   7.771  1.00  0.00     0.010 A 
ATOM     47  C   UNL     1       5.191  -9.623   8.471  1.00  0.00    -0.014 A 
BRANCH  47  48
ATOM     48  C   UNL     1       5.943 -10.724   7.812  1.00  0.00     0.031 A 
ATOM     49  C   UNL     1       7.373 -10.537   7.393  1.00  0.00     0.074 A 
ATOM     50  C   UNL     1       5.300 -11.871   7.510  1.00  0.00     0.049 A 
ATOM     51  N   UNL     1       8.157 -11.357   6.738  1.00  0.00    -0.248 NA
ATOM     52  C   UNL     1       7.998  -9.249   7.728  1.00  0.00     0.031 C 
ATOM     53  C   UNL     1       3.895 -12.156   7.809  1.00  0.00     0.029 A 
ATOM     54  N   UNL     1       5.737 -13.007   6.872  1.00  0.00    -0.354 N 
ATOM     55  C   UNL     1       9.360 -10.683   6.579  1.00  0.00     0.074 A 
ATOM     56  C   UNL     1       9.186  -9.367   7.154  1.00  0.00     0.031 C 
ATOM     57  C   UNL     1       3.594 -13.392   7.382  1.00  0.00     0.029 A 
ATOM     58  C   UNL     1       4.767 -13.971   6.736  1.00  0.00     0.049 A 
ATOM     59  H   UNL     1       6.658 -13.119   6.544  1.00  0.00     0.167 HD
ATOM     60  C   UNL     1      10.513 -11.132   6.025  1.00  0.00     0.037 A 
ATOM     61  C   UNL     1       4.811 -15.181   6.144  1.00  0.00     0.037 A 
ATOM     62  C   UNL     1      10.688 -12.448   5.467  1.00  0.00     0.049 A 
ATOM     63  C   UNL     1       6.095 -15.641   5.510  1.00  0.00     0.074 A 
ATOM     64  C   UNL     1      11.837 -13.019   4.949  1.00  0.00     0.029 A 
ATOM     65  N   UNL     1       9.682 -13.396   5.345  1.00  0.00    -0.354 N 
ATOM     66  N   UNL     1       7.251 -15.028   5.442  1.00  0.00    -0.248 NA
ATOM     67  C   UNL     1       6.080 -16.963   4.867  1.00  0.00     0.031 C 
ATOM     68  C   UNL     1      11.514 -14.289   4.460  1.00  0.00     0.029 A 
ATOM     69  C   UNL     1      10.176 -14.533   4.723  1.00  0.00     0.049 A 
ATOM     70  H   UNL     1       8.755 -13.278   5.654  1.00  0.00     0.167 HD
ATOM     71  C   UNL     1       8.104 -15.892   4.769  1.00  0.00     0.074 A 
ATOM     72  C   UNL     1       7.339 -17.084   4.470  1.00  0.00     0.031 C 
ATOM     73  C   UNL     1       9.402 -15.711   4.425  1.00  0.00     0.037 A 
BRANCH  60  74
ATOM     74  C   UNL     1      11.682 -10.190   5.996  1.00  0.00     0.064 A 
ATOM     75  C   UNL     1      12.355  -9.816   7.170  1.00  0.00     0.173 A 
ATOM     76  C   UNL     1      12.166  -9.691   4.777  1.00  0.00     0.173 A 
ATOM     77  F   UNL     1      11.928 -10.259   8.362  1.00  0.00    -0.203 F 
ATOM     78  C   UNL     1      13.448  -8.955   7.127  1.00  0.00     0.198 A 
ATOM     79  C   UNL     1      13.280  -8.856   4.735  1.00  0.00     0.198 A 
ATOM     80  F   UNL     1      11.567 -10.024   3.624  1.00  0.00    -0.203 F 
ATOM     81  F   UNL     1      14.044  -8.575   8.266  1.00  0.00    -0.200 F 
ATOM     82  C   UNL     1      13.915  -8.482   5.910  1.00  0.00     0.200 A 
ATOM     83  F   UNL     1      13.740  -8.414   3.556  1.00  0.00    -0.200 F 
ATOM     84  F   UNL     1      14.975  -7.663   5.869  1.00  0.00    -0.200 F 
ENDBRANCH  60  74
BRANCH  61  85
ATOM     85  C   UNL     1       3.603 -16.047   6.130  1.00  0.00     0.064 A 
ATOM     86  C   UNL     1       3.564 -17.242   6.862  1.00  0.00     0.173 A 
ATOM     87  C   UNL     1       2.468 -15.708   5.378  1.00  0.00     0.173 A 
ATOM     88  F   UNL     1       4.633 -17.622   7.578  1.00  0.00    -0.203 F 
ATOM     89  C   UNL     1       2.446 -18.073   6.828  1.00  0.00     0.198 A 
ATOM     90  C   UNL     1       1.338 -16.524   5.370  1.00  0.00     0.198 A 
ATOM     91  F   UNL     1       2.450 -14.575   4.661  1.00  0.00    -0.203 F 
ATOM     92  F   UNL     1       2.456 -19.233   7.499  1.00  0.00    -0.200 F 
ATOM     93  C   UNL     1       1.332 -17.710   6.087  1.00  0.00     0.200 A 
ATOM     94  F   UNL     1       0.258 -16.162   4.664  1.00  0.00    -0.200 F 
ATOM     95  F   UNL     1       0.255 -18.508   6.058  1.00  0.00    -0.200 F 
ENDBRANCH  61  85
BRANCH  73  96
ATOM     96  C   UNL     1      10.083 -16.831   3.692  1.00  0.00     0.064 A 
ATOM     97  C   UNL     1       9.768 -17.133   2.359  1.00  0.00     0.173 A 
ATOM     98  C   UNL     1      11.090 -17.584   4.315  1.00  0.00     0.173 A 
ATOM     99  F   UNL     1       8.800 -16.454   1.723  1.00  0.00    -0.203 F 
ATOM    100  C   UNL     1      10.421 -18.161   1.684  1.00  0.00     0.198 A 
ATOM    101  C   UNL     1      11.763 -18.590   3.627  1.00  0.00     0.198 A 
ATOM    102  F   UNL     1      11.433 -17.333   5.587  1.00  0.00    -0.203 F 
ATOM    103  F   UNL     1      10.070 -18.462   0.425  1.00  0.00    -0.200 F 
ATOM    104  C   UNL     1      11.423 -18.882   2.315  1.00  0.00     0.200 A 
ATOM    105  F   UNL     1      12.741 -19.276   4.233  1.00  0.00    -0.200 F 
ATOM    106  F   UNL     1      12.057 -19.864   1.660  1.00  0.00    -0.200 F 
ENDBRANCH  73  96
ENDBRANCH  47  48
ENDBRANCH  39  42
ENDBRANCH  37  38
ENDBRANCH  36  37
ENDBRANCH  35  36
ENDBRANCH   1  35
TORSDOF 17
