REMARK SMILES O=C(NCCCCNC(=O)c1ccc2c(c1)NC1=[NH+]S(=O)(=O)[NH+]=C1N2)c1ccc(-c2c3nc(c(-c4c(F)c(F)c(F)c(F)c4F)c4ccc([nH]4)c(-c4c(F)c(F)c(F)c(F)c4F)c4nc(c(-c5c(F)c(F)c(F)c(F)c5F)c5ccc2[nH]5)C=C4)C=C3)cc1
REMARK SMILES IDX 4 1 3 2 1 3 2 4 26 6 27 7 88 8 28 9 87 10 29 11 30 12 31 13
REMARK SMILES IDX 81 14 32 15 86 16 80 17 82 18 33 19 85 20 79 21 78 22 34 24
REMARK SMILES IDX 66 25 46 26 65 27 47 28 50 29 64 30 83 31 48 32 49 33 63 35
REMARK SMILES IDX 84 36 51 37 35 38 36 39 44 40 37 41 38 42 42 43 45 44 39 45
REMARK SMILES IDX 40 46 43 47 41 48 67 49 68 50 76 51 69 52 70 53 74 54 77 55
REMARK SMILES IDX 71 56 72 57 75 58 73 59 52 60 53 61 61 62 54 63 55 64 59 65
REMARK SMILES IDX 62 66 56 67 57 68 60 69 58 70 5 71 6 72 7 73 8 74 9 75 10 77
REMARK SMILES IDX 11 78 12 79 16 80 13 81 15 82 14 83 17 84 25 85 18 86 24 88
REMARK SMILES IDX 19 90 23 91 20 92 21 95 22 96
REMARK H PARENT 3 5 82 23 50 34 8 76 17 87 25 89 19 93 23 94
REMARK Flexibility Score: inf
ROOT
ATOM      1  C   UNL     1       4.541   0.187   1.663  1.00  0.00     0.116 C 
ENDROOT
BRANCH   1   2
ATOM      2  N   UNL     1       3.086   0.162   1.454  1.00  0.00    -0.352 N 
ATOM      3  O   UNL     1       1.235   0.233   0.118  1.00  0.00    -0.269 OA
ATOM      4  C   UNL     1       2.391  -0.133   0.283  1.00  0.00     0.251 C 
ATOM      5  H   UNL     1       2.533   0.382   2.239  1.00  0.00     0.163 HD
BRANCH   4   6
ATOM      6  C   UNL     1       3.077  -0.923  -0.757  1.00  0.00     0.039 A 
ATOM      7  C   UNL     1       2.880  -0.771  -2.129  1.00  0.00     0.014 A 
ATOM      8  C   UNL     1       4.011  -1.832  -0.295  1.00  0.00     0.014 A 
ATOM      9  C   UNL     1       3.641  -1.571  -2.982  1.00  0.00     0.010 A 
ATOM     10  C   UNL     1       5.027  -2.194  -1.114  1.00  0.00     0.010 A 
ATOM     11  C   UNL     1       4.709  -2.309  -2.440  1.00  0.00    -0.014 A 
BRANCH  11  12
ATOM     12  C   UNL     1       5.564  -3.194  -3.210  1.00  0.00     0.031 A 
ATOM     13  C   UNL     1       6.144  -2.527  -4.383  1.00  0.00     0.074 A 
ATOM     14  C   UNL     1       5.909  -4.447  -2.826  1.00  0.00     0.049 A 
ATOM     15  N   UNL     1       5.744  -2.650  -5.600  1.00  0.00    -0.248 NA
ATOM     16  C   UNL     1       7.115  -1.446  -4.167  1.00  0.00     0.031 C 
ATOM     17  C   UNL     1       5.658  -5.144  -1.554  1.00  0.00     0.029 A 
ATOM     18  N   UNL     1       6.620  -5.377  -3.524  1.00  0.00    -0.354 N 
ATOM     19  C   UNL     1       6.563  -1.819  -6.346  1.00  0.00     0.074 A 
ATOM     20  C   UNL     1       7.235  -0.962  -5.405  1.00  0.00     0.031 C 
ATOM     21  C   UNL     1       6.374  -6.292  -1.502  1.00  0.00     0.029 A 
ATOM     22  C   UNL     1       6.990  -6.506  -2.796  1.00  0.00     0.049 A 
ATOM     23  H   UNL     1       6.856  -5.259  -4.472  1.00  0.00     0.167 HD
ATOM     24  C   UNL     1       6.806  -2.114  -7.651  1.00  0.00     0.037 A 
ATOM     25  C   UNL     1       7.734  -7.549  -3.249  1.00  0.00     0.037 A 
ATOM     26  C   UNL     1       5.844  -3.075  -8.142  1.00  0.00     0.049 A 
ATOM     27  C   UNL     1       7.622  -7.532  -4.728  1.00  0.00     0.074 A 
ATOM     28  C   UNL     1       4.476  -3.076  -8.331  1.00  0.00     0.029 A 
ATOM     29  N   UNL     1       6.224  -4.394  -8.107  1.00  0.00    -0.354 N 
ATOM     30  N   UNL     1       6.516  -7.773  -5.374  1.00  0.00    -0.248 NA
ATOM     31  C   UNL     1       8.634  -6.797  -5.468  1.00  0.00     0.031 C 
ATOM     32  C   UNL     1       4.048  -4.391  -7.976  1.00  0.00     0.029 A 
ATOM     33  C   UNL     1       5.175  -5.152  -7.659  1.00  0.00     0.049 A 
ATOM     34  H   UNL     1       7.110  -4.739  -8.364  1.00  0.00     0.167 HD
ATOM     35  C   UNL     1       6.513  -6.861  -6.418  1.00  0.00     0.074 A 
ATOM     36  C   UNL     1       7.885  -6.360  -6.484  1.00  0.00     0.031 C 
ATOM     37  C   UNL     1       5.337  -6.393  -6.930  1.00  0.00     0.037 A 
BRANCH  24  38
ATOM     38  C   UNL     1       8.133  -1.885  -8.330  1.00  0.00     0.064 A 
ATOM     39  C   UNL     1       8.241  -2.148  -9.709  1.00  0.00     0.173 A 
ATOM     40  C   UNL     1       9.357  -1.713  -7.647  1.00  0.00     0.173 A 
ATOM     41  F   UNL     1       7.144  -2.355 -10.453  1.00  0.00    -0.203 F 
ATOM     42  C   UNL     1       9.480  -2.300 -10.336  1.00  0.00     0.198 A 
ATOM     43  C   UNL     1      10.590  -1.813  -8.287  1.00  0.00     0.198 A 
ATOM     44  F   UNL     1       9.425  -1.559  -6.320  1.00  0.00    -0.203 F 
ATOM     45  F   UNL     1       9.533  -2.675 -11.621  1.00  0.00    -0.200 F 
ATOM     46  C   UNL     1      10.653  -2.136  -9.624  1.00  0.00     0.200 A 
ATOM     47  F   UNL     1      11.715  -1.676  -7.570  1.00  0.00    -0.200 F 
ATOM     48  F   UNL     1      11.841  -2.340 -10.207  1.00  0.00    -0.200 F 
ENDBRANCH  24  38
BRANCH  25  49
ATOM     49  C   UNL     1       8.826  -8.286  -2.559  1.00  0.00     0.064 A 
ATOM     50  C   UNL     1       9.373  -9.454  -3.124  1.00  0.00     0.173 A 
ATOM     51  C   UNL     1       9.570  -7.689  -1.524  1.00  0.00     0.173 A 
ATOM     52  F   UNL     1       8.747 -10.068  -4.138  1.00  0.00    -0.203 F 
ATOM     53  C   UNL     1      10.615  -9.958  -2.718  1.00  0.00     0.198 A 
ATOM     54  C   UNL     1      10.808  -8.195  -1.119  1.00  0.00     0.198 A 
ATOM     55  F   UNL     1       9.161  -6.544  -0.959  1.00  0.00    -0.203 F 
ATOM     56  F   UNL     1      11.139 -11.026  -3.337  1.00  0.00    -0.200 F 
ATOM     57  C   UNL     1      11.339  -9.317  -1.728  1.00  0.00     0.200 A 
ATOM     58  F   UNL     1      11.518  -7.545  -0.185  1.00  0.00    -0.200 F 
ATOM     59  F   UNL     1      12.562  -9.752  -1.393  1.00  0.00    -0.200 F 
ENDBRANCH  25  49
BRANCH  37  60
ATOM     60  C   UNL     1       4.074  -7.127  -6.553  1.00  0.00     0.064 A 
ATOM     61  C   UNL     1       3.543  -7.190  -5.253  1.00  0.00     0.173 A 
ATOM     62  C   UNL     1       3.301  -7.671  -7.588  1.00  0.00     0.173 A 
ATOM     63  F   UNL     1       4.178  -6.628  -4.217  1.00  0.00    -0.203 F 
ATOM     64  C   UNL     1       2.308  -7.791  -5.003  1.00  0.00     0.198 A 
ATOM     65  C   UNL     1       2.054  -8.238  -7.342  1.00  0.00     0.198 A 
ATOM     66  F   UNL     1       3.738  -7.605  -8.855  1.00  0.00    -0.203 F 
ATOM     67  F   UNL     1       1.823  -7.843  -3.753  1.00  0.00    -0.200 F 
ATOM     68  C   UNL     1       1.560  -8.304  -6.050  1.00  0.00     0.200 A 
ATOM     69  F   UNL     1       1.317  -8.693  -8.365  1.00  0.00    -0.200 F 
ATOM     70  F   UNL     1       0.353  -8.840  -5.818  1.00  0.00    -0.200 F 
ENDBRANCH  37  60
ENDBRANCH  11  12
ENDBRANCH   4   6
ENDBRANCH   1   2
BRANCH   1  71
ATOM     71  C   UNL     1       4.974   0.586   3.062  1.00  0.00     0.023 C 
BRANCH  71  72
ATOM     72  C   UNL     1       4.526  -0.377   4.169  1.00  0.00     0.023 C 
BRANCH  72  73
ATOM     73  C   UNL     1       4.925  -1.850   4.021  1.00  0.00     0.116 C 
BRANCH  73  74
ATOM     74  N   UNL     1       6.366  -2.062   4.003  1.00  0.00    -0.352 N 
ATOM     75  C   UNL     1       7.161  -2.739   4.899  1.00  0.00     0.251 C 
ATOM     76  H   UNL     1       6.840  -1.664   3.238  1.00  0.00     0.163 HD
ATOM     77  O   UNL     1       8.383  -2.689   4.811  1.00  0.00    -0.269 OA
BRANCH  75  78
ATOM     78  C   UNL     1       6.541  -3.505   5.999  1.00  0.00     0.044 A 
ATOM     79  C   UNL     1       5.582  -4.489   5.732  1.00  0.00     0.018 A 
ATOM     80  C   UNL     1       6.920  -3.214   7.313  1.00  0.00     0.070 A 
ATOM     81  C   UNL     1       4.910  -5.107   6.786  1.00  0.00     0.057 A 
ATOM     82  C   UNL     1       6.258  -3.833   8.375  1.00  0.00     0.173 A 
ATOM     83  C   UNL     1       5.215  -4.766   8.107  1.00  0.00     0.172 A 
ATOM     84  N   UNL     1       6.562  -3.481   9.704  1.00  0.00    -0.229 N 
ATOM     85  N   UNL     1       4.472  -5.315   9.168  1.00  0.00    -0.229 N 
ATOM     86  C   UNL     1       5.813  -3.947  10.749  1.00  0.00     0.383 C 
ATOM     87  H   UNL     1       7.327  -2.888   9.885  1.00  0.00     0.313 HD
ATOM     88  C   UNL     1       4.686  -4.923  10.460  1.00  0.00     0.383 C 
ATOM     89  H   UNL     1       3.785  -5.994   8.977  1.00  0.00     0.313 HD
ATOM     90  N   UNL     1       5.917  -3.667  11.999  1.00  0.00    -0.122 N 
ATOM     91  N   UNL     1       4.045  -5.270  11.517  1.00  0.00    -0.122 N 
ATOM     92  S   UNL     1       4.724  -4.476  12.777  1.00  0.00     0.469 S 
ATOM     93  H   UNL     1       6.588  -3.077  12.411  1.00  0.00     0.331 HD
ATOM     94  H   UNL     1       3.287  -5.897  11.562  1.00  0.00     0.331 HD
ATOM     95  O   UNL     1       5.321  -5.442  13.664  1.00  0.00    -0.143 OA
ATOM     96  O   UNL     1       3.764  -3.501  13.263  1.00  0.00    -0.143 OA
ENDBRANCH  75  78
ENDBRANCH  73  74
ENDBRANCH  72  73
ENDBRANCH  71  72
ENDBRANCH   1  71
TORSDOF 11
