REMARK SMILES Cc1cccc(OC2(C(=O)NCCCCNC(=O)c3ccc(-c4c5nc(c(-c6c(F)c(F)c(F)c(F)c6F)c6ccc([nH]6)c(-c6c(F)c(F)c(F)c(F)c6F)c6nc(c(-c7c(F)c(F)c(F)c(F)c7F)c7ccc4[nH]7)C=C6)C=C5)cc3)CCN(C(=O)c3cnc[nH]c3=O)CC2)c1
REMARK SMILES IDX 13 1 12 2 11 3 9 4 10 5 8 7 82 8 95 9 83 10 94 11 84 12
REMARK SMILES IDX 85 13 86 14 7 15 6 16 1 17 2 18 3 19 96 20 4 21 5 22 87 23
REMARK SMILES IDX 88 24 92 25 89 26 91 27 93 28 90 29 14 31 15 32 16 33 17 34
REMARK SMILES IDX 18 36 19 37 20 38 81 39 21 40 80 41 22 42 23 43 24 44 74 45
REMARK SMILES IDX 25 46 79 47 73 48 75 49 26 50 78 51 72 52 71 53 27 55 59 56
REMARK SMILES IDX 39 57 58 58 40 59 43 60 57 61 76 62 41 63 42 64 56 66 77 67
REMARK SMILES IDX 44 68 28 69 29 70 37 71 30 72 31 73 35 74 38 75 32 76 33 77
REMARK SMILES IDX 36 78 34 79 60 80 61 81 69 82 62 83 63 84 67 85 70 86 64 87
REMARK SMILES IDX 65 88 68 89 66 90 45 91 46 92 54 93 47 94 48 95 52 96 55 97
REMARK SMILES IDX 49 98 50 99 53 100 51 101
REMARK H PARENT 11 6 91 30 16 35 75 54 43 65
REMARK Flexibility Score: inf
ROOT
ATOM      1  C   UNL     1       1.660   6.423  -1.590  1.00  0.00     0.023 C 
ENDROOT
BRANCH   1   2
ATOM      2  C   UNL     1       0.127   6.504  -1.402  1.00  0.00     0.116 C 
BRANCH   2   3
ATOM      3  N   UNL     1      -0.685   5.369  -1.849  1.00  0.00    -0.353 N 
ATOM      4  C   UNL     1      -1.218   4.260  -1.242  1.00  0.00     0.264 C 
ATOM      5  O   UNL     1      -2.175   3.760  -1.851  1.00  0.00    -0.270 OA
ATOM      6  H   UNL     1      -0.898   5.412  -2.809  1.00  0.00     0.163 HD
BRANCH   4   7
ATOM      7  C   UNL     1      -0.706   3.632   0.102  1.00  0.00     0.190 C 
ATOM      8  C   UNL     1       0.790   3.867   0.237  1.00  0.00     0.080 C 
ATOM      9  C   UNL     1      -1.441   4.300   1.301  1.00  0.00     0.080 C 
ATOM     10  C   UNL     1       1.389   3.551   1.586  1.00  0.00     0.124 C 
ATOM     11  C   UNL     1      -0.770   3.948   2.644  1.00  0.00     0.124 C 
ATOM     12  N   UNL     1       0.646   4.297   2.578  1.00  0.00    -0.338 N 
ATOM     13  C   UNL     1       1.116   5.543   2.963  1.00  0.00     0.261 C 
ATOM     14  O   UNL     1       1.818   6.255   2.249  1.00  0.00    -0.269 OA
BRANCH   7  15
ATOM     15  O   UNL     1      -1.199   2.277   0.121  1.00  0.00    -0.477 OA
BRANCH  15  16
ATOM     16  C   UNL     1      -0.583   1.081  -0.001  1.00  0.00     0.121 A 
ATOM     17  C   UNL     1       2.738  -0.774  -0.092  1.00  0.00     0.044 C 
ATOM     18  C   UNL     1       1.259  -0.515  -0.076  1.00  0.00    -0.047 A 
ATOM     19  C   UNL     1       0.359  -1.578   0.011  1.00  0.00     0.003 A 
ATOM     20  C   UNL     1       0.771   0.802  -0.130  1.00  0.00     0.049 A 
ATOM     21  C   UNL     1      -1.007  -1.323   0.064  1.00  0.00     0.004 A 
ATOM     22  C   UNL     1      -1.467  -0.003   0.070  1.00  0.00     0.046 A 
ENDBRANCH  15  16
ENDBRANCH   7  15
BRANCH  13  23
ATOM     23  C   UNL     1       0.759   5.954   4.329  1.00  0.00     0.123 A 
ATOM     24  C   UNL     1       0.192   7.146   4.556  1.00  0.00     0.132 A 
ATOM     25  C   UNL     1       1.077   5.117   5.500  1.00  0.00     0.263 A 
ATOM     26  N   UNL     1      -0.170   7.622   5.795  1.00  0.00    -0.246 NA
ATOM     27  N   UNL     1       0.703   5.644   6.702  1.00  0.00    -0.312 N 
ATOM     28  O   UNL     1       1.650   4.036   5.427  1.00  0.00    -0.269 OA
ATOM     29  C   UNL     1       0.101   6.863   6.803  1.00  0.00     0.199 A 
ATOM     30  H   UNL     1       0.873   5.128   7.523  1.00  0.00     0.171 HD
ENDBRANCH  13  23
ENDBRANCH   4   7
ENDBRANCH   2   3
ENDBRANCH   1   2
BRANCH   1  31
ATOM     31  C   UNL     1       2.156   6.088  -2.991  1.00  0.00     0.023 C 
BRANCH  31  32
ATOM     32  C   UNL     1       2.281   7.321  -3.859  1.00  0.00     0.116 C 
BRANCH  32  33
ATOM     33  N   UNL     1       3.456   8.150  -3.578  1.00  0.00    -0.352 N 
ATOM     34  C   UNL     1       3.723   9.453  -3.981  1.00  0.00     0.251 C 
ATOM     35  H   UNL     1       4.153   7.725  -3.028  1.00  0.00     0.163 HD
ATOM     36  O   UNL     1       4.750  10.010  -3.692  1.00  0.00    -0.269 OA
BRANCH  34  37
ATOM     37  C   UNL     1       2.631  10.190  -4.674  1.00  0.00     0.039 A 
ATOM     38  C   UNL     1       2.192  11.389  -4.102  1.00  0.00     0.014 A 
ATOM     39  C   UNL     1       1.872   9.539  -5.639  1.00  0.00     0.014 A 
ATOM     40  C   UNL     1       0.869  11.774  -4.291  1.00  0.00     0.010 A 
ATOM     41  C   UNL     1       0.529   9.840  -5.712  1.00  0.00     0.010 A 
ATOM     42  C   UNL     1       0.013  10.918  -4.981  1.00  0.00    -0.014 A 
BRANCH  42  43
ATOM     43  C   UNL     1      -1.442  11.004  -4.897  1.00  0.00     0.031 A 
ATOM     44  C   UNL     1      -2.228  11.403  -6.083  1.00  0.00     0.074 A 
ATOM     45  C   UNL     1      -2.073  10.630  -3.760  1.00  0.00     0.049 A 
ATOM     46  N   UNL     1      -3.422  11.888  -6.036  1.00  0.00    -0.248 NA
ATOM     47  C   UNL     1      -1.694  11.328  -7.437  1.00  0.00     0.031 C 
ATOM     48  C   UNL     1      -3.501  10.375  -3.582  1.00  0.00     0.029 A 
ATOM     49  N   UNL     1      -1.549  10.593  -2.456  1.00  0.00    -0.354 N 
ATOM     50  C   UNL     1      -3.908  11.941  -7.324  1.00  0.00     0.074 A 
ATOM     51  C   UNL     1      -2.775  11.629  -8.161  1.00  0.00     0.031 C 
ATOM     52  C   UNL     1      -3.806  10.504  -2.280  1.00  0.00     0.029 A 
ATOM     53  C   UNL     1      -2.612  10.988  -1.610  1.00  0.00     0.049 A 
ATOM     54  H   UNL     1      -0.635  10.345  -2.188  1.00  0.00     0.167 HD
ATOM     55  C   UNL     1      -5.246  12.123  -7.523  1.00  0.00     0.037 A 
ATOM     56  C   UNL     1      -2.546  12.123  -0.857  1.00  0.00     0.037 A 
ATOM     57  C   UNL     1      -5.939  12.348  -6.257  1.00  0.00     0.049 A 
ATOM     58  C   UNL     1      -3.652  13.113  -1.140  1.00  0.00     0.074 A 
ATOM     59  C   UNL     1      -6.652  11.508  -5.416  1.00  0.00     0.029 A 
ATOM     60  N   UNL     1      -5.686  13.508  -5.532  1.00  0.00    -0.354 N 
ATOM     61  N   UNL     1      -4.359  13.115  -2.236  1.00  0.00    -0.248 NA
ATOM     62  C   UNL     1      -4.009  14.206  -0.240  1.00  0.00     0.031 C 
ATOM     63  C   UNL     1      -6.787  12.151  -4.162  1.00  0.00     0.029 A 
ATOM     64  C   UNL     1      -6.173  13.389  -4.245  1.00  0.00     0.049 A 
ATOM     65  H   UNL     1      -5.223  14.302  -5.886  1.00  0.00     0.167 HD
ATOM     66  C   UNL     1      -5.212  14.188  -2.223  1.00  0.00     0.074 A 
ATOM     67  C   UNL     1      -4.973  14.826  -0.943  1.00  0.00     0.031 C 
ATOM     68  C   UNL     1      -6.025  14.469  -3.283  1.00  0.00     0.037 A 
BRANCH  55  69
ATOM     69  C   UNL     1      -5.960  11.795  -8.820  1.00  0.00     0.064 A 
ATOM     70  C   UNL     1      -7.304  11.360  -8.814  1.00  0.00     0.173 A 
ATOM     71  C   UNL     1      -5.362  11.817 -10.093  1.00  0.00     0.173 A 
ATOM     72  F   UNL     1      -8.053  11.406  -7.705  1.00  0.00    -0.203 F 
ATOM     73  C   UNL     1      -7.939  10.856  -9.954  1.00  0.00     0.198 A 
ATOM     74  C   UNL     1      -5.973  11.259 -11.221  1.00  0.00     0.198 A 
ATOM     75  F   UNL     1      -4.197  12.439 -10.303  1.00  0.00    -0.203 F 
ATOM     76  F   UNL     1      -9.213  10.447  -9.880  1.00  0.00    -0.200 F 
ATOM     77  C   UNL     1      -7.257  10.763 -11.148  1.00  0.00     0.200 A 
ATOM     78  F   UNL     1      -5.303  11.210 -12.382  1.00  0.00    -0.200 F 
ATOM     79  F   UNL     1      -7.845  10.233 -12.229  1.00  0.00    -0.200 F 
ENDBRANCH  55  69
BRANCH  56  80
ATOM     80  C   UNL     1      -1.158  12.497  -0.475  1.00  0.00     0.064 A 
ATOM     81  C   UNL     1      -0.408  11.593   0.303  1.00  0.00     0.173 A 
ATOM     82  C   UNL     1      -0.461  13.507  -1.147  1.00  0.00     0.173 A 
ATOM     83  F   UNL     1      -1.028  10.602   0.964  1.00  0.00    -0.203 F 
ATOM     84  C   UNL     1       0.985  11.622   0.305  1.00  0.00     0.198 A 
ATOM     85  C   UNL     1       0.935  13.543  -1.128  1.00  0.00     0.198 A 
ATOM     86  F   UNL     1      -1.115  14.386  -1.919  1.00  0.00    -0.203 F 
ATOM     87  F   UNL     1       1.671  10.673   0.956  1.00  0.00    -0.200 F 
ATOM     88  C   UNL     1       1.655  12.582  -0.433  1.00  0.00     0.200 A 
ATOM     89  F   UNL     1       1.587  14.448  -1.872  1.00  0.00    -0.200 F 
ATOM     90  F   UNL     1       2.993  12.553  -0.516  1.00  0.00    -0.200 F 
ENDBRANCH  56  80
BRANCH  68  91
ATOM     91  C   UNL     1      -6.822  15.736  -3.481  1.00  0.00     0.064 A 
ATOM     92  C   UNL     1      -6.438  16.990  -2.978  1.00  0.00     0.173 A 
ATOM     93  C   UNL     1      -7.950  15.742  -4.338  1.00  0.00     0.173 A 
ATOM     94  F   UNL     1      -5.322  17.138  -2.252  1.00  0.00    -0.203 F 
ATOM     95  C   UNL     1      -7.163  18.152  -3.260  1.00  0.00     0.198 A 
ATOM     96  C   UNL     1      -8.635  16.912  -4.663  1.00  0.00     0.198 A 
ATOM     97  F   UNL     1      -8.403  14.616  -4.908  1.00  0.00    -0.203 F 
ATOM     98  F   UNL     1      -6.779  19.318  -2.722  1.00  0.00    -0.200 F 
ATOM     99  C   UNL     1      -8.252  18.115  -4.111  1.00  0.00     0.200 A 
ATOM    100  F   UNL     1      -9.655  16.867  -5.532  1.00  0.00    -0.200 F 
ATOM    101  F   UNL     1      -8.914  19.240  -4.415  1.00  0.00    -0.200 F 
ENDBRANCH  68  91
ENDBRANCH  42  43
ENDBRANCH  34  37
ENDBRANCH  32  33
ENDBRANCH  31  32
ENDBRANCH   1  31
TORSDOF 14
