REMARK SMILES Cc1ccc(-c2c(C(=O)NCCCCNC(=O)c3ccc(-c4c5nc(c(-c6c(F)c(F)c(F)c(F)c6F)c6ccc([nH]6)c(-c6c(F)c(F)c(F)c(F)c6F)c6nc(c(-c7c(F)c(F)c(F)c(F)c7F)c7ccc4[nH]7)C=C6)C=C5)cc3)nnn2Cc2c(F)cccc2Cl)cc1
REMARK SMILES IDX 12 1 11 2 10 3 8 4 9 5 7 7 6 8 83 9 81 10 82 11 5 12 1 13
REMARK SMILES IDX 2 14 3 15 94 16 4 17 93 18 84 19 85 20 86 21 91 22 87 23
REMARK SMILES IDX 88 24 90 25 92 26 89 27 13 28 14 29 15 30 16 31 17 33 18 34
REMARK SMILES IDX 19 35 80 36 20 37 79 38 21 39 22 40 23 41 73 42 24 43 78 44
REMARK SMILES IDX 72 45 74 46 25 47 77 48 71 49 70 50 26 52 58 53 38 54 57 55
REMARK SMILES IDX 39 56 42 57 56 58 75 59 40 60 41 61 55 63 76 64 43 65 27 66
REMARK SMILES IDX 28 67 36 68 29 69 30 70 34 71 37 72 31 73 32 74 35 75 33 76
REMARK SMILES IDX 59 77 60 78 68 79 61 80 62 81 66 82 69 83 63 84 64 85 67 86
REMARK SMILES IDX 65 87 44 88 45 89 53 90 46 91 47 92 51 93 54 94 48 95 49 96
REMARK SMILES IDX 52 97 50 98
REMARK H PARENT 10 6 15 32 74 51 42 62
REMARK Flexibility Score: inf
ROOT
ATOM      1  C   UNL     1      -1.069   0.102   3.151  1.00  0.00     0.023 C 
ENDROOT
BRANCH   1   2
ATOM      2  C   UNL     1      -1.795  -1.154   2.660  1.00  0.00     0.116 C 
BRANCH   2   3
ATOM      3  N   UNL     1      -3.200  -1.127   2.965  1.00  0.00    -0.351 N 
ATOM      4  C   UNL     1      -4.327  -0.796   2.259  1.00  0.00     0.274 C 
ATOM      5  O   UNL     1      -5.367  -1.008   2.897  1.00  0.00    -0.267 OA
ATOM      6  H   UNL     1      -3.397  -1.410   3.887  1.00  0.00     0.163 HD
BRANCH   4   7
ATOM      7  C   UNL     1      -4.396  -0.269   0.888  1.00  0.00     0.178 A 
ATOM      8  C   UNL     1      -3.512   0.204  -0.089  1.00  0.00     0.102 A 
ATOM      9  N   UNL     1      -4.344   0.468  -1.168  1.00  0.00    -0.239 N 
ATOM     10  N   UNL     1      -5.684  -0.148   0.376  1.00  0.00    -0.124 NA
ATOM     11  N   UNL     1      -5.635   0.334  -0.846  1.00  0.00    -0.066 NA
BRANCH   8  12
ATOM     12  C   UNL     1      -2.080   0.449  -0.181  1.00  0.00     0.002 A 
ATOM     13  C   UNL     1       2.150   1.219  -0.530  1.00  0.00     0.044 C 
ATOM     14  C   UNL     1       0.674   0.963  -0.455  1.00  0.00    -0.051 A 
ATOM     15  C   UNL     1       0.163  -0.310  -0.723  1.00  0.00     0.004 A 
ATOM     16  C   UNL     1      -0.201   1.978  -0.052  1.00  0.00     0.004 A 
ATOM     17  C   UNL     1      -1.205  -0.558  -0.608  1.00  0.00     0.011 A 
ATOM     18  C   UNL     1      -1.569   1.725   0.079  1.00  0.00     0.011 A 
ENDBRANCH   8  12
BRANCH   9  19
ATOM     19  C   UNL     1      -4.030   0.942  -2.512  1.00  0.00     0.187 C 
BRANCH  19  20
ATOM     20  C   UNL     1      -3.096   0.079  -3.325  1.00  0.00     0.028 A 
ATOM     21  C   UNL     1      -2.193   0.747  -4.168  1.00  0.00     0.129 A 
ATOM     22  C   UNL     1      -3.087  -1.323  -3.370  1.00  0.00     0.049 A 
ATOM     23  F   UNL     1      -2.218   2.087  -4.234  1.00  0.00    -0.207 F 
ATOM     24  C   UNL     1      -1.269   0.071  -4.960  1.00  0.00     0.040 A 
ATOM     25  C   UNL     1      -2.135  -2.011  -4.139  1.00  0.00     0.021 A 
ATOM     26  Cl  UNL     1      -4.219  -2.308  -2.517  1.00  0.00    -0.084 Cl
ATOM     27  C   UNL     1      -1.222  -1.316  -4.929  1.00  0.00     0.005 A 
ENDBRANCH  19  20
ENDBRANCH   9  19
ENDBRANCH   4   7
ENDBRANCH   2   3
ENDBRANCH   1   2
BRANCH   1  28
ATOM     28  C   UNL     1      -0.651   0.038   4.625  1.00  0.00     0.023 C 
BRANCH  28  29
ATOM     29  C   UNL     1       0.468  -0.964   4.893  1.00  0.00     0.116 C 
BRANCH  29  30
ATOM     30  N   UNL     1       1.818  -0.483   4.646  1.00  0.00    -0.352 N 
ATOM     31  C   UNL     1       3.021  -1.177   4.608  1.00  0.00     0.251 C 
ATOM     32  H   UNL     1       1.891   0.485   4.479  1.00  0.00     0.163 HD
ATOM     33  O   UNL     1       4.066  -0.558   4.502  1.00  0.00    -0.269 OA
BRANCH  31  34
ATOM     34  C   UNL     1       3.038  -2.669   4.543  1.00  0.00     0.039 A 
ATOM     35  C   UNL     1       4.006  -3.279   3.729  1.00  0.00     0.014 A 
ATOM     36  C   UNL     1       2.022  -3.446   5.084  1.00  0.00     0.014 A 
ATOM     37  C   UNL     1       3.790  -4.570   3.245  1.00  0.00     0.010 A 
ATOM     38  C   UNL     1       1.738  -4.670   4.515  1.00  0.00     0.010 A 
ATOM     39  C   UNL     1       2.585  -5.202   3.540  1.00  0.00    -0.014 A 
BRANCH  39  40
ATOM     40  C   UNL     1       2.041  -6.316   2.771  1.00  0.00     0.031 A 
ATOM     41  C   UNL     1       1.911  -7.666   3.353  1.00  0.00     0.074 A 
ATOM     42  C   UNL     1       1.486  -6.053   1.566  1.00  0.00     0.049 A 
ATOM     43  N   UNL     1       1.821  -8.745   2.649  1.00  0.00    -0.248 NA
ATOM     44  C   UNL     1       1.892  -7.913   4.790  1.00  0.00     0.031 C 
ATOM     45  C   UNL     1       0.573  -6.897   0.798  1.00  0.00     0.029 A 
ATOM     46  N   UNL     1       1.785  -4.990   0.699  1.00  0.00    -0.354 N 
ATOM     47  C   UNL     1       1.457  -9.764   3.497  1.00  0.00     0.074 A 
ATOM     48  C   UNL     1       1.574  -9.211   4.828  1.00  0.00     0.031 C 
ATOM     49  C   UNL     1       0.589  -6.502  -0.486  1.00  0.00     0.029 A 
ATOM     50  C   UNL     1       1.645  -5.511  -0.608  1.00  0.00     0.049 A 
ATOM     51  H   UNL     1       2.039  -4.073   0.949  1.00  0.00     0.167 HD
ATOM     52  C   UNL     1       0.957 -10.925   2.986  1.00  0.00     0.037 A 
ATOM     53  C   UNL     1       2.708  -5.606  -1.461  1.00  0.00     0.037 A 
ATOM     54  C   UNL     1       0.901 -10.892   1.531  1.00  0.00     0.049 A 
ATOM     55  C   UNL     1       2.951  -7.001  -1.979  1.00  0.00     0.074 A 
ATOM     56  C   UNL     1      -0.125 -10.591   0.650  1.00  0.00     0.029 A 
ATOM     57  N   UNL     1       2.077 -10.874   0.789  1.00  0.00    -0.354 N 
ATOM     58  N   UNL     1       2.565  -8.077  -1.355  1.00  0.00    -0.248 NA
ATOM     59  C   UNL     1       3.708  -7.293  -3.193  1.00  0.00     0.031 C 
ATOM     60  C   UNL     1       0.440 -10.367  -0.626  1.00  0.00     0.029 A 
ATOM     61  C   UNL     1       1.809 -10.538  -0.524  1.00  0.00     0.049 A 
ATOM     62  H   UNL     1       2.972 -11.072   1.148  1.00  0.00     0.167 HD
ATOM     63  C   UNL     1       3.050  -9.177  -2.013  1.00  0.00     0.074 A 
ATOM     64  C   UNL     1       3.734  -8.636  -3.171  1.00  0.00     0.031 C 
ATOM     65  C   UNL     1       2.869 -10.434  -1.514  1.00  0.00     0.037 A 
BRANCH  52  66
ATOM     66  C   UNL     1       0.239 -11.950   3.830  1.00  0.00     0.064 A 
ATOM     67  C   UNL     1      -0.890 -12.642   3.340  1.00  0.00     0.173 A 
ATOM     68  C   UNL     1       0.596 -12.258   5.155  1.00  0.00     0.173 A 
ATOM     69  F   UNL     1      -1.290 -12.523   2.068  1.00  0.00    -0.203 F 
ATOM     70  C   UNL     1      -1.664 -13.479   4.146  1.00  0.00     0.198 A 
ATOM     71  C   UNL     1      -0.207 -13.055   5.978  1.00  0.00     0.198 A 
ATOM     72  F   UNL     1       1.750 -11.819   5.677  1.00  0.00    -0.203 F 
ATOM     73  F   UNL     1      -2.733 -14.098   3.627  1.00  0.00    -0.200 F 
ATOM     74  C   UNL     1      -1.345 -13.655   5.476  1.00  0.00     0.200 A 
ATOM     75  F   UNL     1       0.126 -13.229   7.264  1.00  0.00    -0.200 F 
ATOM     76  F   UNL     1      -2.118 -14.415   6.263  1.00  0.00    -0.200 F 
ENDBRANCH  52  66
BRANCH  53  77
ATOM     77  C   UNL     1       3.806  -4.648  -1.150  1.00  0.00     0.064 A 
ATOM     78  C   UNL     1       3.510  -3.273  -1.105  1.00  0.00     0.173 A 
ATOM     79  C   UNL     1       5.002  -5.072  -0.557  1.00  0.00     0.173 A 
ATOM     80  F   UNL     1       2.385  -2.811  -1.673  1.00  0.00    -0.203 F 
ATOM     81  C   UNL     1       4.295  -2.392  -0.367  1.00  0.00     0.198 A 
ATOM     82  C   UNL     1       5.804  -4.177   0.152  1.00  0.00     0.198 A 
ATOM     83  F   UNL     1       5.350  -6.366  -0.574  1.00  0.00    -0.203 F 
ATOM     84  F   UNL     1       3.908  -1.120  -0.215  1.00  0.00    -0.200 F 
ATOM     85  C   UNL     1       5.429  -2.848   0.279  1.00  0.00     0.200 A 
ATOM     86  F   UNL     1       6.892  -4.622   0.796  1.00  0.00    -0.200 F 
ATOM     87  F   UNL     1       6.133  -2.020   1.063  1.00  0.00    -0.200 F 
ENDBRANCH  53  77
BRANCH  65  88
ATOM     88  C   UNL     1       3.588 -11.682  -1.964  1.00  0.00     0.064 A 
ATOM     89  C   UNL     1       4.862 -11.683  -2.554  1.00  0.00     0.173 A 
ATOM     90  C   UNL     1       3.057 -12.961  -1.664  1.00  0.00     0.173 A 
ATOM     91  F   UNL     1       5.531 -10.544  -2.776  1.00  0.00    -0.203 F 
ATOM     92  C   UNL     1       5.526 -12.869  -2.883  1.00  0.00     0.198 A 
ATOM     93  C   UNL     1       3.748 -14.140  -1.938  1.00  0.00     0.198 A 
ATOM     94  F   UNL     1       1.864 -13.103  -1.068  1.00  0.00    -0.203 F 
ATOM     95  F   UNL     1       6.722 -12.813  -3.485  1.00  0.00    -0.200 F 
ATOM     96  C   UNL     1       4.975 -14.095  -2.564  1.00  0.00     0.200 A 
ATOM     97  F   UNL     1       3.224 -15.319  -1.571  1.00  0.00    -0.200 F 
ATOM     98  F   UNL     1       5.636 -15.228  -2.837  1.00  0.00    -0.200 F 
ENDBRANCH  65  88
ENDBRANCH  39  40
ENDBRANCH  31  34
ENDBRANCH  29  30
ENDBRANCH  28  29
ENDBRANCH   1  28
TORSDOF 14
