REMARK SMILES CC1=C(C)C(=O)N(C[C@H](CC(C)C)C(=O)NCCCCNC(=O)c2ccc(-c3c4nc(c(-c5c(F)c(F)c(F)c(F)c5F)c5ccc([nH]5)c(-c5c(F)c(F)c(F)c(F)c5F)c5nc(c(-c6c(F)c(F)c(F)c(F)c6F)c6ccc3[nH]6)C=C5)C=C4)cc2)C1=O
REMARK SMILES IDX 18 1 17 2 16 3 14 4 15 5 9 7 8 8 7 9 1 10 2 11 3 12 87 13
REMARK SMILES IDX 4 14 5 15 88 16 6 17 10 18 11 19 12 20 13 21 19 22 20 23
REMARK SMILES IDX 21 24 22 25 23 27 24 28 25 29 86 30 26 31 85 32 27 33 28 34
REMARK SMILES IDX 29 35 79 36 30 37 84 38 78 39 80 40 31 41 83 42 77 43 76 44
REMARK SMILES IDX 32 46 64 47 44 48 63 49 45 50 48 51 62 52 81 53 46 54 47 55
REMARK SMILES IDX 61 57 82 58 49 59 33 60 34 61 42 62 35 63 36 64 40 65 43 66
REMARK SMILES IDX 37 67 38 68 41 69 39 70 65 71 66 72 74 73 67 74 68 75 72 76
REMARK SMILES IDX 75 77 69 78 70 79 73 80 71 81 50 82 51 83 59 84 52 85 53 86
REMARK SMILES IDX 57 87 60 88 54 89 55 90 58 91 56 92
REMARK H PARENT 16 6 21 26 80 45 48 56
REMARK Flexibility Score: inf
ROOT
ATOM      1  C   UNL     1       0.620  -8.484   0.966  1.00  0.00     0.023 C 
ENDROOT
BRANCH   1   2
ATOM      2  C   UNL     1       1.958  -7.776   0.806  1.00  0.00     0.116 C 
BRANCH   2   3
ATOM      3  N   UNL     1       2.420  -7.555  -0.537  1.00  0.00    -0.356 N 
ATOM      4  C   UNL     1       2.971  -6.400  -1.012  1.00  0.00     0.224 C 
ATOM      5  O   UNL     1       3.794  -6.504  -1.926  1.00  0.00    -0.275 OA
ATOM      6  H   UNL     1       2.331  -8.303  -1.170  1.00  0.00     0.163 HD
BRANCH   4   7
ATOM      7  C   UNL     1       2.570  -5.012  -0.477  1.00  0.00     0.099 C 
BRANCH   7   8
ATOM      8  C   UNL     1       3.513  -4.347   0.554  1.00  0.00     0.142 C 
BRANCH   8   9
ATOM      9  N   UNL     1       4.380  -5.210   1.343  1.00  0.00    -0.274 N 
ATOM     10  C   UNL     1       5.066  -8.110   3.442  1.00  0.00     0.051 C 
ATOM     11  C   UNL     1       5.178  -6.826   2.717  1.00  0.00     0.023 C 
ATOM     12  C   UNL     1       6.245  -6.203   2.211  1.00  0.00     0.023 C 
ATOM     13  C   UNL     1       4.014  -6.000   2.375  1.00  0.00     0.256 C 
ATOM     14  C   UNL     1       7.681  -6.527   2.344  1.00  0.00     0.051 C 
ATOM     15  C   UNL     1       5.739  -5.105   1.362  1.00  0.00     0.256 C 
ATOM     16  O   UNL     1       2.959  -6.038   2.986  1.00  0.00    -0.269 OA
ATOM     17  O   UNL     1       6.445  -4.272   0.835  1.00  0.00    -0.269 OA
ENDBRANCH   8   9
ENDBRANCH   7   8
BRANCH   7  18
ATOM     18  C   UNL     1       1.032  -4.758  -0.434  1.00  0.00     0.018 C 
BRANCH  18  19
ATOM     19  C   UNL     1       0.179  -4.794   0.856  1.00  0.00    -0.017 C 
ATOM     20  C   UNL     1       0.399  -3.619   1.803  1.00  0.00     0.007 C 
ATOM     21  C   UNL     1      -1.307  -4.843   0.462  1.00  0.00     0.007 C 
ENDBRANCH  18  19
ENDBRANCH   7  18
ENDBRANCH   4   7
ENDBRANCH   2   3
ENDBRANCH   1   2
BRANCH   1  22
ATOM     22  C   UNL     1       0.729  -9.900   1.526  1.00  0.00     0.023 C 
BRANCH  22  23
ATOM     23  C   UNL     1       1.486 -10.053   2.845  1.00  0.00     0.116 C 
BRANCH  23  24
ATOM     24  N   UNL     1       0.863  -9.451   4.011  1.00  0.00    -0.352 N 
ATOM     25  C   UNL     1       0.902  -9.927   5.308  1.00  0.00     0.251 C 
ATOM     26  H   UNL     1       0.362  -8.617   3.863  1.00  0.00     0.163 HD
ATOM     27  O   UNL     1       0.324  -9.353   6.223  1.00  0.00    -0.269 OA
BRANCH  25  28
ATOM     28  C   UNL     1       1.618 -11.197   5.568  1.00  0.00     0.039 A 
ATOM     29  C   UNL     1       0.904 -12.274   6.096  1.00  0.00     0.014 A 
ATOM     30  C   UNL     1       2.949 -11.355   5.171  1.00  0.00     0.014 A 
ATOM     31  C   UNL     1       1.498 -13.538   6.135  1.00  0.00     0.010 A 
ATOM     32  C   UNL     1       3.510 -12.630   5.138  1.00  0.00     0.010 A 
ATOM     33  C   UNL     1       2.785 -13.738   5.606  1.00  0.00    -0.014 A 
BRANCH  33  34
ATOM     34  C   UNL     1       3.365 -15.104   5.506  1.00  0.00     0.031 A 
ATOM     35  C   UNL     1       4.611 -15.461   6.266  1.00  0.00     0.074 A 
ATOM     36  C   UNL     1       2.798 -16.013   4.686  1.00  0.00     0.049 A 
ATOM     37  N   UNL     1       5.272 -16.591   6.290  1.00  0.00    -0.248 NA
ATOM     38  C   UNL     1       5.209 -14.400   7.090  1.00  0.00     0.031 C 
ATOM     39  C   UNL     1       1.622 -15.776   3.848  1.00  0.00     0.029 A 
ATOM     40  N   UNL     1       3.136 -17.317   4.419  1.00  0.00    -0.354 N 
ATOM     41  C   UNL     1       6.362 -16.375   7.122  1.00  0.00     0.074 A 
ATOM     42  C   UNL     1       6.310 -14.988   7.532  1.00  0.00     0.031 C 
ATOM     43  C   UNL     1       1.319 -16.904   3.185  1.00  0.00     0.029 A 
ATOM     44  C   UNL     1       2.299 -17.933   3.521  1.00  0.00     0.049 A 
ATOM     45  H   UNL     1       3.907 -17.769   4.833  1.00  0.00     0.167 HD
ATOM     46  C   UNL     1       7.306 -17.258   7.528  1.00  0.00     0.037 A 
ATOM     47  C   UNL     1       2.318 -19.184   3.021  1.00  0.00     0.037 A 
ATOM     48  C   UNL     1       7.346 -18.641   7.131  1.00  0.00     0.049 A 
ATOM     49  C   UNL     1       3.384 -20.144   3.480  1.00  0.00     0.074 A 
ATOM     50  C   UNL     1       8.226 -19.630   7.538  1.00  0.00     0.029 A 
ATOM     51  N   UNL     1       6.475 -19.231   6.226  1.00  0.00    -0.354 N 
ATOM     52  N   UNL     1       4.360 -19.951   4.333  1.00  0.00    -0.248 NA
ATOM     53  C   UNL     1       3.344 -21.500   2.912  1.00  0.00     0.031 C 
ATOM     54  C   UNL     1       7.924 -20.801   6.836  1.00  0.00     0.029 A 
ATOM     55  C   UNL     1       6.816 -20.562   6.040  1.00  0.00     0.049 A 
ATOM     56  H   UNL     1       5.726 -18.772   5.782  1.00  0.00     0.167 HD
ATOM     57  C   UNL     1       5.030 -21.163   4.429  1.00  0.00     0.074 A 
ATOM     58  C   UNL     1       4.340 -22.091   3.557  1.00  0.00     0.031 C 
ATOM     59  C   UNL     1       6.118 -21.479   5.174  1.00  0.00     0.037 A 
BRANCH  46  60
ATOM     60  C   UNL     1       8.376 -16.751   8.453  1.00  0.00     0.064 A 
ATOM     61  C   UNL     1       8.091 -16.370   9.774  1.00  0.00     0.173 A 
ATOM     62  C   UNL     1       9.710 -16.674   8.023  1.00  0.00     0.173 A 
ATOM     63  F   UNL     1       6.831 -16.415  10.233  1.00  0.00    -0.203 F 
ATOM     64  C   UNL     1       9.094 -15.897  10.616  1.00  0.00     0.198 A 
ATOM     65  C   UNL     1      10.715 -16.233   8.880  1.00  0.00     0.198 A 
ATOM     66  F   UNL     1      10.040 -17.031   6.773  1.00  0.00    -0.203 F 
ATOM     67  F   UNL     1       8.787 -15.484  11.854  1.00  0.00    -0.200 F 
ATOM     68  C   UNL     1      10.405 -15.836  10.171  1.00  0.00     0.200 A 
ATOM     69  F   UNL     1      11.985 -16.189   8.453  1.00  0.00    -0.200 F 
ATOM     70  F   UNL     1      11.370 -15.385  10.985  1.00  0.00    -0.200 F 
ENDBRANCH  46  60
BRANCH  47  71
ATOM     71  C   UNL     1       1.279 -19.611   2.045  1.00  0.00     0.064 A 
ATOM     72  C   UNL     1       0.308 -20.561   2.393  1.00  0.00     0.173 A 
ATOM     73  C   UNL     1       1.237 -19.083   0.747  1.00  0.00     0.173 A 
ATOM     74  F   UNL     1       0.319 -21.112   3.616  1.00  0.00    -0.203 F 
ATOM     75  C   UNL     1      -0.651 -20.982   1.473  1.00  0.00     0.198 A 
ATOM     76  C   UNL     1       0.258 -19.481  -0.162  1.00  0.00     0.198 A 
ATOM     77  F   UNL     1       2.139 -18.168   0.364  1.00  0.00    -0.203 F 
ATOM     78  F   UNL     1      -1.537 -21.927   1.818  1.00  0.00    -0.200 F 
ATOM     79  C   UNL     1      -0.679 -20.437   0.199  1.00  0.00     0.200 A 
ATOM     80  F   UNL     1       0.225 -18.940  -1.387  1.00  0.00    -0.200 F 
ATOM     81  F   UNL     1      -1.606 -20.837  -0.683  1.00  0.00    -0.200 F 
ENDBRANCH  47  71
BRANCH  59  82
ATOM     82  C   UNL     1       6.612 -22.897   5.114  1.00  0.00     0.064 A 
ATOM     83  C   UNL     1       7.239 -23.415   3.971  1.00  0.00     0.173 A 
ATOM     84  C   UNL     1       6.495 -23.735   6.234  1.00  0.00     0.173 A 
ATOM     85  F   UNL     1       7.363 -22.660   2.869  1.00  0.00    -0.203 F 
ATOM     86  C   UNL     1       7.706 -24.726   3.943  1.00  0.00     0.198 A 
ATOM     87  C   UNL     1       6.994 -25.034   6.214  1.00  0.00     0.198 A 
ATOM     88  F   UNL     1       5.910 -23.288   7.356  1.00  0.00    -0.203 F 
ATOM     89  F   UNL     1       8.258 -25.215   2.824  1.00  0.00    -0.200 F 
ATOM     90  C   UNL     1       7.592 -25.532   5.067  1.00  0.00     0.200 A 
ATOM     91  F   UNL     1       6.896 -25.805   7.306  1.00  0.00    -0.200 F 
ATOM     92  F   UNL     1       8.052 -26.790   5.041  1.00  0.00    -0.200 F 
ENDBRANCH  59  82
ENDBRANCH  33  34
ENDBRANCH  25  28
ENDBRANCH  23  24
ENDBRANCH  22  23
ENDBRANCH   1  22
TORSDOF 15
