REMARK SMILES Cc1ccc(S(=O)(=O)N2CCCC2)cc1C(=O)N[C@H](CC1=c2ccccc2=NC1)C(=O)NCCCCNC(=O)c1ccc(-c2c3nc(c(-c4c(F)c(F)c(F)c(F)c4F)c4ccc([nH]4)c(-c4c(F)c(F)c(F)c(F)c4F)c4nc(c(-c5c(F)c(F)c(F)c(F)c5F)c5ccc2[nH]5)C=C4)C=C3)cc1
REMARK SMILES IDX 33 1 32 2 30 3 31 4 19 6 18 7 16 8 17 9 15 11 1 12 2 13 3 14
REMARK SMILES IDX 4 15 14 16 5 17 6 18 7 19 8 20 9 21 10 22 13 23 11 24 12 25
REMARK SMILES IDX 20 26 21 27 22 28 29 29 23 30 27 31 28 32 24 33 26 34 25 35
REMARK SMILES IDX 34 36 35 37 36 38 37 39 38 40 39 42 40 43 41 44 102 45 42 46
REMARK SMILES IDX 101 47 43 48 44 49 45 50 95 51 46 52 100 53 94 54 96 55
REMARK SMILES IDX 47 56 99 57 93 58 92 59 48 61 80 62 60 63 79 64 61 65 64 66
REMARK SMILES IDX 78 67 97 68 62 69 63 70 77 72 98 73 65 74 49 75 50 76 58 77
REMARK SMILES IDX 51 78 52 79 56 80 59 81 53 82 54 83 57 84 55 85 81 86 82 87
REMARK SMILES IDX 90 88 83 89 84 90 88 91 91 92 85 93 86 94 89 95 87 96 66 97
REMARK SMILES IDX 67 98 75 99 68 100 69 101 73 102 76 103 70 104 71 105 74 106
REMARK SMILES IDX 72 107
REMARK H PARENT 32 5 18 10 37 41 96 60 64 71
REMARK Flexibility Score: inf
ROOT
ATOM      1  C   UNL     1       5.829   2.954   0.931  1.00  0.00     0.116 C 
ENDROOT
BRANCH   1   2
ATOM      2  N   UNL     1       5.142   1.833   1.537  1.00  0.00    -0.354 N 
ATOM      3  C   UNL     1       4.146   1.018   1.116  1.00  0.00     0.242 C 
ATOM      4  O   UNL     1       3.969   0.020   1.829  1.00  0.00    -0.273 OA
ATOM      5  H   UNL     1       5.466   1.619   2.441  1.00  0.00     0.163 HD
BRANCH   3   6
ATOM      6  C   UNL     1       3.211   1.259  -0.110  1.00  0.00     0.175 C 
BRANCH   6   7
ATOM      7  N   UNL     1       3.703   1.968  -1.341  1.00  0.00    -0.340 N 
ATOM      8  C   UNL     1       3.970   3.158  -1.967  1.00  0.00     0.252 C 
ATOM      9  O   UNL     1       4.501   2.991  -3.077  1.00  0.00    -0.269 OA
ATOM     10  H   UNL     1       3.937   1.263  -1.986  1.00  0.00     0.164 HD
BRANCH   8  11
ATOM     11  C   UNL     1       3.789   4.596  -1.544  1.00  0.00     0.044 A 
ATOM     12  C   UNL     1       2.156   4.300   0.373  1.00  0.00     0.045 C 
ATOM     13  C   UNL     1       2.962   5.109  -0.543  1.00  0.00    -0.038 A 
ATOM     14  C   UNL     1       2.838   6.493  -0.298  1.00  0.00     0.005 A 
ATOM     15  C   UNL     1       3.529   7.410  -1.047  1.00  0.00     0.022 A 
ATOM     16  C   UNL     1       4.522   5.562  -2.278  1.00  0.00     0.035 A 
ATOM     17  C   UNL     1       4.361   6.945  -2.050  1.00  0.00     0.083 A 
BRANCH  17  18
ATOM     18  S   UNL     1       5.142   8.222  -2.995  1.00  0.00     0.243 S 
ATOM     19  O   UNL     1       4.095   8.969  -3.651  1.00  0.00    -0.207 OA
ATOM     20  O   UNL     1       6.080   8.873  -2.100  1.00  0.00    -0.207 OA
BRANCH  18  21
ATOM     21  N   UNL     1       6.016   7.426  -4.174  1.00  0.00    -0.198 NA
ATOM     22  C   UNL     1       5.299   6.798  -5.296  1.00  0.00     0.102 C 
ATOM     23  C   UNL     1       7.128   8.172  -4.787  1.00  0.00     0.102 C 
ATOM     24  C   UNL     1       6.472   6.193  -6.046  1.00  0.00     0.018 C 
ATOM     25  C   UNL     1       7.550   7.275  -5.953  1.00  0.00     0.018 C 
ENDBRANCH  18  21
ENDBRANCH  17  18
ENDBRANCH   8  11
ENDBRANCH   6   7
BRANCH   6  26
ATOM     26  C   UNL     1       1.650   1.282   0.178  1.00  0.00     0.068 C 
BRANCH  26  27
ATOM     27  C   UNL     1       1.107   1.401   1.598  1.00  0.00    -0.037 C 
ATOM     28  C   UNL     1       0.980   0.432   2.504  1.00  0.00     0.001 A 
ATOM     29  C   UNL     1       0.499   2.655   2.176  1.00  0.00     0.174 C 
ATOM     30  C   UNL     1       1.271  -0.962   2.536  1.00  0.00     0.010 A 
ATOM     31  C   UNL     1       0.405   1.111   3.678  1.00  0.00     0.065 A 
ATOM     32  N   UNL     1       0.032   2.342   3.542  1.00  0.00    -0.280 NA
ATOM     33  C   UNL     1       1.124  -1.623   3.695  1.00  0.00     0.001 A 
ATOM     34  C   UNL     1       0.323   0.340   4.930  1.00  0.00     0.028 A 
ATOM     35  C   UNL     1       0.691  -0.950   4.908  1.00  0.00     0.002 A 
ENDBRANCH  26  27
ENDBRANCH   6  26
ENDBRANCH   3   6
ENDBRANCH   1   2
BRANCH   1  36
ATOM     36  C   UNL     1       5.350   4.302   1.472  1.00  0.00     0.023 C 
BRANCH  36  37
ATOM     37  C   UNL     1       5.914   4.753   2.808  1.00  0.00     0.023 C 
BRANCH  37  38
ATOM     38  C   UNL     1       7.357   5.190   2.722  1.00  0.00     0.116 C 
BRANCH  38  39
ATOM     39  N   UNL     1       7.609   6.556   2.282  1.00  0.00    -0.352 N 
ATOM     40  C   UNL     1       8.822   7.235   2.218  1.00  0.00     0.251 C 
ATOM     41  H   UNL     1       6.818   7.064   1.991  1.00  0.00     0.163 HD
ATOM     42  O   UNL     1       8.845   8.444   2.014  1.00  0.00    -0.269 OA
BRANCH  40  43
ATOM     43  C   UNL     1      10.100   6.467   2.209  1.00  0.00     0.039 A 
ATOM     44  C   UNL     1      11.035   6.801   1.220  1.00  0.00     0.014 A 
ATOM     45  C   UNL     1      10.147   5.216   2.793  1.00  0.00     0.014 A 
ATOM     46  C   UNL     1      11.728   5.781   0.581  1.00  0.00     0.010 A 
ATOM     47  C   UNL     1      10.601   4.189   2.014  1.00  0.00     0.010 A 
ATOM     48  C   UNL     1      11.361   4.478   0.884  1.00  0.00    -0.014 A 
BRANCH  48  49
ATOM     49  C   UNL     1      11.835   3.292   0.210  1.00  0.00     0.031 A 
ATOM     50  C   UNL     1      12.968   2.610   0.840  1.00  0.00     0.074 A 
ATOM     51  C   UNL     1      11.097   2.760  -0.786  1.00  0.00     0.049 A 
ATOM     52  N   UNL     1      13.722   1.761   0.251  1.00  0.00    -0.248 NA
ATOM     53  C   UNL     1      13.356   2.863   2.226  1.00  0.00     0.031 C 
ATOM     54  C   UNL     1      11.216   1.464  -1.442  1.00  0.00     0.029 A 
ATOM     55  N   UNL     1      10.205   3.459  -1.602  1.00  0.00    -0.354 N 
ATOM     56  C   UNL     1      14.430   1.107   1.234  1.00  0.00     0.074 A 
ATOM     57  C   UNL     1      14.270   1.913   2.416  1.00  0.00     0.031 C 
ATOM     58  C   UNL     1      10.778   1.589  -2.711  1.00  0.00     0.029 A 
ATOM     59  C   UNL     1      10.495   3.001  -2.913  1.00  0.00     0.049 A 
ATOM     60  H   UNL     1       9.528   4.120  -1.330  1.00  0.00     0.167 HD
ATOM     61  C   UNL     1      14.908  -0.134   0.940  1.00  0.00     0.037 A 
ATOM     62  C   UNL     1      11.133   3.850  -3.778  1.00  0.00     0.037 A 
ATOM     63  C   UNL     1      14.680  -0.427  -0.480  1.00  0.00     0.049 A 
ATOM     64  C   UNL     1      12.505   3.344  -4.180  1.00  0.00     0.074 A 
ATOM     65  C   UNL     1      13.720  -1.138  -1.181  1.00  0.00     0.029 A 
ATOM     66  N   UNL     1      15.299   0.386  -1.411  1.00  0.00    -0.354 N 
ATOM     67  N   UNL     1      13.126   2.377  -3.559  1.00  0.00    -0.248 NA
ATOM     68  C   UNL     1      13.312   3.911  -5.259  1.00  0.00     0.031 C 
ATOM     69  C   UNL     1      13.741  -0.687  -2.538  1.00  0.00     0.029 A 
ATOM     70  C   UNL     1      14.720   0.284  -2.658  1.00  0.00     0.049 A 
ATOM     71  H   UNL     1      16.064   0.970  -1.207  1.00  0.00     0.167 HD
ATOM     72  C   UNL     1      14.346   2.163  -4.130  1.00  0.00     0.074 A 
ATOM     73  C   UNL     1      14.440   3.184  -5.161  1.00  0.00     0.031 C 
ATOM     74  C   UNL     1      15.187   1.170  -3.715  1.00  0.00     0.037 A 
BRANCH  61  75
ATOM     75  C   UNL     1      15.345  -1.171   1.947  1.00  0.00     0.064 A 
ATOM     76  C   UNL     1      15.396  -2.529   1.565  1.00  0.00     0.173 A 
ATOM     77  C   UNL     1      15.680  -0.933   3.295  1.00  0.00     0.173 A 
ATOM     78  F   UNL     1      15.174  -2.911   0.301  1.00  0.00    -0.203 F 
ATOM     79  C   UNL     1      15.681  -3.557   2.467  1.00  0.00     0.198 A 
ATOM     80  C   UNL     1      15.933  -1.964   4.206  1.00  0.00     0.198 A 
ATOM     81  F   UNL     1      15.834   0.297   3.786  1.00  0.00    -0.203 F 
ATOM     82  F   UNL     1      15.705  -4.826   2.037  1.00  0.00    -0.200 F 
ATOM     83  C   UNL     1      15.929  -3.277   3.793  1.00  0.00     0.200 A 
ATOM     84  F   UNL     1      16.191  -1.665   5.488  1.00  0.00    -0.200 F 
ATOM     85  F   UNL     1      16.188  -4.263   4.662  1.00  0.00    -0.200 F 
ENDBRANCH  61  75
BRANCH  62  86
ATOM     86  C   UNL     1      10.751   5.282  -3.524  1.00  0.00     0.064 A 
ATOM     87  C   UNL     1       9.379   5.541  -3.293  1.00  0.00     0.173 A 
ATOM     88  C   UNL     1      11.656   6.253  -3.086  1.00  0.00     0.173 A 
ATOM     89  F   UNL     1       8.447   4.678  -3.735  1.00  0.00    -0.203 F 
ATOM     90  C   UNL     1       8.969   6.553  -2.435  1.00  0.00     0.198 A 
ATOM     91  C   UNL     1      11.216   7.356  -2.343  1.00  0.00     0.198 A 
ATOM     92  F   UNL     1      12.974   6.092  -3.265  1.00  0.00    -0.203 F 
ATOM     93  F   UNL     1       7.702   6.572  -2.000  1.00  0.00    -0.200 F 
ATOM     94  C   UNL     1       9.884   7.473  -1.971  1.00  0.00     0.200 A 
ATOM     95  F   UNL     1      12.111   8.232  -1.863  1.00  0.00    -0.200 F 
ATOM     96  F   UNL     1       9.499   8.441  -1.130  1.00  0.00    -0.200 F 
ENDBRANCH  62  86
BRANCH  74  97
ATOM     97  C   UNL     1      16.555   0.963  -4.291  1.00  0.00     0.064 A 
ATOM     98  C   UNL     1      16.792   0.963  -5.672  1.00  0.00     0.173 A 
ATOM     99  C   UNL     1      17.666   0.670  -3.469  1.00  0.00     0.173 A 
ATOM    100  F   UNL     1      15.785   1.138  -6.540  1.00  0.00    -0.203 F 
ATOM    101  C   UNL     1      18.073   0.771  -6.190  1.00  0.00     0.198 A 
ATOM    102  C   UNL     1      18.926   0.406  -3.992  1.00  0.00     0.198 A 
ATOM    103  F   UNL     1      17.576   0.669  -2.131  1.00  0.00    -0.203 F 
ATOM    104  F   UNL     1      18.274   0.867  -7.511  1.00  0.00    -0.200 F 
ATOM    105  C   UNL     1      19.137   0.485  -5.352  1.00  0.00     0.200 A 
ATOM    106  F   UNL     1      19.934   0.093  -3.166  1.00  0.00    -0.200 F 
ATOM    107  F   UNL     1      20.364   0.293  -5.852  1.00  0.00    -0.200 F 
ENDBRANCH  74  97
ENDBRANCH  48  49
ENDBRANCH  40  43
ENDBRANCH  38  39
ENDBRANCH  37  38
ENDBRANCH  36  37
ENDBRANCH   1  36
TORSDOF 17
