REMARK SMILES O=C(NCCCCNC(=O)c1ccc([C@H]2CCC[N@@H+](CCN3CCCC3=O)C2)cc1)c1ccc(-c2c3nc(c(-c4c(F)c(F)c(F)c(F)c4F)c4ccc([nH]4)c(-c4c(F)c(F)c(F)c(F)c4F)c4nc(c(-c5c(F)c(F)c(F)c(F)c5F)c5ccc2[nH]5)C=C4)C=C3)cc1
REMARK SMILES IDX 6 1 5 2 4 3 3 4 1 5 2 6 31 8 32 9 93 10 33 11 92 12 34 13
REMARK SMILES IDX 35 14 36 15 86 16 37 17 91 18 85 19 87 20 38 21 90 22 84 23
REMARK SMILES IDX 83 24 39 26 71 27 51 28 70 29 52 30 55 31 69 32 88 33 53 34
REMARK SMILES IDX 54 35 68 37 89 38 56 39 40 40 41 41 49 42 42 43 43 44 47 45
REMARK SMILES IDX 50 46 44 47 45 48 48 49 46 50 72 51 73 52 81 53 74 54 75 55
REMARK SMILES IDX 79 56 82 57 76 58 77 59 80 60 78 61 57 62 58 63 66 64 59 65
REMARK SMILES IDX 60 66 64 67 67 68 61 69 62 70 65 71 63 72 7 73 8 74 9 75
REMARK SMILES IDX 10 77 11 78 12 79 30 80 13 81 29 82 14 83 15 84 16 85 28 86
REMARK SMILES IDX 17 87 19 88 18 89 20 91 21 92 22 93 23 94 26 95 24 96 25 97
REMARK SMILES IDX 27 98
REMARK H PARENT 3 7 87 25 55 36 8 76 19 90
REMARK Flexibility Score: inf
ROOT
ATOM      1  C   UNL     1       3.513  15.167  -8.174  1.00  0.00     0.023 C 
ENDROOT
BRANCH   1   2
ATOM      2  C   UNL     1       3.704  16.180  -9.298  1.00  0.00     0.023 C 
BRANCH   2   3
ATOM      3  C   UNL     1       2.909  15.897 -10.562  1.00  0.00     0.116 C 
BRANCH   3   4
ATOM      4  N   UNL     1       1.468  15.985 -10.370  1.00  0.00    -0.352 N 
ATOM      5  O   UNL     1      -0.618  16.804 -10.672  1.00  0.00    -0.269 OA
ATOM      6  C   UNL     1       0.549  16.758 -11.044  1.00  0.00     0.251 C 
ATOM      7  H   UNL     1       1.099  15.411  -9.660  1.00  0.00     0.163 HD
BRANCH   6   8
ATOM      8  C   UNL     1       0.990  17.559 -12.207  1.00  0.00     0.039 A 
ATOM      9  C   UNL     1       1.833  16.995 -13.165  1.00  0.00     0.014 A 
ATOM     10  C   UNL     1       0.589  18.893 -12.322  1.00  0.00     0.014 A 
ATOM     11  C   UNL     1       2.419  17.806 -14.124  1.00  0.00     0.010 A 
ATOM     12  C   UNL     1       1.088  19.680 -13.367  1.00  0.00     0.010 A 
ATOM     13  C   UNL     1       2.033  19.150 -14.259  1.00  0.00    -0.014 A 
BRANCH  13  14
ATOM     14  C   UNL     1       2.571  19.930 -15.404  1.00  0.00     0.031 A 
ATOM     15  C   UNL     1       3.429  21.147 -15.204  1.00  0.00     0.074 A 
ATOM     16  C   UNL     1       2.314  19.478 -16.648  1.00  0.00     0.049 A 
ATOM     17  N   UNL     1       4.009  21.900 -16.106  1.00  0.00    -0.248 NA
ATOM     18  C   UNL     1       3.665  21.585 -13.820  1.00  0.00     0.031 C 
ATOM     19  C   UNL     1       1.479  18.314 -16.962  1.00  0.00     0.029 A 
ATOM     20  N   UNL     1       2.745  19.913 -17.874  1.00  0.00    -0.354 N 
ATOM     21  C   UNL     1       4.670  22.900 -15.405  1.00  0.00     0.074 A 
ATOM     22  C   UNL     1       4.393  22.680 -14.001  1.00  0.00     0.031 C 
ATOM     23  C   UNL     1       1.508  18.092 -18.282  1.00  0.00     0.029 A 
ATOM     24  C   UNL     1       2.292  19.143 -18.918  1.00  0.00     0.049 A 
ATOM     25  H   UNL     1       3.322  20.702 -17.995  1.00  0.00     0.167 HD
ATOM     26  C   UNL     1       5.444  23.901 -15.892  1.00  0.00     0.037 A 
ATOM     27  C   UNL     1       2.465  19.279 -20.244  1.00  0.00     0.037 A 
ATOM     28  C   UNL     1       5.717  24.109 -17.293  1.00  0.00     0.049 A 
ATOM     29  C   UNL     1       3.296  20.422 -20.750  1.00  0.00     0.074 A 
ATOM     30  C   UNL     1       6.504  25.084 -17.884  1.00  0.00     0.029 A 
ATOM     31  N   UNL     1       5.208  23.332 -18.325  1.00  0.00    -0.354 N 
ATOM     32  N   UNL     1       3.942  21.339 -20.072  1.00  0.00    -0.248 NA
ATOM     33  C   UNL     1       3.420  20.550 -22.206  1.00  0.00     0.031 C 
ATOM     34  C   UNL     1       6.427  24.930 -19.272  1.00  0.00     0.029 A 
ATOM     35  C   UNL     1       5.644  23.822 -19.547  1.00  0.00     0.049 A 
ATOM     36  H   UNL     1       4.624  22.549 -18.206  1.00  0.00     0.167 HD
ATOM     37  C   UNL     1       4.562  22.142 -21.017  1.00  0.00     0.074 A 
ATOM     38  C   UNL     1       4.245  21.581 -22.314  1.00  0.00     0.031 C 
ATOM     39  C   UNL     1       5.318  23.252 -20.830  1.00  0.00     0.037 A 
BRANCH  26  40
ATOM     40  C   UNL     1       6.054  24.864 -14.912  1.00  0.00     0.064 A 
ATOM     41  C   UNL     1       7.104  24.485 -14.062  1.00  0.00     0.173 A 
ATOM     42  C   UNL     1       5.642  26.206 -14.882  1.00  0.00     0.173 A 
ATOM     43  F   UNL     1       7.532  23.213 -14.044  1.00  0.00    -0.203 F 
ATOM     44  C   UNL     1       7.708  25.408 -13.211  1.00  0.00     0.198 A 
ATOM     45  C   UNL     1       6.268  27.133 -14.050  1.00  0.00     0.198 A 
ATOM     46  F   UNL     1       4.648  26.626 -15.679  1.00  0.00    -0.203 F 
ATOM     47  F   UNL     1       8.689  25.014 -12.386  1.00  0.00    -0.200 F 
ATOM     48  C   UNL     1       7.297  26.732 -13.213  1.00  0.00     0.200 A 
ATOM     49  F   UNL     1       5.880  28.415 -14.067  1.00  0.00    -0.200 F 
ATOM     50  F   UNL     1       7.893  27.622 -12.408  1.00  0.00    -0.200 F 
ENDBRANCH  26  40
BRANCH  27  51
ATOM     51  C   UNL     1       1.813  18.328 -21.183  1.00  0.00     0.064 A 
ATOM     52  C   UNL     1       2.570  17.481 -22.003  1.00  0.00     0.173 A 
ATOM     53  C   UNL     1       0.415  18.263 -21.294  1.00  0.00     0.173 A 
ATOM     54  F   UNL     1       3.910  17.515 -21.947  1.00  0.00    -0.203 F 
ATOM     55  C   UNL     1       1.956  16.633 -22.923  1.00  0.00     0.198 A 
ATOM     56  C   UNL     1      -0.198  17.386 -22.183  1.00  0.00     0.198 A 
ATOM     57  F   UNL     1      -0.358  19.045 -20.525  1.00  0.00    -0.203 F 
ATOM     58  F   UNL     1       2.705  15.883 -23.741  1.00  0.00    -0.200 F 
ATOM     59  C   UNL     1       0.573  16.582 -23.008  1.00  0.00     0.200 A 
ATOM     60  F   UNL     1      -1.535  17.324 -22.244  1.00  0.00    -0.200 F 
ATOM     61  F   UNL     1      -0.017  15.767 -23.892  1.00  0.00    -0.200 F 
ENDBRANCH  27  51
BRANCH  39  62
ATOM     62  C   UNL     1       5.873  23.908 -22.062  1.00  0.00     0.064 A 
ATOM     63  C   UNL     1       5.044  24.568 -22.983  1.00  0.00     0.173 A 
ATOM     64  C   UNL     1       7.250  23.873 -22.328  1.00  0.00     0.173 A 
ATOM     65  F   UNL     1       3.717  24.614 -22.785  1.00  0.00    -0.203 F 
ATOM     66  C   UNL     1       5.568  25.129 -24.144  1.00  0.00     0.198 A 
ATOM     67  C   UNL     1       7.775  24.468 -23.471  1.00  0.00     0.198 A 
ATOM     68  F   UNL     1       8.088  23.261 -21.477  1.00  0.00    -0.203 F 
ATOM     69  F   UNL     1       4.748  25.690 -25.044  1.00  0.00    -0.200 F 
ATOM     70  C   UNL     1       6.933  25.083 -24.384  1.00  0.00     0.200 A 
ATOM     71  F   UNL     1       9.096  24.437 -23.694  1.00  0.00    -0.200 F 
ATOM     72  F   UNL     1       7.435  25.622 -25.504  1.00  0.00    -0.200 F 
ENDBRANCH  39  62
ENDBRANCH  13  14
ENDBRANCH   6   8
ENDBRANCH   3   4
ENDBRANCH   2   3
ENDBRANCH   1   2
BRANCH   1  73
ATOM     73  C   UNL     1       3.734  13.708  -8.568  1.00  0.00     0.116 C 
BRANCH  73  74
ATOM     74  N   UNL     1       5.065  13.462  -9.103  1.00  0.00    -0.352 N 
ATOM     75  C   UNL     1       6.065  12.647  -8.631  1.00  0.00     0.251 C 
ATOM     76  H   UNL     1       5.281  13.954  -9.928  1.00  0.00     0.163 HD
ATOM     77  O   UNL     1       7.181  12.687  -9.138  1.00  0.00    -0.269 OA
BRANCH  75  78
ATOM     78  C   UNL     1       5.805  11.748  -7.489  1.00  0.00     0.039 A 
ATOM     79  C   UNL     1       6.677  11.765  -6.403  1.00  0.00     0.014 A 
ATOM     80  C   UNL     1       4.704  10.892  -7.484  1.00  0.00     0.014 A 
ATOM     81  C   UNL     1       6.373  11.022  -5.260  1.00  0.00     0.005 A 
ATOM     82  C   UNL     1       4.397  10.164  -6.334  1.00  0.00     0.005 A 
ATOM     83  C   UNL     1       5.191  10.262  -5.180  1.00  0.00    -0.039 A 
BRANCH  83  84
ATOM     84  C   UNL     1       4.795   9.638  -3.837  1.00  0.00     0.074 C 
ATOM     85  C   UNL     1       4.608  10.764  -2.798  1.00  0.00     0.020 C 
ATOM     86  C   UNL     1       3.512   8.767  -3.881  1.00  0.00     0.270 C 
ATOM     87  C   UNL     1       4.145  10.204  -1.460  1.00  0.00     0.062 C 
ATOM     88  N   UNL     1       2.995   8.335  -2.576  1.00  0.00    -0.333 N 
ATOM     89  C   UNL     1       2.842   9.432  -1.623  1.00  0.00     0.262 C 
ATOM     90  H   UNL     1       3.713   7.726  -2.184  1.00  0.00     0.348 HD
BRANCH  88  91
ATOM     91  C   UNL     1       1.762   7.524  -2.700  1.00  0.00     0.284 C 
BRANCH  91  92
ATOM     92  C   UNL     1       0.412   8.206  -3.069  1.00  0.00     0.180 C 
BRANCH  92  93
ATOM     93  N   UNL     1       0.332   8.751  -4.417  1.00  0.00    -0.337 N 
ATOM     94  C   UNL     1       0.215  10.162  -4.689  1.00  0.00     0.120 C 
ATOM     95  C   UNL     1       0.393   7.976  -5.559  1.00  0.00     0.222 C 
ATOM     96  C   UNL     1       0.017  10.250  -6.192  1.00  0.00     0.031 C 
ATOM     97  C   UNL     1       0.434   8.895  -6.747  1.00  0.00     0.102 C 
ATOM     98  O   UNL     1       0.474   6.757  -5.608  1.00  0.00    -0.275 OA
ENDBRANCH  92  93
ENDBRANCH  91  92
ENDBRANCH  88  91
ENDBRANCH  83  84
ENDBRANCH  75  78
ENDBRANCH  73  74
ENDBRANCH   1  73
TORSDOF 15
