REMARK SMILES CC(C)Cc1noc([C@@H]2CC=CC[C@H]2C(=O)NCCCCNC(=O)c2ccc(-c3c4nc(c(-c5c(F)c(F)c(F)c(F)c5F)c5ccc([nH]5)c(-c5c(F)c(F)c(F)c(F)c5F)c5nc(c(-c6c(F)c(F)c(F)c(F)c6F)c6ccc3[nH]6)C=C5)C=C4)cc2)n1
REMARK SMILES IDX 19 1 18 2 17 3 15 4 16 5 14 7 9 8 10 9 11 10 13 11 12 12
REMARK SMILES IDX 8 13 5 14 6 15 88 16 7 17 4 18 2 19 1 20 3 21 20 22 21 23
REMARK SMILES IDX 22 24 23 25 24 27 25 28 26 29 87 30 27 31 86 32 28 33 29 34
REMARK SMILES IDX 30 35 80 36 31 37 85 38 79 39 81 40 32 41 84 42 78 43 77 44
REMARK SMILES IDX 33 46 65 47 45 48 64 49 46 50 49 51 63 52 82 53 47 54 48 55
REMARK SMILES IDX 62 57 83 58 50 59 34 60 35 61 43 62 36 63 37 64 41 65 44 66
REMARK SMILES IDX 38 67 39 68 42 69 40 70 66 71 67 72 75 73 68 74 69 75 73 76
REMARK SMILES IDX 76 77 70 78 71 79 74 80 72 81 51 82 52 83 60 84 53 85 54 86
REMARK SMILES IDX 58 87 61 88 55 89 56 90 59 91 57 92
REMARK H PARENT 17 6 22 26 81 45 49 56
REMARK Flexibility Score: inf
ROOT
ATOM      1  C   UNL     1      -2.165   1.171  -0.856  1.00  0.00     0.023 C 
ENDROOT
BRANCH   1   2
ATOM      2  C   UNL     1      -3.293   0.321  -1.432  1.00  0.00     0.116 C 
BRANCH   2   3
ATOM      3  N   UNL     1      -4.432   1.129  -1.831  1.00  0.00    -0.356 N 
ATOM      4  C   UNL     1      -4.974   1.365  -3.057  1.00  0.00     0.224 C 
ATOM      5  O   UNL     1      -5.981   2.074  -3.106  1.00  0.00    -0.275 OA
ATOM      6  H   UNL     1      -4.891   1.583  -1.088  1.00  0.00     0.163 HD
BRANCH   4   7
ATOM      7  C   UNL     1      -4.381   0.772  -4.330  1.00  0.00     0.095 C 
ATOM      8  C   UNL     1      -2.961   1.314  -4.601  1.00  0.00     0.095 C 
ATOM      9  C   UNL     1      -2.258   0.588  -5.758  1.00  0.00     0.041 C 
ATOM     10  C   UNL     1      -2.472  -0.895  -5.752  1.00  0.00    -0.030 C 
ATOM     11  C   UNL     1      -4.526  -0.758  -4.327  1.00  0.00     0.041 C 
ATOM     12  C   UNL     1      -3.481  -1.492  -5.107  1.00  0.00    -0.030 C 
BRANCH   8  13
ATOM     13  C   UNL     1      -2.975   2.787  -4.857  1.00  0.00     0.230 A 
ATOM     14  C   UNL     1      -2.715   4.855  -4.968  1.00  0.00     0.172 A 
ATOM     15  N   UNL     1      -3.782   4.639  -5.746  1.00  0.00    -0.062 NA
ATOM     16  N   UNL     1      -2.183   3.728  -4.390  1.00  0.00    -0.196 NA
ATOM     17  O   UNL     1      -3.943   3.261  -5.695  1.00  0.00    -0.339 OA
BRANCH  14  18
ATOM     18  C   UNL     1      -2.163   6.218  -4.758  1.00  0.00     0.084 C 
BRANCH  18  19
ATOM     19  C   UNL     1      -1.183   6.671  -5.858  1.00  0.00    -0.010 C 
ATOM     20  C   UNL     1      -1.809   6.653  -7.257  1.00  0.00     0.008 C 
ATOM     21  C   UNL     1      -0.678   8.083  -5.550  1.00  0.00     0.008 C 
ENDBRANCH  18  19
ENDBRANCH  14  18
ENDBRANCH   8  13
ENDBRANCH   4   7
ENDBRANCH   2   3
ENDBRANCH   1   2
BRANCH   1  22
ATOM     22  C   UNL     1      -2.486   1.837   0.482  1.00  0.00     0.023 C 
BRANCH  22  23
ATOM     23  C   UNL     1      -2.981   0.897   1.574  1.00  0.00     0.116 C 
BRANCH  23  24
ATOM     24  N   UNL     1      -2.071  -0.209   1.831  1.00  0.00    -0.352 N 
ATOM     25  C   UNL     1      -1.665  -0.741   3.028  1.00  0.00     0.251 C 
ATOM     26  H   UNL     1      -1.692  -0.637   1.030  1.00  0.00     0.163 HD
ATOM     27  O   UNL     1      -0.786  -1.600   3.050  1.00  0.00    -0.269 OA
BRANCH  25  28
ATOM     28  C   UNL     1      -2.256  -0.261   4.295  1.00  0.00     0.039 A 
ATOM     29  C   UNL     1      -1.407  -0.017   5.377  1.00  0.00     0.014 A 
ATOM     30  C   UNL     1      -3.632  -0.050   4.421  1.00  0.00     0.014 A 
ATOM     31  C   UNL     1      -1.931   0.491   6.566  1.00  0.00     0.010 A 
ATOM     32  C   UNL     1      -4.141   0.534   5.578  1.00  0.00     0.010 A 
ATOM     33  C   UNL     1      -3.297   0.803   6.665  1.00  0.00    -0.014 A 
BRANCH  33  34
ATOM     34  C   UNL     1      -3.843   1.416   7.903  1.00  0.00     0.031 A 
ATOM     35  C   UNL     1      -4.856   0.682   8.737  1.00  0.00     0.074 A 
ATOM     36  C   UNL     1      -3.446   2.654   8.257  1.00  0.00     0.049 A 
ATOM     37  N   UNL     1      -5.429   1.051   9.856  1.00  0.00    -0.248 NA
ATOM     38  C   UNL     1      -5.306  -0.626   8.238  1.00  0.00     0.031 C 
ATOM     39  C   UNL     1      -2.519   3.493   7.496  1.00  0.00     0.029 A 
ATOM     40  N   UNL     1      -3.769   3.421   9.348  1.00  0.00    -0.354 N 
ATOM     41  C   UNL     1      -6.306   0.026  10.188  1.00  0.00     0.074 A 
ATOM     42  C   UNL     1      -6.239  -0.949   9.121  1.00  0.00     0.031 C 
ATOM     43  C   UNL     1      -2.319   4.642   8.161  1.00  0.00     0.029 A 
ATOM     44  C   UNL     1      -3.126   4.635   9.376  1.00  0.00     0.049 A 
ATOM     45  H   UNL     1      -4.400   3.129  10.045  1.00  0.00     0.167 HD
ATOM     46  C   UNL     1      -7.077  -0.103  11.294  1.00  0.00     0.037 A 
ATOM     47  C   UNL     1      -3.179   5.628  10.284  1.00  0.00     0.037 A 
ATOM     48  C   UNL     1      -7.129   0.863  12.361  1.00  0.00     0.049 A 
ATOM     49  C   UNL     1      -4.035   5.454  11.509  1.00  0.00     0.074 A 
ATOM     50  C   UNL     1      -7.832   0.799  13.552  1.00  0.00     0.029 A 
ATOM     51  N   UNL     1      -6.453   2.076  12.362  1.00  0.00    -0.354 N 
ATOM     52  N   UNL     1      -4.794   4.443  11.854  1.00  0.00    -0.248 NA
ATOM     53  C   UNL     1      -4.028   6.557  12.479  1.00  0.00     0.031 C 
ATOM     54  C   UNL     1      -7.624   1.994  14.248  1.00  0.00     0.029 A 
ATOM     55  C   UNL     1      -6.742   2.778  13.522  1.00  0.00     0.049 A 
ATOM     56  H   UNL     1      -5.857   2.390  11.645  1.00  0.00     0.167 HD
ATOM     57  C   UNL     1      -5.333   4.773  13.090  1.00  0.00     0.074 A 
ATOM     58  C   UNL     1      -4.793   6.069  13.445  1.00  0.00     0.031 C 
ATOM     59  C   UNL     1      -6.198   4.069  13.861  1.00  0.00     0.037 A 
BRANCH  46  60
ATOM     60  C   UNL     1      -7.926  -1.337  11.409  1.00  0.00     0.064 A 
ATOM     61  C   UNL     1      -7.359  -2.607  11.601  1.00  0.00     0.173 A 
ATOM     62  C   UNL     1      -9.326  -1.247  11.362  1.00  0.00     0.173 A 
ATOM     63  F   UNL     1      -6.026  -2.752  11.642  1.00  0.00    -0.203 F 
ATOM     64  C   UNL     1      -8.159  -3.742  11.709  1.00  0.00     0.198 A 
ATOM     65  C   UNL     1     -10.123  -2.380  11.504  1.00  0.00     0.198 A 
ATOM     66  F   UNL     1      -9.922  -0.058  11.186  1.00  0.00    -0.203 F 
ATOM     67  F   UNL     1      -7.592  -4.950  11.837  1.00  0.00    -0.200 F 
ATOM     68  C   UNL     1      -9.540  -3.627  11.668  1.00  0.00     0.200 A 
ATOM     69  F   UNL     1     -11.459  -2.265  11.479  1.00  0.00    -0.200 F 
ATOM     70  F   UNL     1     -10.309  -4.719  11.781  1.00  0.00    -0.200 F 
ENDBRANCH  46  60
BRANCH  47  71
ATOM     71  C   UNL     1      -2.370   6.859  10.086  1.00  0.00     0.064 A 
ATOM     72  C   UNL     1      -1.284   7.152  10.924  1.00  0.00     0.173 A 
ATOM     73  C   UNL     1      -2.667   7.771   9.063  1.00  0.00     0.173 A 
ATOM     74  F   UNL     1      -0.971   6.320  11.929  1.00  0.00    -0.203 F 
ATOM     75  C   UNL     1      -0.544   8.321  10.763  1.00  0.00     0.198 A 
ATOM     76  C   UNL     1      -1.907   8.925   8.883  1.00  0.00     0.198 A 
ATOM     77  F   UNL     1      -3.691   7.535   8.229  1.00  0.00    -0.203 F 
ATOM     78  F   UNL     1       0.455   8.601  11.611  1.00  0.00    -0.200 F 
ATOM     79  C   UNL     1      -0.852   9.204   9.739  1.00  0.00     0.200 A 
ATOM     80  F   UNL     1      -2.197   9.766   7.882  1.00  0.00    -0.200 F 
ATOM     81  F   UNL     1      -0.138  10.326   9.582  1.00  0.00    -0.200 F 
ENDBRANCH  47  71
BRANCH  59  82
ATOM     82  C   UNL     1      -6.585   4.675  15.181  1.00  0.00     0.064 A 
ATOM     83  C   UNL     1      -7.388   5.823  15.260  1.00  0.00     0.173 A 
ATOM     84  C   UNL     1      -6.153   4.093  16.383  1.00  0.00     0.173 A 
ATOM     85  F   UNL     1      -7.817   6.426  14.141  1.00  0.00    -0.203 F 
ATOM     86  C   UNL     1      -7.707   6.391  16.491  1.00  0.00     0.198 A 
ATOM     87  C   UNL     1      -6.505   4.642  17.613  1.00  0.00     0.198 A 
ATOM     88  F   UNL     1      -5.391   2.989  16.365  1.00  0.00    -0.203 F 
ATOM     89  F   UNL     1      -8.418   7.526  16.539  1.00  0.00    -0.200 F 
ATOM     90  C   UNL     1      -7.270   5.797  17.666  1.00  0.00     0.200 A 
ATOM     91  F   UNL     1      -6.094   4.058  18.747  1.00  0.00    -0.200 F 
ATOM     92  F   UNL     1      -7.576   6.345  18.849  1.00  0.00    -0.200 F 
ENDBRANCH  59  82
ENDBRANCH  33  34
ENDBRANCH  25  28
ENDBRANCH  23  24
ENDBRANCH  22  23
ENDBRANCH   1  22
TORSDOF 14
