REMARK SMILES C[C@@H]1[C@@H](C(=O)NCCCCNC(=O)c2ccc(-c3c4nc(c(-c5c(F)c(F)c(F)c(F)c5F)c5ccc([nH]5)c(-c5c(F)c(F)c(F)c(F)c5F)c5nc(c(-c6c(F)c(F)c(F)c(F)c6F)c6ccc3[nH]6)C=C5)C=C4)cc2)CCN1C(=O)[C@@H](C)OCc1ccccc1
REMARK SMILES IDX 7 1 6 2 4 3 5 4 3 6 1 7 2 8 79 9 77 10 78 11 80 12 81 13
REMARK SMILES IDX 82 14 83 15 84 16 85 17 86 18 87 19 91 20 88 21 90 22 89 23
REMARK SMILES IDX 8 24 9 25 10 26 11 27 12 28 13 30 14 31 15 32 76 33 16 34
REMARK SMILES IDX 75 35 17 36 18 37 19 38 69 39 20 40 74 41 68 42 70 43 21 44
REMARK SMILES IDX 73 45 67 46 66 47 22 49 54 50 34 51 53 52 35 53 38 54 52 55
REMARK SMILES IDX 71 56 36 57 37 58 51 60 72 61 39 62 23 63 24 64 32 65 25 66
REMARK SMILES IDX 26 67 30 68 33 69 27 70 28 71 31 72 29 73 55 74 56 75 64 76
REMARK SMILES IDX 57 77 58 78 62 79 65 80 59 81 60 82 63 83 61 84 40 85 41 86
REMARK SMILES IDX 49 87 42 88 43 89 47 90 50 91 44 92 45 93 48 94 46 95
REMARK H PARENT 6 5 11 29 70 48 38 59
REMARK Flexibility Score: inf
ROOT
ATOM      1  C   UNL     1      -2.623   3.052  -0.702  1.00  0.00     0.116 C 
ENDROOT
BRANCH   1   2
ATOM      2  N   UNL     1      -1.895   2.254  -1.669  1.00  0.00    -0.356 N 
ATOM      3  C   UNL     1      -1.022   1.228  -1.429  1.00  0.00     0.225 C 
ATOM      4  O   UNL     1      -0.561   0.619  -2.390  1.00  0.00    -0.275 OA
ATOM      5  H   UNL     1      -2.047   2.478  -2.616  1.00  0.00     0.163 HD
BRANCH   3   6
ATOM      6  C   UNL     1      -0.644   0.932   0.015  1.00  0.00     0.102 C 
ATOM      7  C   UNL     1       1.252   0.160   1.456  1.00  0.00     0.032 C 
ATOM      8  C   UNL     1       0.483  -0.102   0.149  1.00  0.00     0.094 C 
ATOM      9  N   UNL     1      -0.197  -1.384   0.223  1.00  0.00    -0.337 N 
ATOM     10  C   UNL     1      -1.790   0.285   0.799  1.00  0.00     0.037 C 
ATOM     11  C   UNL     1      -1.590  -1.211   0.596  1.00  0.00     0.121 C 
BRANCH   9  12
ATOM     12  C   UNL     1       0.272  -2.648  -0.062  1.00  0.00     0.251 C 
ATOM     13  O   UNL     1      -0.384  -3.629   0.319  1.00  0.00    -0.272 OA
BRANCH  12  14
ATOM     14  C   UNL     1       1.511  -2.891  -1.006  1.00  0.00     0.204 C 
ATOM     15  C   UNL     1       1.173  -2.457  -2.434  1.00  0.00     0.049 C 
BRANCH  14  16
ATOM     16  O   UNL     1       2.887  -2.810  -0.680  1.00  0.00    -0.364 OA
BRANCH  16  17
ATOM     17  C   UNL     1       3.572  -1.577  -0.540  1.00  0.00     0.196 C 
BRANCH  17  18
ATOM     18  C   UNL     1       3.751  -0.754  -1.791  1.00  0.00    -0.022 A 
ATOM     19  C   UNL     1       4.206  -1.341  -2.978  1.00  0.00     0.006 A 
ATOM     20  C   UNL     1       3.465   0.620  -1.786  1.00  0.00     0.006 A 
ATOM     21  C   UNL     1       4.273  -0.594  -4.155  1.00  0.00     0.000 A 
ATOM     22  C   UNL     1       3.521   1.364  -2.964  1.00  0.00     0.000 A 
ATOM     23  C   UNL     1       3.911   0.753  -4.152  1.00  0.00     0.000 A 
ENDBRANCH  17  18
ENDBRANCH  16  17
ENDBRANCH  14  16
ENDBRANCH  12  14
ENDBRANCH   9  12
ENDBRANCH   3   6
ENDBRANCH   1   2
BRANCH   1  24
ATOM     24  C   UNL     1      -2.874   4.480  -1.169  1.00  0.00     0.023 C 
BRANCH  24  25
ATOM     25  C   UNL     1      -3.710   4.617  -2.439  1.00  0.00     0.023 C 
BRANCH  25  26
ATOM     26  C   UNL     1      -4.985   3.783  -2.482  1.00  0.00     0.116 C 
BRANCH  26  27
ATOM     27  N   UNL     1      -5.886   4.053  -1.373  1.00  0.00    -0.352 N 
ATOM     28  C   UNL     1      -7.203   4.449  -1.385  1.00  0.00     0.251 C 
ATOM     29  H   UNL     1      -5.493   3.935  -0.478  1.00  0.00     0.163 HD
ATOM     30  O   UNL     1      -7.767   4.742  -0.340  1.00  0.00    -0.269 OA
BRANCH  28  31
ATOM     31  C   UNL     1      -7.923   4.556  -2.671  1.00  0.00     0.039 A 
ATOM     32  C   UNL     1      -8.670   5.708  -2.929  1.00  0.00     0.014 A 
ATOM     33  C   UNL     1      -7.842   3.540  -3.624  1.00  0.00     0.014 A 
ATOM     34  C   UNL     1      -9.273   5.874  -4.177  1.00  0.00     0.010 A 
ATOM     35  C   UNL     1      -8.368   3.744  -4.895  1.00  0.00     0.010 A 
ATOM     36  C   UNL     1      -9.092   4.912  -5.184  1.00  0.00    -0.014 A 
BRANCH  36  37
ATOM     37  C   UNL     1      -9.663   5.096  -6.542  1.00  0.00     0.031 A 
ATOM     38  C   UNL     1     -10.692   4.130  -7.059  1.00  0.00     0.074 A 
ATOM     39  C   UNL     1      -9.203   6.083  -7.335  1.00  0.00     0.049 A 
ATOM     40  N   UNL     1     -11.245   4.062  -8.244  1.00  0.00    -0.248 NA
ATOM     41  C   UNL     1     -11.134   3.079  -6.129  1.00  0.00     0.031 C 
ATOM     42  C   UNL     1      -8.171   7.054  -6.968  1.00  0.00     0.029 A 
ATOM     43  N   UNL     1      -9.538   6.426  -8.621  1.00  0.00    -0.354 N 
ATOM     44  C   UNL     1     -12.079   2.953  -8.206  1.00  0.00     0.074 A 
ATOM     45  C   UNL     1     -11.917   2.344  -6.904  1.00  0.00     0.031 C 
ATOM     46  C   UNL     1      -7.975   7.897  -7.995  1.00  0.00     0.029 A 
ATOM     47  C   UNL     1      -8.838   7.505  -9.104  1.00  0.00     0.049 A 
ATOM     48  H   UNL     1     -10.216   5.944  -9.148  1.00  0.00     0.167 HD
ATOM     49  C   UNL     1     -12.924   2.497  -9.162  1.00  0.00     0.037 A 
ATOM     50  C   UNL     1      -8.886   8.105 -10.308  1.00  0.00     0.037 A 
ATOM     51  C   UNL     1     -13.106   3.124 -10.444  1.00  0.00     0.049 A 
ATOM     52  C   UNL     1      -9.841   7.587 -11.350  1.00  0.00     0.074 A 
ATOM     53  C   UNL     1     -13.978   2.774 -11.460  1.00  0.00     0.029 A 
ATOM     54  N   UNL     1     -12.403   4.236 -10.884  1.00  0.00    -0.354 N 
ATOM     55  N   UNL     1     -10.671   6.575 -11.281  1.00  0.00    -0.248 NA
ATOM     56  C   UNL     1      -9.870   8.300 -12.634  1.00  0.00     0.031 C 
ATOM     57  C   UNL     1     -13.774   3.651 -12.531  1.00  0.00     0.029 A 
ATOM     58  C   UNL     1     -12.812   4.577 -12.163  1.00  0.00     0.049 A 
ATOM     59  H   UNL     1     -11.715   4.712 -10.365  1.00  0.00     0.167 HD
ATOM     60  C   UNL     1     -11.345   6.551 -12.495  1.00  0.00     0.074 A 
ATOM     61  C   UNL     1     -10.833   7.656 -13.278  1.00  0.00     0.031 C 
ATOM     62  C   UNL     1     -12.303   5.692 -12.921  1.00  0.00     0.037 A 
BRANCH  49  63
ATOM     63  C   UNL     1     -13.719   1.262  -8.849  1.00  0.00     0.064 A 
ATOM     64  C   UNL     1     -14.744   1.271  -7.890  1.00  0.00     0.173 A 
ATOM     65  C   UNL     1     -13.466   0.061  -9.527  1.00  0.00     0.173 A 
ATOM     66  F   UNL     1     -15.017   2.391  -7.203  1.00  0.00    -0.203 F 
ATOM     67  C   UNL     1     -15.462   0.115  -7.598  1.00  0.00     0.198 A 
ATOM     68  C   UNL     1     -14.209  -1.086  -9.255  1.00  0.00     0.198 A 
ATOM     69  F   UNL     1     -12.501  -0.002 -10.457  1.00  0.00    -0.203 F 
ATOM     70  F   UNL     1     -16.397   0.134  -6.637  1.00  0.00    -0.200 F 
ATOM     71  C   UNL     1     -15.199  -1.060  -8.285  1.00  0.00     0.200 A 
ATOM     72  F   UNL     1     -13.962  -2.218  -9.929  1.00  0.00    -0.200 F 
ATOM     73  F   UNL     1     -15.893  -2.172  -8.005  1.00  0.00    -0.200 F 
ENDBRANCH  49  63
BRANCH  50  74
ATOM     74  C   UNL     1      -8.031   9.290 -10.582  1.00  0.00     0.064 A 
ATOM     75  C   UNL     1      -8.596  10.567 -10.711  1.00  0.00     0.173 A 
ATOM     76  C   UNL     1      -6.641   9.174 -10.722  1.00  0.00     0.173 A 
ATOM     77  F   UNL     1      -9.924  10.724 -10.605  1.00  0.00    -0.203 F 
ATOM     78  C   UNL     1      -7.806  11.679 -10.991  1.00  0.00     0.198 A 
ATOM     79  C   UNL     1      -5.848  10.292 -10.975  1.00  0.00     0.198 A 
ATOM     80  F   UNL     1      -6.051   7.976 -10.601  1.00  0.00    -0.203 F 
ATOM     81  F   UNL     1      -8.377  12.880 -11.153  1.00  0.00    -0.200 F 
ATOM     82  C   UNL     1      -6.432  11.542 -11.117  1.00  0.00     0.200 A 
ATOM     83  F   UNL     1      -4.519  10.158 -11.082  1.00  0.00    -0.200 F 
ATOM     84  F   UNL     1      -5.671  12.613 -11.382  1.00  0.00    -0.200 F 
ENDBRANCH  50  74
BRANCH  62  85
ATOM     85  C   UNL     1     -12.898   5.941 -14.277  1.00  0.00     0.064 A 
ATOM     86  C   UNL     1     -12.180   5.694 -15.455  1.00  0.00     0.173 A 
ATOM     87  C   UNL     1     -14.220   6.396 -14.394  1.00  0.00     0.173 A 
ATOM     88  F   UNL     1     -10.908   5.273 -15.395  1.00  0.00    -0.203 F 
ATOM     89  C   UNL     1     -12.757   5.917 -16.703  1.00  0.00     0.198 A 
ATOM     90  C   UNL     1     -14.803   6.589 -15.643  1.00  0.00     0.198 A 
ATOM     91  F   UNL     1     -14.952   6.640 -13.296  1.00  0.00    -0.203 F 
ATOM     92  F   UNL     1     -12.037   5.720 -17.816  1.00  0.00    -0.200 F 
ATOM     93  C   UNL     1     -14.069   6.357 -16.796  1.00  0.00     0.200 A 
ATOM     94  F   UNL     1     -16.076   7.001 -15.731  1.00  0.00    -0.200 F 
ATOM     95  F   UNL     1     -14.624   6.564 -17.998  1.00  0.00    -0.200 F 
ENDBRANCH  62  85
ENDBRANCH  36  37
ENDBRANCH  28  31
ENDBRANCH  26  27
ENDBRANCH  25  26
ENDBRANCH  24  25
ENDBRANCH   1  24
TORSDOF 16
