REMARK SMILES Cc1ccccc1NC(=O)C[NH+]1CCC(CC(=O)NCCCCNC(=O)c2ccc(-c3c4nc(c(-c5c(F)c(F)c(F)c(F)c5F)c5ccc([nH]5)c(-c5c(F)c(F)c(F)c(F)c5F)c5nc(c(-c6c(F)c(F)c(F)c(F)c6F)c6ccc3[nH]6)C=C5)C=C4)cc2)CC1
REMARK SMILES IDX 20 1 19 2 17 3 18 4 16 6 15 7 12 8 13 9 91 10 14 12 90 13
REMARK SMILES IDX 11 14 9 15 8 16 10 18 7 19 1 20 2 21 3 22 4 23 6 24 5 25
REMARK SMILES IDX 21 26 22 27 23 28 24 29 25 30 26 32 27 33 28 34 89 35 29 36
REMARK SMILES IDX 88 37 30 38 31 39 32 40 82 41 33 42 87 43 81 44 83 45 34 46
REMARK SMILES IDX 86 47 80 48 79 49 35 51 67 52 47 53 66 54 48 55 51 56 65 57
REMARK SMILES IDX 84 58 49 59 50 60 64 62 85 63 52 64 36 65 37 66 45 67 38 68
REMARK SMILES IDX 39 69 43 70 46 71 40 72 41 73 44 74 42 75 68 76 69 77 77 78
REMARK SMILES IDX 70 79 71 80 75 81 78 82 72 83 73 84 76 85 74 86 53 87 54 88
REMARK SMILES IDX 62 89 55 90 56 91 60 92 63 93 57 94 58 95 61 96 59 97
REMARK H PARENT 19 5 12 11 8 17 24 31 83 50 51 61
REMARK Flexibility Score: inf
ROOT
ATOM      1  C   UNL     1      -1.912   4.041  -6.218  1.00  0.00     0.116 C 
ENDROOT
BRANCH   1   2
ATOM      2  N   UNL     1      -1.007   2.939  -6.527  1.00  0.00    -0.356 N 
ATOM      3  C   UNL     1      -0.988   1.635  -6.113  1.00  0.00     0.220 C 
ATOM      4  O   UNL     1      -0.154   0.880  -6.620  1.00  0.00    -0.275 OA
ATOM      5  H   UNL     1      -0.280   3.176  -7.146  1.00  0.00     0.163 HD
BRANCH   3   6
ATOM      6  C   UNL     1      -1.923   1.137  -5.022  1.00  0.00     0.104 C 
BRANCH   6   7
ATOM      7  C   UNL     1      -1.330   1.298  -3.609  1.00  0.00     0.009 C 
ATOM      8  N   UNL     1      -1.520   2.730  -1.039  1.00  0.00    -0.327 N 
ATOM      9  C   UNL     1      -0.458   3.078  -1.972  1.00  0.00     0.262 C 
ATOM     10  C   UNL     1      -1.860   1.310  -1.129  1.00  0.00     0.262 C 
ATOM     11  H   UNL     1      -2.371   3.217  -1.320  1.00  0.00     0.348 HD
ATOM     12  C   UNL     1      -0.907   2.739  -3.376  1.00  0.00     0.066 C 
ATOM     13  C   UNL     1      -2.352   0.915  -2.529  1.00  0.00     0.066 C 
BRANCH   8  14
ATOM     14  C   UNL     1      -1.271   3.249   0.325  1.00  0.00     0.363 C 
BRANCH  14  15
ATOM     15  C   UNL     1       0.201   3.265   0.781  1.00  0.00     0.279 C 
ATOM     16  N   UNL     1       0.890   2.132   1.114  1.00  0.00    -0.321 N 
ATOM     17  H   UNL     1       1.842   2.268   1.323  1.00  0.00     0.170 HD
ATOM     18  O   UNL     1       0.842   4.325   0.767  1.00  0.00    -0.268 OA
BRANCH  16  19
ATOM     19  C   UNL     1       0.446   0.807   1.200  1.00  0.00     0.044 A 
ATOM     20  C   UNL     1       2.588  -0.021   0.040  1.00  0.00     0.046 C 
ATOM     21  C   UNL     1       1.219  -0.223   0.632  1.00  0.00    -0.027 A 
ATOM     22  C   UNL     1       0.671  -1.517   0.571  1.00  0.00     0.005 A 
ATOM     23  C   UNL     1      -0.598  -1.787   1.082  1.00  0.00     0.000 A 
ATOM     24  C   UNL     1      -0.782   0.503   1.800  1.00  0.00     0.026 A 
ATOM     25  C   UNL     1      -1.313  -0.783   1.722  1.00  0.00     0.002 A 
ENDBRANCH  16  19
ENDBRANCH  14  15
ENDBRANCH   8  14
ENDBRANCH   6   7
ENDBRANCH   3   6
ENDBRANCH   1   2
BRANCH   1  26
ATOM     26  C   UNL     1      -1.297   5.207  -5.412  1.00  0.00     0.023 C 
BRANCH  26  27
ATOM     27  C   UNL     1      -0.060   5.865  -6.019  1.00  0.00     0.023 C 
BRANCH  27  28
ATOM     28  C   UNL     1      -0.445   7.046  -6.885  1.00  0.00     0.116 C 
BRANCH  28  29
ATOM     29  N   UNL     1      -0.624   8.300  -6.159  1.00  0.00    -0.352 N 
ATOM     30  C   UNL     1      -1.324   9.440  -6.551  1.00  0.00     0.251 C 
ATOM     31  H   UNL     1      -0.192   8.347  -5.275  1.00  0.00     0.163 HD
ATOM     32  O   UNL     1      -1.338  10.441  -5.879  1.00  0.00    -0.269 OA
BRANCH  30  33
ATOM     33  C   UNL     1      -2.171   9.327  -7.766  1.00  0.00     0.039 A 
ATOM     34  C   UNL     1      -3.547   9.494  -7.595  1.00  0.00     0.014 A 
ATOM     35  C   UNL     1      -1.657   8.705  -8.900  1.00  0.00     0.014 A 
ATOM     36  C   UNL     1      -4.413   8.780  -8.417  1.00  0.00     0.010 A 
ATOM     37  C   UNL     1      -2.509   7.901  -9.634  1.00  0.00     0.010 A 
ATOM     38  C   UNL     1      -3.878   7.881  -9.342  1.00  0.00    -0.014 A 
BRANCH  38  39
ATOM     39  C   UNL     1      -4.675   6.807  -9.931  1.00  0.00     0.031 A 
ATOM     40  C   UNL     1      -5.022   6.840 -11.365  1.00  0.00     0.074 A 
ATOM     41  C   UNL     1      -5.120   5.777  -9.173  1.00  0.00     0.049 A 
ATOM     42  N   UNL     1      -6.146   6.418 -11.842  1.00  0.00    -0.248 NA
ATOM     43  C   UNL     1      -4.129   7.380 -12.381  1.00  0.00     0.031 C 
ATOM     44  C   UNL     1      -5.796   4.570  -9.643  1.00  0.00     0.029 A 
ATOM     45  N   UNL     1      -5.224   5.712  -7.773  1.00  0.00    -0.354 N 
ATOM     46  C   UNL     1      -6.028   6.383 -13.211  1.00  0.00     0.074 A 
ATOM     47  C   UNL     1      -4.778   7.048 -13.500  1.00  0.00     0.031 C 
ATOM     48  C   UNL     1      -6.503   4.048  -8.629  1.00  0.00     0.029 A 
ATOM     49  C   UNL     1      -6.385   4.954  -7.501  1.00  0.00     0.049 A 
ATOM     50  H   UNL     1      -4.613   6.114  -7.114  1.00  0.00     0.167 HD
ATOM     51  C   UNL     1      -6.925   5.672 -13.954  1.00  0.00     0.037 A 
ATOM     52  C   UNL     1      -7.425   5.464  -6.785  1.00  0.00     0.037 A 
ATOM     53  C   UNL     1      -7.925   5.023 -13.111  1.00  0.00     0.049 A 
ATOM     54  C   UNL     1      -8.728   5.512  -7.545  1.00  0.00     0.074 A 
ATOM     55  C   UNL     1      -8.026   3.731 -12.622  1.00  0.00     0.029 A 
ATOM     56  N   UNL     1      -8.836   5.788 -12.390  1.00  0.00    -0.354 N 
ATOM     57  N   UNL     1      -8.819   5.371  -8.837  1.00  0.00    -0.248 NA
ATOM     58  C   UNL     1     -10.021   5.779  -6.920  1.00  0.00     0.031 C 
ATOM     59  C   UNL     1      -8.985   3.724 -11.583  1.00  0.00     0.029 A 
ATOM     60  C   UNL     1      -9.474   5.010 -11.442  1.00  0.00     0.049 A 
ATOM     61  H   UNL     1      -9.002   6.748 -12.534  1.00  0.00     0.167 HD
ATOM     62  C   UNL     1     -10.118   5.576  -9.229  1.00  0.00     0.074 A 
ATOM     63  C   UNL     1     -10.837   5.794  -7.989  1.00  0.00     0.031 C 
ATOM     64  C   UNL     1     -10.475   5.571 -10.548  1.00  0.00     0.037 A 
BRANCH  51  65
ATOM     65  C   UNL     1      -6.673   5.307 -15.400  1.00  0.00     0.064 A 
ATOM     66  C   UNL     1      -7.084   4.064 -15.927  1.00  0.00     0.173 A 
ATOM     67  C   UNL     1      -5.966   6.124 -16.301  1.00  0.00     0.173 A 
ATOM     68  F   UNL     1      -7.884   3.240 -15.239  1.00  0.00    -0.203 F 
ATOM     69  C   UNL     1      -6.683   3.615 -17.187  1.00  0.00     0.198 A 
ATOM     70  C   UNL     1      -5.513   5.654 -17.538  1.00  0.00     0.198 A 
ATOM     71  F   UNL     1      -5.727   7.413 -16.022  1.00  0.00    -0.203 F 
ATOM     72  F   UNL     1      -7.087   2.414 -17.624  1.00  0.00    -0.200 F 
ATOM     73  C   UNL     1      -5.855   4.390 -17.973  1.00  0.00     0.200 A 
ATOM     74  F   UNL     1      -4.732   6.433 -18.300  1.00  0.00    -0.200 F 
ATOM     75  F   UNL     1      -5.415   3.933 -19.152  1.00  0.00    -0.200 F 
ENDBRANCH  51  65
BRANCH  52  76
ATOM     76  C   UNL     1      -7.004   6.437  -5.746  1.00  0.00     0.064 A 
ATOM     77  C   UNL     1      -6.202   5.973  -4.686  1.00  0.00     0.173 A 
ATOM     78  C   UNL     1      -7.060   7.818  -5.960  1.00  0.00     0.173 A 
ATOM     79  F   UNL     1      -6.108   4.655  -4.446  1.00  0.00    -0.203 F 
ATOM     80  C   UNL     1      -5.404   6.842  -3.947  1.00  0.00     0.198 A 
ATOM     81  C   UNL     1      -6.267   8.688  -5.208  1.00  0.00     0.198 A 
ATOM     82  F   UNL     1      -7.788   8.319  -6.968  1.00  0.00    -0.203 F 
ATOM     83  F   UNL     1      -4.567   6.354  -3.020  1.00  0.00    -0.200 F 
ATOM     84  C   UNL     1      -5.417   8.197  -4.226  1.00  0.00     0.200 A 
ATOM     85  F   UNL     1      -6.261   9.998  -5.496  1.00  0.00    -0.200 F 
ATOM     86  F   UNL     1      -4.585   9.024  -3.579  1.00  0.00    -0.200 F 
ENDBRANCH  52  76
BRANCH  64  87
ATOM     87  C   UNL     1     -11.812   5.984 -11.117  1.00  0.00     0.064 A 
ATOM     88  C   UNL     1     -12.672   6.917 -10.515  1.00  0.00     0.173 A 
ATOM     89  C   UNL     1     -12.213   5.529 -12.399  1.00  0.00     0.173 A 
ATOM     90  F   UNL     1     -12.352   7.519  -9.363  1.00  0.00    -0.203 F 
ATOM     91  C   UNL     1     -13.873   7.311 -11.114  1.00  0.00     0.198 A 
ATOM     92  C   UNL     1     -13.382   5.970 -13.019  1.00  0.00     0.198 A 
ATOM     93  F   UNL     1     -11.470   4.661 -13.100  1.00  0.00    -0.203 F 
ATOM     94  F   UNL     1     -14.681   8.170 -10.476  1.00  0.00    -0.200 F 
ATOM     95  C   UNL     1     -14.222   6.847 -12.369  1.00  0.00     0.200 A 
ATOM     96  F   UNL     1     -13.676   5.552 -14.258  1.00  0.00    -0.200 F 
ATOM     97  F   UNL     1     -15.352   7.262 -12.957  1.00  0.00    -0.200 F 
ENDBRANCH  64  87
ENDBRANCH  38  39
ENDBRANCH  30  33
ENDBRANCH  28  29
ENDBRANCH  27  28
ENDBRANCH  26  27
ENDBRANCH   1  26
TORSDOF 15
