REMARK SMILES O=C(NCCCCNC(=O)[C@@]1([NH2+]C2CC2)CCC[C@H]1CCn1ccnc1)c1ccc(-c2c3nc(c(-c4c(F)c(F)c(F)c(F)c4F)c4ccc([nH]4)c(-c4c(F)c(F)c(F)c(F)c4F)c4nc(c(-c5c(F)c(F)c(F)c(F)c5F)c5ccc2[nH]5)C=C4)C=C3)cc1
REMARK SMILES IDX 6 1 5 2 4 3 3 4 1 5 2 6 27 8 28 9 89 10 29 11 88 12 30 13
REMARK SMILES IDX 31 14 32 15 82 16 33 17 87 18 81 19 83 20 34 21 86 22 80 23
REMARK SMILES IDX 79 24 35 26 67 27 47 28 66 29 48 30 51 31 65 32 84 33 49 34
REMARK SMILES IDX 50 35 64 37 85 38 52 39 36 40 37 41 45 42 38 43 39 44 43 45
REMARK SMILES IDX 46 46 40 47 41 48 44 49 42 50 68 51 69 52 77 53 70 54 71 55
REMARK SMILES IDX 75 56 78 57 72 58 73 59 76 60 74 61 53 62 54 63 62 64 55 65
REMARK SMILES IDX 56 66 60 67 63 68 57 69 58 70 61 71 59 72 7 73 8 74 9 75
REMARK SMILES IDX 10 77 11 78 16 79 19 80 17 81 18 82 12 83 13 86 14 87 15 88
REMARK SMILES IDX 20 89 21 90 22 91 23 92 26 93 24 94 25 95
REMARK H PARENT 3 7 83 25 51 36 8 76 12 84 12 85
REMARK Flexibility Score: inf
ROOT
ATOM      1  C   UNL     1       4.429  -1.903  -2.846  1.00  0.00     0.023 C 
ENDROOT
BRANCH   1   2
ATOM      2  C   UNL     1       4.976  -1.384  -1.521  1.00  0.00     0.023 C 
BRANCH   2   3
ATOM      3  C   UNL     1       4.764   0.107  -1.255  1.00  0.00     0.116 C 
BRANCH   3   4
ATOM      4  N   UNL     1       3.390   0.569  -1.283  1.00  0.00    -0.352 N 
ATOM      5  O   UNL     1       1.323   1.117  -0.688  1.00  0.00    -0.269 OA
ATOM      6  C   UNL     1       2.330   0.454  -0.426  1.00  0.00     0.251 C 
ATOM      7  H   UNL     1       3.172   1.076  -2.098  1.00  0.00     0.163 HD
BRANCH   6   8
ATOM      8  C   UNL     1       2.289  -0.480   0.726  1.00  0.00     0.039 A 
ATOM      9  C   UNL     1       3.409  -1.027   1.353  1.00  0.00     0.014 A 
ATOM     10  C   UNL     1       1.012  -0.863   1.168  1.00  0.00     0.014 A 
ATOM     11  C   UNL     1       3.270  -2.064   2.267  1.00  0.00     0.010 A 
ATOM     12  C   UNL     1       0.866  -1.852   2.131  1.00  0.00     0.010 A 
ATOM     13  C   UNL     1       1.998  -2.501   2.626  1.00  0.00    -0.014 A 
BRANCH  13  14
ATOM     14  C   UNL     1       1.889  -3.596   3.589  1.00  0.00     0.031 A 
ATOM     15  C   UNL     1       2.391  -3.325   4.974  1.00  0.00     0.074 A 
ATOM     16  C   UNL     1       1.195  -4.714   3.295  1.00  0.00     0.049 A 
ATOM     17  N   UNL     1       3.109  -4.075   5.753  1.00  0.00    -0.248 NA
ATOM     18  C   UNL     1       2.060  -2.012   5.557  1.00  0.00     0.031 C 
ATOM     19  C   UNL     1       0.407  -4.989   2.088  1.00  0.00     0.029 A 
ATOM     20  N   UNL     1       0.929  -5.788   4.089  1.00  0.00    -0.354 N 
ATOM     21  C   UNL     1       3.200  -3.396   6.969  1.00  0.00     0.074 A 
ATOM     22  C   UNL     1       2.609  -2.099   6.767  1.00  0.00     0.031 C 
ATOM     23  C   UNL     1      -0.433  -6.015   2.335  1.00  0.00     0.029 A 
ATOM     24  C   UNL     1      -0.155  -6.536   3.663  1.00  0.00     0.049 A 
ATOM     25  H   UNL     1       1.457  -6.011   4.889  1.00  0.00     0.167 HD
ATOM     26  C   UNL     1       3.605  -3.987   8.127  1.00  0.00     0.037 A 
ATOM     27  C   UNL     1      -0.851  -7.437   4.395  1.00  0.00     0.037 A 
ATOM     28  C   UNL     1       4.387  -5.166   7.904  1.00  0.00     0.049 A 
ATOM     29  C   UNL     1      -0.015  -7.832   5.553  1.00  0.00     0.074 A 
ATOM     30  C   UNL     1       5.603  -5.425   7.302  1.00  0.00     0.029 A 
ATOM     31  N   UNL     1       3.813  -6.396   8.098  1.00  0.00    -0.354 N 
ATOM     32  N   UNL     1       1.086  -8.526   5.465  1.00  0.00    -0.248 NA
ATOM     33  C   UNL     1      -0.195  -7.102   6.799  1.00  0.00     0.031 C 
ATOM     34  C   UNL     1       5.458  -6.717   6.716  1.00  0.00     0.029 A 
ATOM     35  C   UNL     1       4.169  -7.157   7.014  1.00  0.00     0.049 A 
ATOM     36  H   UNL     1       3.257  -6.676   8.860  1.00  0.00     0.167 HD
ATOM     37  C   UNL     1       1.910  -8.012   6.455  1.00  0.00     0.074 A 
ATOM     38  C   UNL     1       1.036  -7.211   7.304  1.00  0.00     0.031 C 
ATOM     39  C   UNL     1       3.270  -8.059   6.340  1.00  0.00     0.037 A 
BRANCH  26  40
ATOM     40  C   UNL     1       3.045  -3.631   9.479  1.00  0.00     0.064 A 
ATOM     41  C   UNL     1       3.694  -4.059  10.652  1.00  0.00     0.173 A 
ATOM     42  C   UNL     1       1.736  -3.128   9.649  1.00  0.00     0.173 A 
ATOM     43  F   UNL     1       4.925  -4.589  10.597  1.00  0.00    -0.203 F 
ATOM     44  C   UNL     1       3.059  -4.027  11.898  1.00  0.00     0.198 A 
ATOM     45  C   UNL     1       1.126  -3.050  10.899  1.00  0.00     0.198 A 
ATOM     46  F   UNL     1       0.970  -2.797   8.602  1.00  0.00    -0.203 F 
ATOM     47  F   UNL     1       3.673  -4.542  12.972  1.00  0.00    -0.200 F 
ATOM     48  C   UNL     1       1.776  -3.524  12.020  1.00  0.00     0.200 A 
ATOM     49  F   UNL     1      -0.126  -2.581  10.994  1.00  0.00    -0.200 F 
ATOM     50  F   UNL     1       1.147  -3.541  13.202  1.00  0.00    -0.200 F 
ENDBRANCH  26  40
BRANCH  27  51
ATOM     51  C   UNL     1      -2.310  -7.681   4.330  1.00  0.00     0.064 A 
ATOM     52  C   UNL     1      -2.875  -8.868   4.816  1.00  0.00     0.173 A 
ATOM     53  C   UNL     1      -3.210  -6.646   3.998  1.00  0.00     0.173 A 
ATOM     54  F   UNL     1      -2.086  -9.876   5.213  1.00  0.00    -0.203 F 
ATOM     55  C   UNL     1      -4.260  -9.014   4.953  1.00  0.00     0.198 A 
ATOM     56  C   UNL     1      -4.589  -6.798   4.121  1.00  0.00     0.198 A 
ATOM     57  F   UNL     1      -2.764  -5.436   3.631  1.00  0.00    -0.203 F 
ATOM     58  F   UNL     1      -4.765 -10.144   5.467  1.00  0.00    -0.200 F 
ATOM     59  C   UNL     1      -5.115  -7.979   4.607  1.00  0.00     0.200 A 
ATOM     60  F   UNL     1      -5.400  -5.774   3.818  1.00  0.00    -0.200 F 
ATOM     61  F   UNL     1      -6.438  -8.103   4.779  1.00  0.00    -0.200 F 
ENDBRANCH  27  51
BRANCH  39  62
ATOM     62  C   UNL     1       3.846  -8.877   5.222  1.00  0.00     0.064 A 
ATOM     63  C   UNL     1       3.664  -8.553   3.866  1.00  0.00     0.173 A 
ATOM     64  C   UNL     1       4.734  -9.916   5.523  1.00  0.00     0.173 A 
ATOM     65  F   UNL     1       2.926  -7.497   3.507  1.00  0.00    -0.203 F 
ATOM     66  C   UNL     1       4.298  -9.273   2.857  1.00  0.00     0.198 A 
ATOM     67  C   UNL     1       5.396 -10.611   4.514  1.00  0.00     0.198 A 
ATOM     68  F   UNL     1       5.002 -10.222   6.802  1.00  0.00    -0.203 F 
ATOM     69  F   UNL     1       4.097  -8.949   1.571  1.00  0.00    -0.200 F 
ATOM     70  C   UNL     1       5.169 -10.298   3.182  1.00  0.00     0.200 A 
ATOM     71  F   UNL     1       6.281 -11.566   4.833  1.00  0.00    -0.200 F 
ATOM     72  F   UNL     1       5.816 -10.964   2.215  1.00  0.00    -0.200 F 
ENDBRANCH  39  62
ENDBRANCH  13  14
ENDBRANCH   6   8
ENDBRANCH   3   4
ENDBRANCH   2   3
ENDBRANCH   1   2
BRANCH   1  73
ATOM     73  C   UNL     1       4.835  -1.115  -4.087  1.00  0.00     0.116 C 
BRANCH  73  74
ATOM     74  N   UNL     1       6.253  -0.808  -4.207  1.00  0.00    -0.351 N 
ATOM     75  C   UNL     1       6.932  -0.320  -5.297  1.00  0.00     0.281 C 
ATOM     76  H   UNL     1       6.796  -0.971  -3.401  1.00  0.00     0.163 HD
ATOM     77  O   UNL     1       8.061   0.138  -5.083  1.00  0.00    -0.268 OA
BRANCH  75  78
ATOM     78  C   UNL     1       6.383  -0.454  -6.741  1.00  0.00     0.178 C 
ATOM     79  C   UNL     1       7.153   0.357  -7.806  1.00  0.00     0.079 C 
ATOM     80  C   UNL     1       6.639  -1.913  -7.295  1.00  0.00     0.062 C 
ATOM     81  C   UNL     1       6.767  -0.288  -9.141  1.00  0.00     0.008 C 
ATOM     82  C   UNL     1       6.374  -1.732  -8.813  1.00  0.00     0.011 C 
BRANCH  78  83
ATOM     83  N   UNL     1       4.937  -0.097  -6.829  1.00  0.00    -0.331 N 
ATOM     84  H   UNL     1       4.426  -0.862  -6.388  1.00  0.00     0.347 HD
ATOM     85  H   UNL     1       4.816   0.067  -7.828  1.00  0.00     0.347 HD
BRANCH  83  86
ATOM     86  C   UNL     1       4.408   1.142  -6.245  1.00  0.00     0.183 C 
ATOM     87  C   UNL     1       5.238   2.269  -5.701  1.00  0.00     0.071 C 
ATOM     88  C   UNL     1       4.468   2.450  -6.976  1.00  0.00     0.071 C 
ENDBRANCH  83  86
ENDBRANCH  78  83
BRANCH  80  89
ATOM     89  C   UNL     1       8.087  -2.505  -7.171  1.00  0.00     0.032 C 
BRANCH  89  90
ATOM     90  C   UNL     1       8.573  -3.060  -5.829  1.00  0.00     0.123 C 
BRANCH  90  91
ATOM     91  N   UNL     1       7.893  -4.261  -5.396  1.00  0.00    -0.337 N 
ATOM     92  C   UNL     1       8.266  -5.554  -5.629  1.00  0.00     0.107 A 
ATOM     93  C   UNL     1       6.810  -4.295  -4.572  1.00  0.00     0.199 A 
ATOM     94  C   UNL     1       7.345  -6.316  -4.944  1.00  0.00     0.130 A 
ATOM     95  N   UNL     1       6.439  -5.520  -4.295  1.00  0.00    -0.245 NA
ENDBRANCH  90  91
ENDBRANCH  89  90
ENDBRANCH  80  89
ENDBRANCH  75  78
ENDBRANCH  73  74
ENDBRANCH   1  73
TORSDOF 16
