REMARK SMILES O=C(NCCCCNC(=O)c1cncc(OCCCc2ccccc2)n1)c1ccc(-c2c3nc(c(-c4c(F)c(F)c(F)c(F)c4F)c4ccc([nH]4)c(-c4c(F)c(F)c(F)c(F)c4F)c4nc(c(-c5c(F)c(F)c(F)c(F)c5F)c5ccc2[nH]5)C=C4)C=C3)cc1
REMARK SMILES IDX 7 1 6 2 5 3 4 4 3 5 1 6 2 7 27 9 28 10 89 11 29 12 88 13
REMARK SMILES IDX 30 14 31 15 32 16 82 17 33 18 87 19 81 20 83 21 34 22 86 23
REMARK SMILES IDX 80 24 79 25 35 27 67 28 47 29 66 30 48 31 51 32 65 33 84 34
REMARK SMILES IDX 49 35 50 36 64 38 85 39 52 40 36 41 37 42 45 43 38 44 39 45
REMARK SMILES IDX 43 46 46 47 40 48 41 49 44 50 42 51 68 52 69 53 77 54 70 55
REMARK SMILES IDX 71 56 75 57 78 58 72 59 73 60 76 61 74 62 53 63 54 64 62 65
REMARK SMILES IDX 55 66 56 67 60 68 63 69 57 70 58 71 61 72 59 73 8 74 9 75
REMARK SMILES IDX 10 77 11 78 12 79 26 80 13 81 15 82 14 83 16 84 17 85 18 86
REMARK SMILES IDX 19 87 20 88 21 89 25 90 22 91 24 92 23 93
REMARK H PARENT 3 8 83 26 51 37 8 76
REMARK Flexibility Score: inf
ROOT
ATOM      1  C   UNL     1       4.570   4.288  -1.456  1.00  0.00     0.116 C 
ENDROOT
BRANCH   1   2
ATOM      2  C   UNL     1       4.366   3.167  -2.470  1.00  0.00     0.023 C 
BRANCH   2   3
ATOM      3  C   UNL     1       4.947   1.806  -2.087  1.00  0.00     0.023 C 
BRANCH   3   4
ATOM      4  C   UNL     1       4.612   1.308  -0.686  1.00  0.00     0.116 C 
BRANCH   4   5
ATOM      5  N   UNL     1       3.184   1.155  -0.455  1.00  0.00    -0.352 N 
ATOM      6  O   UNL     1       1.250   0.097   0.017  1.00  0.00    -0.269 OA
ATOM      7  C   UNL     1       2.478   0.062  -0.013  1.00  0.00     0.251 C 
ATOM      8  H   UNL     1       2.642   1.955  -0.642  1.00  0.00     0.163 HD
BRANCH   7   9
ATOM      9  C   UNL     1       3.186  -1.171   0.396  1.00  0.00     0.039 A 
ATOM     10  C   UNL     1       4.323  -1.113   1.203  1.00  0.00     0.014 A 
ATOM     11  C   UNL     1       2.692  -2.410  -0.027  1.00  0.00     0.014 A 
ATOM     12  C   UNL     1       5.048  -2.272   1.459  1.00  0.00     0.010 A 
ATOM     13  C   UNL     1       3.374  -3.585   0.305  1.00  0.00     0.010 A 
ATOM     14  C   UNL     1       4.577  -3.522   1.024  1.00  0.00    -0.014 A 
BRANCH  14  15
ATOM     15  C   UNL     1       5.329  -4.747   1.398  1.00  0.00     0.031 A 
ATOM     16  C   UNL     1       6.003  -5.599   0.360  1.00  0.00     0.074 A 
ATOM     17  C   UNL     1       5.434  -5.061   2.704  1.00  0.00     0.049 A 
ATOM     18  N   UNL     1       6.737  -6.673   0.526  1.00  0.00    -0.248 NA
ATOM     19  C   UNL     1       5.831  -5.205  -1.046  1.00  0.00     0.031 C 
ATOM     20  C   UNL     1       4.805  -4.318   3.798  1.00  0.00     0.029 A 
ATOM     21  N   UNL     1       6.122  -6.064   3.336  1.00  0.00    -0.354 N 
ATOM     22  C   UNL     1       7.102  -7.087  -0.748  1.00  0.00     0.074 A 
ATOM     23  C   UNL     1       6.489  -6.166  -1.682  1.00  0.00     0.031 C 
ATOM     24  C   UNL     1       5.176  -4.859   4.967  1.00  0.00     0.029 A 
ATOM     25  C   UNL     1       6.020  -6.018   4.705  1.00  0.00     0.049 A 
ATOM     26  H   UNL     1       6.638  -6.751   2.856  1.00  0.00     0.167 HD
ATOM     27  C   UNL     1       7.885  -8.135  -1.101  1.00  0.00     0.037 A 
ATOM     28  C   UNL     1       6.540  -6.827   5.646  1.00  0.00     0.037 A 
ATOM     29  C   UNL     1       8.506  -9.040  -0.167  1.00  0.00     0.049 A 
ATOM     30  C   UNL     1       7.395  -7.985   5.221  1.00  0.00     0.074 A 
ATOM     31  C   UNL     1       9.342 -10.113  -0.428  1.00  0.00     0.029 A 
ATOM     32  N   UNL     1       8.357  -8.979   1.211  1.00  0.00    -0.354 N 
ATOM     33  N   UNL     1       7.758  -8.344   4.015  1.00  0.00    -0.248 NA
ATOM     34  C   UNL     1       7.910  -8.851   6.289  1.00  0.00     0.031 C 
ATOM     35  C   UNL     1       9.667 -10.724   0.788  1.00  0.00     0.029 A 
ATOM     36  C   UNL     1       9.069 -10.006   1.811  1.00  0.00     0.049 A 
ATOM     37  H   UNL     1       7.825  -8.305   1.692  1.00  0.00     0.167 HD
ATOM     38  C   UNL     1       8.549  -9.472   4.176  1.00  0.00     0.074 A 
ATOM     39  C   UNL     1       8.638  -9.719   5.601  1.00  0.00     0.031 C 
ATOM     40  C   UNL     1       9.141 -10.240   3.230  1.00  0.00     0.037 A 
BRANCH  27  41
ATOM     41  C   UNL     1       8.118  -8.375  -2.565  1.00  0.00     0.064 A 
ATOM     42  C   UNL     1       8.964  -7.549  -3.319  1.00  0.00     0.173 A 
ATOM     43  C   UNL     1       7.546  -9.486  -3.204  1.00  0.00     0.173 A 
ATOM     44  F   UNL     1       9.528  -6.469  -2.759  1.00  0.00    -0.203 F 
ATOM     45  C   UNL     1       9.219  -7.819  -4.662  1.00  0.00     0.198 A 
ATOM     46  C   UNL     1       7.821  -9.766  -4.540  1.00  0.00     0.198 A 
ATOM     47  F   UNL     1       6.735 -10.312  -2.526  1.00  0.00    -0.203 F 
ATOM     48  F   UNL     1      10.008  -7.000  -5.371  1.00  0.00    -0.200 F 
ATOM     49  C   UNL     1       8.654  -8.931  -5.269  1.00  0.00     0.200 A 
ATOM     50  F   UNL     1       7.285 -10.849  -5.121  1.00  0.00    -0.200 F 
ATOM     51  F   UNL     1       8.911  -9.197  -6.557  1.00  0.00    -0.200 F 
ENDBRANCH  27  41
BRANCH  28  52
ATOM     52  C   UNL     1       6.257  -6.566   7.080  1.00  0.00     0.064 A 
ATOM     53  C   UNL     1       7.268  -6.137   7.951  1.00  0.00     0.173 A 
ATOM     54  C   UNL     1       4.968  -6.733   7.607  1.00  0.00     0.173 A 
ATOM     55  F   UNL     1       8.521  -5.982   7.497  1.00  0.00    -0.203 F 
ATOM     56  C   UNL     1       7.004  -5.902   9.298  1.00  0.00     0.198 A 
ATOM     57  C   UNL     1       4.698  -6.468   8.947  1.00  0.00     0.198 A 
ATOM     58  F   UNL     1       3.965  -7.137   6.814  1.00  0.00    -0.203 F 
ATOM     59  F   UNL     1       7.997  -5.534  10.118  1.00  0.00    -0.200 F 
ATOM     60  C   UNL     1       5.718  -6.060   9.793  1.00  0.00     0.200 A 
ATOM     61  F   UNL     1       3.451  -6.606   9.417  1.00  0.00    -0.200 F 
ATOM     62  F   UNL     1       5.463  -5.826  11.088  1.00  0.00    -0.200 F 
ENDBRANCH  28  52
BRANCH  40  63
ATOM     63  C   UNL     1       9.944 -11.410   3.713  1.00  0.00     0.064 A 
ATOM     64  C   UNL     1       9.325 -12.554   4.240  1.00  0.00     0.173 A 
ATOM     65  C   UNL     1      11.345 -11.393   3.641  1.00  0.00     0.173 A 
ATOM     66  F   UNL     1       7.989 -12.610   4.346  1.00  0.00    -0.203 F 
ATOM     67  C   UNL     1      10.082 -13.626   4.704  1.00  0.00     0.198 A 
ATOM     68  C   UNL     1      12.097 -12.478   4.082  1.00  0.00     0.198 A 
ATOM     69  F   UNL     1      11.983 -10.323   3.142  1.00  0.00    -0.203 F 
ATOM     70  F   UNL     1       9.472 -14.686   5.252  1.00  0.00    -0.200 F 
ATOM     71  C   UNL     1      11.466 -13.589   4.621  1.00  0.00     0.200 A 
ATOM     72  F   UNL     1      13.433 -12.445   3.992  1.00  0.00    -0.200 F 
ATOM     73  F   UNL     1      12.192 -14.621   5.070  1.00  0.00    -0.200 F 
ENDBRANCH  40  63
ENDBRANCH  14  15
ENDBRANCH   7   9
ENDBRANCH   4   5
ENDBRANCH   3   4
ENDBRANCH   2   3
ENDBRANCH   1   2
BRANCH   1  74
ATOM     74  N   UNL     1       5.962   4.506  -1.119  1.00  0.00    -0.351 N 
ATOM     75  C   UNL     1       6.657   5.689  -1.048  1.00  0.00     0.271 C 
ATOM     76  H   UNL     1       6.481   3.695  -0.913  1.00  0.00     0.163 HD
ATOM     77  O   UNL     1       7.828   5.682  -0.676  1.00  0.00    -0.267 OA
BRANCH  75  78
ATOM     78  C   UNL     1       5.992   6.968  -1.383  1.00  0.00     0.150 A 
ATOM     79  C   UNL     1       4.982   7.470  -0.580  1.00  0.00     0.145 A 
ATOM     80  N   UNL     1       6.511   7.666  -2.421  1.00  0.00    -0.205 NA
ATOM     81  N   UNL     1       4.431   8.691  -0.794  1.00  0.00    -0.257 NA
ATOM     82  C   UNL     1       6.025   8.906  -2.591  1.00  0.00     0.233 A 
ATOM     83  C   UNL     1       4.999   9.406  -1.801  1.00  0.00     0.179 A 
BRANCH  82  84
ATOM     84  O   UNL     1       6.672   9.757  -3.455  1.00  0.00    -0.477 OA
BRANCH  84  85
ATOM     85  C   UNL     1       7.226   9.106  -4.603  1.00  0.00     0.232 C 
BRANCH  85  86
ATOM     86  C   UNL     1       8.721   8.767  -4.506  1.00  0.00     0.046 C 
BRANCH  86  87
ATOM     87  C   UNL     1       9.187   7.569  -3.658  1.00  0.00     0.039 C 
BRANCH  87  88
ATOM     88  C   UNL     1       8.908   6.145  -4.105  1.00  0.00    -0.048 A 
ATOM     89  C   UNL     1       7.861   5.761  -4.950  1.00  0.00     0.004 A 
ATOM     90  C   UNL     1       9.715   5.122  -3.573  1.00  0.00     0.004 A 
ATOM     91  C   UNL     1       7.621   4.414  -5.246  1.00  0.00     0.000 A 
ATOM     92  C   UNL     1       9.490   3.777  -3.881  1.00  0.00     0.000 A 
ATOM     93  C   UNL     1       8.437   3.422  -4.716  1.00  0.00     0.000 A 
ENDBRANCH  87  88
ENDBRANCH  86  87
ENDBRANCH  85  86
ENDBRANCH  84  85
ENDBRANCH  82  84
ENDBRANCH  75  78
ENDBRANCH   1  74
TORSDOF 16
