REMARK SMILES Cc1ccccc1C(=O)Nc1ccc(N2CCCCC2)cc1C(=O)NCCCCNC(=O)c1ccc(-c2c3nc(c(-c4c(F)c(F)c(F)c(F)c4F)c4ccc([nH]4)c(-c4c(F)c(F)c(F)c(F)c4F)c4nc(c(-c5c(F)c(F)c(F)c(F)c5F)c5ccc2[nH]5)C=C4)C=C3)cc1
REMARK SMILES IDX 27 1 26 2 25 3 23 4 24 5 22 7 11 8 12 9 13 10 21 11 14 12
REMARK SMILES IDX 10 13 8 14 9 15 7 17 1 18 2 19 3 20 4 21 6 22 5 23 15 24
REMARK SMILES IDX 16 25 20 26 17 27 19 28 18 29 28 30 29 31 30 32 31 33 32 35
REMARK SMILES IDX 33 36 34 37 95 38 35 39 94 40 36 41 37 42 38 43 88 44 39 45
REMARK SMILES IDX 93 46 87 47 89 48 40 49 92 50 86 51 85 52 41 54 73 55 53 56
REMARK SMILES IDX 72 57 54 58 57 59 71 60 90 61 55 62 56 63 70 65 91 66 58 67
REMARK SMILES IDX 42 68 43 69 51 70 44 71 45 72 49 73 52 74 46 75 47 76 50 77
REMARK SMILES IDX 48 78 74 79 75 80 83 81 76 82 77 83 81 84 84 85 78 86 79 87
REMARK SMILES IDX 82 88 80 89 59 90 60 91 68 92 61 93 62 94 66 95 69 96 63 97
REMARK SMILES IDX 64 98 67 99 65 100
REMARK H PARENT 25 6 10 16 30 34 89 53 57 64
REMARK Flexibility Score: inf
ROOT
ATOM      1  C   UNL     1       0.927  -3.274  -1.809  1.00  0.00     0.023 C 
ENDROOT
BRANCH   1   2
ATOM      2  C   UNL     1       2.028  -2.387  -2.386  1.00  0.00     0.116 C 
BRANCH   2   3
ATOM      3  N   UNL     1       1.659  -0.995  -2.628  1.00  0.00    -0.352 N 
ATOM      4  C   UNL     1       2.196   0.204  -2.197  1.00  0.00     0.253 C 
ATOM      5  O   UNL     1       1.721   1.246  -2.643  1.00  0.00    -0.269 OA
ATOM      6  H   UNL     1       0.874  -0.889  -3.213  1.00  0.00     0.163 HD
BRANCH   4   7
ATOM      7  C   UNL     1       3.319   0.257  -1.228  1.00  0.00     0.065 A 
ATOM      8  C   UNL     1       3.405   1.210  -0.197  1.00  0.00     0.054 A 
ATOM      9  C   UNL     1       4.542   1.214   0.626  1.00  0.00     0.029 A 
ATOM     10  C   UNL     1       5.471   0.182   0.553  1.00  0.00     0.028 A 
ATOM     11  C   UNL     1       4.385  -0.643  -1.404  1.00  0.00     0.042 A 
ATOM     12  C   UNL     1       5.375  -0.797  -0.434  1.00  0.00     0.038 A 
BRANCH   8  13
ATOM     13  N   UNL     1       2.459   2.178   0.173  1.00  0.00    -0.321 N 
ATOM     14  C   UNL     1       1.092   2.196   0.252  1.00  0.00     0.255 C 
ATOM     15  O   UNL     1       0.553   3.281   0.495  1.00  0.00    -0.269 OA
ATOM     16  H   UNL     1       2.869   3.034   0.435  1.00  0.00     0.170 HD
BRANCH  14  17
ATOM     17  C   UNL     1       0.221   0.991   0.212  1.00  0.00     0.043 A 
ATOM     18  C   UNL     1       1.654  -0.528   1.732  1.00  0.00     0.045 C 
ATOM     19  C   UNL     1       0.439  -0.216   0.908  1.00  0.00    -0.038 A 
ATOM     20  C   UNL     1      -0.558  -1.212   0.856  1.00  0.00     0.004 A 
ATOM     21  C   UNL     1      -1.764  -1.004   0.186  1.00  0.00     0.000 A 
ATOM     22  C   UNL     1      -1.012   1.190  -0.441  1.00  0.00     0.014 A 
ATOM     23  C   UNL     1      -1.998   0.205  -0.453  1.00  0.00     0.001 A 
ENDBRANCH  14  17
ENDBRANCH   8  13
BRANCH  12  24
ATOM     24  N   UNL     1       6.175  -1.932  -0.350  1.00  0.00    -0.372 N 
ATOM     25  C   UNL     1       5.809  -2.830   0.760  1.00  0.00     0.116 C 
ATOM     26  C   UNL     1       6.627  -2.609  -1.566  1.00  0.00     0.116 C 
ATOM     27  C   UNL     1       7.005  -3.696   1.136  1.00  0.00     0.021 C 
ATOM     28  C   UNL     1       7.856  -3.452  -1.227  1.00  0.00     0.021 C 
ATOM     29  C   UNL     1       7.574  -4.423  -0.080  1.00  0.00     0.004 C 
ENDBRANCH  12  24
ENDBRANCH   4   7
ENDBRANCH   2   3
ENDBRANCH   1   2
BRANCH   1  30
ATOM     30  C   UNL     1      -0.401  -3.270  -2.552  1.00  0.00     0.023 C 
BRANCH  30  31
ATOM     31  C   UNL     1      -0.347  -3.907  -3.932  1.00  0.00     0.116 C 
BRANCH  31  32
ATOM     32  N   UNL     1      -0.517  -5.359  -3.934  1.00  0.00    -0.352 N 
ATOM     33  C   UNL     1      -0.528  -6.227  -5.018  1.00  0.00     0.251 C 
ATOM     34  H   UNL     1      -0.640  -5.776  -3.051  1.00  0.00     0.163 HD
ATOM     35  O   UNL     1      -0.647  -7.429  -4.864  1.00  0.00    -0.269 OA
BRANCH  33  36
ATOM     36  C   UNL     1      -0.261  -5.665  -6.364  1.00  0.00     0.039 A 
ATOM     37  C   UNL     1       0.825  -6.170  -7.086  1.00  0.00     0.014 A 
ATOM     38  C   UNL     1      -0.894  -4.492  -6.761  1.00  0.00     0.014 A 
ATOM     39  C   UNL     1       1.442  -5.354  -8.030  1.00  0.00     0.010 A 
ATOM     40  C   UNL     1      -0.217  -3.639  -7.608  1.00  0.00     0.010 A 
ATOM     41  C   UNL     1       0.996  -4.041  -8.180  1.00  0.00    -0.014 A 
BRANCH  41  42
ATOM     42  C   UNL     1       1.806  -2.987  -8.787  1.00  0.00     0.031 A 
ATOM     43  C   UNL     1       1.418  -2.379 -10.076  1.00  0.00     0.074 A 
ATOM     44  C   UNL     1       2.859  -2.486  -8.101  1.00  0.00     0.049 A 
ATOM     45  N   UNL     1       2.208  -1.679 -10.818  1.00  0.00    -0.248 NA
ATOM     46  C   UNL     1       0.094  -2.552 -10.655  1.00  0.00     0.031 C 
ATOM     47  C   UNL     1       3.605  -1.262  -8.384  1.00  0.00     0.029 A 
ATOM     48  N   UNL     1       3.618  -3.128  -7.104  1.00  0.00    -0.354 N 
ATOM     49  C   UNL     1       1.458  -1.103 -11.817  1.00  0.00     0.074 A 
ATOM     50  C   UNL     1       0.156  -1.718 -11.697  1.00  0.00     0.031 C 
ATOM     51  C   UNL     1       4.836  -1.379  -7.864  1.00  0.00     0.029 A 
ATOM     52  C   UNL     1       4.957  -2.733  -7.356  1.00  0.00     0.049 A 
ATOM     53  H   UNL     1       3.292  -3.721  -6.389  1.00  0.00     0.167 HD
ATOM     54  C   UNL     1       2.005  -0.095 -12.560  1.00  0.00     0.037 A 
ATOM     55  C   UNL     1       5.892  -3.645  -7.754  1.00  0.00     0.037 A 
ATOM     56  C   UNL     1       3.421   0.098 -12.243  1.00  0.00     0.049 A 
ATOM     57  C   UNL     1       6.506  -3.378  -9.114  1.00  0.00     0.074 A 
ATOM     58  C   UNL     1       4.140   1.002 -11.478  1.00  0.00     0.029 A 
ATOM     59  N   UNL     1       4.302  -0.924 -12.545  1.00  0.00    -0.354 N 
ATOM     60  N   UNL     1       6.140  -2.416  -9.914  1.00  0.00    -0.248 NA
ATOM     61  C   UNL     1       7.515  -4.249  -9.720  1.00  0.00     0.031 C 
ATOM     62  C   UNL     1       5.467   0.503 -11.326  1.00  0.00     0.029 A 
ATOM     63  C   UNL     1       5.549  -0.702 -11.997  1.00  0.00     0.049 A 
ATOM     64  H   UNL     1       4.069  -1.714 -13.085  1.00  0.00     0.167 HD
ATOM     65  C   UNL     1       6.796  -2.545 -11.109  1.00  0.00     0.074 A 
ATOM     66  C   UNL     1       7.644  -3.709 -10.943  1.00  0.00     0.031 C 
ATOM     67  C   UNL     1       6.574  -1.715 -12.168  1.00  0.00     0.037 A 
BRANCH  54  68
ATOM     68  C   UNL     1       1.210   0.860 -13.426  1.00  0.00     0.064 A 
ATOM     69  C   UNL     1       1.674   2.173 -13.665  1.00  0.00     0.173 A 
ATOM     70  C   UNL     1      -0.039   0.571 -14.006  1.00  0.00     0.173 A 
ATOM     71  F   UNL     1       2.896   2.565 -13.283  1.00  0.00    -0.203 F 
ATOM     72  C   UNL     1       0.898   3.141 -14.311  1.00  0.00     0.198 A 
ATOM     73  C   UNL     1      -0.842   1.553 -14.597  1.00  0.00     0.198 A 
ATOM     74  F   UNL     1      -0.497  -0.683 -14.090  1.00  0.00    -0.203 F 
ATOM     75  F   UNL     1       1.395   4.370 -14.504  1.00  0.00    -0.200 F 
ATOM     76  C   UNL     1      -0.378   2.843 -14.738  1.00  0.00     0.200 A 
ATOM     77  F   UNL     1      -2.068   1.232 -15.036  1.00  0.00    -0.200 F 
ATOM     78  F   UNL     1      -1.142   3.782 -15.311  1.00  0.00    -0.200 F 
ENDBRANCH  54  68
BRANCH  55  79
ATOM     79  C   UNL     1       5.668  -4.993  -7.167  1.00  0.00     0.064 A 
ATOM     80  C   UNL     1       5.670  -5.124  -5.763  1.00  0.00     0.173 A 
ATOM     81  C   UNL     1       5.112  -6.037  -7.913  1.00  0.00     0.173 A 
ATOM     82  F   UNL     1       6.187  -4.150  -4.996  1.00  0.00    -0.203 F 
ATOM     83  C   UNL     1       5.032  -6.190  -5.135  1.00  0.00     0.198 A 
ATOM     84  C   UNL     1       4.494  -7.117  -7.279  1.00  0.00     0.198 A 
ATOM     85  F   UNL     1       5.056  -5.963  -9.250  1.00  0.00    -0.203 F 
ATOM     86  F   UNL     1       4.942  -6.218  -3.797  1.00  0.00    -0.200 F 
ATOM     87  C   UNL     1       4.422  -7.173  -5.895  1.00  0.00     0.200 A 
ATOM     88  F   UNL     1       3.877  -8.052  -8.014  1.00  0.00    -0.200 F 
ATOM     89  F   UNL     1       3.726  -8.149  -5.296  1.00  0.00    -0.200 F 
ENDBRANCH  55  79
BRANCH  67  90
ATOM     90  C   UNL     1       7.314  -1.816 -13.469  1.00  0.00     0.064 A 
ATOM     91  C   UNL     1       8.708  -1.967 -13.527  1.00  0.00     0.173 A 
ATOM     92  C   UNL     1       6.654  -1.644 -14.704  1.00  0.00     0.173 A 
ATOM     93  F   UNL     1       9.433  -2.075 -12.403  1.00  0.00    -0.203 F 
ATOM     94  C   UNL     1       9.392  -1.994 -14.744  1.00  0.00     0.198 A 
ATOM     95  C   UNL     1       7.345  -1.620 -15.914  1.00  0.00     0.198 A 
ATOM     96  F   UNL     1       5.321  -1.521 -14.772  1.00  0.00    -0.203 F 
ATOM     97  F   UNL     1      10.717  -2.195 -14.758  1.00  0.00    -0.200 F 
ATOM     98  C   UNL     1       8.712  -1.809 -15.935  1.00  0.00     0.200 A 
ATOM     99  F   UNL     1       6.675  -1.420 -17.058  1.00  0.00    -0.200 F 
ATOM    100  F   UNL     1       9.372  -1.816 -17.101  1.00  0.00    -0.200 F 
ENDBRANCH  67  90
ENDBRANCH  41  42
ENDBRANCH  33  36
ENDBRANCH  31  32
ENDBRANCH  30  31
ENDBRANCH   1  30
TORSDOF 14
