REMARK SMILES O=C(NCCCCNC(=O)[C@@H]1[C@@H](C(=O)NCc2cc(F)cc(Br)c2)[C@@H]2C=C[C@H]1C2)c1ccc(-c2c3nc(c(-c4c(F)c(F)c(F)c(F)c4F)c4ccc([nH]4)c(-c4c(F)c(F)c(F)c(F)c4F)c4nc(c(-c5c(F)c(F)c(F)c(F)c5F)c5ccc2[nH]5)C=C4)C=C3)cc1
REMARK SMILES IDX 6 1 5 2 4 3 3 4 1 5 2 6 30 8 31 9 92 10 32 11 91 12 33 13
REMARK SMILES IDX 34 14 35 15 85 16 36 17 90 18 84 19 86 20 37 21 89 22 83 23
REMARK SMILES IDX 82 24 38 26 70 27 50 28 69 29 51 30 54 31 68 32 87 33 52 34
REMARK SMILES IDX 53 35 67 37 88 38 55 39 39 40 40 41 48 42 41 43 42 44 46 45
REMARK SMILES IDX 49 46 43 47 44 48 47 49 45 50 71 51 72 52 80 53 73 54 74 55
REMARK SMILES IDX 78 56 81 57 75 58 76 59 79 60 77 61 56 62 57 63 65 64 58 65
REMARK SMILES IDX 59 66 63 67 66 68 60 69 61 70 64 71 62 72 7 73 8 74 9 75
REMARK SMILES IDX 10 77 11 78 12 79 28 80 25 81 27 82 29 83 26 84 13 85 14 86
REMARK SMILES IDX 15 87 16 89 17 90 18 91 24 92 19 93 22 94 20 95 21 96 23 97
REMARK H PARENT 3 7 86 25 54 36 8 76 15 88
REMARK Flexibility Score: inf
ROOT
ATOM      1  C   UNL     1       4.493  -3.804   0.659  1.00  0.00     0.023 C 
ENDROOT
BRANCH   1   2
ATOM      2  C   UNL     1       4.988  -2.427   1.092  1.00  0.00     0.023 C 
BRANCH   2   3
ATOM      3  C   UNL     1       4.649  -1.292   0.133  1.00  0.00     0.116 C 
BRANCH   3   4
ATOM      4  N   UNL     1       3.221  -1.165  -0.130  1.00  0.00    -0.352 N 
ATOM      5  O   UNL     1       1.215  -0.127  -0.208  1.00  0.00    -0.269 OA
ATOM      6  C   UNL     1       2.426  -0.043  -0.070  1.00  0.00     0.251 C 
ATOM      7  H   UNL     1       2.762  -1.997  -0.385  1.00  0.00     0.163 HD
BRANCH   6   8
ATOM      8  C   UNL     1       3.057   1.265   0.198  1.00  0.00     0.039 A 
ATOM      9  C   UNL     1       4.196   1.653  -0.508  1.00  0.00     0.014 A 
ATOM     10  C   UNL     1       2.529   2.082   1.200  1.00  0.00     0.014 A 
ATOM     11  C   UNL     1       4.902   2.777  -0.102  1.00  0.00     0.010 A 
ATOM     12  C   UNL     1       3.192   3.261   1.546  1.00  0.00     0.010 A 
ATOM     13  C   UNL     1       4.406   3.595   0.927  1.00  0.00    -0.014 A 
BRANCH  13  14
ATOM     14  C   UNL     1       5.159   4.815   1.307  1.00  0.00     0.031 A 
ATOM     15  C   UNL     1       5.778   4.955   2.668  1.00  0.00     0.074 A 
ATOM     16  C   UNL     1       5.309   5.789   0.390  1.00  0.00     0.049 A 
ATOM     17  N   UNL     1       6.487   5.944   3.155  1.00  0.00    -0.248 NA
ATOM     18  C   UNL     1       5.571   3.847   3.612  1.00  0.00     0.031 C 
ATOM     19  C   UNL     1       4.747   5.762  -0.962  1.00  0.00     0.029 A 
ATOM     20  N   UNL     1       5.992   6.976   0.444  1.00  0.00    -0.354 N 
ATOM     21  C   UNL     1       6.787   5.590   4.463  1.00  0.00     0.074 A 
ATOM     22  C   UNL     1       6.165   4.305   4.705  1.00  0.00     0.031 C 
ATOM     23  C   UNL     1       5.152   6.852  -1.627  1.00  0.00     0.029 A 
ATOM     24  C   UNL     1       5.947   7.684  -0.730  1.00  0.00     0.049 A 
ATOM     25  H   UNL     1       6.469   7.289   1.246  1.00  0.00     0.167 HD
ATOM     26  C   UNL     1       7.520   6.275   5.375  1.00  0.00     0.037 A 
ATOM     27  C   UNL     1       6.476   8.879  -1.048  1.00  0.00     0.037 A 
ATOM     28  C   UNL     1       8.153   7.545   5.119  1.00  0.00     0.049 A 
ATOM     29  C   UNL     1       7.266   9.624  -0.013  1.00  0.00     0.074 A 
ATOM     30  C   UNL     1       8.952   8.298   5.961  1.00  0.00     0.029 A 
ATOM     31  N   UNL     1       8.053   8.251   3.928  1.00  0.00    -0.354 N 
ATOM     32  N   UNL     1       7.568   9.267   1.211  1.00  0.00    -0.248 NA
ATOM     33  C   UNL     1       7.784  10.941  -0.403  1.00  0.00     0.031 C 
ATOM     34  C   UNL     1       9.297   9.481   5.298  1.00  0.00     0.029 A 
ATOM     35  C   UNL     1       8.755   9.443   4.023  1.00  0.00     0.049 A 
ATOM     36  H   UNL     1       7.557   7.950   3.133  1.00  0.00     0.167 HD
ATOM     37  C   UNL     1       8.325  10.304   1.734  1.00  0.00     0.074 A 
ATOM     38  C   UNL     1       8.450  11.298   0.686  1.00  0.00     0.031 C 
ATOM     39  C   UNL     1       8.868  10.422   2.971  1.00  0.00     0.037 A 
BRANCH  26  40
ATOM     40  C   UNL     1       7.656   5.678   6.747  1.00  0.00     0.064 A 
ATOM     41  C   UNL     1       8.434   4.535   6.985  1.00  0.00     0.173 A 
ATOM     42  C   UNL     1       7.021   6.277   7.846  1.00  0.00     0.173 A 
ATOM     43  F   UNL     1       9.055   3.917   5.968  1.00  0.00    -0.203 F 
ATOM     44  C   UNL     1       8.546   3.997   8.265  1.00  0.00     0.198 A 
ATOM     45  C   UNL     1       7.157   5.753   9.129  1.00  0.00     0.198 A 
ATOM     46  F   UNL     1       6.270   7.376   7.677  1.00  0.00    -0.203 F 
ATOM     47  F   UNL     1       9.254   2.876   8.460  1.00  0.00    -0.200 F 
ATOM     48  C   UNL     1       7.912   4.609   9.336  1.00  0.00     0.200 A 
ATOM     49  F   UNL     1       6.553   6.353  10.164  1.00  0.00    -0.200 F 
ATOM     50  F   UNL     1       8.021   4.090  10.567  1.00  0.00    -0.200 F 
ENDBRANCH  26  40
BRANCH  27  51
ATOM     51  C   UNL     1       6.279   9.424  -2.414  1.00  0.00     0.064 A 
ATOM     52  C   UNL     1       7.346   9.495  -3.319  1.00  0.00     0.173 A 
ATOM     53  C   UNL     1       5.015   9.842  -2.856  1.00  0.00     0.173 A 
ATOM     54  F   UNL     1       8.575   9.120  -2.936  1.00  0.00    -0.203 F 
ATOM     55  C   UNL     1       7.157   9.970  -4.615  1.00  0.00     0.198 A 
ATOM     56  C   UNL     1       4.822  10.290  -4.160  1.00  0.00     0.198 A 
ATOM     57  F   UNL     1       3.962   9.785  -2.028  1.00  0.00    -0.203 F 
ATOM     58  F   UNL     1       8.198  10.054  -5.453  1.00  0.00    -0.200 F 
ATOM     59  C   UNL     1       5.894  10.358  -5.037  1.00  0.00     0.200 A 
ATOM     60  F   UNL     1       3.597  10.646  -4.569  1.00  0.00    -0.200 F 
ATOM     61  F   UNL     1       5.710  10.799  -6.288  1.00  0.00    -0.200 F 
ENDBRANCH  27  51
BRANCH  39  62
ATOM     62  C   UNL     1       9.670  11.660   3.245  1.00  0.00     0.064 A 
ATOM     63  C   UNL     1       9.058  12.910   3.412  1.00  0.00     0.173 A 
ATOM     64  C   UNL     1      11.066  11.588   3.362  1.00  0.00     0.173 A 
ATOM     65  F   UNL     1       7.727  13.033   3.291  1.00  0.00    -0.203 F 
ATOM     66  C   UNL     1       9.818  14.050   3.661  1.00  0.00     0.198 A 
ATOM     67  C   UNL     1      11.820  12.725   3.638  1.00  0.00     0.198 A 
ATOM     68  F   UNL     1      11.698  10.414   3.213  1.00  0.00    -0.203 F 
ATOM     69  F   UNL     1       9.217  15.243   3.767  1.00  0.00    -0.200 F 
ATOM     70  C   UNL     1      11.197  13.956   3.779  1.00  0.00     0.200 A 
ATOM     71  F   UNL     1      13.151  12.630   3.762  1.00  0.00    -0.200 F 
ATOM     72  F   UNL     1      11.926  15.053   4.021  1.00  0.00    -0.200 F 
ENDBRANCH  39  62
ENDBRANCH  13  14
ENDBRANCH   6   8
ENDBRANCH   3   4
ENDBRANCH   2   3
ENDBRANCH   1   2
BRANCH   1  73
ATOM     73  C   UNL     1       4.947  -4.228  -0.732  1.00  0.00     0.116 C 
BRANCH  73  74
ATOM     74  N   UNL     1       6.355  -4.577  -0.764  1.00  0.00    -0.356 N 
ATOM     75  C   UNL     1       6.933  -5.726  -1.234  1.00  0.00     0.224 C 
ATOM     76  H   UNL     1       6.973  -3.902  -0.402  1.00  0.00     0.163 HD
ATOM     77  O   UNL     1       8.153  -5.845  -1.166  1.00  0.00    -0.275 OA
BRANCH  75  78
ATOM     78  C   UNL     1       6.018  -6.772  -1.842  1.00  0.00     0.098 C 
ATOM     79  C   UNL     1       6.670  -8.183  -2.082  1.00  0.00     0.098 C 
ATOM     80  C   UNL     1       5.523  -6.369  -3.254  1.00  0.00     0.025 C 
ATOM     81  C   UNL     1       6.355  -8.418  -3.572  1.00  0.00     0.025 C 
ATOM     82  C   UNL     1       6.699  -6.224  -4.188  1.00  0.00    -0.027 C 
ATOM     83  C   UNL     1       5.000  -7.720  -3.744  1.00  0.00     0.017 C 
ATOM     84  C   UNL     1       7.201  -7.452  -4.378  1.00  0.00    -0.027 C 
BRANCH  79  85
ATOM     85  C   UNL     1       6.132  -9.093  -0.983  1.00  0.00     0.224 C 
ATOM     86  O   UNL     1       6.302  -8.752   0.198  1.00  0.00    -0.275 OA
ATOM     87  N   UNL     1       5.444 -10.239  -1.135  1.00  0.00    -0.352 N 
ATOM     88  H   UNL     1       5.183 -10.629  -0.270  1.00  0.00     0.163 HD
BRANCH  87  89
ATOM     89  C   UNL     1       4.992 -11.042  -2.248  1.00  0.00     0.151 C 
BRANCH  89  90
ATOM     90  C   UNL     1       5.855 -12.262  -2.429  1.00  0.00    -0.025 A 
ATOM     91  C   UNL     1       5.889 -13.257  -1.439  1.00  0.00     0.044 A 
ATOM     92  C   UNL     1       6.630 -12.441  -3.585  1.00  0.00     0.021 A 
ATOM     93  C   UNL     1       6.676 -14.392  -1.610  1.00  0.00     0.124 A 
ATOM     94  C   UNL     1       7.415 -13.588  -3.738  1.00  0.00     0.021 A 
ATOM     95  F   UNL     1       6.687 -15.332  -0.656  1.00  0.00    -0.207 F 
ATOM     96  C   UNL     1       7.442 -14.570  -2.753  1.00  0.00     0.055 A 
ATOM     97  Br  UNL     1       8.445 -13.810  -5.308  1.00  0.00    -0.051 Br
ENDBRANCH  89  90
ENDBRANCH  87  89
ENDBRANCH  79  85
ENDBRANCH  75  78
ENDBRANCH  73  74
ENDBRANCH   1  73
TORSDOF 14
