REMARK SMILES CC(C)(C)SSC[C@H]([NH3+])C(=O)NCCCCNC(=O)c1ccc(-c2c3nc(c(-c4c(F)c(F)c(F)c(F)c4F)c4ccc([nH]4)c(-c4c(F)c(F)c(F)c(F)c4F)c4nc(c(-c5c(F)c(F)c(F)c(F)c5F)c5ccc2[nH]5)C=C4)C=C3)cc1
REMARK SMILES IDX 13 1 12 2 10 3 11 4 8 6 7 7 6 8 5 9 2 10 1 11 3 12 4 13 9 14
REMARK SMILES IDX 14 18 15 19 16 20 17 21 18 22 19 24 20 25 21 26 82 27 22 28
REMARK SMILES IDX 81 29 23 30 24 31 25 32 75 33 26 34 80 35 74 36 76 37 27 38
REMARK SMILES IDX 79 39 73 40 72 41 28 43 60 44 40 45 59 46 41 47 44 48 58 49
REMARK SMILES IDX 77 50 42 51 43 52 57 54 78 55 45 56 29 57 30 58 38 59 31 60
REMARK SMILES IDX 32 61 36 62 39 63 33 64 34 65 37 66 35 67 61 68 62 69 70 70
REMARK SMILES IDX 63 71 64 72 68 73 71 74 65 75 66 76 69 77 67 78 46 79 47 80
REMARK SMILES IDX 55 81 48 82 49 83 53 84 56 85 50 86 51 87 54 88 52 89
REMARK H PARENT 12 5 9 15 9 16 9 17 17 23 76 42 44 53
REMARK Flexibility Score: inf
ROOT
ATOM      1  C   UNL     1       3.358   4.942  -4.310  1.00  0.00     0.116 C 
ENDROOT
BRANCH   1   2
ATOM      2  N   UNL     1       2.341   5.917  -4.661  1.00  0.00    -0.351 N 
ATOM      3  C   UNL     1       0.981   5.891  -4.527  1.00  0.00     0.279 C 
ATOM      4  O   UNL     1       0.362   6.902  -4.865  1.00  0.00    -0.268 OA
ATOM      5  H   UNL     1       2.692   6.741  -5.068  1.00  0.00     0.163 HD
BRANCH   3   6
ATOM      6  C   UNL     1       0.260   4.671  -3.928  1.00  0.00     0.281 C 
BRANCH   6   7
ATOM      7  C   UNL     1       0.579   4.592  -2.424  1.00  0.00     0.157 C 
BRANCH   7   8
ATOM      8  S   UNL     1      -0.167   3.163  -1.569  1.00  0.00    -0.087 SA
BRANCH   8   9
ATOM      9  S   UNL     1      -2.166   3.642  -1.591  1.00  0.00    -0.088 SA
BRANCH   9  10
ATOM     10  C   UNL     1      -3.019   2.207  -0.794  1.00  0.00     0.018 C 
ATOM     11  C   UNL     1      -4.519   2.536  -0.811  1.00  0.00     0.023 C 
ATOM     12  C   UNL     1      -2.548   2.046   0.656  1.00  0.00     0.023 C 
ATOM     13  C   UNL     1      -2.771   0.920  -1.591  1.00  0.00     0.023 C 
ENDBRANCH   9  10
ENDBRANCH   8   9
ENDBRANCH   7   8
ENDBRANCH   6   7
BRANCH   6  14
ATOM     14  N   UNL     1       0.524   3.454  -4.730  1.00  0.00    -0.347 N 
ATOM     15  H   UNL     1       1.526   3.265  -4.741  1.00  0.00     0.345 HD
ATOM     16  H   UNL     1       0.195   3.598  -5.684  1.00  0.00     0.345 HD
ATOM     17  H   UNL     1       0.033   2.662  -4.316  1.00  0.00     0.345 HD
ENDBRANCH   6  14
ENDBRANCH   3   6
ENDBRANCH   1   2
BRANCH   1  18
ATOM     18  C   UNL     1       4.186   4.522  -5.521  1.00  0.00     0.023 C 
BRANCH  18  19
ATOM     19  C   UNL     1       4.980   5.651  -6.179  1.00  0.00     0.023 C 
BRANCH  19  20
ATOM     20  C   UNL     1       5.897   6.430  -5.244  1.00  0.00     0.116 C 
BRANCH  20  21
ATOM     21  N   UNL     1       6.915   5.599  -4.620  1.00  0.00    -0.352 N 
ATOM     22  C   UNL     1       8.260   5.850  -4.484  1.00  0.00     0.251 C 
ATOM     23  H   UNL     1       6.600   4.745  -4.245  1.00  0.00     0.163 HD
ATOM     24  O   UNL     1       9.016   4.994  -4.037  1.00  0.00    -0.269 OA
BRANCH  22  25
ATOM     25  C   UNL     1       8.794   7.156  -4.918  1.00  0.00     0.039 A 
ATOM     26  C   UNL     1       9.886   7.190  -5.790  1.00  0.00     0.014 A 
ATOM     27  C   UNL     1       8.182   8.340  -4.501  1.00  0.00     0.014 A 
ATOM     28  C   UNL     1      10.318   8.413  -6.307  1.00  0.00     0.010 A 
ATOM     29  C   UNL     1       8.568   9.548  -5.069  1.00  0.00     0.010 A 
ATOM     30  C   UNL     1       9.637   9.596  -5.980  1.00  0.00    -0.014 A 
BRANCH  30  31
ATOM     31  C   UNL     1      10.016  10.908  -6.558  1.00  0.00     0.031 A 
ATOM     32  C   UNL     1      10.503  12.002  -5.652  1.00  0.00     0.074 A 
ATOM     33  C   UNL     1       9.816  11.152  -7.867  1.00  0.00     0.049 A 
ATOM     34  N   UNL     1      10.708  13.267  -5.912  1.00  0.00    -0.248 NA
ATOM     35  C   UNL     1      10.756  11.625  -4.253  1.00  0.00     0.031 C 
ATOM     36  C   UNL     1       9.314  10.184  -8.842  1.00  0.00     0.029 A 
ATOM     37  N   UNL     1       9.983  12.303  -8.596  1.00  0.00    -0.354 N 
ATOM     38  C   UNL     1      11.076  13.843  -4.704  1.00  0.00     0.074 A 
ATOM     39  C   UNL     1      11.028  12.798  -3.704  1.00  0.00     0.031 C 
ATOM     40  C   UNL     1       9.216  10.779 -10.042  1.00  0.00     0.029 A 
ATOM     41  C   UNL     1       9.607  12.180  -9.911  1.00  0.00     0.049 A 
ATOM     42  H   UNL     1      10.338  13.137  -8.213  1.00  0.00     0.167 HD
ATOM     43  C   UNL     1      11.435  15.125  -4.455  1.00  0.00     0.037 A 
ATOM     44  C   UNL     1       9.562  13.100 -10.894  1.00  0.00     0.037 A 
ATOM     45  C   UNL     1      11.518  16.149  -5.462  1.00  0.00     0.049 A 
ATOM     46  C   UNL     1       9.982  14.514 -10.600  1.00  0.00     0.074 A 
ATOM     47  C   UNL     1      11.934  17.462  -5.326  1.00  0.00     0.029 A 
ATOM     48  N   UNL     1      11.178  15.972  -6.796  1.00  0.00    -0.354 N 
ATOM     49  N   UNL     1      10.375  15.040  -9.465  1.00  0.00    -0.248 NA
ATOM     50  C   UNL     1       9.955  15.462 -11.722  1.00  0.00     0.031 C 
ATOM     51  C   UNL     1      11.811  18.090  -6.570  1.00  0.00     0.029 A 
ATOM     52  C   UNL     1      11.363  17.156  -7.491  1.00  0.00     0.049 A 
ATOM     53  H   UNL     1      10.854  15.130  -7.189  1.00  0.00     0.167 HD
ATOM     54  C   UNL     1      10.673  16.367  -9.741  1.00  0.00     0.074 A 
ATOM     55  C   UNL     1      10.417  16.567 -11.153  1.00  0.00     0.031 C 
ATOM     56  C   UNL     1      11.121  17.331  -8.901  1.00  0.00     0.037 A 
BRANCH  43  57
ATOM     57  C   UNL     1      11.757  15.487  -3.035  1.00  0.00     0.064 A 
ATOM     58  C   UNL     1      12.908  15.005  -2.393  1.00  0.00     0.173 A 
ATOM     59  C   UNL     1      10.905  16.332  -2.308  1.00  0.00     0.173 A 
ATOM     60  F   UNL     1      13.747  14.182  -3.040  1.00  0.00    -0.203 F 
ATOM     61  C   UNL     1      13.174  15.324  -1.064  1.00  0.00     0.198 A 
ATOM     62  C   UNL     1      11.191  16.675  -0.989  1.00  0.00     0.198 A 
ATOM     63  F   UNL     1       9.794  16.825  -2.875  1.00  0.00    -0.203 F 
ATOM     64  F   UNL     1      14.246  14.801  -0.454  1.00  0.00    -0.200 F 
ATOM     65  C   UNL     1      12.319  16.162  -0.365  1.00  0.00     0.200 A 
ATOM     66  F   UNL     1      10.370  17.495  -0.318  1.00  0.00    -0.200 F 
ATOM     67  F   UNL     1      12.575  16.467   0.915  1.00  0.00    -0.200 F 
ENDBRANCH  43  57
BRANCH  44  68
ATOM     68  C   UNL     1       9.122  12.700 -12.255  1.00  0.00     0.064 A 
ATOM     69  C   UNL     1      10.045  12.600 -13.305  1.00  0.00     0.173 A 
ATOM     70  C   UNL     1       7.783  12.388 -12.530  1.00  0.00     0.173 A 
ATOM     71  F   UNL     1      11.333  12.908 -13.094  1.00  0.00    -0.203 F 
ATOM     72  C   UNL     1       9.643  12.214 -14.582  1.00  0.00     0.198 A 
ATOM     73  C   UNL     1       7.386  11.979 -13.801  1.00  0.00     0.198 A 
ATOM     74  F   UNL     1       6.863  12.462 -11.556  1.00  0.00    -0.203 F 
ATOM     75  F   UNL     1      10.540  12.158 -15.576  1.00  0.00    -0.200 F 
ATOM     76  C   UNL     1       8.316  11.896 -14.827  1.00  0.00     0.200 A 
ATOM     77  F   UNL     1       6.105  11.659 -14.031  1.00  0.00    -0.200 F 
ATOM     78  F   UNL     1       7.931  11.515 -16.053  1.00  0.00    -0.200 F 
ENDBRANCH  44  68
BRANCH  56  79
ATOM     79  C   UNL     1      11.417  18.679  -9.489  1.00  0.00     0.064 A 
ATOM     80  C   UNL     1      10.393  19.564  -9.855  1.00  0.00     0.173 A 
ATOM     81  C   UNL     1      12.744  19.113  -9.624  1.00  0.00     0.173 A 
ATOM     82  F   UNL     1       9.109  19.189  -9.757  1.00  0.00    -0.203 F 
ATOM     83  C   UNL     1      10.689  20.832 -10.348  1.00  0.00     0.198 A 
ATOM     84  C   UNL     1      13.036  20.390 -10.093  1.00  0.00     0.198 A 
ATOM     85  F   UNL     1      13.758  18.304  -9.282  1.00  0.00    -0.203 F 
ATOM     86  F   UNL     1       9.697  21.652 -10.723  1.00  0.00    -0.200 F 
ATOM     87  C   UNL     1      12.009  21.247 -10.459  1.00  0.00     0.200 A 
ATOM     88  F   UNL     1      14.310  20.794 -10.187  1.00  0.00    -0.200 F 
ATOM     89  F   UNL     1      12.290  22.473 -10.921  1.00  0.00    -0.200 F 
ENDBRANCH  56  79
ENDBRANCH  30  31
ENDBRANCH  22  25
ENDBRANCH  20  21
ENDBRANCH  19  20
ENDBRANCH  18  19
ENDBRANCH   1  18
TORSDOF 16
