REMARK SMILES C[C@H](C(=O)NCCCCNC(=O)c1ccc(-c2c3nc(c(-c4c(F)c(F)c(F)c(F)c4F)c4ccc([nH]4)c(-c4c(F)c(F)c(F)c(F)c4F)c4nc(c(-c5c(F)c(F)c(F)c(F)c5F)c5ccc2[nH]5)C=C4)C=C3)cc1)[C@@H](C)[NH2+]Cc1ccc(F)c(F)c1
REMARK SMILES IDX 6 1 5 2 3 3 4 4 2 6 1 7 76 8 77 9 78 10 79 13 80 14 81 15
REMARK SMILES IDX 87 16 82 17 85 18 83 19 86 20 84 21 7 22 8 23 9 24 10 25
REMARK SMILES IDX 11 26 12 28 13 29 14 30 75 31 15 32 74 33 16 34 17 35 18 36
REMARK SMILES IDX 68 37 19 38 73 39 67 40 69 41 20 42 72 43 66 44 65 45 21 47
REMARK SMILES IDX 53 48 33 49 52 50 34 51 37 52 51 53 70 54 35 55 36 56 50 58
REMARK SMILES IDX 71 59 38 60 22 61 23 62 31 63 24 64 25 65 29 66 32 67 26 68
REMARK SMILES IDX 27 69 30 70 28 71 54 72 55 73 63 74 56 75 57 76 61 77 64 78
REMARK SMILES IDX 58 79 59 80 62 81 60 82 39 83 40 84 48 85 41 86 42 87 46 88
REMARK SMILES IDX 49 89 43 90 44 91 47 92 45 93
REMARK H PARENT 5 5 78 11 78 12 10 27 69 46 37 57
REMARK Flexibility Score: inf
ROOT
ATOM      1  C   UNL     1      -0.042   1.894  -0.768  1.00  0.00     0.116 C 
ENDROOT
BRANCH   1   2
ATOM      2  N   UNL     1       0.557   1.039   0.244  1.00  0.00    -0.356 N 
ATOM      3  C   UNL     1       0.730  -0.319   0.258  1.00  0.00     0.228 C 
ATOM      4  O   UNL     1       1.197  -0.832   1.275  1.00  0.00    -0.275 OA
ATOM      5  H   UNL     1       0.889   1.509   1.042  1.00  0.00     0.163 HD
BRANCH   3   6
ATOM      6  C   UNL     1       0.349  -1.144  -0.971  1.00  0.00     0.133 C 
ATOM      7  C   UNL     1       1.363  -2.288  -1.139  1.00  0.00     0.024 C 
BRANCH   6   8
ATOM      8  C   UNL     1      -1.105  -1.713  -0.950  1.00  0.00     0.191 C 
ATOM      9  C   UNL     1      -2.106  -0.890  -0.141  1.00  0.00     0.076 C 
BRANCH   8  10
ATOM     10  N   UNL     1      -1.511  -2.007  -2.343  1.00  0.00    -0.340 N 
ATOM     11  H   UNL     1      -1.163  -2.940  -2.563  1.00  0.00     0.346 HD
ATOM     12  H   UNL     1      -1.119  -1.231  -2.876  1.00  0.00     0.346 HD
BRANCH  10  13
ATOM     13  C   UNL     1      -2.927  -1.987  -2.697  1.00  0.00     0.297 C 
BRANCH  13  14
ATOM     14  C   UNL     1      -3.537  -0.607  -2.884  1.00  0.00     0.009 A 
ATOM     15  C   UNL     1      -2.846   0.448  -3.510  1.00  0.00     0.013 A 
ATOM     16  C   UNL     1      -4.851  -0.373  -2.440  1.00  0.00     0.052 A 
ATOM     17  C   UNL     1      -3.429   1.714  -3.632  1.00  0.00     0.043 A 
ATOM     18  C   UNL     1      -5.427   0.888  -2.572  1.00  0.00     0.159 A 
ATOM     19  C   UNL     1      -4.717   1.928  -3.154  1.00  0.00     0.158 A 
ATOM     20  F   UNL     1      -6.673   1.090  -2.123  1.00  0.00    -0.204 F 
ATOM     21  F   UNL     1      -5.265   3.146  -3.261  1.00  0.00    -0.204 F 
ENDBRANCH  13  14
ENDBRANCH  10  13
ENDBRANCH   8  10
ENDBRANCH   6   8
ENDBRANCH   3   6
ENDBRANCH   1   2
BRANCH   1  22
ATOM     22  C   UNL     1      -1.355   2.508  -0.283  1.00  0.00     0.023 C 
BRANCH  22  23
ATOM     23  C   UNL     1      -1.206   3.691   0.659  1.00  0.00     0.023 C 
BRANCH  23  24
ATOM     24  C   UNL     1      -0.573   4.922   0.035  1.00  0.00     0.116 C 
BRANCH  24  25
ATOM     25  N   UNL     1      -1.308   5.435  -1.115  1.00  0.00    -0.352 N 
ATOM     26  C   UNL     1      -1.809   6.696  -1.345  1.00  0.00     0.251 C 
ATOM     27  H   UNL     1      -1.470   4.782  -1.834  1.00  0.00     0.163 HD
ATOM     28  O   UNL     1      -2.488   6.924  -2.337  1.00  0.00    -0.269 OA
BRANCH  26  29
ATOM     29  C   UNL     1      -1.550   7.764  -0.359  1.00  0.00     0.039 A 
ATOM     30  C   UNL     1      -2.613   8.556   0.081  1.00  0.00     0.014 A 
ATOM     31  C   UNL     1      -0.274   7.932   0.179  1.00  0.00     0.014 A 
ATOM     32  C   UNL     1      -2.412   9.449   1.135  1.00  0.00     0.010 A 
ATOM     33  C   UNL     1      -0.104   8.734   1.298  1.00  0.00     0.010 A 
ATOM     34  C   UNL     1      -1.169   9.504   1.787  1.00  0.00    -0.014 A 
BRANCH  34  35
ATOM     35  C   UNL     1      -0.946  10.365   2.975  1.00  0.00     0.031 A 
ATOM     36  C   UNL     1       0.108  11.436   2.930  1.00  0.00     0.074 A 
ATOM     37  C   UNL     1      -1.619  10.122   4.117  1.00  0.00     0.049 A 
ATOM     38  N   UNL     1       0.547  12.210   3.889  1.00  0.00    -0.248 NA
ATOM     39  C   UNL     1       0.796  11.632   1.642  1.00  0.00     0.031 C 
ATOM     40  C   UNL     1      -2.614   9.066   4.310  1.00  0.00     0.029 A 
ATOM     41  N   UNL     1      -1.556  10.742   5.340  1.00  0.00    -0.354 N 
ATOM     42  C   UNL     1       1.579  12.953   3.330  1.00  0.00     0.074 A 
ATOM     43  C   UNL     1       1.743  12.497   1.968  1.00  0.00     0.031 C 
ATOM     44  C   UNL     1      -3.090   9.131   5.564  1.00  0.00     0.029 A 
ATOM     45  C   UNL     1      -2.409  10.208   6.275  1.00  0.00     0.049 A 
ATOM     46  H   UNL     1      -0.955  11.499   5.530  1.00  0.00     0.167 HD
ATOM     47  C   UNL     1       2.303  13.948   3.893  1.00  0.00     0.037 A 
ATOM     48  C   UNL     1      -2.616  10.552   7.560  1.00  0.00     0.037 A 
ATOM     49  C   UNL     1       2.096  14.439   5.228  1.00  0.00     0.049 A 
ATOM     50  C   UNL     1      -1.834  11.696   8.145  1.00  0.00     0.074 A 
ATOM     51  C   UNL     1       2.719  15.495   5.867  1.00  0.00     0.029 A 
ATOM     52  N   UNL     1       1.180  13.909   6.125  1.00  0.00    -0.354 N 
ATOM     53  N   UNL     1      -0.908  12.436   7.586  1.00  0.00    -0.248 NA
ATOM     54  C   UNL     1      -2.131  12.056   9.538  1.00  0.00     0.031 C 
ATOM     55  C   UNL     1       2.201  15.588   7.163  1.00  0.00     0.029 A 
ATOM     56  C   UNL     1       1.228  14.613   7.317  1.00  0.00     0.049 A 
ATOM     57  H   UNL     1       0.585  13.147   5.942  1.00  0.00     0.167 HD
ATOM     58  C   UNL     1      -0.531  13.365   8.546  1.00  0.00     0.074 A 
ATOM     59  C   UNL     1      -1.339  13.104   9.719  1.00  0.00     0.031 C 
ATOM     60  C   UNL     1       0.404  14.343   8.466  1.00  0.00     0.037 A 
BRANCH  47  61
ATOM     61  C   UNL     1       3.372  14.585   3.054  1.00  0.00     0.064 A 
ATOM     62  C   UNL     1       3.055  15.398   1.954  1.00  0.00     0.173 A 
ATOM     63  C   UNL     1       4.727  14.399   3.363  1.00  0.00     0.173 A 
ATOM     64  F   UNL     1       1.774  15.594   1.606  1.00  0.00    -0.203 F 
ATOM     65  C   UNL     1       4.056  15.974   1.176  1.00  0.00     0.198 A 
ATOM     66  C   UNL     1       5.725  15.002   2.601  1.00  0.00     0.198 A 
ATOM     67  F   UNL     1       5.085  13.634   4.405  1.00  0.00    -0.203 F 
ATOM     68  F   UNL     1       3.729  16.701   0.099  1.00  0.00    -0.200 F 
ATOM     69  C   UNL     1       5.389  15.782   1.504  1.00  0.00     0.200 A 
ATOM     70  F   UNL     1       7.013  14.824   2.925  1.00  0.00    -0.200 F 
ATOM     71  F   UNL     1       6.351  16.340   0.757  1.00  0.00    -0.200 F 
ENDBRANCH  47  61
BRANCH  48  72
ATOM     72  C   UNL     1      -3.635   9.834   8.369  1.00  0.00     0.064 A 
ATOM     73  C   UNL     1      -4.833  10.465   8.734  1.00  0.00     0.173 A 
ATOM     74  C   UNL     1      -3.436   8.514   8.798  1.00  0.00     0.173 A 
ATOM     75  F   UNL     1      -5.060  11.734   8.363  1.00  0.00    -0.203 F 
ATOM     76  C   UNL     1      -5.783   9.812   9.516  1.00  0.00     0.198 A 
ATOM     77  C   UNL     1      -4.398   7.853   9.560  1.00  0.00     0.198 A 
ATOM     78  F   UNL     1      -2.310   7.864   8.471  1.00  0.00    -0.203 F 
ATOM     79  F   UNL     1      -6.898  10.455   9.889  1.00  0.00    -0.200 F 
ATOM     80  C   UNL     1      -5.567   8.505   9.925  1.00  0.00     0.200 A 
ATOM     81  F   UNL     1      -4.191   6.586   9.943  1.00  0.00    -0.200 F 
ATOM     82  F   UNL     1      -6.480   7.876  10.677  1.00  0.00    -0.200 F 
ENDBRANCH  48  72
BRANCH  60  83
ATOM     83  C   UNL     1       0.577  15.224   9.667  1.00  0.00     0.064 A 
ATOM     84  C   UNL     1       1.213  14.763  10.828  1.00  0.00     0.173 A 
ATOM     85  C   UNL     1       0.139  16.556   9.637  1.00  0.00     0.173 A 
ATOM     86  F   UNL     1       1.635  13.492  10.907  1.00  0.00    -0.203 F 
ATOM     87  C   UNL     1       1.386  15.600  11.926  1.00  0.00     0.198 A 
ATOM     88  C   UNL     1       0.337  17.398  10.728  1.00  0.00     0.198 A 
ATOM     89  F   UNL     1      -0.469  17.044   8.546  1.00  0.00    -0.203 F 
ATOM     90  F   UNL     1       1.959  15.128  13.042  1.00  0.00    -0.200 F 
ATOM     91  C   UNL     1       0.954  16.917  11.873  1.00  0.00     0.200 A 
ATOM     92  F   UNL     1      -0.069  18.673  10.670  1.00  0.00    -0.200 F 
ATOM     93  F   UNL     1       1.128  17.723  12.929  1.00  0.00    -0.200 F 
ENDBRANCH  60  83
ENDBRANCH  34  35
ENDBRANCH  26  29
ENDBRANCH  24  25
ENDBRANCH  23  24
ENDBRANCH  22  23
ENDBRANCH   1  22
TORSDOF 15
