REMARK SMILES Cc1c(NC(=O)c2ccccc2NC(=O)[C@@H]2CCCO2)cccc1C(=O)NCCCCNC(=O)c1ccc(-c2c3nc(c(-c4c(F)c(F)c(F)c(F)c4F)c4ccc([nH]4)c(-c4c(F)c(F)c(F)c(F)c4F)c4nc(c(-c5c(F)c(F)c(F)c(F)c5F)c5ccc2[nH]5)C=C4)C=C3)cc1
REMARK SMILES IDX 28 1 27 2 25 3 26 4 24 6 1 7 2 8 3 9 21 10 23 11 22 12 4 13
REMARK SMILES IDX 5 14 6 16 7 17 8 18 12 19 9 20 11 21 10 22 13 23 14 24 15 26
REMARK SMILES IDX 16 27 17 28 20 29 18 30 19 31 29 32 30 33 31 34 32 35 33 36
REMARK SMILES IDX 34 38 35 39 36 40 97 41 37 42 96 43 38 44 39 45 40 46 90 47
REMARK SMILES IDX 41 48 95 49 89 50 91 51 42 52 94 53 88 54 87 55 43 57 75 58
REMARK SMILES IDX 55 59 74 60 56 61 59 62 73 63 92 64 57 65 58 66 72 68 93 69
REMARK SMILES IDX 60 70 44 71 45 72 53 73 46 74 47 75 51 76 54 77 48 78 49 79
REMARK SMILES IDX 52 80 50 81 76 82 77 83 85 84 78 85 79 86 83 87 86 88 80 89
REMARK SMILES IDX 81 90 84 91 82 92 61 93 62 94 70 95 63 96 64 97 68 98 71 99
REMARK SMILES IDX 65 100 66 101 69 102 67 103
REMARK H PARENT 27 5 4 15 13 25 32 37 91 56 59 67
REMARK Flexibility Score: inf
ROOT
ATOM      1  C   UNL     1       3.443   1.880   0.102  1.00  0.00     0.116 C 
ENDROOT
BRANCH   1   2
ATOM      2  N   UNL     1       2.189   2.550  -0.177  1.00  0.00    -0.352 N 
ATOM      3  C   UNL     1       0.859   2.219  -0.163  1.00  0.00     0.251 C 
ATOM      4  O   UNL     1       0.112   3.160  -0.462  1.00  0.00    -0.269 OA
ATOM      5  H   UNL     1       2.329   3.486  -0.448  1.00  0.00     0.163 HD
BRANCH   3   6
ATOM      6  C   UNL     1       0.217   0.910   0.233  1.00  0.00     0.044 A 
ATOM      7  C   UNL     1       1.987  -0.754  -0.578  1.00  0.00     0.047 C 
ATOM      8  C   UNL     1       0.709  -0.411   0.130  1.00  0.00    -0.015 A 
ATOM      9  C   UNL     1      -0.121  -1.509   0.501  1.00  0.00     0.045 A 
ATOM     10  C   UNL     1      -1.447  -1.322   0.876  1.00  0.00     0.026 A 
ATOM     11  C   UNL     1      -1.134   1.056   0.633  1.00  0.00     0.014 A 
ATOM     12  C   UNL     1      -1.958  -0.034   0.930  1.00  0.00     0.003 A 
BRANCH   9  13
ATOM     13  N   UNL     1       0.443  -2.793   0.425  1.00  0.00    -0.322 N 
ATOM     14  C   UNL     1      -0.012  -3.981  -0.089  1.00  0.00     0.257 C 
ATOM     15  H   UNL     1       1.343  -2.853   0.819  1.00  0.00     0.170 HD
ATOM     16  O   UNL     1       0.687  -4.983   0.076  1.00  0.00    -0.269 OA
BRANCH  14  17
ATOM     17  C   UNL     1      -1.256  -4.111  -0.895  1.00  0.00     0.063 A 
ATOM     18  C   UNL     1      -1.971  -5.296  -0.634  1.00  0.00     0.016 A 
ATOM     19  C   UNL     1      -1.691  -3.226  -1.915  1.00  0.00     0.054 A 
ATOM     20  C   UNL     1      -3.153  -5.578  -1.304  1.00  0.00     0.001 A 
ATOM     21  C   UNL     1      -2.933  -3.488  -2.500  1.00  0.00     0.027 A 
ATOM     22  C   UNL     1      -3.650  -4.655  -2.209  1.00  0.00     0.002 A 
BRANCH  19  23
ATOM     23  N   UNL     1      -0.843  -2.176  -2.334  1.00  0.00    -0.323 N 
ATOM     24  C   UNL     1      -0.863  -1.165  -3.252  1.00  0.00     0.253 C 
ATOM     25  H   UNL     1      -0.003  -2.173  -1.821  1.00  0.00     0.170 HD
ATOM     26  O   UNL     1       0.128  -0.422  -3.260  1.00  0.00    -0.272 OA
BRANCH  24  27
ATOM     27  C   UNL     1      -1.997  -0.973  -4.260  1.00  0.00     0.207 C 
ATOM     28  C   UNL     1      -1.873  -1.997  -5.380  1.00  0.00     0.044 C 
ATOM     29  O   UNL     1      -1.989   0.310  -4.915  1.00  0.00    -0.368 OA
ATOM     30  C   UNL     1      -2.591  -1.317  -6.513  1.00  0.00     0.032 C 
ATOM     31  C   UNL     1      -2.163   0.118  -6.324  1.00  0.00     0.161 C 
ENDBRANCH  24  27
ENDBRANCH  19  23
ENDBRANCH  14  17
ENDBRANCH   9  13
ENDBRANCH   3   6
ENDBRANCH   1   2
BRANCH   1  32
ATOM     32  C   UNL     1       4.127   1.411  -1.198  1.00  0.00     0.023 C 
BRANCH  32  33
ATOM     33  C   UNL     1       4.936   2.473  -1.935  1.00  0.00     0.023 C 
BRANCH  33  34
ATOM     34  C   UNL     1       6.304   2.696  -1.324  1.00  0.00     0.116 C 
BRANCH  34  35
ATOM     35  N   UNL     1       7.350   1.794  -1.798  1.00  0.00    -0.352 N 
ATOM     36  C   UNL     1       8.646   1.637  -1.332  1.00  0.00     0.251 C 
ATOM     37  H   UNL     1       7.100   1.217  -2.555  1.00  0.00     0.163 HD
ATOM     38  O   UNL     1       9.425   0.887  -1.915  1.00  0.00    -0.269 OA
BRANCH  36  39
ATOM     39  C   UNL     1       9.038   2.242  -0.033  1.00  0.00     0.039 A 
ATOM     40  C   UNL     1       9.688   1.421   0.896  1.00  0.00     0.014 A 
ATOM     41  C   UNL     1       8.497   3.455   0.372  1.00  0.00     0.014 A 
ATOM     42  C   UNL     1       9.507   1.660   2.254  1.00  0.00     0.010 A 
ATOM     43  C   UNL     1       8.182   3.608   1.705  1.00  0.00     0.010 A 
ATOM     44  C   UNL     1       8.620   2.662   2.637  1.00  0.00    -0.014 A 
BRANCH  44  45
ATOM     45  C   UNL     1       7.970   2.703   3.943  1.00  0.00     0.031 A 
ATOM     46  C   UNL     1       8.222   3.826   4.869  1.00  0.00     0.074 A 
ATOM     47  C   UNL     1       7.021   1.782   4.229  1.00  0.00     0.049 A 
ATOM     48  N   UNL     1       7.960   3.807   6.132  1.00  0.00    -0.248 NA
ATOM     49  C   UNL     1       8.858   5.064   4.441  1.00  0.00     0.031 C 
ATOM     50  C   UNL     1       6.028   1.833   5.300  1.00  0.00     0.029 A 
ATOM     51  N   UNL     1       6.883   0.489   3.692  1.00  0.00    -0.354 N 
ATOM     52  C   UNL     1       8.106   5.089   6.616  1.00  0.00     0.074 A 
ATOM     53  C   UNL     1       8.757   5.804   5.547  1.00  0.00     0.031 C 
ATOM     54  C   UNL     1       5.596   0.588   5.552  1.00  0.00     0.029 A 
ATOM     55  C   UNL     1       6.409  -0.314   4.756  1.00  0.00     0.049 A 
ATOM     56  H   UNL     1       7.077   0.204   2.770  1.00  0.00     0.167 HD
ATOM     57  C   UNL     1       7.525   5.407   7.811  1.00  0.00     0.037 A 
ATOM     58  C   UNL     1       7.162  -1.333   5.264  1.00  0.00     0.037 A 
ATOM     59  C   UNL     1       7.015   4.200   8.471  1.00  0.00     0.049 A 
ATOM     60  C   UNL     1       7.506  -1.174   6.727  1.00  0.00     0.074 A 
ATOM     61  C   UNL     1       5.746   3.658   8.600  1.00  0.00     0.029 A 
ATOM     62  N   UNL     1       7.907   3.201   8.856  1.00  0.00    -0.354 N 
ATOM     63  N   UNL     1       7.422  -0.045   7.373  1.00  0.00    -0.248 NA
ATOM     64  C   UNL     1       8.012  -2.259   7.564  1.00  0.00     0.031 C 
ATOM     65  C   UNL     1       5.884   2.304   8.999  1.00  0.00     0.029 A 
ATOM     66  C   UNL     1       7.233   2.028   9.137  1.00  0.00     0.049 A 
ATOM     67  H   UNL     1       8.883   3.316   8.918  1.00  0.00     0.167 HD
ATOM     68  C   UNL     1       7.875  -0.216   8.655  1.00  0.00     0.074 A 
ATOM     69  C   UNL     1       8.210  -1.625   8.733  1.00  0.00     0.031 C 
ATOM     70  C   UNL     1       7.954   0.827   9.534  1.00  0.00     0.037 A 
BRANCH  57  71
ATOM     71  C   UNL     1       7.144   6.816   8.251  1.00  0.00     0.064 A 
ATOM     72  C   UNL     1       6.139   7.014   9.228  1.00  0.00     0.173 A 
ATOM     73  C   UNL     1       7.639   8.013   7.698  1.00  0.00     0.173 A 
ATOM     74  F   UNL     1       5.646   5.994   9.942  1.00  0.00    -0.203 F 
ATOM     75  C   UNL     1       5.598   8.272   9.519  1.00  0.00     0.198 A 
ATOM     76  C   UNL     1       7.076   9.268   7.960  1.00  0.00     0.198 A 
ATOM     77  F   UNL     1       8.729   8.042   6.931  1.00  0.00    -0.203 F 
ATOM     78  F   UNL     1       4.629   8.383  10.439  1.00  0.00    -0.200 F 
ATOM     79  C   UNL     1       6.042   9.396   8.858  1.00  0.00     0.200 A 
ATOM     80  F   UNL     1       7.554  10.351   7.330  1.00  0.00    -0.200 F 
ATOM     81  F   UNL     1       5.502  10.596   9.106  1.00  0.00    -0.200 F 
ENDBRANCH  57  71
BRANCH  58  82
ATOM     82  C   UNL     1       8.029  -1.982   4.246  1.00  0.00     0.064 A 
ATOM     83  C   UNL     1       7.410  -2.655   3.175  1.00  0.00     0.173 A 
ATOM     84  C   UNL     1       9.377  -1.635   4.100  1.00  0.00     0.173 A 
ATOM     85  F   UNL     1       6.117  -3.005   3.263  1.00  0.00    -0.203 F 
ATOM     86  C   UNL     1       8.074  -2.862   1.968  1.00  0.00     0.198 A 
ATOM     87  C   UNL     1      10.043  -1.856   2.891  1.00  0.00     0.198 A 
ATOM     88  F   UNL     1      10.015  -0.969   5.072  1.00  0.00    -0.203 F 
ATOM     89  F   UNL     1       7.419  -3.401   0.929  1.00  0.00    -0.200 F 
ATOM     90  C   UNL     1       9.382  -2.436   1.818  1.00  0.00     0.200 A 
ATOM     91  F   UNL     1      11.297  -1.409   2.732  1.00  0.00    -0.200 F 
ATOM     92  F   UNL     1       9.992  -2.542   0.629  1.00  0.00    -0.200 F 
ENDBRANCH  58  82
BRANCH  70  93
ATOM     93  C   UNL     1       8.642   0.800  10.876  1.00  0.00     0.064 A 
ATOM     94  C   UNL     1       9.758   0.001  11.169  1.00  0.00     0.173 A 
ATOM     95  C   UNL     1       8.272   1.724  11.884  1.00  0.00     0.173 A 
ATOM     96  F   UNL     1      10.277  -0.833  10.257  1.00  0.00    -0.203 F 
ATOM     97  C   UNL     1      10.420   0.078  12.398  1.00  0.00     0.198 A 
ATOM     98  C   UNL     1       8.970   1.839  13.085  1.00  0.00     0.198 A 
ATOM     99  F   UNL     1       7.237   2.561  11.719  1.00  0.00    -0.203 F 
ATOM    100  F   UNL     1      11.458  -0.735  12.645  1.00  0.00    -0.200 F 
ATOM    101  C   UNL     1      10.035   1.005  13.349  1.00  0.00     0.200 A 
ATOM    102  F   UNL     1       8.616   2.778  13.974  1.00  0.00    -0.200 F 
ATOM    103  F   UNL     1      10.703   1.108  14.505  1.00  0.00    -0.200 F 
ENDBRANCH  70  93
ENDBRANCH  44  45
ENDBRANCH  36  39
ENDBRANCH  34  35
ENDBRANCH  33  34
ENDBRANCH  32  33
ENDBRANCH   1  32
TORSDOF 15
