REMARK SMILES Cc1cc(/C=C2\C(=O)N(Cc3ccco3)C(=O)[NH+]=C2NCCCCNC(=O)c2ccc(-c3c4nc(c(-c5c(F)c(F)c(F)c(F)c5F)c5ccc([nH]5)c(-c5c(F)c(F)c(F)c(F)c5F)c5nc(c(-c6c(F)c(F)c(F)c(F)c6F)c6ccc3[nH]6)C=C5)C=C4)cc2)c(C)n1-c1ccc(Cl)c(C(=O)[O-])c1
REMARK SMILES IDX 22 1 21 2 20 3 5 4 6 5 7 6 19 7 8 8 9 9 18 10 16 11 17 14
REMARK SMILES IDX 4 15 1 16 2 17 3 18 93 19 91 20 92 21 94 22 95 23 103 24
REMARK SMILES IDX 96 25 99 26 97 27 98 28 100 29 101 30 102 31 10 32 11 33
REMARK SMILES IDX 12 34 15 35 13 36 14 37 23 38 24 39 25 40 26 41 27 43 28 44
REMARK SMILES IDX 29 45 90 46 30 47 89 48 31 49 32 50 33 51 83 52 34 53 88 54
REMARK SMILES IDX 82 55 84 56 35 57 87 58 81 59 80 60 36 62 68 63 48 64 67 65
REMARK SMILES IDX 49 66 52 67 66 68 85 69 50 70 51 71 65 73 86 74 53 75 37 76
REMARK SMILES IDX 38 77 46 78 39 79 40 80 44 81 47 82 41 83 42 84 45 85 43 86
REMARK SMILES IDX 69 87 70 88 78 89 71 90 72 91 76 92 79 93 73 94 74 95 77 96
REMARK SMILES IDX 75 97 54 98 55 99 63 100 56 101 57 102 61 103 64 104 58 105
REMARK SMILES IDX 59 106 62 107 60 108
REMARK H PARENT 18 12 20 13 25 42 84 61 52 72
REMARK Flexibility Score: inf
ROOT
ATOM      1  C   UNL     1      -2.826  -0.268  -6.737  1.00  0.00     0.039 C 
ENDROOT
BRANCH   1   2
ATOM      2  C   UNL     1      -1.530   0.539  -6.794  1.00  0.00     0.194 C 
BRANCH   2   3
ATOM      3  N   UNL     1      -1.846   1.941  -6.923  1.00  0.00    -0.305 N 
ATOM      4  C   UNL     1      -0.766   2.181  -4.025  1.00  0.00     0.032 C 
ATOM      5  C   UNL     1      -0.516   3.034  -5.036  1.00  0.00     0.129 C 
ATOM      6  C   UNL     1       0.447   4.163  -5.000  1.00  0.00     0.323 C 
ATOM      7  C   UNL     1      -1.351   3.033  -6.263  1.00  0.00     0.236 C 
ATOM      8  O   UNL     1       1.597   4.035  -4.692  1.00  0.00    -0.250 OA
ATOM      9  N   UNL     1      -0.192   5.342  -5.366  1.00  0.00    -0.182 N 
ATOM     10  N   UNL     1      -1.653   4.172  -6.826  1.00  0.00    -0.210 N 
ATOM     11  C   UNL     1      -1.248   5.354  -6.258  1.00  0.00     0.444 C 
ATOM     12  H   UNL     1      -2.172   4.182  -7.662  1.00  0.00     0.270 HD
ATOM     13  H   UNL     1      -2.533   2.147  -7.597  1.00  0.00     0.256 HD
ATOM     14  O   UNL     1      -1.819   6.406  -6.555  1.00  0.00    -0.212 OA
BRANCH   4  15
ATOM     15  C   UNL     1      -0.159   2.018  -2.735  1.00  0.00    -0.003 A 
ATOM     16  C   UNL     1       1.053  -0.085   0.095  1.00  0.00     0.065 C 
ATOM     17  C   UNL     1       0.662   0.943  -0.909  1.00  0.00     0.020 A 
ATOM     18  C   UNL     1       0.029   0.754  -2.122  1.00  0.00     0.031 A 
ATOM     19  N   UNL     1       0.829   2.307  -0.730  1.00  0.00    -0.318 N 
ATOM     20  C   UNL     1       0.295   2.973  -1.838  1.00  0.00     0.027 A 
ATOM     21  C   UNL     1       0.380   4.452  -1.988  1.00  0.00     0.065 C 
BRANCH  19  22
ATOM     22  C   UNL     1       1.524   2.945   0.334  1.00  0.00     0.046 A 
ATOM     23  C   UNL     1       0.924   4.008   1.010  1.00  0.00     0.028 A 
ATOM     24  C   UNL     1       2.870   2.639   0.554  1.00  0.00     0.038 A 
ATOM     25  C   UNL     1       1.701   4.846   1.805  1.00  0.00     0.023 A 
ATOM     26  C   UNL     1       3.659   3.467   1.380  1.00  0.00     0.018 A 
ATOM     27  C   UNL     1       3.070   4.597   1.973  1.00  0.00     0.050 A 
ATOM     28  Cl  UNL     1       3.934   5.771   2.901  1.00  0.00    -0.084 Cl
BRANCH  26  29
ATOM     29  C   UNL     1       5.104   3.153   1.555  1.00  0.00     0.073 C 
ATOM     30  O   UNL     1       5.959   3.813   2.114  1.00  0.00    -0.545 OA
ATOM     31  O   UNL     1       5.434   1.964   1.014  1.00  0.00    -0.545 OA
ENDBRANCH  26  29
ENDBRANCH  19  22
ENDBRANCH   4  15
BRANCH   9  32
ATOM     32  C   UNL     1       0.238   6.593  -4.772  1.00  0.00     0.285 C 
BRANCH  32  33
ATOM     33  C   UNL     1       1.349   7.223  -5.516  1.00  0.00     0.138 A 
ATOM     34  C   UNL     1       1.430   7.910  -6.708  1.00  0.00     0.049 A 
ATOM     35  O   UNL     1       2.562   7.214  -4.896  1.00  0.00    -0.466 OA
ATOM     36  C   UNL     1       2.776   8.332  -6.827  1.00  0.00     0.042 A 
ATOM     37  C   UNL     1       3.424   7.881  -5.701  1.00  0.00     0.195 A 
ENDBRANCH  32  33
ENDBRANCH   9  32
ENDBRANCH   2   3
ENDBRANCH   1   2
BRANCH   1  38
ATOM     38  C   UNL     1      -3.749  -0.133  -7.961  1.00  0.00     0.024 C 
BRANCH  38  39
ATOM     39  C   UNL     1      -3.098  -0.081  -9.351  1.00  0.00     0.116 C 
BRANCH  39  40
ATOM     40  N   UNL     1      -2.528  -1.326  -9.804  1.00  0.00    -0.352 N 
ATOM     41  C   UNL     1      -1.970  -1.575 -11.045  1.00  0.00     0.251 C 
ATOM     42  H   UNL     1      -2.537  -2.075  -9.165  1.00  0.00     0.163 HD
ATOM     43  O   UNL     1      -1.698  -2.734 -11.351  1.00  0.00    -0.269 OA
BRANCH  41  44
ATOM     44  C   UNL     1      -1.815  -0.484 -12.069  1.00  0.00     0.039 A 
ATOM     45  C   UNL     1      -2.778  -0.412 -13.052  1.00  0.00     0.014 A 
ATOM     46  C   UNL     1      -0.694   0.356 -12.218  1.00  0.00     0.014 A 
ATOM     47  C   UNL     1      -2.630   0.507 -14.120  1.00  0.00     0.010 A 
ATOM     48  C   UNL     1      -0.504   1.220 -13.382  1.00  0.00     0.010 A 
ATOM     49  C   UNL     1      -1.459   1.307 -14.407  1.00  0.00    -0.014 A 
BRANCH  49  50
ATOM     50  C   UNL     1      -1.296   1.808 -15.942  1.00  0.00     0.031 A 
ATOM     51  C   UNL     1      -1.910   0.690 -16.716  1.00  0.00     0.074 A 
ATOM     52  C   UNL     1      -0.703   2.749 -16.785  1.00  0.00     0.049 A 
ATOM     53  N   UNL     1      -1.430  -0.513 -16.567  1.00  0.00    -0.248 NA
ATOM     54  C   UNL     1      -3.257   0.751 -17.289  1.00  0.00     0.031 C 
ATOM     55  C   UNL     1       0.224   3.839 -16.441  1.00  0.00     0.029 A 
ATOM     56  N   UNL     1      -0.789   2.953 -18.205  1.00  0.00    -0.354 N 
ATOM     57  C   UNL     1      -2.275  -1.351 -17.243  1.00  0.00     0.074 A 
ATOM     58  C   UNL     1      -3.473  -0.557 -17.477  1.00  0.00     0.031 C 
ATOM     59  C   UNL     1       0.493   4.637 -17.519  1.00  0.00     0.029 A 
ATOM     60  C   UNL     1      -0.169   4.145 -18.727  1.00  0.00     0.049 A 
ATOM     61  H   UNL     1      -1.250   2.311 -18.792  1.00  0.00     0.167 HD
ATOM     62  C   UNL     1      -1.667  -2.262 -18.053  1.00  0.00     0.037 A 
ATOM     63  C   UNL     1      -0.115   4.663 -20.022  1.00  0.00     0.037 A 
ATOM     64  C   UNL     1      -1.749  -1.869 -19.431  1.00  0.00     0.049 A 
ATOM     65  C   UNL     1      -0.288   3.526 -20.932  1.00  0.00     0.074 A 
ATOM     66  C   UNL     1      -2.768  -1.333 -20.196  1.00  0.00     0.029 A 
ATOM     67  N   UNL     1      -0.572  -1.510 -20.047  1.00  0.00    -0.354 N 
ATOM     68  N   UNL     1       0.699   2.727 -21.201  1.00  0.00    -0.248 NA
ATOM     69  C   UNL     1      -1.508   3.300 -21.700  1.00  0.00     0.031 C 
ATOM     70  C   UNL     1      -2.167  -0.230 -20.845  1.00  0.00     0.029 A 
ATOM     71  C   UNL     1      -0.786  -0.365 -20.782  1.00  0.00     0.049 A 
ATOM     72  H   UNL     1       0.283  -1.993 -19.974  1.00  0.00     0.167 HD
ATOM     73  C   UNL     1       0.076   1.643 -21.721  1.00  0.00     0.074 A 
ATOM     74  C   UNL     1      -1.170   2.141 -22.270  1.00  0.00     0.031 C 
ATOM     75  C   UNL     1       0.345   0.464 -21.114  1.00  0.00     0.037 A 
BRANCH  62  76
ATOM     76  C   UNL     1      -0.468  -2.906 -17.405  1.00  0.00     0.064 A 
ATOM     77  C   UNL     1      -0.574  -4.219 -16.939  1.00  0.00     0.173 A 
ATOM     78  C   UNL     1       0.702  -2.192 -17.062  1.00  0.00     0.173 A 
ATOM     79  F   UNL     1      -1.630  -4.971 -17.285  1.00  0.00    -0.203 F 
ATOM     80  C   UNL     1       0.403  -4.766 -16.105  1.00  0.00     0.198 A 
ATOM     81  C   UNL     1       1.633  -2.710 -16.170  1.00  0.00     0.198 A 
ATOM     82  F   UNL     1       0.940  -0.976 -17.584  1.00  0.00    -0.203 F 
ATOM     83  F   UNL     1       0.295  -6.037 -15.695  1.00  0.00    -0.200 F 
ATOM     84  C   UNL     1       1.481  -3.997 -15.686  1.00  0.00     0.200 A 
ATOM     85  F   UNL     1       2.674  -1.960 -15.778  1.00  0.00    -0.200 F 
ATOM     86  F   UNL     1       2.384  -4.505 -14.837  1.00  0.00    -0.200 F 
ENDBRANCH  62  76
BRANCH  63  87
ATOM     87  C   UNL     1       0.252   5.915 -20.866  1.00  0.00     0.064 A 
ATOM     88  C   UNL     1       0.685   5.795 -22.237  1.00  0.00     0.173 A 
ATOM     89  C   UNL     1      -0.178   7.206 -20.535  1.00  0.00     0.173 A 
ATOM     90  F   UNL     1       1.180   4.648 -22.723  1.00  0.00    -0.203 F 
ATOM     91  C   UNL     1       0.567   6.813 -23.196  1.00  0.00     0.198 A 
ATOM     92  C   UNL     1      -0.258   8.247 -21.497  1.00  0.00     0.198 A 
ATOM     93  F   UNL     1      -0.614   7.466 -19.296  1.00  0.00    -0.203 F 
ATOM     94  F   UNL     1       0.866   6.567 -24.482  1.00  0.00    -0.200 F 
ATOM     95  C   UNL     1       0.074   8.040 -22.829  1.00  0.00     0.200 A 
ATOM     96  F   UNL     1      -0.730   9.451 -21.141  1.00  0.00    -0.200 F 
ATOM     97  F   UNL     1      -0.107   8.998 -23.751  1.00  0.00    -0.200 F 
ENDBRANCH  63  87
BRANCH  75  98
ATOM     98  C   UNL     1       1.787   0.223 -20.684  1.00  0.00     0.064 A 
ATOM     99  C   UNL     1       2.624   1.102 -19.951  1.00  0.00     0.173 A 
ATOM    100  C   UNL     1       2.389  -0.966 -21.120  1.00  0.00     0.173 A 
ATOM    101  F   UNL     1       2.157   2.210 -19.358  1.00  0.00    -0.203 F 
ATOM    102  C   UNL     1       3.987   0.847 -19.773  1.00  0.00     0.198 A 
ATOM    103  C   UNL     1       3.733  -1.249 -20.881  1.00  0.00     0.198 A 
ATOM    104  F   UNL     1       1.660  -1.885 -21.771  1.00  0.00    -0.203 F 
ATOM    105  F   UNL     1       4.763   1.744 -19.145  1.00  0.00    -0.200 F 
ATOM    106  C   UNL     1       4.540  -0.330 -20.237  1.00  0.00     0.200 A 
ATOM    107  F   UNL     1       4.242  -2.422 -21.280  1.00  0.00    -0.200 F 
ATOM    108  F   UNL     1       5.841  -0.589 -20.047  1.00  0.00    -0.200 F 
ENDBRANCH  75  98
ENDBRANCH  49  50
ENDBRANCH  41  44
ENDBRANCH  39  40
ENDBRANCH  38  39
ENDBRANCH   1  38
TORSDOF 15
