REMARK SMILES CC[C@@](C)(Nc1cc([N+](=O)[O-])ccc1C)C(=O)NCCCCNC(=O)c1ccc(-c2c3nc(c(-c4c(F)c(F)c(F)c(F)c4F)c4ccc([nH]4)c(-c4c(F)c(F)c(F)c(F)c4F)c4nc(c(-c5c(F)c(F)c(F)c(F)c5F)c5ccc2[nH]5)C=C4)C=C3)cc1
REMARK SMILES IDX 20 1 19 2 18 3 16 4 17 5 3 7 4 8 2 9 1 10 5 11 6 13 7 14
REMARK SMILES IDX 14 15 8 16 13 17 15 18 12 19 9 20 10 21 11 22 21 23 22 24
REMARK SMILES IDX 23 25 24 26 25 28 26 29 27 30 88 31 28 32 87 33 29 34 30 35
REMARK SMILES IDX 31 36 81 37 32 38 86 39 80 40 82 41 33 42 85 43 79 44 78 45
REMARK SMILES IDX 34 47 66 48 46 49 65 50 47 51 50 52 64 53 83 54 48 55 49 56
REMARK SMILES IDX 63 58 84 59 51 60 35 61 36 62 44 63 37 64 38 65 42 66 45 67
REMARK SMILES IDX 39 68 40 69 43 70 41 71 67 72 68 73 76 74 69 75 70 76 74 77
REMARK SMILES IDX 77 78 71 79 72 80 75 81 73 82 52 83 53 84 61 85 54 86 55 87
REMARK SMILES IDX 59 88 62 89 56 90 57 91 60 92 58 93
REMARK H PARENT 18 6 5 12 23 27 82 46 50 57
REMARK Flexibility Score: inf
ROOT
ATOM      1  C   UNL     1       2.582   3.221   5.431  1.00  0.00     0.023 C 
ENDROOT
BRANCH   1   2
ATOM      2  C   UNL     1       2.401   3.001   3.903  1.00  0.00     0.116 C 
BRANCH   2   3
ATOM      3  N   UNL     1       2.917   1.753   3.334  1.00  0.00    -0.354 N 
ATOM      4  C   UNL     1       2.441   0.572   2.837  1.00  0.00     0.245 C 
ATOM      5  O   UNL     1       3.347  -0.166   2.412  1.00  0.00    -0.272 OA
ATOM      6  H   UNL     1       3.901   1.771   3.298  1.00  0.00     0.163 HD
BRANCH   4   7
ATOM      7  C   UNL     1       0.945   0.089   2.776  1.00  0.00     0.113 C 
ATOM      8  C   UNL     1      -0.060   1.248   2.724  1.00  0.00     0.045 C 
BRANCH   7   9
ATOM      9  C   UNL     1       0.788  -0.742   1.447  1.00  0.00     0.035 C 
ATOM     10  C   UNL     1       1.067   0.018   0.147  1.00  0.00     0.007 C 
ENDBRANCH   7   9
BRANCH   7  11
ATOM     11  N   UNL     1       0.471  -0.832   3.889  1.00  0.00    -0.371 N 
ATOM     12  H   UNL     1      -0.495  -0.793   4.072  1.00  0.00     0.161 HD
BRANCH  11  13
ATOM     13  C   UNL     1       1.177  -1.720   4.688  1.00  0.00     0.045 A 
ATOM     14  C   UNL     1       0.597  -2.923   5.109  1.00  0.00     0.111 A 
ATOM     15  C   UNL     1       2.408  -1.444   5.285  1.00  0.00    -0.027 A 
ATOM     16  C   UNL     1       1.301  -3.806   5.963  1.00  0.00     0.271 A 
ATOM     17  C   UNL     1       3.213  -2.413   5.909  1.00  0.00     0.012 A 
ATOM     18  C   UNL     1       2.736  -0.058   5.699  1.00  0.00     0.046 C 
ATOM     19  C   UNL     1       2.645  -3.609   6.275  1.00  0.00     0.086 A 
BRANCH  16  20
ATOM     20  N   UNL     1       0.582  -4.864   6.674  1.00  0.00     0.062 N 
ATOM     21  O   UNL     1      -0.544  -5.175   6.264  1.00  0.00    -0.258 OA
ATOM     22  O   UNL     1       1.127  -5.354   7.676  1.00  0.00    -0.258 OA
ENDBRANCH  16  20
ENDBRANCH  11  13
ENDBRANCH   7  11
ENDBRANCH   4   7
ENDBRANCH   2   3
ENDBRANCH   1   2
BRANCH   1  23
ATOM     23  C   UNL     1       3.858   2.662   6.080  1.00  0.00     0.023 C 
BRANCH  23  24
ATOM     24  C   UNL     1       4.844   3.660   6.648  1.00  0.00     0.116 C 
BRANCH  24  25
ATOM     25  N   UNL     1       4.982   3.659   8.105  1.00  0.00    -0.352 N 
ATOM     26  C   UNL     1       5.850   4.454   8.845  1.00  0.00     0.251 C 
ATOM     27  H   UNL     1       4.408   3.038   8.608  1.00  0.00     0.163 HD
ATOM     28  O   UNL     1       5.919   4.394  10.066  1.00  0.00    -0.269 OA
BRANCH  26  29
ATOM     29  C   UNL     1       6.626   5.460   8.085  1.00  0.00     0.039 A 
ATOM     30  C   UNL     1       6.129   6.764   8.107  1.00  0.00     0.014 A 
ATOM     31  C   UNL     1       7.409   4.999   7.028  1.00  0.00     0.014 A 
ATOM     32  C   UNL     1       6.175   7.513   6.938  1.00  0.00     0.010 A 
ATOM     33  C   UNL     1       7.351   5.701   5.835  1.00  0.00     0.010 A 
ATOM     34  C   UNL     1       6.665   6.922   5.769  1.00  0.00    -0.014 A 
BRANCH  34  35
ATOM     35  C   UNL     1       6.369   7.471   4.445  1.00  0.00     0.031 A 
ATOM     36  C   UNL     1       7.457   8.054   3.631  1.00  0.00     0.074 A 
ATOM     37  C   UNL     1       5.106   7.537   3.956  1.00  0.00     0.049 A 
ATOM     38  N   UNL     1       7.309   9.113   2.902  1.00  0.00    -0.248 NA
ATOM     39  C   UNL     1       8.811   7.511   3.600  1.00  0.00     0.031 C 
ATOM     40  C   UNL     1       4.719   7.959   2.609  1.00  0.00     0.029 A 
ATOM     41  N   UNL     1       3.886   7.437   4.650  1.00  0.00    -0.354 N 
ATOM     42  C   UNL     1       8.441   9.244   2.139  1.00  0.00     0.074 A 
ATOM     43  C   UNL     1       9.372   8.264   2.650  1.00  0.00     0.031 C 
ATOM     44  C   UNL     1       3.451   8.392   2.638  1.00  0.00     0.029 A 
ATOM     45  C   UNL     1       2.997   8.336   4.014  1.00  0.00     0.049 A 
ATOM     46  H   UNL     1       3.691   6.859   5.423  1.00  0.00     0.167 HD
ATOM     47  C   UNL     1       8.459  10.071   1.060  1.00  0.00     0.037 A 
ATOM     48  C   UNL     1       2.360   9.339   4.679  1.00  0.00     0.037 A 
ATOM     49  C   UNL     1       7.179  10.720   0.831  1.00  0.00     0.049 A 
ATOM     50  C   UNL     1       2.640  10.722   4.146  1.00  0.00     0.074 A 
ATOM     51  C   UNL     1       6.121  10.426  -0.013  1.00  0.00     0.029 A 
ATOM     52  N   UNL     1       6.704  11.654   1.744  1.00  0.00    -0.354 N 
ATOM     53  N   UNL     1       3.588  10.985   3.291  1.00  0.00    -0.248 NA
ATOM     54  C   UNL     1       1.930  11.925   4.574  1.00  0.00     0.031 C 
ATOM     55  C   UNL     1       4.996  11.172   0.408  1.00  0.00     0.029 A 
ATOM     56  C   UNL     1       5.373  11.930   1.501  1.00  0.00     0.049 A 
ATOM     57  H   UNL     1       7.241  12.061   2.462  1.00  0.00     0.167 HD
ATOM     58  C   UNL     1       3.669  12.341   3.098  1.00  0.00     0.074 A 
ATOM     59  C   UNL     1       2.588  12.883   3.897  1.00  0.00     0.031 C 
ATOM     60  C   UNL     1       4.643  12.889   2.313  1.00  0.00     0.037 A 
BRANCH  47  61
ATOM     61  C   UNL     1       9.586  10.008   0.070  1.00  0.00     0.064 A 
ATOM     62  C   UNL     1       9.354   9.951  -1.317  1.00  0.00     0.173 A 
ATOM     63  C   UNL     1      10.933   9.919   0.468  1.00  0.00     0.173 A 
ATOM     64  F   UNL     1       8.125  10.094  -1.827  1.00  0.00    -0.203 F 
ATOM     65  C   UNL     1      10.382   9.708  -2.228  1.00  0.00     0.198 A 
ATOM     66  C   UNL     1      11.953   9.622  -0.438  1.00  0.00     0.198 A 
ATOM     67  F   UNL     1      11.278  10.095   1.753  1.00  0.00    -0.203 F 
ATOM     68  F   UNL     1      10.105   9.638  -3.538  1.00  0.00    -0.200 F 
ATOM     69  C   UNL     1      11.674   9.504  -1.786  1.00  0.00     0.200 A 
ATOM     70  F   UNL     1      13.201   9.421   0.007  1.00  0.00    -0.200 F 
ATOM     71  F   UNL     1      12.646   9.196  -2.655  1.00  0.00    -0.200 F 
ENDBRANCH  47  61
BRANCH  48  72
ATOM     72  C   UNL     1       2.046   9.002   6.087  1.00  0.00     0.064 A 
ATOM     73  C   UNL     1       1.096   7.991   6.326  1.00  0.00     0.173 A 
ATOM     74  C   UNL     1       2.903   9.352   7.135  1.00  0.00     0.173 A 
ATOM     75  F   UNL     1       0.256   7.617   5.348  1.00  0.00    -0.203 F 
ATOM     76  C   UNL     1       1.085   7.279   7.522  1.00  0.00     0.198 A 
ATOM     77  C   UNL     1       2.882   8.641   8.336  1.00  0.00     0.198 A 
ATOM     78  F   UNL     1       3.839  10.294   6.957  1.00  0.00    -0.203 F 
ATOM     79  F   UNL     1       0.245   6.245   7.674  1.00  0.00    -0.200 F 
ATOM     80  C   UNL     1       1.999   7.584   8.515  1.00  0.00     0.200 A 
ATOM     81  F   UNL     1       3.782   8.921   9.290  1.00  0.00    -0.200 F 
ATOM     82  F   UNL     1       2.058   6.835   9.624  1.00  0.00    -0.200 F 
ENDBRANCH  48  72
BRANCH  60  83
ATOM     83  C   UNL     1       4.963  14.355   2.152  1.00  0.00     0.064 A 
ATOM     84  C   UNL     1       4.764  15.322   3.150  1.00  0.00     0.173 A 
ATOM     85  C   UNL     1       5.642  14.809   0.992  1.00  0.00     0.173 A 
ATOM     86  F   UNL     1       4.225  14.999   4.333  1.00  0.00    -0.203 F 
ATOM     87  C   UNL     1       5.171  16.650   2.983  1.00  0.00     0.198 A 
ATOM     88  C   UNL     1       6.095  16.119   0.853  1.00  0.00     0.198 A 
ATOM     89  F   UNL     1       5.907  13.985  -0.032  1.00  0.00    -0.203 F 
ATOM     90  F   UNL     1       4.929  17.544   3.953  1.00  0.00    -0.200 F 
ATOM     91  C   UNL     1       5.848  17.045   1.844  1.00  0.00     0.200 A 
ATOM     92  F   UNL     1       6.790  16.471  -0.238  1.00  0.00    -0.200 F 
ATOM     93  F   UNL     1       6.279  18.306   1.711  1.00  0.00    -0.200 F 
ENDBRANCH  60  83
ENDBRANCH  34  35
ENDBRANCH  26  29
ENDBRANCH  24  25
ENDBRANCH  23  24
ENDBRANCH   1  23
TORSDOF 15
