REMARK SMILES CC[C@@H](Oc1ccccc1/C=C1/SC(Nc2ccc(F)cc2)=[NH+]C1=O)C(=O)NCCCCNC(=O)c1ccc(-c2c3nc(c(-c4c(F)c(F)c(F)c(F)c4F)c4ccc([nH]4)c(-c4c(F)c(F)c(F)c(F)c4F)c4nc(c(-c5c(F)c(F)c(F)c(F)c5F)c5ccc2[nH]5)C=C4)C=C3)cc1
REMARK SMILES IDX 29 1 28 2 26 3 27 4 3 6 2 7 1 8 4 9 5 10 6 11 10 12 7 13
REMARK SMILES IDX 9 14 8 15 11 16 12 17 13 18 24 19 14 20 23 21 25 22 15 23
REMARK SMILES IDX 16 26 17 27 22 28 18 29 21 30 19 31 20 32 30 33 31 34 32 35
REMARK SMILES IDX 33 36 34 37 35 39 36 40 37 41 98 42 38 43 97 44 39 45 40 46
REMARK SMILES IDX 41 47 91 48 42 49 96 50 90 51 92 52 43 53 95 54 89 55 88 56
REMARK SMILES IDX 44 58 76 59 56 60 75 61 57 62 60 63 74 64 93 65 58 66 59 67
REMARK SMILES IDX 73 69 94 70 61 71 45 72 46 73 54 74 47 75 48 76 52 77 55 78
REMARK SMILES IDX 49 79 50 80 53 81 51 82 77 83 78 84 86 85 79 86 80 87 84 88
REMARK SMILES IDX 87 89 81 90 82 91 85 92 83 93 62 94 63 95 71 96 64 97 65 98
REMARK SMILES IDX 69 99 72 100 66 101 67 102 70 103 68 104
REMARK H PARENT 28 5 23 24 15 25 33 38 92 57 60 68
REMARK Flexibility Score: inf
ROOT
ATOM      1  C   UNL     1      -1.647   1.385   3.409  1.00  0.00     0.116 C 
ENDROOT
BRANCH   1   2
ATOM      2  N   UNL     1      -0.386   1.320   4.120  1.00  0.00    -0.353 N 
ATOM      3  C   UNL     1       0.899   1.354   3.655  1.00  0.00     0.261 C 
ATOM      4  O   UNL     1       1.798   1.405   4.503  1.00  0.00    -0.271 OA
ATOM      5  H   UNL     1      -0.467   1.238   5.098  1.00  0.00     0.163 HD
BRANCH   3   6
ATOM      6  C   UNL     1       1.252   1.193   2.157  1.00  0.00     0.261 C 
BRANCH   6   7
ATOM      7  C   UNL     1       1.273  -0.319   1.867  1.00  0.00     0.052 C 
ATOM      8  C   UNL     1       2.328  -0.715   0.842  1.00  0.00     0.008 C 
ENDBRANCH   6   7
BRANCH   6   9
ATOM      9  O   UNL     1       0.303   1.838   1.309  1.00  0.00    -0.480 OA
BRANCH   9  10
ATOM     10  C   UNL     1       0.777   2.392   0.154  1.00  0.00     0.127 A 
ATOM     11  C   UNL     1       1.402   3.639   0.201  1.00  0.00     0.047 A 
ATOM     12  C   UNL     1       0.485   1.782  -1.082  1.00  0.00     0.018 A 
ATOM     13  C   UNL     1       1.787   4.263  -0.986  1.00  0.00     0.004 A 
ATOM     14  C   UNL     1       0.895   2.409  -2.263  1.00  0.00     0.012 A 
ATOM     15  C   UNL     1       1.540   3.647  -2.214  1.00  0.00     0.001 A 
BRANCH  12  16
ATOM     16  C   UNL     1      -0.148   0.459  -1.162  1.00  0.00     0.036 C 
ATOM     17  C   UNL     1      -1.395   0.151  -0.785  1.00  0.00     0.110 C 
ATOM     18  S   UNL     1      -1.918  -1.482  -0.561  1.00  0.00     0.006 SA
ATOM     19  C   UNL     1      -2.497   1.074  -0.378  1.00  0.00     0.346 C 
ATOM     20  C   UNL     1      -3.366  -0.894   0.226  1.00  0.00     0.322 C 
ATOM     21  N   UNL     1      -3.541   0.385   0.195  1.00  0.00    -0.199 N 
ATOM     22  O   UNL     1      -2.476   2.286  -0.523  1.00  0.00    -0.240 OA
ATOM     23  N   UNL     1      -4.128  -1.831   0.863  1.00  0.00    -0.235 N 
ATOM     24  H   UNL     1      -4.347   0.826   0.549  1.00  0.00     0.316 HD
ATOM     25  H   UNL     1      -3.716  -2.711   1.020  1.00  0.00     0.313 HD
BRANCH  23  26
ATOM     26  C   UNL     1      -5.445  -1.655   1.315  1.00  0.00     0.125 A 
ATOM     27  C   UNL     1      -5.868  -2.266   2.506  1.00  0.00     0.055 A 
ATOM     28  C   UNL     1      -6.345  -0.822   0.636  1.00  0.00     0.055 A 
ATOM     29  C   UNL     1      -7.174  -2.088   2.972  1.00  0.00     0.043 A 
ATOM     30  C   UNL     1      -7.655  -0.662   1.085  1.00  0.00     0.043 A 
ATOM     31  C   UNL     1      -8.062  -1.309   2.241  1.00  0.00     0.123 A 
ATOM     32  F   UNL     1      -9.323  -1.167   2.669  1.00  0.00    -0.207 F 
ENDBRANCH  23  26
ENDBRANCH  12  16
ENDBRANCH   9  10
ENDBRANCH   6   9
ENDBRANCH   3   6
ENDBRANCH   1   2
BRANCH   1  33
ATOM     33  C   UNL     1      -2.393   0.059   3.426  1.00  0.00     0.023 C 
BRANCH  33  34
ATOM     34  C   UNL     1      -3.220  -0.209   4.671  1.00  0.00     0.023 C 
BRANCH  34  35
ATOM     35  C   UNL     1      -4.268   0.850   4.993  1.00  0.00     0.116 C 
BRANCH  35  36
ATOM     36  N   UNL     1      -5.147   1.243   3.897  1.00  0.00    -0.352 N 
ATOM     37  C   UNL     1      -6.474   1.615   3.956  1.00  0.00     0.251 C 
ATOM     38  H   UNL     1      -4.740   1.244   3.000  1.00  0.00     0.163 HD
ATOM     39  O   UNL     1      -7.075   2.005   2.962  1.00  0.00    -0.269 OA
BRANCH  37  40
ATOM     40  C   UNL     1      -7.197   1.468   5.235  1.00  0.00     0.039 A 
ATOM     41  C   UNL     1      -8.394   0.748   5.251  1.00  0.00     0.014 A 
ATOM     42  C   UNL     1      -6.645   1.949   6.422  1.00  0.00     0.014 A 
ATOM     43  C   UNL     1      -8.976   0.398   6.467  1.00  0.00     0.010 A 
ATOM     44  C   UNL     1      -7.176   1.536   7.634  1.00  0.00     0.010 A 
ATOM     45  C   UNL     1      -8.345   0.758   7.663  1.00  0.00    -0.014 A 
BRANCH  45  46
ATOM     46  C   UNL     1      -8.953   0.454   8.973  1.00  0.00     0.031 A 
ATOM     47  C   UNL     1      -9.487   1.599   9.780  1.00  0.00     0.074 A 
ATOM     48  C   UNL     1      -8.960  -0.804   9.450  1.00  0.00     0.049 A 
ATOM     49  N   UNL     1      -9.924   1.616  11.010  1.00  0.00    -0.248 NA
ATOM     50  C   UNL     1      -9.495   2.914   9.115  1.00  0.00     0.031 C 
ATOM     51  C   UNL     1      -8.462  -1.984   8.743  1.00  0.00     0.029 A 
ATOM     52  N   UNL     1      -9.389  -1.293  10.658  1.00  0.00    -0.354 N 
ATOM     53  C   UNL     1     -10.236   2.943  11.271  1.00  0.00     0.074 A 
ATOM     54  C   UNL     1      -9.885   3.709  10.097  1.00  0.00     0.031 C 
ATOM     55  C   UNL     1      -8.617  -3.063   9.530  1.00  0.00     0.029 A 
ATOM     56  C   UNL     1      -9.184  -2.643  10.808  1.00  0.00     0.049 A 
ATOM     57  H   UNL     1      -9.804  -0.731  11.351  1.00  0.00     0.167 HD
ATOM     58  C   UNL     1     -10.788   3.469  12.387  1.00  0.00     0.037 A 
ATOM     59  C   UNL     1      -9.415  -3.437  11.872  1.00  0.00     0.037 A 
ATOM     60  C   UNL     1     -11.147   2.686  13.538  1.00  0.00     0.049 A 
ATOM     61  C   UNL     1     -10.003  -2.820  13.117  1.00  0.00     0.074 A 
ATOM     62  C   UNL     1     -11.741   3.103  14.714  1.00  0.00     0.029 A 
ATOM     63  N   UNL     1     -10.942   1.318  13.651  1.00  0.00    -0.354 N 
ATOM     64  N   UNL     1     -10.331  -1.571  13.348  1.00  0.00    -0.248 NA
ATOM     65  C   UNL     1     -10.256  -3.724  14.247  1.00  0.00     0.031 C 
ATOM     66  C   UNL     1     -11.845   1.996  15.561  1.00  0.00     0.029 A 
ATOM     67  C   UNL     1     -11.377   0.877  14.888  1.00  0.00     0.049 A 
ATOM     68  H   UNL     1     -10.545   0.746  12.954  1.00  0.00     0.167 HD
ATOM     69  C   UNL     1     -10.859  -1.544  14.632  1.00  0.00     0.074 A 
ATOM     70  C   UNL     1     -10.820  -2.906  15.124  1.00  0.00     0.031 C 
ATOM     71  C   UNL     1     -11.335  -0.491  15.343  1.00  0.00     0.037 A 
BRANCH  58  72
ATOM     72  C   UNL     1     -11.012   4.952  12.412  1.00  0.00     0.064 A 
ATOM     73  C   UNL     1     -11.962   5.571  11.584  1.00  0.00     0.173 A 
ATOM     74  C   UNL     1     -10.265   5.766  13.276  1.00  0.00     0.173 A 
ATOM     75  F   UNL     1     -12.687   4.841  10.723  1.00  0.00    -0.203 F 
ATOM     76  C   UNL     1     -12.130   6.953  11.595  1.00  0.00     0.198 A 
ATOM     77  C   UNL     1     -10.462   7.144  13.310  1.00  0.00     0.198 A 
ATOM     78  F   UNL     1      -9.342   5.227  14.085  1.00  0.00    -0.203 F 
ATOM     79  F   UNL     1     -12.997   7.528  10.751  1.00  0.00    -0.200 F 
ATOM     80  C   UNL     1     -11.386   7.737  12.464  1.00  0.00     0.200 A 
ATOM     81  F   UNL     1      -9.749   7.899  14.157  1.00  0.00    -0.200 F 
ATOM     82  F   UNL     1     -11.552   9.067  12.477  1.00  0.00    -0.200 F 
ENDBRANCH  58  72
BRANCH  59  83
ATOM     83  C   UNL     1      -9.101  -4.890  11.810  1.00  0.00     0.064 A 
ATOM     84  C   UNL     1     -10.119  -5.853  11.850  1.00  0.00     0.173 A 
ATOM     85  C   UNL     1      -7.777  -5.349  11.730  1.00  0.00     0.173 A 
ATOM     86  F   UNL     1     -11.400  -5.468  11.947  1.00  0.00    -0.203 F 
ATOM     87  C   UNL     1      -9.826  -7.216  11.837  1.00  0.00     0.198 A 
ATOM     88  C   UNL     1      -7.487  -6.712  11.685  1.00  0.00     0.198 A 
ATOM     89  F   UNL     1      -6.763  -4.474  11.686  1.00  0.00    -0.203 F 
ATOM     90  F   UNL     1     -10.818  -8.113  11.929  1.00  0.00    -0.200 F 
ATOM     91  C   UNL     1      -8.511  -7.645  11.749  1.00  0.00     0.200 A 
ATOM     92  F   UNL     1      -6.215  -7.122  11.585  1.00  0.00    -0.200 F 
ATOM     93  F   UNL     1      -8.230  -8.955  11.735  1.00  0.00    -0.200 F 
ENDBRANCH  59  83
BRANCH  71  94
ATOM     94  C   UNL     1     -11.893  -0.778  16.707  1.00  0.00     0.064 A 
ATOM     95  C   UNL     1     -11.069  -1.137  17.783  1.00  0.00     0.173 A 
ATOM     96  C   UNL     1     -13.269  -0.639  16.950  1.00  0.00     0.173 A 
ATOM     97  F   UNL     1      -9.749  -1.294  17.601  1.00  0.00    -0.203 F 
ATOM     98  C   UNL     1     -11.605  -1.375  19.046  1.00  0.00     0.198 A 
ATOM     99  C   UNL     1     -13.796  -0.842  18.221  1.00  0.00     0.198 A 
ATOM    100  F   UNL     1     -14.099  -0.287  15.956  1.00  0.00    -0.203 F 
ATOM    101  F   UNL     1     -10.807  -1.768  20.047  1.00  0.00    -0.200 F 
ATOM    102  C   UNL     1     -12.966  -1.218  19.265  1.00  0.00     0.200 A 
ATOM    103  F   UNL     1     -15.108  -0.671  18.435  1.00  0.00    -0.200 F 
ATOM    104  F   UNL     1     -13.479  -1.437  20.484  1.00  0.00    -0.200 F 
ENDBRANCH  71  94
ENDBRANCH  45  46
ENDBRANCH  37  40
ENDBRANCH  35  36
ENDBRANCH  34  35
ENDBRANCH  33  34
ENDBRANCH   1  33
TORSDOF 16
