REMARK SMILES C[C@@H](CC(=O)NCCCCNC(=O)c1ccc(-c2c3nc(c(-c4c(F)c(F)c(F)c(F)c4F)c4ccc([nH]4)c(-c4c(F)c(F)c(F)c(F)c4F)c4nc(c(-c5c(F)c(F)c(F)c(F)c5F)c5ccc2[nH]5)C=C4)C=C3)cc1)NC(=O)N[C@H]1CCOC1
REMARK SMILES IDX 8 1 7 2 6 3 4 4 5 5 3 7 2 8 1 9 77 10 78 11 79 13 80 14
REMARK SMILES IDX 81 16 82 17 85 18 83 19 84 20 9 21 10 22 11 23 12 24 13 26
REMARK SMILES IDX 14 27 15 28 76 29 16 30 75 31 17 32 18 33 19 34 69 35 20 36
REMARK SMILES IDX 74 37 68 38 70 39 21 40 73 41 67 42 66 43 22 45 54 46 34 47
REMARK SMILES IDX 53 48 35 49 38 50 52 51 71 52 36 53 37 54 51 56 72 57 39 58
REMARK SMILES IDX 23 59 24 60 32 61 25 62 26 63 30 64 33 65 27 66 28 67 31 68
REMARK SMILES IDX 29 69 55 70 56 71 64 72 57 73 58 74 62 75 65 76 59 77 60 78
REMARK SMILES IDX 63 79 61 80 40 81 41 82 49 83 42 84 43 85 47 86 50 87 44 88
REMARK SMILES IDX 45 89 48 90 46 91
REMARK H PARENT 6 6 77 12 80 15 11 25 70 44 38 55
REMARK Flexibility Score: inf
ROOT
ATOM      1  C   UNL     1       5.699   5.789  -2.279  1.00  0.00     0.023 C 
ENDROOT
BRANCH   1   2
ATOM      2  C   UNL     1       4.573   6.826  -2.272  1.00  0.00     0.116 C 
BRANCH   2   3
ATOM      3  N   UNL     1       4.200   7.155  -3.634  1.00  0.00    -0.356 N 
ATOM      4  C   UNL     1       3.175   6.666  -4.388  1.00  0.00     0.222 C 
ATOM      5  O   UNL     1       3.200   6.844  -5.605  1.00  0.00    -0.275 OA
ATOM      6  H   UNL     1       4.768   7.826  -4.077  1.00  0.00     0.163 HD
BRANCH   4   7
ATOM      7  C   UNL     1       1.989   6.030  -3.712  1.00  0.00     0.124 C 
BRANCH   7   8
ATOM      8  C   UNL     1       1.954   4.521  -3.486  1.00  0.00     0.090 C 
ATOM      9  C   UNL     1       3.133   3.869  -2.784  1.00  0.00     0.031 C 
BRANCH   8  10
ATOM     10  N   UNL     1       1.586   3.705  -4.605  1.00  0.00    -0.335 N 
ATOM     11  C   UNL     1       1.080   2.465  -4.584  1.00  0.00     0.315 C 
ATOM     12  H   UNL     1       1.721   4.103  -5.496  1.00  0.00     0.165 HD
ATOM     13  O   UNL     1       1.122   1.812  -5.631  1.00  0.00    -0.249 OA
ATOM     14  N   UNL     1       0.555   1.854  -3.515  1.00  0.00    -0.333 N 
ATOM     15  H   UNL     1       0.414   0.911  -3.761  1.00  0.00     0.165 HD
BRANCH  14  16
ATOM     16  C   UNL     1       0.099   2.011  -2.120  1.00  0.00     0.112 C 
ATOM     17  C   UNL     1       0.868   1.136  -1.137  1.00  0.00     0.056 C 
ATOM     18  C   UNL     1      -0.028   3.299  -1.320  1.00  0.00     0.185 C 
ATOM     19  C   UNL     1       0.536   1.725   0.231  1.00  0.00     0.162 C 
ATOM     20  O   UNL     1      -0.336   2.844   0.008  1.00  0.00    -0.379 OA
ENDBRANCH  14  16
ENDBRANCH   8  10
ENDBRANCH   7   8
ENDBRANCH   4   7
ENDBRANCH   2   3
ENDBRANCH   1   2
BRANCH   1  21
ATOM     21  C   UNL     1       7.026   6.306  -2.808  1.00  0.00     0.023 C 
BRANCH  21  22
ATOM     22  C   UNL     1       7.610   7.412  -1.963  1.00  0.00     0.116 C 
BRANCH  22  23
ATOM     23  N   UNL     1       7.896   6.982  -0.603  1.00  0.00    -0.352 N 
ATOM     24  C   UNL     1       9.017   7.255   0.145  1.00  0.00     0.251 C 
ATOM     25  H   UNL     1       7.206   6.431  -0.167  1.00  0.00     0.163 HD
ATOM     26  O   UNL     1       9.215   6.707   1.215  1.00  0.00    -0.269 OA
BRANCH  24  27
ATOM     27  C   UNL     1       9.992   8.213  -0.411  1.00  0.00     0.039 A 
ATOM     28  C   UNL     1      11.342   7.868  -0.448  1.00  0.00     0.014 A 
ATOM     29  C   UNL     1       9.540   9.408  -0.978  1.00  0.00     0.014 A 
ATOM     30  C   UNL     1      12.239   8.717  -1.091  1.00  0.00     0.010 A 
ATOM     31  C   UNL     1      10.410  10.180  -1.726  1.00  0.00     0.010 A 
ATOM     32  C   UNL     1      11.775   9.867  -1.753  1.00  0.00    -0.014 A 
BRANCH  32  33
ATOM     33  C   UNL     1      12.711  10.813  -2.402  1.00  0.00     0.031 A 
ATOM     34  C   UNL     1      12.792  12.227  -1.892  1.00  0.00     0.074 A 
ATOM     35  C   UNL     1      13.439  10.422  -3.464  1.00  0.00     0.049 A 
ATOM     36  N   UNL     1      13.497  13.233  -2.341  1.00  0.00    -0.248 NA
ATOM     37  C   UNL     1      11.928  12.570  -0.748  1.00  0.00     0.031 C 
ATOM     38  C   UNL     1      13.391   9.098  -4.087  1.00  0.00     0.029 A 
ATOM     39  N   UNL     1      14.364  11.106  -4.208  1.00  0.00    -0.354 N 
ATOM     40  C   UNL     1      13.142  14.320  -1.553  1.00  0.00     0.074 A 
ATOM     41  C   UNL     1      12.099  13.878  -0.657  1.00  0.00     0.031 C 
ATOM     42  C   UNL     1      14.280   9.054  -5.093  1.00  0.00     0.029 A 
ATOM     43  C   UNL     1      14.934  10.353  -5.205  1.00  0.00     0.049 A 
ATOM     44  H   UNL     1      14.598  12.048  -4.044  1.00  0.00     0.167 HD
ATOM     45  C   UNL     1      13.668  15.566  -1.545  1.00  0.00     0.037 A 
ATOM     46  C   UNL     1      15.886  10.681  -6.098  1.00  0.00     0.037 A 
ATOM     47  C   UNL     1      14.741  15.982  -2.406  1.00  0.00     0.049 A 
ATOM     48  C   UNL     1      16.480  12.065  -6.049  1.00  0.00     0.074 A 
ATOM     49  C   UNL     1      15.396  17.198  -2.445  1.00  0.00     0.029 A 
ATOM     50  N   UNL     1      15.321  15.180  -3.379  1.00  0.00    -0.354 N 
ATOM     51  N   UNL     1      16.190  13.065  -5.250  1.00  0.00    -0.248 NA
ATOM     52  C   UNL     1      17.545  12.359  -7.015  1.00  0.00     0.031 C 
ATOM     53  C   UNL     1      16.348  17.146  -3.469  1.00  0.00     0.029 A 
ATOM     54  C   UNL     1      16.320  15.880  -4.033  1.00  0.00     0.049 A 
ATOM     55  H   UNL     1      15.060  14.251  -3.575  1.00  0.00     0.167 HD
ATOM     56  C   UNL     1      17.055  14.094  -5.597  1.00  0.00     0.074 A 
ATOM     57  C   UNL     1      17.895  13.587  -6.663  1.00  0.00     0.031 C 
ATOM     58  C   UNL     1      17.147  15.346  -5.085  1.00  0.00     0.037 A 
BRANCH  45  59
ATOM     59  C   UNL     1      13.100  16.550  -0.564  1.00  0.00     0.064 A 
ATOM     60  C   UNL     1      13.277  16.396   0.821  1.00  0.00     0.173 A 
ATOM     61  C   UNL     1      12.374  17.664  -1.010  1.00  0.00     0.173 A 
ATOM     62  F   UNL     1      13.947  15.338   1.303  1.00  0.00    -0.203 F 
ATOM     63  C   UNL     1      12.716  17.298   1.722  1.00  0.00     0.198 A 
ATOM     64  C   UNL     1      11.845  18.584  -0.108  1.00  0.00     0.198 A 
ATOM     65  F   UNL     1      12.174  17.860  -2.322  1.00  0.00    -0.203 F 
ATOM     66  F   UNL     1      12.843  17.092   3.040  1.00  0.00    -0.200 F 
ATOM     67  C   UNL     1      12.007  18.395   1.256  1.00  0.00     0.200 A 
ATOM     68  F   UNL     1      11.168  19.649  -0.559  1.00  0.00    -0.200 F 
ATOM     69  F   UNL     1      11.470  19.264   2.124  1.00  0.00    -0.200 F 
ENDBRANCH  45  59
BRANCH  46  70
ATOM     70  C   UNL     1      16.373   9.675  -7.077  1.00  0.00     0.064 A 
ATOM     71  C   UNL     1      17.671   9.151  -6.985  1.00  0.00     0.173 A 
ATOM     72  C   UNL     1      15.563   9.224  -8.129  1.00  0.00     0.173 A 
ATOM     73  F   UNL     1      18.490   9.562  -6.006  1.00  0.00    -0.203 F 
ATOM     74  C   UNL     1      18.149   8.239  -7.923  1.00  0.00     0.198 A 
ATOM     75  C   UNL     1      16.032   8.290  -9.050  1.00  0.00     0.198 A 
ATOM     76  F   UNL     1      14.310   9.686  -8.258  1.00  0.00    -0.203 F 
ATOM     77  F   UNL     1      19.411   7.796  -7.841  1.00  0.00    -0.200 F 
ATOM     78  C   UNL     1      17.328   7.806  -8.953  1.00  0.00     0.200 A 
ATOM     79  F   UNL     1      15.231   7.862 -10.035  1.00  0.00    -0.200 F 
ATOM     80  F   UNL     1      17.789   6.929  -9.856  1.00  0.00    -0.200 F 
ENDBRANCH  46  70
BRANCH  58  81
ATOM     81  C   UNL     1      18.218  16.235  -5.647  1.00  0.00     0.064 A 
ATOM     82  C   UNL     1      18.139  16.752  -6.949  1.00  0.00     0.173 A 
ATOM     83  C   UNL     1      19.325  16.592  -4.863  1.00  0.00     0.173 A 
ATOM     84  F   UNL     1      17.106  16.430  -7.742  1.00  0.00    -0.203 F 
ATOM     85  C   UNL     1      19.150  17.561  -7.459  1.00  0.00     0.198 A 
ATOM     86  C   UNL     1      20.317  17.430  -5.364  1.00  0.00     0.198 A 
ATOM     87  F   UNL     1      19.442  16.134  -3.608  1.00  0.00    -0.203 F 
ATOM     88  F   UNL     1      19.085  17.992  -8.726  1.00  0.00    -0.200 F 
ATOM     89  C   UNL     1      20.235  17.904  -6.664  1.00  0.00     0.200 A 
ATOM     90  F   UNL     1      21.355  17.774  -4.590  1.00  0.00    -0.200 F 
ATOM     91  F   UNL     1      21.206  18.684  -7.156  1.00  0.00    -0.200 F 
ENDBRANCH  58  81
ENDBRANCH  32  33
ENDBRANCH  24  27
ENDBRANCH  22  23
ENDBRANCH  21  22
ENDBRANCH   1  21
TORSDOF 14
