REMARK SMILES CCCCCCCNC(=O)Oc1cccc(-c2ccc([C@@H](C)C(=O)NCCCCNC(=O)c3ccc(-c4c5nc(c(-c6c(F)c(F)c(F)c(F)c6F)c6ccc([nH]6)c(-c6c(F)c(F)c(F)c(F)c6F)c6nc(c(-c7c(F)c(F)c(F)c(F)c7F)c7ccc4[nH]7)C=C6)C=C5)cc3)cc2F)c1
REMARK SMILES IDX 17 1 18 2 19 3 20 4 96 5 97 6 98 7 16 8 12 9 13 10 99 11
REMARK SMILES IDX 14 12 15 13 11 14 9 15 8 16 10 18 7 19 6 20 5 21 4 22 3 23
REMARK SMILES IDX 2 24 1 25 21 26 22 27 23 28 24 29 25 30 26 32 27 33 28 34
REMARK SMILES IDX 29 35 30 36 31 37 32 39 33 40 34 41 95 42 35 43 94 44 36 45
REMARK SMILES IDX 37 46 38 47 88 48 39 49 93 50 87 51 89 52 40 53 92 54 86 55
REMARK SMILES IDX 85 56 41 58 73 59 53 60 72 61 54 62 57 63 71 64 90 65 55 66
REMARK SMILES IDX 56 67 70 69 91 70 58 71 42 72 43 73 51 74 44 75 45 76 49 77
REMARK SMILES IDX 52 78 46 79 47 80 50 81 48 82 74 83 75 84 83 85 76 86 77 87
REMARK SMILES IDX 81 88 84 89 78 90 79 91 82 92 80 93 59 94 60 95 68 96 61 97
REMARK SMILES IDX 62 98 66 99 69 100 63 101 64 102 67 103 65 104
REMARK H PARENT 8 17 25 31 30 38 89 57 57 68
REMARK Flexibility Score: inf
ROOT
ATOM      1  C   UNL     1      -6.755   7.462  -6.488  1.00  0.00     0.018 A 
ATOM      2  C   UNL     1      -7.255   8.166  -7.597  1.00  0.00     0.012 A 
ATOM      3  C   UNL     1      -8.489   7.851  -8.181  1.00  0.00     0.005 A 
ATOM      4  C   UNL     1      -9.243   6.765  -7.731  1.00  0.00    -0.033 A 
ATOM      5  C   UNL     1      -8.772   6.073  -6.607  1.00  0.00     0.044 A 
ATOM      6  C   UNL     1      -7.568   6.432  -5.991  1.00  0.00     0.131 A 
ATOM      7  F   UNL     1      -7.212   5.747  -4.893  1.00  0.00    -0.206 F 
ENDROOT
BRANCH   1   8
ATOM      8  C   UNL     1      -5.431   7.798  -5.910  1.00  0.00    -0.012 A 
ATOM      9  C   UNL     1      -3.339   7.149  -4.847  1.00  0.00     0.133 A 
ATOM     10  C   UNL     1      -2.878   8.461  -4.862  1.00  0.00     0.047 A 
ATOM     11  C   UNL     1      -4.595   6.812  -5.358  1.00  0.00     0.056 A 
ATOM     12  C   UNL     1      -3.684   9.452  -5.407  1.00  0.00     0.004 A 
ATOM     13  C   UNL     1      -4.947   9.123  -5.913  1.00  0.00     0.009 A 
BRANCH   9  14
ATOM     14  O   UNL     1      -2.546   6.208  -4.176  1.00  0.00    -0.410 OA
BRANCH  14  15
ATOM     15  C   UNL     1      -2.156   5.072  -4.866  1.00  0.00     0.412 C 
ATOM     16  N   UNL     1      -1.419   4.214  -4.096  1.00  0.00    -0.321 N 
ATOM     17  H   UNL     1      -1.109   3.386  -4.529  1.00  0.00     0.167 HD
ATOM     18  O   UNL     1      -2.398   4.818  -6.039  1.00  0.00    -0.224 OA
BRANCH  16  19
ATOM     19  C   UNL     1      -1.050   4.401  -2.705  1.00  0.00     0.119 C 
BRANCH  19  20
ATOM     20  C   UNL     1      -1.550   3.260  -1.821  1.00  0.00     0.021 C 
BRANCH  20  21
ATOM     21  C   UNL     1      -0.952   1.886  -2.147  1.00  0.00     0.002 C 
BRANCH  21  22
ATOM     22  C   UNL     1       0.576   1.800  -2.067  1.00  0.00     0.000 C 
BRANCH  22  23
ATOM     23  C   UNL     1       1.178   2.125  -0.695  1.00  0.00    -0.000 C 
BRANCH  23  24
ATOM     24  C   UNL     1       0.723   1.217   0.450  1.00  0.00    -0.003 C 
ATOM     25  C   UNL     1       1.079  -0.247   0.237  1.00  0.00     0.004 C 
ENDBRANCH  23  24
ENDBRANCH  22  23
ENDBRANCH  21  22
ENDBRANCH  20  21
ENDBRANCH  19  20
ENDBRANCH  16  19
ENDBRANCH  14  15
ENDBRANCH   9  14
ENDBRANCH   1   8
BRANCH   4  26
ATOM     26  C   UNL     1     -10.506   6.285  -8.428  1.00  0.00     0.105 C 
ATOM     27  C   UNL     1     -11.469   7.376  -8.897  1.00  0.00     0.023 C 
BRANCH  26  28
ATOM     28  C   UNL     1     -10.248   5.187  -9.473  1.00  0.00     0.227 C 
ATOM     29  O   UNL     1     -10.573   4.018  -9.231  1.00  0.00    -0.274 OA
ATOM     30  N   UNL     1      -9.678   5.414 -10.688  1.00  0.00    -0.356 N 
ATOM     31  H   UNL     1      -9.633   4.620 -11.268  1.00  0.00     0.163 HD
BRANCH  30  32
ATOM     32  C   UNL     1      -9.126   6.614 -11.281  1.00  0.00     0.116 C 
BRANCH  32  33
ATOM     33  C   UNL     1      -7.606   6.688 -11.128  1.00  0.00     0.023 C 
BRANCH  33  34
ATOM     34  C   UNL     1      -6.814   5.973 -12.220  1.00  0.00     0.023 C 
BRANCH  34  35
ATOM     35  C   UNL     1      -7.020   6.508 -13.633  1.00  0.00     0.116 C 
BRANCH  35  36
ATOM     36  N   UNL     1      -6.711   7.924 -13.786  1.00  0.00    -0.352 N 
ATOM     37  C   UNL     1      -6.137   8.557 -14.866  1.00  0.00     0.251 C 
ATOM     38  H   UNL     1      -6.943   8.501 -13.023  1.00  0.00     0.163 HD
ATOM     39  O   UNL     1      -5.877   9.754 -14.833  1.00  0.00    -0.269 OA
BRANCH  37  40
ATOM     40  C   UNL     1      -5.787   7.750 -16.051  1.00  0.00     0.039 A 
ATOM     41  C   UNL     1      -4.462   7.743 -16.494  1.00  0.00     0.014 A 
ATOM     42  C   UNL     1      -6.741   6.917 -16.639  1.00  0.00     0.014 A 
ATOM     43  C   UNL     1      -4.068   6.814 -17.458  1.00  0.00     0.010 A 
ATOM     44  C   UNL     1      -6.332   5.947 -17.547  1.00  0.00     0.010 A 
ATOM     45  C   UNL     1      -4.987   5.869 -17.943  1.00  0.00    -0.014 A 
BRANCH  45  46
ATOM     46  C   UNL     1      -4.561   4.750 -18.821  1.00  0.00     0.031 A 
ATOM     47  C   UNL     1      -5.109   4.637 -20.213  1.00  0.00     0.074 A 
ATOM     48  C   UNL     1      -3.763   3.784 -18.324  1.00  0.00     0.049 A 
ATOM     49  N   UNL     1      -4.976   3.664 -21.078  1.00  0.00    -0.248 NA
ATOM     50  C   UNL     1      -5.941   5.754 -20.686  1.00  0.00     0.031 C 
ATOM     51  C   UNL     1      -3.201   3.760 -16.972  1.00  0.00     0.029 A 
ATOM     52  N   UNL     1      -3.304   2.621 -18.891  1.00  0.00    -0.354 N 
ATOM     53  C   UNL     1      -5.714   4.046 -22.189  1.00  0.00     0.074 A 
ATOM     54  C   UNL     1      -6.333   5.315 -21.873  1.00  0.00     0.031 C 
ATOM     55  C   UNL     1      -2.464   2.648 -16.819  1.00  0.00     0.029 A 
ATOM     56  C   UNL     1      -2.539   1.857 -18.042  1.00  0.00     0.049 A 
ATOM     57  H   UNL     1      -3.504   2.358 -19.819  1.00  0.00     0.167 HD
ATOM     58  C   UNL     1      -5.843   3.405 -23.374  1.00  0.00     0.037 A 
ATOM     59  C   UNL     1      -1.981   0.645 -18.224  1.00  0.00     0.037 A 
ATOM     60  C   UNL     1      -5.207   2.154 -23.693  1.00  0.00     0.049 A 
ATOM     61  C   UNL     1      -2.175  -0.062 -19.538  1.00  0.00     0.074 A 
ATOM     62  C   UNL     1      -5.226   1.457 -24.888  1.00  0.00     0.029 A 
ATOM     63  N   UNL     1      -4.438   1.413 -22.808  1.00  0.00    -0.354 N 
ATOM     64  N   UNL     1      -2.824   0.337 -20.604  1.00  0.00    -0.248 NA
ATOM     65  C   UNL     1      -1.566  -1.393 -19.671  1.00  0.00     0.031 C 
ATOM     66  C   UNL     1      -4.504   0.272 -24.714  1.00  0.00     0.029 A 
ATOM     67  C   UNL     1      -4.000   0.251 -23.424  1.00  0.00     0.049 A 
ATOM     68  H   UNL     1      -4.234   1.673 -21.881  1.00  0.00     0.167 HD
ATOM     69  C   UNL     1      -2.686  -0.680 -21.538  1.00  0.00     0.074 A 
ATOM     70  C   UNL     1      -1.874  -1.708 -20.921  1.00  0.00     0.031 C 
ATOM     71  C   UNL     1      -3.191  -0.759 -22.793  1.00  0.00     0.037 A 
BRANCH  58  72
ATOM     72  C   UNL     1      -6.697   4.051 -24.424  1.00  0.00     0.064 A 
ATOM     73  C   UNL     1      -6.274   5.205 -25.100  1.00  0.00     0.173 A 
ATOM     74  C   UNL     1      -7.923   3.482 -24.797  1.00  0.00     0.173 A 
ATOM     75  F   UNL     1      -5.114   5.794 -24.771  1.00  0.00    -0.203 F 
ATOM     76  C   UNL     1      -7.059   5.778 -26.097  1.00  0.00     0.198 A 
ATOM     77  C   UNL     1      -8.693   4.043 -25.813  1.00  0.00     0.198 A 
ATOM     78  F   UNL     1      -8.370   2.376 -24.184  1.00  0.00    -0.203 F 
ATOM     79  F   UNL     1      -6.653   6.903 -26.703  1.00  0.00    -0.200 F 
ATOM     80  C   UNL     1      -8.262   5.192 -26.459  1.00  0.00     0.200 A 
ATOM     81  F   UNL     1      -9.850   3.469 -26.170  1.00  0.00    -0.200 F 
ATOM     82  F   UNL     1      -9.011   5.739 -27.427  1.00  0.00    -0.200 F 
ENDBRANCH  58  72
BRANCH  59  83
ATOM     83  C   UNL     1      -1.189   0.013 -17.136  1.00  0.00     0.064 A 
ATOM     84  C   UNL     1       0.196  -0.159 -17.265  1.00  0.00     0.173 A 
ATOM     85  C   UNL     1      -1.798  -0.454 -15.962  1.00  0.00     0.173 A 
ATOM     86  F   UNL     1       0.820   0.249 -18.380  1.00  0.00    -0.203 F 
ATOM     87  C   UNL     1       0.939  -0.796 -16.272  1.00  0.00     0.198 A 
ATOM     88  C   UNL     1      -1.050  -1.066 -14.958  1.00  0.00     0.198 A 
ATOM     89  F   UNL     1      -3.120  -0.314 -15.789  1.00  0.00    -0.203 F 
ATOM     90  F   UNL     1       2.253  -0.994 -16.445  1.00  0.00    -0.200 F 
ATOM     91  C   UNL     1       0.316  -1.245 -15.118  1.00  0.00     0.200 A 
ATOM     92  F   UNL     1      -1.654  -1.489 -13.839  1.00  0.00    -0.200 F 
ATOM     93  F   UNL     1       1.029  -1.860 -14.165  1.00  0.00    -0.200 F 
ENDBRANCH  59  83
BRANCH  71  94
ATOM     94  C   UNL     1      -2.868  -1.989 -23.587  1.00  0.00     0.064 A 
ATOM     95  C   UNL     1      -3.476  -3.221 -23.305  1.00  0.00     0.173 A 
ATOM     96  C   UNL     1      -1.980  -1.925 -24.672  1.00  0.00     0.173 A 
ATOM     97  F   UNL     1      -4.318  -3.335 -22.267  1.00  0.00    -0.203 F 
ATOM     98  C   UNL     1      -3.194  -4.348 -24.070  1.00  0.00     0.198 A 
ATOM     99  C   UNL     1      -1.722  -3.048 -25.452  1.00  0.00     0.198 A 
ATOM    100  F   UNL     1      -1.377  -0.768 -24.985  1.00  0.00    -0.203 F 
ATOM    101  F   UNL     1      -3.757  -5.524 -23.759  1.00  0.00    -0.200 F 
ATOM    102  C   UNL     1      -2.325  -4.260 -25.148  1.00  0.00     0.200 A 
ATOM    103  F   UNL     1      -0.891  -2.958 -26.500  1.00  0.00    -0.200 F 
ATOM    104  F   UNL     1      -2.064  -5.344 -25.890  1.00  0.00    -0.200 F 
ENDBRANCH  71  94
ENDBRANCH  45  46
ENDBRANCH  37  40
ENDBRANCH  35  36
ENDBRANCH  34  35
ENDBRANCH  33  34
ENDBRANCH  32  33
ENDBRANCH  30  32
ENDBRANCH  26  28
ENDBRANCH   4  26
TORSDOF 21
