REMARK SMILES O=C(NCCCCNC(=O)c1nnn(-c2ccccc2C(F)(F)F)c1-c1cccc(Cl)c1)c1ccc(-c2c3nc(c(-c4c(F)c(F)c(F)c(F)c4F)c4ccc([nH]4)c(-c4c(F)c(F)c(F)c(F)c4F)c4nc(c(-c5c(F)c(F)c(F)c(F)c5F)c5ccc2[nH]5)C=C4)C=C3)cc1
REMARK SMILES IDX 5 1 4 2 3 3 1 4 2 5 33 7 34 8 95 9 35 10 94 11 36 12 37 13
REMARK SMILES IDX 38 14 88 15 39 16 93 17 87 18 89 19 40 20 92 21 86 22 85 23
REMARK SMILES IDX 41 25 73 26 53 27 72 28 54 29 57 30 71 31 90 32 55 33 56 34
REMARK SMILES IDX 70 36 91 37 58 38 42 39 43 40 51 41 44 42 45 43 49 44 52 45
REMARK SMILES IDX 46 46 47 47 50 48 48 49 74 50 75 51 83 52 76 53 77 54 81 55
REMARK SMILES IDX 84 56 78 57 79 58 82 59 80 60 59 61 60 62 68 63 61 64 62 65
REMARK SMILES IDX 66 66 69 67 63 68 64 69 67 70 65 71 6 72 7 73 8 74 9 75
REMARK SMILES IDX 10 77 11 78 12 79 25 80 13 81 14 82 26 83 27 84 32 85 28 86
REMARK SMILES IDX 30 87 29 88 31 89 15 90 16 91 20 92 17 93 19 94 18 95 21 96
REMARK SMILES IDX 22 97 23 98 24 99
REMARK H PARENT 3 6 89 24 57 35 8 76
REMARK Flexibility Score: inf
ROOT
ATOM      1  C   UNL     1       5.071  -1.640   1.349  1.00  0.00     0.023 C 
ENDROOT
BRANCH   1   2
ATOM      2  C   UNL     1       4.769  -1.006  -0.013  1.00  0.00     0.116 C 
BRANCH   2   3
ATOM      3  N   UNL     1       3.370  -0.953  -0.394  1.00  0.00    -0.352 N 
ATOM      4  O   UNL     1       1.265  -0.318  -0.674  1.00  0.00    -0.269 OA
ATOM      5  C   UNL     1       2.298  -0.192  -0.013  1.00  0.00     0.251 C 
ATOM      6  H   UNL     1       3.139  -1.615  -1.085  1.00  0.00     0.163 HD
BRANCH   5   7
ATOM      7  C   UNL     1       2.281   0.713   1.168  1.00  0.00     0.039 A 
ATOM      8  C   UNL     1       3.414   1.209   1.810  1.00  0.00     0.014 A 
ATOM      9  C   UNL     1       1.015   1.087   1.658  1.00  0.00     0.014 A 
ATOM     10  C   UNL     1       3.297   1.963   2.972  1.00  0.00     0.010 A 
ATOM     11  C   UNL     1       0.890   1.885   2.793  1.00  0.00     0.010 A 
ATOM     12  C   UNL     1       2.036   2.300   3.468  1.00  0.00    -0.014 A 
BRANCH  12  13
ATOM     13  C   UNL     1       1.986   3.258   4.574  1.00  0.00     0.031 A 
ATOM     14  C   UNL     1       2.538   4.607   4.259  1.00  0.00     0.074 A 
ATOM     15  C   UNL     1       1.359   3.041   5.746  1.00  0.00     0.049 A 
ATOM     16  N   UNL     1       3.445   5.272   4.900  1.00  0.00    -0.248 NA
ATOM     17  C   UNL     1       2.056   5.274   3.038  1.00  0.00     0.031 C 
ATOM     18  C   UNL     1       0.518   1.895   6.087  1.00  0.00     0.029 A 
ATOM     19  N   UNL     1       1.243   3.860   6.840  1.00  0.00    -0.354 N 
ATOM     20  C   UNL     1       3.528   6.511   4.266  1.00  0.00     0.074 A 
ATOM     21  C   UNL     1       2.744   6.415   3.064  1.00  0.00     0.031 C 
ATOM     22  C   UNL     1      -0.193   2.186   7.197  1.00  0.00     0.029 A 
ATOM     23  C   UNL     1       0.225   3.485   7.704  1.00  0.00     0.049 A 
ATOM     24  H   UNL     1       1.826   4.638   6.997  1.00  0.00     0.167 HD
ATOM     25  C   UNL     1       4.031   7.598   4.908  1.00  0.00     0.037 A 
ATOM     26  C   UNL     1      -0.297   4.205   8.725  1.00  0.00     0.037 A 
ATOM     27  C   UNL     1       4.831   7.225   6.043  1.00  0.00     0.049 A 
ATOM     28  C   UNL     1       0.685   5.232   9.142  1.00  0.00     0.074 A 
ATOM     29  C   UNL     1       6.058   6.640   6.263  1.00  0.00     0.029 A 
ATOM     30  N   UNL     1       4.176   7.245   7.241  1.00  0.00    -0.354 N 
ATOM     31  N   UNL     1       1.800   4.974   9.764  1.00  0.00    -0.248 NA
ATOM     32  C   UNL     1       0.542   6.603   8.664  1.00  0.00     0.031 C 
ATOM     33  C   UNL     1       6.004   6.093   7.581  1.00  0.00     0.029 A 
ATOM     34  C   UNL     1       4.744   6.359   8.112  1.00  0.00     0.049 A 
ATOM     35  H   UNL     1       3.402   7.817   7.448  1.00  0.00     0.167 HD
ATOM     36  C   UNL     1       2.649   5.992   9.380  1.00  0.00     0.074 A 
ATOM     37  C   UNL     1       1.779   7.050   8.894  1.00  0.00     0.031 C 
ATOM     38  C   UNL     1       3.972   5.742   9.166  1.00  0.00     0.037 A 
BRANCH  25  39
ATOM     39  C   UNL     1       3.415   8.985   4.830  1.00  0.00     0.064 A 
ATOM     40  C   UNL     1       4.054  10.046   5.508  1.00  0.00     0.173 A 
ATOM     41  C   UNL     1       2.074   9.225   4.457  1.00  0.00     0.173 A 
ATOM     42  F   UNL     1       5.326   9.928   5.918  1.00  0.00    -0.203 F 
ATOM     43  C   UNL     1       3.367  11.205   5.883  1.00  0.00     0.198 A 
ATOM     44  C   UNL     1       1.409  10.405   4.788  1.00  0.00     0.198 A 
ATOM     45  F   UNL     1       1.318   8.290   3.871  1.00  0.00    -0.203 F 
ATOM     46  F   UNL     1       3.972  12.117   6.656  1.00  0.00    -0.200 F 
ATOM     47  C   UNL     1       2.041  11.377   5.534  1.00  0.00     0.200 A 
ATOM     48  F   UNL     1       0.117  10.547   4.456  1.00  0.00    -0.200 F 
ATOM     49  F   UNL     1       1.357  12.448   5.959  1.00  0.00    -0.200 F 
ENDBRANCH  25  39
BRANCH  26  50
ATOM     50  C   UNL     1      -1.669   4.164   9.286  1.00  0.00     0.064 A 
ATOM     51  C   UNL     1      -1.955   4.714  10.547  1.00  0.00     0.173 A 
ATOM     52  C   UNL     1      -2.779   3.806   8.496  1.00  0.00     0.173 A 
ATOM     53  F   UNL     1      -0.962   5.128  11.347  1.00  0.00    -0.203 F 
ATOM     54  C   UNL     1      -3.268   4.913  10.981  1.00  0.00     0.198 A 
ATOM     55  C   UNL     1      -4.090   3.986   8.939  1.00  0.00     0.198 A 
ATOM     56  F   UNL     1      -2.620   3.359   7.242  1.00  0.00    -0.203 F 
ATOM     57  F   UNL     1      -3.499   5.505  12.161  1.00  0.00    -0.200 F 
ATOM     58  C   UNL     1      -4.335   4.554  10.174  1.00  0.00     0.200 A 
ATOM     59  F   UNL     1      -5.112   3.661   8.134  1.00  0.00    -0.200 F 
ATOM     60  F   UNL     1      -5.593   4.792  10.568  1.00  0.00    -0.200 F 
ENDBRANCH  26  50
BRANCH  38  61
ATOM     61  C   UNL     1       4.580   4.603   9.920  1.00  0.00     0.064 A 
ATOM     62  C   UNL     1       4.204   3.260   9.768  1.00  0.00     0.173 A 
ATOM     63  C   UNL     1       5.626   4.892  10.809  1.00  0.00     0.173 A 
ATOM     64  F   UNL     1       3.282   2.897   8.866  1.00  0.00    -0.203 F 
ATOM     65  C   UNL     1       4.805   2.259  10.529  1.00  0.00     0.198 A 
ATOM     66  C   UNL     1       6.253   3.886  11.534  1.00  0.00     0.198 A 
ATOM     67  F   UNL     1       6.059   6.155  10.953  1.00  0.00    -0.203 F 
ATOM     68  F   UNL     1       4.404   0.986  10.400  1.00  0.00    -0.200 F 
ATOM     69  C   UNL     1       5.830   2.573  11.409  1.00  0.00     0.200 A 
ATOM     70  F   UNL     1       7.274   4.188  12.348  1.00  0.00    -0.200 F 
ATOM     71  F   UNL     1       6.424   1.606  12.122  1.00  0.00    -0.200 F 
ENDBRANCH  38  61
ENDBRANCH  12  13
ENDBRANCH   5   7
ENDBRANCH   2   3
ENDBRANCH   1   2
BRANCH   1  72
ATOM     72  C   UNL     1       4.512  -3.044   1.572  1.00  0.00     0.023 C 
BRANCH  72  73
ATOM     73  C   UNL     1       4.868  -4.059   0.498  1.00  0.00     0.116 C 
BRANCH  73  74
ATOM     74  N   UNL     1       6.290  -4.311   0.393  1.00  0.00    -0.351 N 
ATOM     75  C   UNL     1       6.937  -5.500   0.116  1.00  0.00     0.274 C 
ATOM     76  H   UNL     1       6.874  -3.531   0.538  1.00  0.00     0.163 HD
ATOM     77  O   UNL     1       8.155  -5.517   0.129  1.00  0.00    -0.267 OA
BRANCH  75  78
ATOM     78  C   UNL     1       6.141  -6.688  -0.168  1.00  0.00     0.178 A 
ATOM     79  N   UNL     1       6.251  -7.818   0.603  1.00  0.00    -0.124 NA
ATOM     80  C   UNL     1       5.167  -6.888  -1.140  1.00  0.00     0.108 A 
ATOM     81  N   UNL     1       5.343  -8.691   0.194  1.00  0.00    -0.061 NA
ATOM     82  N   UNL     1       4.785  -8.210  -0.937  1.00  0.00    -0.211 N 
BRANCH  80  83
ATOM     83  C   UNL     1       4.543  -5.966  -2.088  1.00  0.00     0.004 A 
ATOM     84  C   UNL     1       3.162  -5.711  -2.010  1.00  0.00     0.010 A 
ATOM     85  C   UNL     1       5.311  -5.282  -3.035  1.00  0.00     0.031 A 
ATOM     86  C   UNL     1       2.557  -4.794  -2.870  1.00  0.00     0.002 A 
ATOM     87  C   UNL     1       4.696  -4.376  -3.901  1.00  0.00     0.041 A 
ATOM     88  C   UNL     1       3.325  -4.128  -3.821  1.00  0.00     0.020 A 
ATOM     89  Cl  UNL     1       5.639  -3.548  -5.078  1.00  0.00    -0.084 Cl
ENDBRANCH  80  83
BRANCH  82  90
ATOM     90  C   UNL     1       3.791  -8.939  -1.629  1.00  0.00     0.079 A 
ATOM     91  C   UNL     1       2.721  -9.437  -0.867  1.00  0.00     0.029 A 
ATOM     92  C   UNL     1       3.799  -9.069  -3.032  1.00  0.00     0.081 A 
ATOM     93  C   UNL     1       1.603  -9.970  -1.507  1.00  0.00     0.002 A 
ATOM     94  C   UNL     1       2.653  -9.602  -3.651  1.00  0.00     0.015 A 
ATOM     95  C   UNL     1       1.560 -10.032  -2.897  1.00  0.00     0.001 A 
BRANCH  92  96
ATOM     96  C   UNL     1       4.990  -8.767  -3.915  1.00  0.00     0.418 C 
ATOM     97  F   UNL     1       5.292  -9.812  -4.737  1.00  0.00    -0.166 F 
ATOM     98  F   UNL     1       4.769  -7.708  -4.741  1.00  0.00    -0.166 F 
ATOM     99  F   UNL     1       6.141  -8.494  -3.247  1.00  0.00    -0.166 F 
ENDBRANCH  92  96
ENDBRANCH  82  90
ENDBRANCH  75  78
ENDBRANCH  73  74
ENDBRANCH  72  73
ENDBRANCH   1  72
TORSDOF 14
