REMARK SMILES COc1ccc([C@H](C(=O)NCCCCNC(=O)c2ccc(-c3c4nc(c(-c5c(F)c(F)c(F)c(F)c5F)c5ccc([nH]5)c(-c5c(F)c(F)c(F)c(F)c5F)c5nc(c(-c6c(F)c(F)c(F)c(F)c6F)c6ccc3[nH]6)C=C5)C=C4)cc2)[N@@H+]2CCC[N@H+](Cc3ccccn3)CC2)cn1
REMARK SMILES IDX 8 1 9 2 10 3 7 5 6 6 3 7 4 8 96 9 5 10 95 11 2 12 1 13 81 14
REMARK SMILES IDX 82 16 94 18 93 19 85 20 84 22 83 23 86 25 87 26 88 27 92 28
REMARK SMILES IDX 89 29 91 30 90 31 11 32 12 33 13 34 14 35 15 36 16 37 17 39
REMARK SMILES IDX 18 40 19 41 80 42 20 43 79 44 21 45 22 46 23 47 73 48 24 49
REMARK SMILES IDX 78 50 72 51 74 52 25 53 77 54 71 55 70 56 26 58 58 59 38 60
REMARK SMILES IDX 57 61 39 62 42 63 56 64 75 65 40 66 41 67 55 69 76 70 43 71
REMARK SMILES IDX 27 72 28 73 36 74 29 75 30 76 34 77 37 78 31 79 32 80 35 81
REMARK SMILES IDX 33 82 59 83 60 84 68 85 61 86 62 87 66 88 69 89 63 90 64 91
REMARK SMILES IDX 67 92 65 93 44 94 45 95 53 96 46 97 47 98 51 99 54 100
REMARK SMILES IDX 48 101 49 102 52 103 50 104
REMARK H PARENT 10 4 81 15 85 21 15 38 74 57 42 68
REMARK Flexibility Score: 80.00
ROOT
ATOM      1  C   UNL     1       2.334   5.193   1.997  1.00  0.00     0.283 C 
ATOM      2  O   UNL     1       3.097   4.234   2.182  1.00  0.00    -0.268 OA
ATOM      3  N   UNL     1       1.429   5.043   0.985  1.00  0.00    -0.351 N 
ATOM      4  H   UNL     1       1.360   4.123   0.641  1.00  0.00     0.163 HD
ENDROOT
BRANCH   1   5
ATOM      5  C   UNL     1       2.390   6.434   2.947  1.00  0.00     0.307 C 
BRANCH   5   6
ATOM      6  C   UNL     1       2.308   7.808   2.299  1.00  0.00     0.038 A 
ATOM      7  C   UNL     1       1.938  10.146   0.925  1.00  0.00     0.212 A 
ATOM      8  C   UNL     1       1.403  10.045   2.193  1.00  0.00     0.069 A 
ATOM      9  N   UNL     1       2.723   9.209   0.356  1.00  0.00    -0.222 NA
ATOM     10  C   UNL     1       1.619   8.870   2.898  1.00  0.00     0.017 A 
ATOM     11  C   UNL     1       2.924   8.079   1.077  1.00  0.00     0.125 A 
BRANCH   7  12
ATOM     12  O   UNL     1       1.466  11.170   0.137  1.00  0.00    -0.481 OA
ATOM     13  C   UNL     1       2.531  11.996  -0.304  1.00  0.00     0.280 C 
ENDBRANCH   7  12
ENDBRANCH   5   6
BRANCH   5  14
ATOM     14  N   UNL     1       1.463   6.279   4.130  1.00  0.00    -0.316 N 
ATOM     15  H   UNL     1       1.382   7.189   4.583  1.00  0.00     0.349 HD
BRANCH  14  16
ATOM     16  C   UNL     1       2.030   5.345   5.109  1.00  0.00     0.269 CG0
ATOM     17  G   UNL     1       1.502   5.538   6.531  1.00  0.00     0.000 G0
ENDBRANCH  14  16
BRANCH  14  18
ATOM     18  C   UNL     1       0.088   5.918   3.730  1.00  0.00     0.325 C 
BRANCH  18  19
ATOM     19  C   UNL     1      -0.986   5.901   4.833  1.00  0.00     0.324 C 
BRANCH  19  20
ATOM     20  N   UNL     1      -0.905   4.876   5.861  1.00  0.00    -0.325 N 
ATOM     21  H   UNL     1      -1.768   5.057   6.373  1.00  0.00     0.348 HD
BRANCH  20  22
ATOM     22  C   UNL     1       0.081   5.096   6.894  1.00  0.00     0.268 C 
BRANCH  22  23
ATOM     23  C   UNL     1       1.502   5.538   6.531  1.00  0.00     0.123 CG0
ATOM     24  G   UNL     1       2.030   5.345   5.109  1.00  0.00     0.000 G0
ENDBRANCH  22  23
ENDBRANCH  20  22
BRANCH  20  25
ATOM     25  C   UNL     1      -1.220   3.490   5.491  1.00  0.00     0.319 C 
BRANCH  25  26
ATOM     26  C   UNL     1      -0.130   2.651   4.848  1.00  0.00     0.095 A 
ATOM     27  C   UNL     1       0.884   2.088   5.627  1.00  0.00     0.030 A 
ATOM     28  N   UNL     1      -0.158   2.516   3.496  1.00  0.00    -0.255 NA
ATOM     29  C   UNL     1       1.947   1.446   4.995  1.00  0.00     0.004 A 
ATOM     30  C   UNL     1       0.881   1.875   2.915  1.00  0.00     0.111 A 
ATOM     31  C   UNL     1       1.954   1.348   3.611  1.00  0.00     0.020 A 
ENDBRANCH  25  26
ENDBRANCH  20  25
ENDBRANCH  19  20
ENDBRANCH  18  19
ENDBRANCH  14  18
ENDBRANCH   5  14
ENDBRANCH   1   5
BRANCH   3  32
ATOM     32  C   UNL     1       0.550   5.992   0.325  1.00  0.00     0.116 C 
BRANCH  32  33
ATOM     33  C   UNL     1       1.111   6.338  -1.056  1.00  0.00     0.023 C 
BRANCH  33  34
ATOM     34  C   UNL     1       0.741   5.330  -2.142  1.00  0.00     0.023 C 
BRANCH  34  35
ATOM     35  C   UNL     1      -0.740   5.304  -2.498  1.00  0.00     0.116 C 
BRANCH  35  36
ATOM     36  N   UNL     1      -1.249   6.600  -2.928  1.00  0.00    -0.352 N 
ATOM     37  C   UNL     1      -1.965   6.924  -4.054  1.00  0.00     0.251 C 
ATOM     38  H   UNL     1      -1.050   7.352  -2.324  1.00  0.00     0.163 HD
ATOM     39  O   UNL     1      -2.212   8.093  -4.330  1.00  0.00    -0.269 OA
BRANCH  37  40
ATOM     40  C   UNL     1      -2.405   5.844  -4.955  1.00  0.00     0.039 A 
ATOM     41  C   UNL     1      -2.119   5.943  -6.319  1.00  0.00     0.014 A 
ATOM     42  C   UNL     1      -3.038   4.711  -4.439  1.00  0.00     0.014 A 
ATOM     43  C   UNL     1      -2.383   4.858  -7.154  1.00  0.00     0.010 A 
ATOM     44  C   UNL     1      -3.227   3.604  -5.256  1.00  0.00     0.010 A 
ATOM     45  C   UNL     1      -2.889   3.664  -6.617  1.00  0.00    -0.014 A 
BRANCH  45  46
ATOM     46  C   UNL     1      -3.052   2.446  -7.447  1.00  0.00     0.031 A 
ATOM     47  C   UNL     1      -4.418   1.861  -7.653  1.00  0.00     0.074 A 
ATOM     48  C   UNL     1      -1.960   1.817  -7.922  1.00  0.00     0.049 A 
ATOM     49  N   UNL     1      -4.758   0.732  -8.220  1.00  0.00    -0.248 NA
ATOM     50  C   UNL     1      -5.551   2.631  -7.118  1.00  0.00     0.031 C 
ATOM     51  C   UNL     1      -0.577   2.265  -7.742  1.00  0.00     0.029 A 
ATOM     52  N   UNL     1      -1.839   0.650  -8.635  1.00  0.00    -0.354 N 
ATOM     53  C   UNL     1      -6.137   0.647  -8.090  1.00  0.00     0.074 A 
ATOM     54  C   UNL     1      -6.567   1.813  -7.349  1.00  0.00     0.031 C 
ATOM     55  C   UNL     1       0.250   1.393  -8.340  1.00  0.00     0.029 A 
ATOM     56  C   UNL     1      -0.538   0.303  -8.906  1.00  0.00     0.049 A 
ATOM     57  H   UNL     1      -2.612   0.113  -8.925  1.00  0.00     0.167 HD
ATOM     58  C   UNL     1      -6.969  -0.308  -8.566  1.00  0.00     0.037 A 
ATOM     59  C   UNL     1      -0.038  -0.783  -9.525  1.00  0.00     0.037 A 
ATOM     60  C   UNL     1      -6.536  -1.445  -9.333  1.00  0.00     0.049 A 
ATOM     61  C   UNL     1      -0.984  -1.835 -10.034  1.00  0.00     0.074 A 
ATOM     62  C   UNL     1      -7.307  -2.422  -9.938  1.00  0.00     0.029 A 
ATOM     63  N   UNL     1      -5.211  -1.758  -9.598  1.00  0.00    -0.354 N 
ATOM     64  N   UNL     1      -2.293  -1.870  -9.970  1.00  0.00    -0.248 NA
ATOM     65  C   UNL     1      -0.385  -3.001 -10.697  1.00  0.00     0.031 C 
ATOM     66  C   UNL     1      -6.446  -3.351 -10.531  1.00  0.00     0.029 A 
ATOM     67  C   UNL     1      -5.140  -2.931 -10.331  1.00  0.00     0.049 A 
ATOM     68  H   UNL     1      -4.436  -1.225  -9.307  1.00  0.00     0.167 HD
ATOM     69  C   UNL     1      -2.675  -3.050 -10.592  1.00  0.00     0.074 A 
ATOM     70  C   UNL     1      -1.460  -3.693 -11.047  1.00  0.00     0.031 C 
ATOM     71  C   UNL     1      -3.919  -3.558 -10.766  1.00  0.00     0.037 A 
BRANCH  58  72
ATOM     72  C   UNL     1      -8.433  -0.158  -8.276  1.00  0.00     0.064 A 
ATOM     73  C   UNL     1      -9.205   0.841  -8.888  1.00  0.00     0.173 A 
ATOM     74  C   UNL     1      -9.079  -1.042  -7.399  1.00  0.00     0.173 A 
ATOM     75  F   UNL     1      -8.633   1.720  -9.724  1.00  0.00    -0.203 F 
ATOM     76  C   UNL     1     -10.564   0.967  -8.610  1.00  0.00     0.198 A 
ATOM     77  C   UNL     1     -10.443  -0.931  -7.146  1.00  0.00     0.198 A 
ATOM     78  F   UNL     1      -8.387  -2.018  -6.791  1.00  0.00    -0.203 F 
ATOM     79  F   UNL     1     -11.271   1.960  -9.169  1.00  0.00    -0.200 F 
ATOM     80  C   UNL     1     -11.183   0.078  -7.745  1.00  0.00     0.200 A 
ATOM     81  F   UNL     1     -11.043  -1.798  -6.318  1.00  0.00    -0.200 F 
ATOM     82  F   UNL     1     -12.492   0.197  -7.483  1.00  0.00    -0.200 F 
ENDBRANCH  58  72
BRANCH  59  83
ATOM     83  C   UNL     1       1.431  -0.928  -9.700  1.00  0.00     0.064 A 
ATOM     84  C   UNL     1       2.015  -0.817 -10.969  1.00  0.00     0.173 A 
ATOM     85  C   UNL     1       2.277  -1.179  -8.611  1.00  0.00     0.173 A 
ATOM     86  F   UNL     1       1.244  -0.600 -12.044  1.00  0.00    -0.203 F 
ATOM     87  C   UNL     1       3.389  -0.966 -11.144  1.00  0.00     0.198 A 
ATOM     88  C   UNL     1       3.654  -1.302  -8.783  1.00  0.00     0.198 A 
ATOM     89  F   UNL     1       1.767  -1.291  -7.375  1.00  0.00    -0.203 F 
ATOM     90  F   UNL     1       3.917  -0.896 -12.373  1.00  0.00    -0.200 F 
ATOM     91  C   UNL     1       4.208  -1.203 -10.050  1.00  0.00     0.200 A 
ATOM     92  F   UNL     1       4.444  -1.519  -7.722  1.00  0.00    -0.200 F 
ATOM     93  F   UNL     1       5.530  -1.343 -10.218  1.00  0.00    -0.200 F 
ENDBRANCH  59  83
BRANCH  71  94
ATOM     94  C   UNL     1      -4.027  -4.872 -11.479  1.00  0.00     0.064 A 
ATOM     95  C   UNL     1      -3.664  -6.073 -10.853  1.00  0.00     0.173 A 
ATOM     96  C   UNL     1      -4.545  -4.938 -12.781  1.00  0.00     0.173 A 
ATOM     97  F   UNL     1      -3.148  -6.059  -9.614  1.00  0.00    -0.203 F 
ATOM     98  C   UNL     1      -3.801  -7.292 -11.511  1.00  0.00     0.198 A 
ATOM     99  C   UNL     1      -4.705  -6.160 -13.427  1.00  0.00     0.198 A 
ATOM    100  F   UNL     1      -4.910  -3.817 -13.421  1.00  0.00    -0.203 F 
ATOM    101  F   UNL     1      -3.413  -8.424 -10.908  1.00  0.00    -0.200 F 
ATOM    102  C   UNL     1      -4.329  -7.335 -12.793  1.00  0.00     0.200 A 
ATOM    103  F   UNL     1      -5.226  -6.202 -14.661  1.00  0.00    -0.200 F 
ATOM    104  F   UNL     1      -4.469  -8.511 -13.421  1.00  0.00    -0.200 F 
ENDBRANCH  71  94
ENDBRANCH  45  46
ENDBRANCH  37  40
ENDBRANCH  35  36
ENDBRANCH  34  35
ENDBRANCH  33  34
ENDBRANCH  32  33
ENDBRANCH   3  32
TORSDOF 16
