REMARK SMILES CC(C)(C)C[N@H+]1[C@@H](C(=O)NCCCCNC(=O)c2ccc(-c3c4nc(c(-c5c(F)c(F)c(F)c(F)c5F)c5ccc([nH]5)c(-c5c(F)c(F)c(F)c(F)c5F)c5nc(c(-c6c(F)c(F)c(F)c(F)c6F)c6ccc3[nH]6)C=C5)C=C4)cc2)CC[C@H]2CCCC[C@@H]21
REMARK SMILES IDX 12 1 11 2 10 3 8 4 9 5 7 7 6 8 88 9 81 11 83 12 87 13 82 14
REMARK SMILES IDX 84 15 86 16 85 17 5 18 2 19 1 20 3 21 4 22 13 23 14 24 15 25
REMARK SMILES IDX 16 26 17 28 18 29 19 30 80 31 20 32 79 33 21 34 22 35 23 36
REMARK SMILES IDX 73 37 24 38 78 39 72 40 74 41 25 42 77 43 71 44 70 45 26 47
REMARK SMILES IDX 58 48 38 49 57 50 39 51 42 52 56 53 75 54 40 55 41 56 55 58
REMARK SMILES IDX 76 59 43 60 27 61 28 62 36 63 29 64 30 65 34 66 37 67 31 68
REMARK SMILES IDX 32 69 35 70 33 71 59 72 60 73 68 74 61 75 62 76 66 77 69 78
REMARK SMILES IDX 63 79 64 80 67 81 65 82 44 83 45 84 53 85 46 86 47 87 51 88
REMARK SMILES IDX 54 89 48 90 49 91 52 92 50 93
REMARK H PARENT 10 6 6 10 15 27 74 46 42 57
REMARK Flexibility Score: inf
ROOT
ATOM      1  C   UNL     1       0.677   1.862  -0.365  1.00  0.00     0.023 C 
ENDROOT
BRANCH   1   2
ATOM      2  C   UNL     1       0.879   0.662  -1.324  1.00  0.00     0.116 C 
BRANCH   2   3
ATOM      3  N   UNL     1       2.146  -0.010  -1.107  1.00  0.00    -0.351 N 
ATOM      4  C   UNL     1       2.608  -1.257  -0.884  1.00  0.00     0.278 C 
ATOM      5  O   UNL     1       3.848  -1.239  -0.761  1.00  0.00    -0.268 OA
ATOM      6  H   UNL     1       2.888   0.636  -1.128  1.00  0.00     0.163 HD
BRANCH   4   7
ATOM      7  C   UNL     1       1.845  -2.638  -0.894  1.00  0.00     0.274 C 
ATOM      8  N   UNL     1       0.737  -2.849   0.104  1.00  0.00    -0.322 N 
ATOM      9  C   UNL     1       0.190  -4.252   0.046  1.00  0.00     0.187 C 
ATOM     10  H   UNL     1       0.010  -2.184  -0.158  1.00  0.00     0.349 HD
ATOM     11  C   UNL     1       2.965  -3.723  -0.775  1.00  0.00     0.076 C 
ATOM     12  C   UNL     1       1.071  -5.301  -0.676  1.00  0.00     0.048 C 
ATOM     13  C   UNL     1      -1.217  -4.379  -0.573  1.00  0.00     0.065 C 
ATOM     14  C   UNL     1       2.522  -5.099  -0.312  1.00  0.00     0.016 C 
ATOM     15  C   UNL     1       0.596  -6.714  -0.318  1.00  0.00     0.010 C 
ATOM     16  C   UNL     1      -1.778  -5.787  -0.283  1.00  0.00     0.006 C 
ATOM     17  C   UNL     1      -0.856  -6.918  -0.745  1.00  0.00     0.001 C 
BRANCH   8  18
ATOM     18  C   UNL     1       1.169  -2.574   1.506  1.00  0.00     0.269 C 
BRANCH  18  19
ATOM     19  C   UNL     1       0.126  -1.764   2.346  1.00  0.00     0.011 C 
ATOM     20  C   UNL     1      -0.180  -0.493   1.586  1.00  0.00     0.017 C 
ATOM     21  C   UNL     1       0.770  -1.354   3.684  1.00  0.00     0.017 C 
ATOM     22  C   UNL     1      -1.205  -2.464   2.623  1.00  0.00     0.017 C 
ENDBRANCH  18  19
ENDBRANCH   8  18
ENDBRANCH   4   7
ENDBRANCH   2   3
ENDBRANCH   1   2
BRANCH   1  23
ATOM     23  C   UNL     1       1.766   2.932  -0.336  1.00  0.00     0.023 C 
BRANCH  23  24
ATOM     24  C   UNL     1       1.442   4.121  -1.213  1.00  0.00     0.116 C 
BRANCH  24  25
ATOM     25  N   UNL     1       0.267   4.858  -0.745  1.00  0.00    -0.352 N 
ATOM     26  C   UNL     1       0.150   6.122  -0.217  1.00  0.00     0.251 C 
ATOM     27  H   UNL     1      -0.582   4.366  -0.821  1.00  0.00     0.163 HD
ATOM     28  O   UNL     1      -0.911   6.495   0.276  1.00  0.00    -0.269 OA
BRANCH  26  29
ATOM     29  C   UNL     1       1.320   7.021  -0.217  1.00  0.00     0.039 A 
ATOM     30  C   UNL     1       1.608   7.794   0.911  1.00  0.00     0.014 A 
ATOM     31  C   UNL     1       2.166   7.048  -1.322  1.00  0.00     0.014 A 
ATOM     32  C   UNL     1       2.808   8.507   0.966  1.00  0.00     0.010 A 
ATOM     33  C   UNL     1       3.417   7.626  -1.205  1.00  0.00     0.010 A 
ATOM     34  C   UNL     1       3.748   8.377  -0.068  1.00  0.00    -0.014 A 
BRANCH  34  35
ATOM     35  C   UNL     1       5.076   9.039  -0.040  1.00  0.00     0.031 A 
ATOM     36  C   UNL     1       5.461   9.941  -1.182  1.00  0.00     0.074 A 
ATOM     37  C   UNL     1       5.972   8.728   0.917  1.00  0.00     0.049 A 
ATOM     38  N   UNL     1       6.632  10.428  -1.501  1.00  0.00    -0.248 NA
ATOM     39  C   UNL     1       4.391  10.284  -2.136  1.00  0.00     0.031 C 
ATOM     40  C   UNL     1       5.741   7.816   2.039  1.00  0.00     0.029 A 
ATOM     41  N   UNL     1       7.273   9.132   1.083  1.00  0.00    -0.354 N 
ATOM     42  C   UNL     1       6.447  11.075  -2.716  1.00  0.00     0.074 A 
ATOM     43  C   UNL     1       5.074  10.863  -3.110  1.00  0.00     0.031 C 
ATOM     44  C   UNL     1       6.851   7.754   2.793  1.00  0.00     0.029 A 
ATOM     45  C   UNL     1       7.886   8.581   2.182  1.00  0.00     0.049 A 
ATOM     46  H   UNL     1       7.725   9.757   0.471  1.00  0.00     0.167 HD
ATOM     47  C   UNL     1       7.336  11.811  -3.422  1.00  0.00     0.037 A 
ATOM     48  C   UNL     1       9.146   8.724   2.634  1.00  0.00     0.037 A 
ATOM     49  C   UNL     1       8.672  12.088  -2.975  1.00  0.00     0.049 A 
ATOM     50  C   UNL     1      10.098   9.601   1.866  1.00  0.00     0.074 A 
ATOM     51  C   UNL     1       9.629  12.898  -3.558  1.00  0.00     0.029 A 
ATOM     52  N   UNL     1       9.231  11.575  -1.813  1.00  0.00    -0.354 N 
ATOM     53  N   UNL     1       9.900  10.255   0.747  1.00  0.00    -0.248 NA
ATOM     54  C   UNL     1      11.447   9.763   2.425  1.00  0.00     0.031 C 
ATOM     55  C   UNL     1      10.777  12.856  -2.762  1.00  0.00     0.029 A 
ATOM     56  C   UNL     1      10.522  12.049  -1.663  1.00  0.00     0.049 A 
ATOM     57  H   UNL     1       8.777  10.964  -1.189  1.00  0.00     0.167 HD
ATOM     58  C   UNL     1      11.084  10.928   0.483  1.00  0.00     0.074 A 
ATOM     59  C   UNL     1      11.994  10.611   1.565  1.00  0.00     0.031 C 
ATOM     60  C   UNL     1      11.394  11.734  -0.561  1.00  0.00     0.037 A 
BRANCH  47  61
ATOM     61  C   UNL     1       6.877  12.386  -4.731  1.00  0.00     0.064 A 
ATOM     62  C   UNL     1       5.905  13.398  -4.792  1.00  0.00     0.173 A 
ATOM     63  C   UNL     1       7.419  11.926  -5.940  1.00  0.00     0.173 A 
ATOM     64  F   UNL     1       5.343  13.862  -3.665  1.00  0.00    -0.203 F 
ATOM     65  C   UNL     1       5.464  13.897  -6.014  1.00  0.00     0.198 A 
ATOM     66  C   UNL     1       7.001  12.453  -7.160  1.00  0.00     0.198 A 
ATOM     67  F   UNL     1       8.353  10.964  -5.941  1.00  0.00    -0.203 F 
ATOM     68  F   UNL     1       4.488  14.815  -6.047  1.00  0.00    -0.200 F 
ATOM     69  C   UNL     1       6.017  13.430  -7.196  1.00  0.00     0.200 A 
ATOM     70  F   UNL     1       7.544  12.009  -8.302  1.00  0.00    -0.200 F 
ATOM     71  F   UNL     1       5.593  13.914  -8.372  1.00  0.00    -0.200 F 
ENDBRANCH  47  61
BRANCH  48  72
ATOM     72  C   UNL     1       9.566   8.059   3.895  1.00  0.00     0.064 A 
ATOM     73  C   UNL     1       9.801   8.812   5.054  1.00  0.00     0.173 A 
ATOM     74  C   UNL     1       9.739   6.670   3.974  1.00  0.00     0.173 A 
ATOM     75  F   UNL     1       9.666  10.146   5.023  1.00  0.00    -0.203 F 
ATOM     76  C   UNL     1      10.213   8.205   6.238  1.00  0.00     0.198 A 
ATOM     77  C   UNL     1      10.127   6.060   5.167  1.00  0.00     0.198 A 
ATOM     78  F   UNL     1       9.520   5.903   2.897  1.00  0.00    -0.203 F 
ATOM     79  F   UNL     1      10.472   8.955   7.318  1.00  0.00    -0.200 F 
ATOM     80  C   UNL     1      10.371   6.829   6.295  1.00  0.00     0.200 A 
ATOM     81  F   UNL     1      10.265   4.728   5.223  1.00  0.00    -0.200 F 
ATOM     82  F   UNL     1      10.765   6.244   7.435  1.00  0.00    -0.200 F 
ENDBRANCH  48  72
BRANCH  60  83
ATOM     83  C   UNL     1      12.752  12.367  -0.562  1.00  0.00     0.064 A 
ATOM     84  C   UNL     1      13.904  11.630  -0.870  1.00  0.00     0.173 A 
ATOM     85  C   UNL     1      12.890  13.742  -0.321  1.00  0.00     0.173 A 
ATOM     86  F   UNL     1      13.821  10.310  -1.094  1.00  0.00    -0.203 F 
ATOM     87  C   UNL     1      15.151  12.246  -0.921  1.00  0.00     0.198 A 
ATOM     88  C   UNL     1      14.134  14.359  -0.400  1.00  0.00     0.198 A 
ATOM     89  F   UNL     1      11.815  14.489  -0.031  1.00  0.00    -0.203 F 
ATOM     90  F   UNL     1      16.245  11.518  -1.185  1.00  0.00    -0.200 F 
ATOM     91  C   UNL     1      15.264  13.611  -0.696  1.00  0.00     0.200 A 
ATOM     92  F   UNL     1      14.240  15.680  -0.196  1.00  0.00    -0.200 F 
ATOM     93  F   UNL     1      16.463  14.204  -0.762  1.00  0.00    -0.200 F 
ENDBRANCH  60  83
ENDBRANCH  34  35
ENDBRANCH  26  29
ENDBRANCH  24  25
ENDBRANCH  23  24
ENDBRANCH   1  23
TORSDOF 13
