REMARK SMILES CC1C[NH+]([C@H]2COC[C@@H]2C(=O)NCCCCNC(=O)c2ccc(-c3c4nc(c(-c5c(F)c(F)c(F)c(F)c5F)c5ccc([nH]5)c(-c5c(F)c(F)c(F)c(F)c5F)c5nc(c(-c6c(F)c(F)c(F)c(F)c6F)c6ccc3[nH]6)C=C5)C=C4)cc2)C1
REMARK SMILES IDX 15 1 14 2 13 3 12 4 10 5 11 6 9 8 5 9 6 10 7 11 8 12 4 13
REMARK SMILES IDX 1 14 2 15 3 16 83 17 16 19 17 20 18 21 19 23 20 24 21 25
REMARK SMILES IDX 82 26 22 27 81 28 23 29 24 30 25 31 75 32 26 33 80 34 74 35
REMARK SMILES IDX 76 36 27 37 79 38 73 39 72 40 28 42 60 43 40 44 59 45 41 46
REMARK SMILES IDX 44 47 58 48 77 49 42 50 43 51 57 53 78 54 45 55 29 56 30 57
REMARK SMILES IDX 38 58 31 59 32 60 36 61 39 62 33 63 34 64 37 65 35 66 61 67
REMARK SMILES IDX 62 68 70 69 63 70 64 71 68 72 71 73 65 74 66 75 69 76 67 77
REMARK SMILES IDX 46 78 47 79 55 80 48 81 49 82 53 83 56 84 50 85 51 86 54 87
REMARK SMILES IDX 52 88
REMARK H PARENT 12 7 4 18 17 22 76 41 44 52
REMARK Flexibility Score: inf
ROOT
ATOM      1  C   UNL     1       0.197   2.431   0.300  1.00  0.00     0.023 C 
ENDROOT
BRANCH   1   2
ATOM      2  C   UNL     1      -0.326   1.337   1.230  1.00  0.00     0.023 C 
BRANCH   2   3
ATOM      3  C   UNL     1       0.755   0.622   2.038  1.00  0.00     0.116 C 
BRANCH   3   4
ATOM      4  N   UNL     1       0.980   1.247   3.327  1.00  0.00    -0.356 N 
ATOM      5  C   UNL     1       0.741   0.932   4.620  1.00  0.00     0.231 C 
ATOM      6  O   UNL     1       1.151   1.778   5.431  1.00  0.00    -0.274 OA
ATOM      7  H   UNL     1       1.418   2.124   3.238  1.00  0.00     0.163 HD
BRANCH   5   8
ATOM      8  C   UNL     1      -0.007  -0.280   5.174  1.00  0.00     0.164 C 
ATOM      9  C   UNL     1      -0.277  -1.494   4.310  1.00  0.00     0.225 C 
ATOM     10  C   UNL     1      -1.655  -1.159   3.716  1.00  0.00     0.226 C 
ATOM     11  O   UNL     1      -2.343  -0.320   4.651  1.00  0.00    -0.374 OA
ATOM     12  C   UNL     1      -1.394   0.160   5.616  1.00  0.00     0.180 C 
BRANCH   9  13
ATOM     13  N   UNL     1      -0.132  -2.765   5.062  1.00  0.00    -0.329 N 
ATOM     14  C   UNL     1      -2.317  -5.297   4.453  1.00  0.00     0.020 C 
ATOM     15  C   UNL     1      -1.115  -4.638   5.103  1.00  0.00     0.096 C 
ATOM     16  C   UNL     1      -0.176  -3.909   4.129  1.00  0.00     0.271 C 
ATOM     17  C   UNL     1      -1.335  -3.255   5.760  1.00  0.00     0.271 C 
ATOM     18  H   UNL     1       0.682  -2.549   5.637  1.00  0.00     0.348 HD
ENDBRANCH   9  13
ENDBRANCH   5   8
ENDBRANCH   3   4
ENDBRANCH   2   3
ENDBRANCH   1   2
BRANCH   1  19
ATOM     19  C   UNL     1       1.261   1.988  -0.701  1.00  0.00     0.116 C 
BRANCH  19  20
ATOM     20  N   UNL     1       0.893   0.824  -1.493  1.00  0.00    -0.352 N 
ATOM     21  C   UNL     1       1.346   0.474  -2.747  1.00  0.00     0.251 C 
ATOM     22  H   UNL     1       0.240   0.211  -1.084  1.00  0.00     0.163 HD
ATOM     23  O   UNL     1       0.902  -0.504  -3.326  1.00  0.00    -0.269 OA
BRANCH  21  24
ATOM     24  C   UNL     1       2.347   1.341  -3.402  1.00  0.00     0.039 A 
ATOM     25  C   UNL     1       2.064   1.849  -4.672  1.00  0.00     0.014 A 
ATOM     26  C   UNL     1       3.517   1.707  -2.733  1.00  0.00     0.014 A 
ATOM     27  C   UNL     1       2.922   2.791  -5.240  1.00  0.00     0.010 A 
ATOM     28  C   UNL     1       4.333   2.696  -3.269  1.00  0.00     0.010 A 
ATOM     29  C   UNL     1       4.039   3.252  -4.523  1.00  0.00    -0.014 A 
BRANCH  29  30
ATOM     30  C   UNL     1       4.905   4.326  -5.066  1.00  0.00     0.031 A 
ATOM     31  C   UNL     1       6.335   4.034  -5.418  1.00  0.00     0.074 A 
ATOM     32  C   UNL     1       4.422   5.578  -5.175  1.00  0.00     0.049 A 
ATOM     33  N   UNL     1       7.262   4.847  -5.856  1.00  0.00    -0.248 NA
ATOM     34  C   UNL     1       6.792   2.650  -5.222  1.00  0.00     0.031 C 
ATOM     35  C   UNL     1       3.068   5.997  -4.808  1.00  0.00     0.029 A 
ATOM     36  N   UNL     1       5.017   6.731  -5.620  1.00  0.00    -0.354 N 
ATOM     37  C   UNL     1       8.411   4.077  -5.974  1.00  0.00     0.074 A 
ATOM     38  C   UNL     1       8.081   2.748  -5.508  1.00  0.00     0.031 C 
ATOM     39  C   UNL     1       2.927   7.306  -5.071  1.00  0.00     0.029 A 
ATOM     40  C   UNL     1       4.186   7.824  -5.597  1.00  0.00     0.049 A 
ATOM     41  H   UNL     1       5.952   6.771  -5.927  1.00  0.00     0.167 HD
ATOM     42  C   UNL     1       9.625   4.440  -6.453  1.00  0.00     0.037 A 
ATOM     43  C   UNL     1       4.416   9.098  -5.966  1.00  0.00     0.037 A 
ATOM     44  C   UNL     1       9.942   5.756  -6.941  1.00  0.00     0.049 A 
ATOM     45  C   UNL     1       5.767   9.472  -6.510  1.00  0.00     0.074 A 
ATOM     46  C   UNL     1      11.123   6.209  -7.502  1.00  0.00     0.029 A 
ATOM     47  N   UNL     1       9.067   6.832  -6.926  1.00  0.00    -0.354 N 
ATOM     48  N   UNL     1       6.827   8.720  -6.683  1.00  0.00    -0.248 NA
ATOM     49  C   UNL     1       5.951  10.872  -6.917  1.00  0.00     0.031 C 
ATOM     50  C   UNL     1      10.973   7.569  -7.795  1.00  0.00     0.029 A 
ATOM     51  C   UNL     1       9.686   7.953  -7.454  1.00  0.00     0.049 A 
ATOM     52  H   UNL     1       8.142   6.804  -6.589  1.00  0.00     0.167 HD
ATOM     53  C   UNL     1       7.793   9.544  -7.242  1.00  0.00     0.074 A 
ATOM     54  C   UNL     1       7.189  10.852  -7.392  1.00  0.00     0.031 C 
ATOM     55  C   UNL     1       9.066   9.245  -7.600  1.00  0.00     0.037 A 
BRANCH  42  56
ATOM     56  C   UNL     1      10.695   3.388  -6.478  1.00  0.00     0.064 A 
ATOM     57  C   UNL     1      10.635   2.303  -7.366  1.00  0.00     0.173 A 
ATOM     58  C   UNL     1      11.794   3.467  -5.611  1.00  0.00     0.173 A 
ATOM     59  F   UNL     1       9.596   2.173  -8.204  1.00  0.00    -0.203 F 
ATOM     60  C   UNL     1      11.619   1.317  -7.361  1.00  0.00     0.198 A 
ATOM     61  C   UNL     1      12.792   2.495  -5.629  1.00  0.00     0.198 A 
ATOM     62  F   UNL     1      11.902   4.485  -4.745  1.00  0.00    -0.203 F 
ATOM     63  F   UNL     1      11.510   0.261  -8.178  1.00  0.00    -0.200 F 
ATOM     64  C   UNL     1      12.698   1.417  -6.497  1.00  0.00     0.200 A 
ATOM     65  F   UNL     1      13.840   2.597  -4.800  1.00  0.00    -0.200 F 
ATOM     66  F   UNL     1      13.644   0.467  -6.492  1.00  0.00    -0.200 F 
ENDBRANCH  42  56
BRANCH  43  67
ATOM     67  C   UNL     1       3.325  10.101  -5.881  1.00  0.00     0.064 A 
ATOM     68  C   UNL     1       2.708  10.585  -7.043  1.00  0.00     0.173 A 
ATOM     69  C   UNL     1       2.872  10.590  -4.648  1.00  0.00     0.173 A 
ATOM     70  F   UNL     1       3.121  10.160  -8.246  1.00  0.00    -0.203 F 
ATOM     71  C   UNL     1       1.689  11.532  -6.976  1.00  0.00     0.198 A 
ATOM     72  C   UNL     1       1.837  11.520  -4.581  1.00  0.00     0.198 A 
ATOM     73  F   UNL     1       3.427  10.153  -3.507  1.00  0.00    -0.203 F 
ATOM     74  F   UNL     1       1.142  12.005  -8.104  1.00  0.00    -0.200 F 
ATOM     75  C   UNL     1       1.250  11.995  -5.745  1.00  0.00     0.200 A 
ATOM     76  F   UNL     1       1.407  11.957  -3.389  1.00  0.00    -0.200 F 
ATOM     77  F   UNL     1       0.267  12.903  -5.680  1.00  0.00    -0.200 F 
ENDBRANCH  43  67
BRANCH  55  78
ATOM     78  C   UNL     1       9.878  10.345  -8.215  1.00  0.00     0.064 A 
ATOM     79  C   UNL     1      10.375  11.409  -7.447  1.00  0.00     0.173 A 
ATOM     80  C   UNL     1      10.189  10.318  -9.583  1.00  0.00     0.173 A 
ATOM     81  F   UNL     1      10.090  11.487  -6.139  1.00  0.00    -0.203 F 
ATOM     82  C   UNL     1      11.133  12.419  -8.033  1.00  0.00     0.198 A 
ATOM     83  C   UNL     1      10.970  11.316 -10.159  1.00  0.00     0.198 A 
ATOM     84  F   UNL     1       9.741   9.319 -10.358  1.00  0.00    -0.203 F 
ATOM     85  F   UNL     1      11.559  13.450  -7.290  1.00  0.00    -0.200 F 
ATOM     86  C   UNL     1      11.435  12.368  -9.386  1.00  0.00     0.200 A 
ATOM     87  F   UNL     1      11.269  11.260 -11.464  1.00  0.00    -0.200 F 
ATOM     88  F   UNL     1      12.168  13.340  -9.946  1.00  0.00    -0.200 F 
ENDBRANCH  55  78
ENDBRANCH  29  30
ENDBRANCH  21  24
ENDBRANCH  19  20
ENDBRANCH   1  19
TORSDOF 12
