REMARK SMILES CCc1cccc(CC)c1N1/C(=[NH+]/C(=O)CCC(=O)NCCCCNC(=O)c2ccc(-c3c4nc(c(-c5c(F)c(F)c(F)c(F)c5F)c5ccc([nH]5)c(-c5c(F)c(F)c(F)c(F)c5F)c5nc(c(-c6c(F)c(F)c(F)c(F)c6F)c6ccc3[nH]6)C=C5)C=C4)cc2)S[C@@H]2CS(=O)(=O)C[C@H]21
REMARK SMILES IDX 21 1 20 2 18 3 19 4 17 6 16 7 14 8 11 9 12 10 98 11 13 12
REMARK SMILES IDX 91 13 92 14 97 15 93 17 94 18 15 19 95 20 96 21 10 22 3 23
REMARK SMILES IDX 4 24 5 25 7 26 6 27 2 28 1 29 8 30 9 31 22 32 23 33 24 34
REMARK SMILES IDX 25 35 26 36 27 38 28 39 29 40 90 41 30 42 89 43 31 44 32 45
REMARK SMILES IDX 33 46 83 47 34 48 88 49 82 50 84 51 35 52 87 53 81 54 80 55
REMARK SMILES IDX 36 57 68 58 48 59 67 60 49 61 52 62 66 63 85 64 50 65 51 66
REMARK SMILES IDX 65 68 86 69 53 70 37 71 38 72 46 73 39 74 40 75 44 76 47 77
REMARK SMILES IDX 41 78 42 79 45 80 43 81 69 82 70 83 78 84 71 85 72 86 76 87
REMARK SMILES IDX 79 88 73 89 74 90 77 91 75 92 54 93 55 94 63 95 56 96 57 97
REMARK SMILES IDX 61 98 64 99 58 100 59 101 62 102 60 103
REMARK H PARENT 20 5 13 16 25 37 84 56 52 67
REMARK Flexibility Score: inf
ROOT
ATOM      1  C   UNL     1       1.333   3.624  -0.559  1.00  0.00     0.116 C 
ENDROOT
BRANCH   1   2
ATOM      2  N   UNL     1       1.100   2.514   0.361  1.00  0.00    -0.356 N 
ATOM      3  C   UNL     1       1.924   1.838   1.202  1.00  0.00     0.220 C 
ATOM      4  O   UNL     1       1.426   0.976   1.929  1.00  0.00    -0.275 OA
ATOM      5  H   UNL     1       0.169   2.195   0.374  1.00  0.00     0.163 HD
BRANCH   3   6
ATOM      6  C   UNL     1       3.397   2.145   1.261  1.00  0.00     0.112 C 
BRANCH   6   7
ATOM      7  C   UNL     1       4.212   0.862   1.108  1.00  0.00     0.138 C 
BRANCH   7   8
ATOM      8  C   UNL     1       4.766   0.688  -0.290  1.00  0.00     0.308 C 
ATOM      9  N   UNL     1       3.542  -0.847  -3.449  1.00  0.00    -0.216 N 
ATOM     10  C   UNL     1       4.108  -0.041  -2.417  1.00  0.00     0.319 C 
ATOM     11  C   UNL     1       3.710  -0.209  -4.809  1.00  0.00     0.212 C 
ATOM     12  N   UNL     1       4.067  -0.173  -1.127  1.00  0.00    -0.204 N 
ATOM     13  S   UNL     1       4.940   1.387  -3.189  1.00  0.00    -0.029 SA
ATOM     14  C   UNL     1       5.042   0.554  -4.744  1.00  0.00     0.120 C 
ATOM     15  C   UNL     1       3.799  -0.942  -6.144  1.00  0.00     0.188 C 
ATOM     16  H   UNL     1       3.529  -0.898  -0.734  1.00  0.00     0.316 HD
ATOM     17  C   UNL     1       5.128   1.403  -5.986  1.00  0.00     0.156 C 
ATOM     18  S   UNL     1       4.776   0.163  -7.215  1.00  0.00     0.155 S 
ATOM     19  O   UNL     1       5.827   1.258  -0.549  1.00  0.00    -0.247 OA
ATOM     20  O   UNL     1       6.021  -0.504  -7.531  1.00  0.00    -0.229 OA
ATOM     21  O   UNL     1       3.951   0.738  -8.253  1.00  0.00    -0.229 OA
BRANCH   9  22
ATOM     22  C   UNL     1       2.824  -2.069  -3.288  1.00  0.00     0.134 A 
ATOM     23  C   UNL     1       1.561  -2.236  -2.624  1.00  0.00    -0.001 A 
ATOM     24  C   UNL     1       0.904  -3.497  -2.579  1.00  0.00     0.008 A 
ATOM     25  C   UNL     1       1.410  -4.602  -3.218  1.00  0.00     0.001 A 
ATOM     26  C   UNL     1       3.367  -3.268  -3.833  1.00  0.00    -0.001 A 
ATOM     27  C   UNL     1       2.629  -4.481  -3.850  1.00  0.00     0.008 A 
BRANCH  23  28
ATOM     28  C   UNL     1       0.703  -1.183  -1.980  1.00  0.00     0.036 C 
ATOM     29  C   UNL     1       0.715  -1.145  -0.460  1.00  0.00     0.009 C 
ENDBRANCH  23  28
BRANCH  26  30
ATOM     30  C   UNL     1       4.786  -3.388  -4.345  1.00  0.00     0.036 C 
ATOM     31  C   UNL     1       5.644  -4.293  -3.480  1.00  0.00     0.009 C 
ENDBRANCH  26  30
ENDBRANCH   9  22
ENDBRANCH   7   8
ENDBRANCH   6   7
ENDBRANCH   3   6
ENDBRANCH   1   2
BRANCH   1  32
ATOM     32  C   UNL     1       1.999   3.231  -1.883  1.00  0.00     0.023 C 
BRANCH  32  33
ATOM     33  C   UNL     1       1.349   2.021  -2.532  1.00  0.00     0.023 C 
BRANCH  33  34
ATOM     34  C   UNL     1       0.434   2.104  -3.747  1.00  0.00     0.116 C 
BRANCH  34  35
ATOM     35  N   UNL     1       1.073   2.532  -4.971  1.00  0.00    -0.352 N 
ATOM     36  C   UNL     1       1.059   2.065  -6.268  1.00  0.00     0.251 C 
ATOM     37  H   UNL     1       1.641   3.328  -4.854  1.00  0.00     0.163 HD
ATOM     38  O   UNL     1       1.686   2.749  -7.079  1.00  0.00    -0.269 OA
BRANCH  36  39
ATOM     39  C   UNL     1       0.445   0.775  -6.743  1.00  0.00     0.039 A 
ATOM     40  C   UNL     1       0.927   0.252  -7.961  1.00  0.00     0.014 A 
ATOM     41  C   UNL     1      -0.574   0.061  -6.114  1.00  0.00     0.014 A 
ATOM     42  C   UNL     1       0.485  -0.973  -8.488  1.00  0.00     0.010 A 
ATOM     43  C   UNL     1      -1.024  -1.170  -6.630  1.00  0.00     0.010 A 
ATOM     44  C   UNL     1      -0.507  -1.694  -7.826  1.00  0.00    -0.014 A 
BRANCH  44  45
ATOM     45  C   UNL     1      -1.196  -2.833  -8.493  1.00  0.00     0.031 A 
ATOM     46  C   UNL     1      -2.509  -2.553  -9.175  1.00  0.00     0.074 A 
ATOM     47  C   UNL     1      -0.696  -4.083  -8.502  1.00  0.00     0.049 A 
ATOM     48  N   UNL     1      -3.377  -3.381  -9.698  1.00  0.00    -0.248 NA
ATOM     49  C   UNL     1      -2.899  -1.137  -9.264  1.00  0.00     0.031 C 
ATOM     50  C   UNL     1       0.592  -4.488  -7.946  1.00  0.00     0.029 A 
ATOM     51  N   UNL     1      -1.232  -5.252  -8.993  1.00  0.00    -0.354 N 
ATOM     52  C   UNL     1      -4.421  -2.587 -10.158  1.00  0.00     0.074 A 
ATOM     53  C   UNL     1      -4.093  -1.219  -9.826  1.00  0.00     0.031 C 
ATOM     54  C   UNL     1       0.741  -5.816  -8.113  1.00  0.00     0.029 A 
ATOM     55  C   UNL     1      -0.460  -6.362  -8.747  1.00  0.00     0.049 A 
ATOM     56  H   UNL     1      -2.090  -5.290  -9.476  1.00  0.00     0.167 HD
ATOM     57  C   UNL     1      -5.550  -2.962 -10.805  1.00  0.00     0.037 A 
ATOM     58  C   UNL     1      -0.711  -7.668  -8.979  1.00  0.00     0.037 A 
ATOM     59  C   UNL     1      -5.876  -4.322 -11.142  1.00  0.00     0.049 A 
ATOM     60  C   UNL     1      -2.019  -8.074  -9.621  1.00  0.00     0.074 A 
ATOM     61  C   UNL     1      -6.998  -4.803 -11.793  1.00  0.00     0.029 A 
ATOM     62  N   UNL     1      -5.080  -5.419 -10.849  1.00  0.00    -0.354 N 
ATOM     63  N   UNL     1      -3.005  -7.321 -10.047  1.00  0.00    -0.248 NA
ATOM     64  C   UNL     1      -2.251  -9.515  -9.809  1.00  0.00     0.031 C 
ATOM     65  C   UNL     1      -6.907  -6.198 -11.844  1.00  0.00     0.029 A 
ATOM     66  C   UNL     1      -5.698  -6.579 -11.285  1.00  0.00     0.049 A 
ATOM     67  H   UNL     1      -4.206  -5.379 -10.398  1.00  0.00     0.167 HD
ATOM     68  C   UNL     1      -3.948  -8.189 -10.588  1.00  0.00     0.074 A 
ATOM     69  C   UNL     1      -3.416  -9.526 -10.442  1.00  0.00     0.031 C 
ATOM     70  C   UNL     1      -5.146  -7.904 -11.156  1.00  0.00     0.037 A 
BRANCH  57  71
ATOM     71  C   UNL     1      -6.533  -1.883 -11.154  1.00  0.00     0.064 A 
ATOM     72  C   UNL     1      -6.260  -0.920 -12.137  1.00  0.00     0.173 A 
ATOM     73  C   UNL     1      -7.772  -1.817 -10.498  1.00  0.00     0.173 A 
ATOM     74  F   UNL     1      -5.082  -0.927 -12.780  1.00  0.00    -0.203 F 
ATOM     75  C   UNL     1      -7.175   0.089 -12.425  1.00  0.00     0.198 A 
ATOM     76  C   UNL     1      -8.699  -0.828 -10.814  1.00  0.00     0.198 A 
ATOM     77  F   UNL     1      -8.084  -2.713  -9.550  1.00  0.00    -0.203 F 
ATOM     78  F   UNL     1      -6.867   1.035 -13.323  1.00  0.00    -0.200 F 
ATOM     79  C   UNL     1      -8.396   0.130 -11.769  1.00  0.00     0.200 A 
ATOM     80  F   UNL     1      -9.883  -0.798 -10.186  1.00  0.00    -0.200 F 
ATOM     81  F   UNL     1      -9.277   1.100 -12.049  1.00  0.00    -0.200 F 
ENDBRANCH  57  71
BRANCH  58  82
ATOM     82  C   UNL     1       0.280  -8.710  -8.584  1.00  0.00     0.064 A 
ATOM     83  C   UNL     1       0.923  -9.503  -9.546  1.00  0.00     0.173 A 
ATOM     84  C   UNL     1       0.563  -8.974  -7.235  1.00  0.00     0.173 A 
ATOM     85  F   UNL     1       0.663  -9.317 -10.849  1.00  0.00    -0.203 F 
ATOM     86  C   UNL     1       1.790 -10.530  -9.176  1.00  0.00     0.198 A 
ATOM     87  C   UNL     1       1.456  -9.979  -6.867  1.00  0.00     0.198 A 
ATOM     88  F   UNL     1      -0.029  -8.254  -6.270  1.00  0.00    -0.203 F 
ATOM     89  F   UNL     1       2.342 -11.310 -10.115  1.00  0.00    -0.200 F 
ATOM     90  C   UNL     1       2.060 -10.764  -7.836  1.00  0.00     0.200 A 
ATOM     91  F   UNL     1       1.721 -10.194  -5.571  1.00  0.00    -0.200 F 
ATOM     92  F   UNL     1       2.892 -11.752  -7.480  1.00  0.00    -0.200 F 
ENDBRANCH  58  82
BRANCH  70  93
ATOM     93  C   UNL     1      -5.944  -9.045 -11.724  1.00  0.00     0.064 A 
ATOM     94  C   UNL     1      -6.574  -9.993 -10.905  1.00  0.00     0.173 A 
ATOM     95  C   UNL     1      -6.133  -9.151 -13.112  1.00  0.00     0.173 A 
ATOM     96  F   UNL     1      -6.419  -9.945  -9.573  1.00  0.00    -0.203 F 
ATOM     97  C   UNL     1      -7.342 -11.017 -11.455  1.00  0.00     0.198 A 
ATOM     98  C   UNL     1      -6.929 -10.155 -13.655  1.00  0.00     0.198 A 
ATOM     99  F   UNL     1      -5.562  -8.264 -13.942  1.00  0.00    -0.203 F 
ATOM    100  F   UNL     1      -7.898 -11.938 -10.655  1.00  0.00    -0.200 F 
ATOM    101  C   UNL     1      -7.527 -11.092 -12.827  1.00  0.00     0.200 A 
ATOM    102  F   UNL     1      -7.121 -10.213 -14.981  1.00  0.00    -0.200 F 
ATOM    103  F   UNL     1      -8.279 -12.069 -13.352  1.00  0.00    -0.200 F 
ENDBRANCH  70  93
ENDBRANCH  44  45
ENDBRANCH  36  39
ENDBRANCH  34  35
ENDBRANCH  33  34
ENDBRANCH  32  33
ENDBRANCH   1  32
TORSDOF 16
