REMARK SMILES CC(C)(C)c1cc2c(cc1Cl)C=C(C(=O)NCCCCNC(=O)c1ccc(-c3c4nc(c(-c5c(F)c(F)c(F)c(F)c5F)c5ccc([nH]5)c(-c5c(F)c(F)c(F)c(F)c5F)c5nc(c(-c6c(F)c(F)c(F)c(F)c6F)c6ccc3[nH]6)C=C5)C=C4)cc1)[C@@H](C(F)(F)F)O2
REMARK SMILES IDX 19 1 18 2 17 3 16 4 14 5 15 6 13 8 5 9 6 10 10 11 7 12 9 13
REMARK SMILES IDX 11 14 8 15 92 16 12 17 87 18 2 19 1 20 3 21 4 22 88 23 89 24
REMARK SMILES IDX 90 25 91 26 20 27 21 28 22 29 23 31 24 32 25 33 86 34 26 35
REMARK SMILES IDX 85 36 27 37 28 38 29 39 79 40 30 41 84 42 78 43 80 44 31 45
REMARK SMILES IDX 83 46 77 47 76 48 32 50 64 51 44 52 63 53 45 54 48 55 62 56
REMARK SMILES IDX 81 57 46 58 47 59 61 61 82 62 49 63 33 64 34 65 42 66 35 67
REMARK SMILES IDX 36 68 40 69 43 70 37 71 38 72 41 73 39 74 65 75 66 76 74 77
REMARK SMILES IDX 67 78 68 79 72 80 75 81 69 82 70 83 73 84 71 85 50 86 51 87
REMARK SMILES IDX 59 88 52 89 53 90 57 91 60 92 54 93 55 94 58 95 56 96
REMARK H PARENT 16 7 21 30 80 49 48 60
REMARK Flexibility Score: inf
ROOT
ATOM      1  C   UNL     1       2.024  10.446  -2.920  1.00  0.00     0.023 C 
ENDROOT
BRANCH   1   2
ATOM      2  C   UNL     1       1.437   9.066  -2.610  1.00  0.00     0.023 C 
BRANCH   2   3
ATOM      3  C   UNL     1       0.590   8.474  -3.733  1.00  0.00     0.116 C 
BRANCH   3   4
ATOM      4  N   UNL     1       1.399   7.806  -4.736  1.00  0.00    -0.352 N 
ATOM      5  C   UNL     1       1.811   6.540  -4.984  1.00  0.00     0.251 C 
ATOM      6  O   UNL     1       2.532   6.410  -5.979  1.00  0.00    -0.270 OA
ATOM      7  H   UNL     1       1.736   8.438  -5.412  1.00  0.00     0.163 HD
BRANCH   5   8
ATOM      8  C   UNL     1       1.462   5.342  -4.165  1.00  0.00     0.067 C 
ATOM      9  C   UNL     1       1.089   0.616  -2.296  1.00  0.00    -0.020 A 
ATOM     10  C   UNL     1       0.724   1.920  -1.870  1.00  0.00     0.053 A 
ATOM     11  C   UNL     1       1.817   0.549  -3.505  1.00  0.00     0.045 A 
ATOM     12  C   UNL     1       1.034   3.066  -2.601  1.00  0.00     0.128 A 
ATOM     13  C   UNL     1       2.145   1.718  -4.226  1.00  0.00     0.032 A 
ATOM     14  Cl  UNL     1       2.386  -0.901  -4.252  1.00  0.00    -0.084 Cl
ATOM     15  C   UNL     1       1.751   2.977  -3.782  1.00  0.00     0.019 A 
ATOM     16  O   UNL     1       0.626   4.262  -2.082  1.00  0.00    -0.475 OA
ATOM     17  C   UNL     1       2.084   4.197  -4.508  1.00  0.00     0.025 C 
ATOM     18  C   UNL     1       0.450   5.333  -3.052  1.00  0.00     0.314 C 
BRANCH   9  19
ATOM     19  C   UNL     1       0.626  -0.554  -1.391  1.00  0.00    -0.012 C 
ATOM     20  C   UNL     1       1.184  -0.347   0.042  1.00  0.00     0.016 C 
ATOM     21  C   UNL     1       1.033  -1.986  -1.792  1.00  0.00     0.016 C 
ATOM     22  C   UNL     1      -0.923  -0.556  -1.329  1.00  0.00     0.016 C 
ENDBRANCH   9  19
BRANCH  18  23
ATOM     23  C   UNL     1      -1.002   5.320  -3.569  1.00  0.00     0.429 C 
ATOM     24  F   UNL     1      -1.864   5.615  -2.563  1.00  0.00    -0.167 F 
ATOM     25  F   UNL     1      -1.214   6.242  -4.538  1.00  0.00    -0.167 F 
ATOM     26  F   UNL     1      -1.368   4.123  -4.078  1.00  0.00    -0.167 F 
ENDBRANCH  18  23
ENDBRANCH   5   8
ENDBRANCH   3   4
ENDBRANCH   2   3
ENDBRANCH   1   2
BRANCH   1  27
ATOM     27  C   UNL     1       1.011  11.520  -3.316  1.00  0.00     0.116 C 
BRANCH  27  28
ATOM     28  N   UNL     1      -0.093  11.681  -2.381  1.00  0.00    -0.352 N 
ATOM     29  C   UNL     1      -0.905  12.784  -2.227  1.00  0.00     0.251 C 
ATOM     30  H   UNL     1      -0.281  10.916  -1.790  1.00  0.00     0.163 HD
ATOM     31  O   UNL     1      -1.777  12.820  -1.369  1.00  0.00    -0.269 OA
BRANCH  29  32
ATOM     32  C   UNL     1      -0.646  13.955  -3.084  1.00  0.00     0.039 A 
ATOM     33  C   UNL     1      -0.677  13.823  -4.474  1.00  0.00     0.014 A 
ATOM     34  C   UNL     1      -0.217  15.140  -2.482  1.00  0.00     0.014 A 
ATOM     35  C   UNL     1      -0.116  14.821  -5.263  1.00  0.00     0.010 A 
ATOM     36  C   UNL     1       0.300  16.160  -3.280  1.00  0.00     0.010 A 
ATOM     37  C   UNL     1       0.416  15.976  -4.667  1.00  0.00    -0.014 A 
BRANCH  37  38
ATOM     38  C   UNL     1       1.193  16.933  -5.490  1.00  0.00     0.031 A 
ATOM     39  C   UNL     1       2.686  17.021  -5.324  1.00  0.00     0.074 A 
ATOM     40  C   UNL     1       0.573  17.669  -6.429  1.00  0.00     0.049 A 
ATOM     41  N   UNL     1       3.539  17.822  -5.911  1.00  0.00    -0.248 NA
ATOM     42  C   UNL     1       3.305  16.083  -4.372  1.00  0.00     0.031 C 
ATOM     43  C   UNL     1      -0.860  17.633  -6.717  1.00  0.00     0.029 A 
ATOM     44  N   UNL     1       1.077  18.571  -7.329  1.00  0.00    -0.354 N 
ATOM     45  C   UNL     1       4.783  17.506  -5.381  1.00  0.00     0.074 A 
ATOM     46  C   UNL     1       4.580  16.444  -4.420  1.00  0.00     0.031 C 
ATOM     47  C   UNL     1      -1.115  18.448  -7.753  1.00  0.00     0.029 A 
ATOM     48  C   UNL     1       0.126  19.098  -8.165  1.00  0.00     0.049 A 
ATOM     49  H   UNL     1       2.029  18.818  -7.371  1.00  0.00     0.167 HD
ATOM     50  C   UNL     1       5.987  18.051  -5.675  1.00  0.00     0.037 A 
ATOM     51  C   UNL     1       0.243  20.013  -9.144  1.00  0.00     0.037 A 
ATOM     52  C   UNL     1       6.197  19.083  -6.654  1.00  0.00     0.049 A 
ATOM     53  C   UNL     1       1.584  20.625  -9.426  1.00  0.00     0.074 A 
ATOM     54  C   UNL     1       7.380  19.701  -7.019  1.00  0.00     0.029 A 
ATOM     55  N   UNL     1       5.196  19.637  -7.436  1.00  0.00    -0.354 N 
ATOM     56  N   UNL     1       2.743  20.363  -8.875  1.00  0.00    -0.248 NA
ATOM     57  C   UNL     1       1.627  21.678 -10.450  1.00  0.00     0.031 C 
ATOM     58  C   UNL     1       7.091  20.646  -8.011  1.00  0.00     0.029 A 
ATOM     59  C   UNL     1       5.732  20.597  -8.278  1.00  0.00     0.049 A 
ATOM     60  H   UNL     1       4.245  19.386  -7.398  1.00  0.00     0.167 HD
ATOM     61  C   UNL     1       3.651  21.224  -9.474  1.00  0.00     0.074 A 
ATOM     62  C   UNL     1       2.914  21.997 -10.452  1.00  0.00     0.031 C 
ATOM     63  C   UNL     1       4.975  21.369  -9.227  1.00  0.00     0.037 A 
BRANCH  50  64
ATOM     64  C   UNL     1       7.178  17.552  -4.915  1.00  0.00     0.064 A 
ATOM     65  C   UNL     1       7.792  16.333  -5.234  1.00  0.00     0.173 A 
ATOM     66  C   UNL     1       7.738  18.325  -3.888  1.00  0.00     0.173 A 
ATOM     67  F   UNL     1       7.280  15.552  -6.197  1.00  0.00    -0.203 F 
ATOM     68  C   UNL     1       8.923  15.902  -4.546  1.00  0.00     0.198 A 
ATOM     69  C   UNL     1       8.878  17.899  -3.212  1.00  0.00     0.198 A 
ATOM     70  F   UNL     1       7.183  19.498  -3.546  1.00  0.00    -0.203 F 
ATOM     71  F   UNL     1       9.481  14.722  -4.848  1.00  0.00    -0.200 F 
ATOM     72  C   UNL     1       9.469  16.688  -3.540  1.00  0.00     0.200 A 
ATOM     73  F   UNL     1       9.405  18.660  -2.243  1.00  0.00    -0.200 F 
ATOM     74  F   UNL     1      10.560  16.274  -2.883  1.00  0.00    -0.200 F 
ENDBRANCH  50  64
BRANCH  51  75
ATOM     75  C   UNL     1      -0.958  20.411  -9.916  1.00  0.00     0.064 A 
ATOM     76  C   UNL     1      -1.141  19.971 -11.232  1.00  0.00     0.173 A 
ATOM     77  C   UNL     1      -1.955  21.213  -9.344  1.00  0.00     0.173 A 
ATOM     78  F   UNL     1      -0.200  19.219 -11.823  1.00  0.00    -0.203 F 
ATOM     79  C   UNL     1      -2.282  20.317 -11.951  1.00  0.00     0.198 A 
ATOM     80  C   UNL     1      -3.104  21.544 -10.057  1.00  0.00     0.198 A 
ATOM     81  F   UNL     1      -1.820  21.658  -8.086  1.00  0.00    -0.203 F 
ATOM     82  F   UNL     1      -2.427  19.900 -13.216  1.00  0.00    -0.200 F 
ATOM     83  C   UNL     1      -3.266  21.098 -11.361  1.00  0.00     0.200 A 
ATOM     84  F   UNL     1      -4.056  22.290  -9.481  1.00  0.00    -0.200 F 
ATOM     85  F   UNL     1      -4.368  21.422 -12.049  1.00  0.00    -0.200 F 
ENDBRANCH  51  75
BRANCH  63  86
ATOM     86  C   UNL     1       5.702  22.416 -10.011  1.00  0.00     0.064 A 
ATOM     87  C   UNL     1       5.603  23.771  -9.667  1.00  0.00     0.173 A 
ATOM     88  C   UNL     1       6.531  22.062 -11.084  1.00  0.00     0.173 A 
ATOM     89  F   UNL     1       4.809  24.154  -8.656  1.00  0.00    -0.203 F 
ATOM     90  C   UNL     1       6.301  24.740 -10.381  1.00  0.00     0.198 A 
ATOM     91  C   UNL     1       7.240  23.032 -11.786  1.00  0.00     0.198 A 
ATOM     92  F   UNL     1       6.657  20.776 -11.446  1.00  0.00    -0.203 F 
ATOM     93  F   UNL     1       6.171  26.033 -10.055  1.00  0.00    -0.200 F 
ATOM     94  C   UNL     1       7.122  24.370 -11.436  1.00  0.00     0.200 A 
ATOM     95  F   UNL     1       8.036  22.674 -12.803  1.00  0.00    -0.200 F 
ATOM     96  F   UNL     1       7.795  25.304 -12.122  1.00  0.00    -0.200 F 
ENDBRANCH  63  86
ENDBRANCH  37  38
ENDBRANCH  29  32
ENDBRANCH  27  28
ENDBRANCH   1  27
TORSDOF 13
