REMARK SMILES O=CN[C@@H](CCS[C@@H]1CCO[C@]2(CCOC2)C1)C(=O)NCCCCNC(=O)c1ccc(-c2c3nc(c(-c4c(F)c(F)c(F)c(F)c4F)c4ccc([nH]4)c(-c4c(F)c(F)c(F)c(F)c4F)c4nc(c(-c5c(F)c(F)c(F)c(F)c5F)c5ccc2[nH]5)C=C4)C=C3)cc1
REMARK SMILES IDX 21 1 20 2 18 3 19 4 4 6 3 7 1 8 2 9 5 11 6 12 7 13 8 14 9 15
REMARK SMILES IDX 17 16 10 17 12 18 11 19 13 20 16 21 14 22 15 23 22 24 23 25
REMARK SMILES IDX 24 26 25 27 26 28 27 30 28 31 29 32 90 33 30 34 89 35 31 36
REMARK SMILES IDX 32 37 33 38 83 39 34 40 88 41 82 42 84 43 35 44 87 45 81 46
REMARK SMILES IDX 80 47 36 49 68 50 48 51 67 52 49 53 52 54 66 55 85 56 50 57
REMARK SMILES IDX 51 58 65 60 86 61 53 62 37 63 38 64 46 65 39 66 40 67 44 68
REMARK SMILES IDX 47 69 41 70 42 71 45 72 43 73 69 74 70 75 78 76 71 77 72 78
REMARK SMILES IDX 76 79 79 80 73 81 74 82 77 83 75 84 54 85 55 86 63 87 56 88
REMARK SMILES IDX 57 89 61 90 64 91 58 92 59 93 62 94 60 95
REMARK H PARENT 20 5 3 10 25 29 84 48 52 59
REMARK Flexibility Score: inf
ROOT
ATOM      1  C   UNL     1       2.007   0.444  -3.550  1.00  0.00     0.116 C 
ENDROOT
BRANCH   1   2
ATOM      2  N   UNL     1       2.700   1.149  -2.491  1.00  0.00    -0.354 N 
ATOM      3  C   UNL     1       3.446   0.668  -1.462  1.00  0.00     0.242 C 
ATOM      4  O   UNL     1       3.654   1.438  -0.516  1.00  0.00    -0.273 OA
ATOM      5  H   UNL     1       2.617   2.129  -2.522  1.00  0.00     0.163 HD
BRANCH   3   6
ATOM      6  C   UNL     1       3.958  -0.776  -1.388  1.00  0.00     0.171 C 
BRANCH   6   7
ATOM      7  N   UNL     1       2.776  -1.623  -1.275  1.00  0.00    -0.347 N 
ATOM      8  O   UNL     1       0.870  -2.082  -0.116  1.00  0.00    -0.279 OA
ATOM      9  C   UNL     1       1.986  -1.590  -0.151  1.00  0.00     0.337 C 
ATOM     10  H   UNL     1       2.541  -2.228  -2.015  1.00  0.00     0.164 HD
ENDBRANCH   6   7
BRANCH   6  11
ATOM     11  C   UNL     1       5.051  -1.287  -2.348  1.00  0.00     0.046 C 
BRANCH  11  12
ATOM     12  C   UNL     1       5.244  -0.808  -3.792  1.00  0.00     0.072 C 
BRANCH  12  13
ATOM     13  S   UNL     1       6.360   0.564  -4.288  1.00  0.00    -0.158 SA
BRANCH  13  14
ATOM     14  C   UNL     1       5.619   2.165  -3.729  1.00  0.00     0.052 C 
ATOM     15  C   UNL     1       6.158   3.292  -4.625  1.00  0.00     0.043 C 
ATOM     16  C   UNL     1       5.915   2.574  -2.284  1.00  0.00     0.052 C 
ATOM     17  C   UNL     1       7.616   3.622  -4.312  1.00  0.00     0.162 C 
ATOM     18  C   UNL     1       7.377   2.920  -1.999  1.00  0.00     0.095 C 
ATOM     19  O   UNL     1       7.829   3.911  -2.933  1.00  0.00    -0.372 OA
ATOM     20  C   UNL     1       8.267   1.684  -1.955  1.00  0.00     0.066 C 
ATOM     21  C   UNL     1       7.525   3.509  -0.585  1.00  0.00     0.195 C 
ATOM     22  C   UNL     1       8.939   1.679  -0.604  1.00  0.00     0.163 C 
ATOM     23  O   UNL     1       8.672   2.917   0.035  1.00  0.00    -0.378 OA
ENDBRANCH  13  14
ENDBRANCH  12  13
ENDBRANCH  11  12
ENDBRANCH   6  11
ENDBRANCH   3   6
ENDBRANCH   1   2
BRANCH   1  24
ATOM     24  C   UNL     1       1.134   1.357  -4.404  1.00  0.00     0.023 C 
BRANCH  24  25
ATOM     25  C   UNL     1       1.869   2.422  -5.229  1.00  0.00     0.023 C 
BRANCH  25  26
ATOM     26  C   UNL     1       2.891   1.930  -6.259  1.00  0.00     0.116 C 
BRANCH  26  27
ATOM     27  N   UNL     1       2.313   1.154  -7.338  1.00  0.00    -0.352 N 
ATOM     28  C   UNL     1       2.302   1.378  -8.695  1.00  0.00     0.251 C 
ATOM     29  H   UNL     1       1.852   0.332  -7.053  1.00  0.00     0.163 HD
ATOM     30  O   UNL     1       1.697   0.600  -9.427  1.00  0.00    -0.269 OA
BRANCH  28  31
ATOM     31  C   UNL     1       2.969   2.559  -9.293  1.00  0.00     0.039 A 
ATOM     32  C   UNL     1       2.248   3.321 -10.220  1.00  0.00     0.014 A 
ATOM     33  C   UNL     1       4.296   2.893  -9.011  1.00  0.00     0.014 A 
ATOM     34  C   UNL     1       2.828   4.449 -10.810  1.00  0.00     0.010 A 
ATOM     35  C   UNL     1       4.861   4.047  -9.568  1.00  0.00     0.010 A 
ATOM     36  C   UNL     1       4.130   4.843 -10.466  1.00  0.00    -0.014 A 
BRANCH  36  37
ATOM     37  C   UNL     1       4.734   6.085 -11.028  1.00  0.00     0.031 A 
ATOM     38  C   UNL     1       5.905   6.010 -11.969  1.00  0.00     0.074 A 
ATOM     39  C   UNL     1       4.258   7.292 -10.658  1.00  0.00     0.049 A 
ATOM     40  N   UNL     1       6.630   6.979 -12.471  1.00  0.00    -0.248 NA
ATOM     41  C   UNL     1       6.322   4.666 -12.394  1.00  0.00     0.031 C 
ATOM     42  C   UNL     1       3.126   7.515  -9.759  1.00  0.00     0.029 A 
ATOM     43  N   UNL     1       4.678   8.560 -10.983  1.00  0.00    -0.354 N 
ATOM     44  C   UNL     1       7.593   6.364 -13.262  1.00  0.00     0.074 A 
ATOM     45  C   UNL     1       7.383   4.936 -13.143  1.00  0.00     0.031 C 
ATOM     46  C   UNL     1       2.938   8.837  -9.609  1.00  0.00     0.029 A 
ATOM     47  C   UNL     1       3.962   9.555 -10.363  1.00  0.00     0.049 A 
ATOM     48  H   UNL     1       5.423   8.738 -11.602  1.00  0.00     0.167 HD
ATOM     49  C   UNL     1       8.553   6.936 -14.029  1.00  0.00     0.037 A 
ATOM     50  C   UNL     1       4.123  10.893 -10.381  1.00  0.00     0.037 A 
ATOM     51  C   UNL     1       8.760   8.356 -14.161  1.00  0.00     0.049 A 
ATOM     52  C   UNL     1       5.236  11.499 -11.196  1.00  0.00     0.074 A 
ATOM     53  C   UNL     1       9.704   9.023 -14.925  1.00  0.00     0.029 A 
ATOM     54  N   UNL     1       8.011   9.328 -13.517  1.00  0.00    -0.354 N 
ATOM     55  N   UNL     1       6.122  10.907 -11.958  1.00  0.00    -0.248 NA
ATOM     56  C   UNL     1       5.368  12.964 -11.154  1.00  0.00     0.031 C 
ATOM     57  C   UNL     1       9.551  10.397 -14.713  1.00  0.00     0.029 A 
ATOM     58  C   UNL     1       8.479  10.588 -13.857  1.00  0.00     0.049 A 
ATOM     59  H   UNL     1       7.258   9.151 -12.908  1.00  0.00     0.167 HD
ATOM     60  C   UNL     1       6.883  11.924 -12.519  1.00  0.00     0.074 A 
ATOM     61  C   UNL     1       6.356  13.172 -12.012  1.00  0.00     0.031 C 
ATOM     62  C   UNL     1       7.925  11.828 -13.380  1.00  0.00     0.037 A 
BRANCH  49  63
ATOM     63  C   UNL     1       9.466   6.023 -14.795  1.00  0.00     0.064 A 
ATOM     64  C   UNL     1       9.015   5.306 -15.912  1.00  0.00     0.173 A 
ATOM     65  C   UNL     1      10.821   5.911 -14.446  1.00  0.00     0.173 A 
ATOM     66  F   UNL     1       7.727   5.373 -16.282  1.00  0.00    -0.203 F 
ATOM     67  C   UNL     1       9.880   4.491 -16.638  1.00  0.00     0.198 A 
ATOM     68  C   UNL     1      11.690   5.119 -15.192  1.00  0.00     0.198 A 
ATOM     69  F   UNL     1      11.307   6.585 -13.393  1.00  0.00    -0.203 F 
ATOM     70  F   UNL     1       9.417   3.783 -17.677  1.00  0.00    -0.200 F 
ATOM     71  C   UNL     1      11.218   4.404 -16.282  1.00  0.00     0.200 A 
ATOM     72  F   UNL     1      12.986   5.048 -14.856  1.00  0.00    -0.200 F 
ATOM     73  F   UNL     1      12.051   3.628 -16.988  1.00  0.00    -0.200 F 
ENDBRANCH  49  63
BRANCH  50  74
ATOM     74  C   UNL     1       3.206  11.768  -9.602  1.00  0.00     0.064 A 
ATOM     75  C   UNL     1       2.313  12.633 -10.253  1.00  0.00     0.173 A 
ATOM     76  C   UNL     1       3.229  11.789  -8.200  1.00  0.00     0.173 A 
ATOM     77  F   UNL     1       2.273  12.668 -11.593  1.00  0.00    -0.203 F 
ATOM     78  C   UNL     1       1.501  13.505  -9.531  1.00  0.00     0.198 A 
ATOM     79  C   UNL     1       2.393  12.639  -7.479  1.00  0.00     0.198 A 
ATOM     80  F   UNL     1       4.063  10.981  -7.530  1.00  0.00    -0.203 F 
ATOM     81  F   UNL     1       0.700  14.361 -10.180  1.00  0.00    -0.200 F 
ATOM     82  C   UNL     1       1.538  13.505  -8.145  1.00  0.00     0.200 A 
ATOM     83  F   UNL     1       2.424  12.627  -6.140  1.00  0.00    -0.200 F 
ATOM     84  F   UNL     1       0.759  14.346  -7.452  1.00  0.00    -0.200 F 
ENDBRANCH  50  74
BRANCH  62  85
ATOM     85  C   UNL     1       8.524  13.105 -13.895  1.00  0.00     0.064 A 
ATOM     86  C   UNL     1       9.320  13.931 -13.088  1.00  0.00     0.173 A 
ATOM     87  C   UNL     1       8.341  13.478 -15.236  1.00  0.00     0.173 A 
ATOM     88  F   UNL     1       9.514  13.627 -11.795  1.00  0.00    -0.203 F 
ATOM     89  C   UNL     1       9.895  15.092 -13.599  1.00  0.00     0.198 A 
ATOM     90  C   UNL     1       8.939  14.624 -15.751  1.00  0.00     0.198 A 
ATOM     91  F   UNL     1       7.592  12.720 -16.052  1.00  0.00    -0.203 F 
ATOM     92  F   UNL     1      10.619  15.887 -12.800  1.00  0.00    -0.200 F 
ATOM     93  C   UNL     1       9.711  15.433 -14.931  1.00  0.00     0.200 A 
ATOM     94  F   UNL     1       8.771  14.945 -17.041  1.00  0.00    -0.200 F 
ATOM     95  F   UNL     1      10.275  16.544 -15.424  1.00  0.00    -0.200 F 
ENDBRANCH  62  85
ENDBRANCH  36  37
ENDBRANCH  28  31
ENDBRANCH  26  27
ENDBRANCH  25  26
ENDBRANCH  24  25
ENDBRANCH   1  24
TORSDOF 16
