REMARK SMILES CC1=C(C(=O)OCC(C)C)[C@@H](c2ccc(C(=O)NCCCCNC(=O)c3ccc(-c4c5nc(c(-c6c(F)c(F)c(F)c(F)c6F)c6ccc([nH]6)c(-c6c(F)c(F)c(F)c(F)c6F)c6nc(c(-c7c(F)c(F)c(F)c(F)c7F)c7ccc4[nH]7)C=C6)C=C5)cc3)cc2)c2c(n(C)c(=O)n(C)c2=O)N1
REMARK SMILES IDX 19 1 18 2 16 3 17 4 15 6 12 7 13 8 90 9 14 10 89 11 11 12
REMARK SMILES IDX 1 13 2 14 3 15 101 16 92 17 91 19 93 20 99 21 94 22 95 23
REMARK SMILES IDX 97 24 100 25 96 26 98 27 4 28 5 29 6 30 7 31 8 32 9 33 10 34
REMARK SMILES IDX 20 35 21 36 22 37 23 38 24 39 25 41 26 42 27 43 88 44 28 45
REMARK SMILES IDX 87 46 29 47 30 48 31 49 81 50 32 51 86 52 80 53 82 54 33 55
REMARK SMILES IDX 85 56 79 57 78 58 34 60 66 61 46 62 65 63 47 64 50 65 64 66
REMARK SMILES IDX 83 67 48 68 49 69 63 71 84 72 51 73 35 74 36 75 44 76 37 77
REMARK SMILES IDX 38 78 42 79 45 80 39 81 40 82 43 83 41 84 67 85 68 86 76 87
REMARK SMILES IDX 69 88 70 89 74 90 77 91 71 92 72 93 75 94 73 95 52 96 53 97
REMARK SMILES IDX 61 98 54 99 55 100 59 101 62 102 56 103 57 104 60 105 58 106
REMARK H PARENT 18 5 101 18 23 40 82 59 50 70
REMARK Flexibility Score: inf
ROOT
ATOM      1  C   UNL     1      -4.822   5.210   5.437  1.00  0.00     0.116 C 
ENDROOT
BRANCH   1   2
ATOM      2  N   UNL     1      -5.556   4.558   4.375  1.00  0.00    -0.352 N 
ATOM      3  C   UNL     1      -5.187   3.605   3.461  1.00  0.00     0.251 C 
ATOM      4  O   UNL     1      -6.046   3.240   2.656  1.00  0.00    -0.269 OA
ATOM      5  H   UNL     1      -6.492   4.852   4.294  1.00  0.00     0.163 HD
BRANCH   3   6
ATOM      6  C   UNL     1      -3.837   2.967   3.426  1.00  0.00     0.039 A 
ATOM      7  C   UNL     1      -1.384   1.562   3.340  1.00  0.00    -0.035 A 
ATOM      8  C   UNL     1      -2.532   1.030   2.734  1.00  0.00     0.005 A 
ATOM      9  C   UNL     1      -1.466   2.820   3.941  1.00  0.00     0.005 A 
ATOM     10  C   UNL     1      -3.745   1.721   2.789  1.00  0.00     0.014 A 
ATOM     11  C   UNL     1      -2.670   3.524   3.952  1.00  0.00     0.014 A 
BRANCH   7  12
ATOM     12  C   UNL     1      -0.040   0.832   3.320  1.00  0.00     0.098 C 
ATOM     13  C   UNL     1       1.239  -0.339  -0.198  1.00  0.00     0.065 C 
ATOM     14  C   UNL     1       0.705  -0.273   1.209  1.00  0.00     0.025 C 
ATOM     15  C   UNL     1       0.539   0.871   1.910  1.00  0.00     0.068 C 
ATOM     16  N   UNL     1       0.410  -1.491   1.810  1.00  0.00    -0.344 N 
ATOM     17  C   UNL     1       0.032  -1.671   3.133  1.00  0.00     0.123 A 
ATOM     18  H   UNL     1       0.475  -2.297   1.248  1.00  0.00     0.168 HD
ATOM     19  C   UNL     1      -0.175  -0.573   3.881  1.00  0.00     0.071 A 
ATOM     20  N   UNL     1      -0.133  -2.925   3.703  1.00  0.00    -0.282 N 
ATOM     21  C   UNL     1      -0.528  -0.699   5.309  1.00  0.00     0.262 A 
ATOM     22  C   UNL     1       0.171  -4.118   2.922  1.00  0.00     0.157 C 
ATOM     23  C   UNL     1      -0.592  -3.115   5.007  1.00  0.00     0.332 A 
ATOM     24  N   UNL     1      -0.833  -1.968   5.745  1.00  0.00    -0.263 N 
ATOM     25  O   UNL     1      -0.529   0.293   6.036  1.00  0.00    -0.269 OA
ATOM     26  O   UNL     1      -0.762  -4.237   5.489  1.00  0.00    -0.247 OA
ATOM     27  C   UNL     1      -1.319  -2.141   7.101  1.00  0.00     0.158 C 
BRANCH  15  28
ATOM     28  C   UNL     1       0.938   2.232   1.464  1.00  0.00     0.336 C 
ATOM     29  O   UNL     1       1.426   3.053   2.225  1.00  0.00    -0.246 OA
BRANCH  28  30
ATOM     30  O   UNL     1       0.620   2.448   0.166  1.00  0.00    -0.462 OA
BRANCH  30  31
ATOM     31  C   UNL     1       0.927   3.750  -0.366  1.00  0.00     0.236 C 
BRANCH  31  32
ATOM     32  C   UNL     1      -0.361   4.554  -0.592  1.00  0.00     0.021 C 
ATOM     33  C   UNL     1      -1.082   4.853   0.722  1.00  0.00     0.011 C 
ATOM     34  C   UNL     1      -0.056   5.857  -1.329  1.00  0.00     0.011 C 
ENDBRANCH  31  32
ENDBRANCH  30  31
ENDBRANCH  28  30
ENDBRANCH  15  28
ENDBRANCH   7  12
ENDBRANCH   3   6
ENDBRANCH   1   2
BRANCH   1  35
ATOM     35  C   UNL     1      -4.199   6.513   4.928  1.00  0.00     0.023 C 
BRANCH  35  36
ATOM     36  C   UNL     1      -5.185   7.677   4.853  1.00  0.00     0.023 C 
BRANCH  36  37
ATOM     37  C   UNL     1      -5.818   8.049   6.184  1.00  0.00     0.116 C 
BRANCH  37  38
ATOM     38  N   UNL     1      -4.842   8.353   7.222  1.00  0.00    -0.352 N 
ATOM     39  C   UNL     1      -4.935   9.302   8.210  1.00  0.00     0.251 C 
ATOM     40  H   UNL     1      -4.017   7.815   7.213  1.00  0.00     0.163 HD
ATOM     41  O   UNL     1      -3.997   9.536   8.961  1.00  0.00    -0.269 OA
BRANCH  39  42
ATOM     42  C   UNL     1      -6.190  10.065   8.315  1.00  0.00     0.039 A 
ATOM     43  C   UNL     1      -6.139  11.457   8.253  1.00  0.00     0.014 A 
ATOM     44  C   UNL     1      -7.413   9.390   8.369  1.00  0.00     0.014 A 
ATOM     45  C   UNL     1      -7.329  12.177   8.190  1.00  0.00     0.010 A 
ATOM     46  C   UNL     1      -8.593  10.103   8.217  1.00  0.00     0.010 A 
ATOM     47  C   UNL     1      -8.562  11.504   8.139  1.00  0.00    -0.014 A 
BRANCH  47  48
ATOM     48  C   UNL     1      -9.834  12.259   8.047  1.00  0.00     0.031 A 
ATOM     49  C   UNL     1     -10.810  12.205   9.186  1.00  0.00     0.074 A 
ATOM     50  C   UNL     1     -10.113  12.969   6.938  1.00  0.00     0.049 A 
ATOM     51  N   UNL     1     -11.974  12.791   9.305  1.00  0.00    -0.248 NA
ATOM     52  C   UNL     1     -10.444  11.362  10.337  1.00  0.00     0.031 C 
ATOM     53  C   UNL     1      -9.258  13.059   5.753  1.00  0.00     0.029 A 
ATOM     54  N   UNL     1     -11.193  13.758   6.629  1.00  0.00    -0.354 N 
ATOM     55  C   UNL     1     -12.470  12.392  10.537  1.00  0.00     0.074 A 
ATOM     56  C   UNL     1     -11.524  11.453  11.097  1.00  0.00     0.031 C 
ATOM     57  C   UNL     1      -9.824  13.892   4.866  1.00  0.00     0.029 A 
ATOM     58  C   UNL     1     -11.097  14.367   5.402  1.00  0.00     0.049 A 
ATOM     59  H   UNL     1     -11.963  13.877   7.231  1.00  0.00     0.167 HD
ATOM     60  C   UNL     1     -13.593  12.806  11.166  1.00  0.00     0.037 A 
ATOM     61  C   UNL     1     -11.940  15.218   4.785  1.00  0.00     0.037 A 
ATOM     62  C   UNL     1     -14.516  13.759  10.615  1.00  0.00     0.049 A 
ATOM     63  C   UNL     1     -13.205  15.630   5.489  1.00  0.00     0.074 A 
ATOM     64  C   UNL     1     -15.660  14.280  11.191  1.00  0.00     0.029 A 
ATOM     65  N   UNL     1     -14.399  14.334   9.358  1.00  0.00    -0.354 N 
ATOM     66  N   UNL     1     -13.629  15.304   6.686  1.00  0.00    -0.248 NA
ATOM     67  C   UNL     1     -14.110  16.529   4.758  1.00  0.00     0.031 C 
ATOM     68  C   UNL     1     -16.264  15.131  10.262  1.00  0.00     0.029 A 
ATOM     69  C   UNL     1     -15.470  15.181   9.127  1.00  0.00     0.049 A 
ATOM     70  H   UNL     1     -13.665  14.164   8.724  1.00  0.00     0.167 HD
ATOM     71  C   UNL     1     -14.836  15.968   6.859  1.00  0.00     0.074 A 
ATOM     72  C   UNL     1     -15.067  16.735   5.653  1.00  0.00     0.031 C 
ATOM     73  C   UNL     1     -15.679  15.939   7.920  1.00  0.00     0.037 A 
BRANCH  60  74
ATOM     74  C   UNL     1     -13.874  12.250  12.531  1.00  0.00     0.064 A 
ATOM     75  C   UNL     1     -13.088  12.603  13.639  1.00  0.00     0.173 A 
ATOM     76  C   UNL     1     -14.969  11.401  12.746  1.00  0.00     0.173 A 
ATOM     77  F   UNL     1     -12.020  13.400  13.483  1.00  0.00    -0.203 F 
ATOM     78  C   UNL     1     -13.378  12.112  14.908  1.00  0.00     0.198 A 
ATOM     79  C   UNL     1     -15.275  10.938  14.023  1.00  0.00     0.198 A 
ATOM     80  F   UNL     1     -15.754  11.035  11.722  1.00  0.00    -0.203 F 
ATOM     81  F   UNL     1     -12.589  12.430  15.944  1.00  0.00    -0.200 F 
ATOM     82  C   UNL     1     -14.477  11.290  15.101  1.00  0.00     0.200 A 
ATOM     83  F   UNL     1     -16.346  10.154  14.211  1.00  0.00    -0.200 F 
ATOM     84  F   UNL     1     -14.765  10.832  16.328  1.00  0.00    -0.200 F 
ENDBRANCH  60  74
BRANCH  61  85
ATOM     85  C   UNL     1     -11.592  15.766   3.447  1.00  0.00     0.064 A 
ATOM     86  C   UNL     1     -11.275  17.122   3.287  1.00  0.00     0.173 A 
ATOM     87  C   UNL     1     -11.554  14.950   2.306  1.00  0.00     0.173 A 
ATOM     88  F   UNL     1     -11.317  17.948   4.342  1.00  0.00    -0.203 F 
ATOM     89  C   UNL     1     -10.943  17.642   2.037  1.00  0.00     0.198 A 
ATOM     90  C   UNL     1     -11.195  15.465   1.062  1.00  0.00     0.198 A 
ATOM     91  F   UNL     1     -11.847  13.645   2.404  1.00  0.00    -0.203 F 
ATOM     92  F   UNL     1     -10.680  18.950   1.907  1.00  0.00    -0.200 F 
ATOM     93  C   UNL     1     -10.895  16.812   0.927  1.00  0.00     0.200 A 
ATOM     94  F   UNL     1     -11.135  14.656  -0.004  1.00  0.00    -0.200 F 
ATOM     95  F   UNL     1     -10.565  17.311  -0.272  1.00  0.00    -0.200 F 
ENDBRANCH  61  85
BRANCH  73  96
ATOM     96  C   UNL     1     -16.935  16.757   7.837  1.00  0.00     0.064 A 
ATOM     97  C   UNL     1     -18.002  16.370   7.013  1.00  0.00     0.173 A 
ATOM     98  C   UNL     1     -17.114  17.876   8.665  1.00  0.00     0.173 A 
ATOM     99  F   UNL     1     -17.875  15.315   6.195  1.00  0.00    -0.203 F 
ATOM    100  C   UNL     1     -19.200  17.078   7.017  1.00  0.00     0.198 A 
ATOM    101  C   UNL     1     -18.325  18.562   8.690  1.00  0.00     0.198 A 
ATOM    102  F   UNL     1     -16.127  18.279   9.479  1.00  0.00    -0.203 F 
ATOM    103  F   UNL     1     -20.197  16.707   6.202  1.00  0.00    -0.200 F 
ATOM    104  C   UNL     1     -19.365  18.164   7.865  1.00  0.00     0.200 A 
ATOM    105  F   UNL     1     -18.489  19.598   9.524  1.00  0.00    -0.200 F 
ATOM    106  F   UNL     1     -20.530  18.827   7.887  1.00  0.00    -0.200 F 
ENDBRANCH  73  96
ENDBRANCH  47  48
ENDBRANCH  39  42
ENDBRANCH  37  38
ENDBRANCH  36  37
ENDBRANCH  35  36
ENDBRANCH   1  35
TORSDOF 16
