REMARK SMILES O=C(NCCCCNC(=O)c1cc(-c2ccccc2)nc(Nc2nc3ccccc3s2)n1)c1ccc(-c2c3nc(c(-c4c(F)c(F)c(F)c(F)c4F)c4ccc([nH]4)c(-c4c(F)c(F)c(F)c(F)c4F)c4nc(c(-c5c(F)c(F)c(F)c(F)c5F)c5ccc2[nH]5)C=C4)C=C3)cc1
REMARK SMILES IDX 5 1 4 2 3 3 1 4 2 5 33 7 34 8 95 9 35 10 94 11 36 12 37 13
REMARK SMILES IDX 38 14 88 15 39 16 93 17 87 18 89 19 40 20 92 21 86 22 85 23
REMARK SMILES IDX 41 25 73 26 53 27 72 28 54 29 57 30 71 31 90 32 55 33 56 34
REMARK SMILES IDX 70 36 91 37 58 38 42 39 43 40 51 41 44 42 45 43 49 44 52 45
REMARK SMILES IDX 46 46 47 47 50 48 48 49 74 50 75 51 83 52 76 53 77 54 81 55
REMARK SMILES IDX 84 56 78 57 79 58 82 59 80 60 59 61 60 62 68 63 61 64 62 65
REMARK SMILES IDX 66 66 69 67 63 68 64 69 67 70 65 71 6 72 7 73 8 74 9 75
REMARK SMILES IDX 10 77 11 78 12 79 32 80 13 81 21 82 20 83 14 84 15 85 19 86
REMARK SMILES IDX 16 87 18 88 17 89 22 90 23 92 24 93 31 94 25 95 30 96 26 97
REMARK SMILES IDX 29 98 27 99 28 100
REMARK H PARENT 3 6 89 24 57 35 8 76 22 91
REMARK Flexibility Score: inf
ROOT
ATOM      1  C   UNL     1       4.986  -1.205  -2.422  1.00  0.00     0.023 C 
ENDROOT
BRANCH   1   2
ATOM      2  C   UNL     1       4.659  -0.193  -1.332  1.00  0.00     0.116 C 
BRANCH   2   3
ATOM      3  N   UNL     1       3.232   0.006  -1.140  1.00  0.00    -0.352 N 
ATOM      4  O   UNL     1       1.270   0.019  -0.024  1.00  0.00    -0.269 OA
ATOM      5  C   UNL     1       2.489  -0.071   0.016  1.00  0.00     0.251 C 
ATOM      6  H   UNL     1       2.724   0.229  -1.954  1.00  0.00     0.163 HD
BRANCH   5   7
ATOM      7  C   UNL     1       3.172  -0.300   1.310  1.00  0.00     0.039 A 
ATOM      8  C   UNL     1       4.316   0.423   1.651  1.00  0.00     0.014 A 
ATOM      9  C   UNL     1       2.662  -1.264   2.185  1.00  0.00     0.014 A 
ATOM     10  C   UNL     1       5.036   0.075   2.788  1.00  0.00     0.010 A 
ATOM     11  C   UNL     1       3.341  -1.552   3.373  1.00  0.00     0.010 A 
ATOM     12  C   UNL     1       4.553  -0.910   3.666  1.00  0.00    -0.014 A 
BRANCH  12  13
ATOM     13  C   UNL     1       5.314  -1.208   4.906  1.00  0.00     0.031 A 
ATOM     14  C   UNL     1       5.960  -2.548   5.123  1.00  0.00     0.074 A 
ATOM     15  C   UNL     1       5.455  -0.232   5.823  1.00  0.00     0.049 A 
ATOM     16  N   UNL     1       6.685  -2.959   6.134  1.00  0.00    -0.248 NA
ATOM     17  C   UNL     1       5.764  -3.562   4.076  1.00  0.00     0.031 C 
ATOM     18  C   UNL     1       4.863   1.104   5.726  1.00  0.00     0.029 A 
ATOM     19  N   UNL     1       6.155  -0.200   7.002  1.00  0.00    -0.354 N 
ATOM     20  C   UNL     1       7.024  -4.276   5.851  1.00  0.00     0.074 A 
ATOM     21  C   UNL     1       6.400  -4.608   4.587  1.00  0.00     0.031 C 
ATOM     22  C   UNL     1       5.261   1.839   6.773  1.00  0.00     0.029 A 
ATOM     23  C   UNL     1       6.089   1.012   7.644  1.00  0.00     0.049 A 
ATOM     24  H   UNL     1       6.656  -0.971   7.354  1.00  0.00     0.167 HD
ATOM     25  C   UNL     1       7.794  -5.123   6.575  1.00  0.00     0.037 A 
ATOM     26  C   UNL     1       6.624   1.411   8.812  1.00  0.00     0.037 A 
ATOM     27  C   UNL     1       8.421  -4.785   7.827  1.00  0.00     0.049 A 
ATOM     28  C   UNL     1       7.460   0.444   9.599  1.00  0.00     0.074 A 
ATOM     29  C   UNL     1       9.228  -5.572   8.632  1.00  0.00     0.029 A 
ATOM     30  N   UNL     1       8.313  -3.553   8.457  1.00  0.00    -0.354 N 
ATOM     31  N   UNL     1       7.786  -0.792   9.309  1.00  0.00    -0.248 NA
ATOM     32  C   UNL     1       8.001   0.927  10.876  1.00  0.00     0.031 C 
ATOM     33  C   UNL     1       9.579  -4.829   9.764  1.00  0.00     0.029 A 
ATOM     34  C   UNL     1       9.027  -3.564   9.646  1.00  0.00     0.049 A 
ATOM     35  H   UNL     1       7.805  -2.785   8.111  1.00  0.00     0.167 HD
ATOM     36  C   UNL     1       8.578  -1.232  10.360  1.00  0.00     0.074 A 
ATOM     37  C   UNL     1       8.705  -0.120  11.280  1.00  0.00     0.031 C 
ATOM     38  C   UNL     1       9.142  -2.449  10.549  1.00  0.00     0.037 A 
BRANCH  25  39
ATOM     39  C   UNL     1       8.003  -6.509   6.036  1.00  0.00     0.064 A 
ATOM     40  C   UNL     1       8.835  -6.749   4.933  1.00  0.00     0.173 A 
ATOM     41  C   UNL     1       7.412  -7.616   6.665  1.00  0.00     0.173 A 
ATOM     42  F   UNL     1       9.416  -5.725   4.290  1.00  0.00    -0.203 F 
ATOM     43  C   UNL     1       9.055  -8.044   4.469  1.00  0.00     0.198 A 
ATOM     44  C   UNL     1       7.653  -8.911   6.214  1.00  0.00     0.198 A 
ATOM     45  F   UNL     1       6.613  -7.442   7.729  1.00  0.00    -0.203 F 
ATOM     46  F   UNL     1       9.827  -8.247   3.393  1.00  0.00    -0.200 F 
ATOM     47  C   UNL     1       8.470  -9.124   5.114  1.00  0.00     0.200 A 
ATOM     48  F   UNL     1       7.096  -9.954   6.845  1.00  0.00    -0.200 F 
ATOM     49  F   UNL     1       8.690 -10.370   4.672  1.00  0.00    -0.200 F 
ENDBRANCH  25  39
BRANCH  26  50
ATOM     50  C   UNL     1       6.379   2.791   9.301  1.00  0.00     0.064 A 
ATOM     51  C   UNL     1       7.413   3.735   9.351  1.00  0.00     0.173 A 
ATOM     52  C   UNL     1       5.102   3.196   9.718  1.00  0.00     0.173 A 
ATOM     53  F   UNL     1       8.654   3.389   8.980  1.00  0.00    -0.203 F 
ATOM     54  C   UNL     1       7.182   5.028   9.815  1.00  0.00     0.198 A 
ATOM     55  C   UNL     1       4.866   4.497  10.153  1.00  0.00     0.198 A 
ATOM     56  F   UNL     1       4.078   2.330   9.682  1.00  0.00    -0.203 F 
ATOM     57  F   UNL     1       8.197   5.900   9.893  1.00  0.00    -0.200 F 
ATOM     58  C   UNL     1       5.908   5.410  10.209  1.00  0.00     0.200 A 
ATOM     59  F   UNL     1       3.631   4.866  10.516  1.00  0.00    -0.200 F 
ATOM     60  F   UNL     1       5.686   6.656  10.649  1.00  0.00    -0.200 F 
ENDBRANCH  26  50
BRANCH  38  61
ATOM     61  C   UNL     1       9.963  -2.629  11.791  1.00  0.00     0.064 A 
ATOM     62  C   UNL     1       9.364  -2.732  13.055  1.00  0.00     0.173 A 
ATOM     63  C   UNL     1      11.361  -2.712  11.713  1.00  0.00     0.173 A 
ATOM     64  F   UNL     1       8.032  -2.639  13.181  1.00  0.00    -0.203 F 
ATOM     65  C   UNL     1      10.139  -2.884  14.201  1.00  0.00     0.198 A 
ATOM     66  C   UNL     1      12.130  -2.891  12.859  1.00  0.00     0.198 A 
ATOM     67  F   UNL     1      11.979  -2.623  10.526  1.00  0.00    -0.203 F 
ATOM     68  F   UNL     1       9.550  -2.929  15.404  1.00  0.00    -0.200 F 
ATOM     69  C   UNL     1      11.520  -2.968  14.102  1.00  0.00     0.200 A 
ATOM     70  F   UNL     1      13.464  -2.980  12.761  1.00  0.00    -0.200 F 
ATOM     71  F   UNL     1      12.264  -3.113  15.207  1.00  0.00    -0.200 F 
ENDBRANCH  38  61
ENDBRANCH  12  13
ENDBRANCH   5   7
ENDBRANCH   2   3
ENDBRANCH   1   2
BRANCH   1  72
ATOM     72  C   UNL     1       4.515  -0.834  -3.825  1.00  0.00     0.023 C 
BRANCH  72  73
ATOM     73  C   UNL     1       4.869   0.576  -4.283  1.00  0.00     0.116 C 
BRANCH  73  74
ATOM     74  N   UNL     1       6.292   0.865  -4.211  1.00  0.00    -0.351 N 
ATOM     75  C   UNL     1       7.123   1.346  -5.199  1.00  0.00     0.270 C 
ATOM     76  H   UNL     1       6.718   0.694  -3.340  1.00  0.00     0.163 HD
ATOM     77  O   UNL     1       8.309   1.549  -4.962  1.00  0.00    -0.268 OA
BRANCH  75  78
ATOM     78  C   UNL     1       6.551   1.637  -6.533  1.00  0.00     0.134 A 
ATOM     79  C   UNL     1       5.596   2.604  -6.665  1.00  0.00     0.063 A 
ATOM     80  N   UNL     1       6.945   0.831  -7.523  1.00  0.00    -0.207 NA
ATOM     81  C   UNL     1       4.980   2.646  -7.894  1.00  0.00     0.077 A 
ATOM     82  C   UNL     1       6.351   0.969  -8.709  1.00  0.00     0.230 A 
ATOM     83  N   UNL     1       5.356   1.849  -8.925  1.00  0.00    -0.213 NA
BRANCH  81  84
ATOM     84  C   UNL     1       3.785   3.482  -8.080  1.00  0.00     0.000 A 
ATOM     85  C   UNL     1       2.583   2.919  -8.539  1.00  0.00     0.010 A 
ATOM     86  C   UNL     1       3.775   4.833  -7.688  1.00  0.00     0.010 A 
ATOM     87  C   UNL     1       1.403   3.668  -8.567  1.00  0.00     0.001 A 
ATOM     88  C   UNL     1       2.598   5.584  -7.721  1.00  0.00     0.001 A 
ATOM     89  C   UNL     1       1.411   4.998  -8.150  1.00  0.00     0.000 A 
ENDBRANCH  81  84
BRANCH  82  90
ATOM     90  N   UNL     1       6.807   0.231  -9.798  1.00  0.00    -0.300 N 
ATOM     91  H   UNL     1       6.392   0.386 -10.677  1.00  0.00     0.172 HD
BRANCH  90  92
ATOM     92  C   UNL     1       7.792  -0.686  -9.705  1.00  0.00     0.190 A 
ATOM     93  N   UNL     1       7.999  -1.475  -8.675  1.00  0.00    -0.220 NA
ATOM     94  S   UNL     1       8.925  -0.899 -10.990  1.00  0.00    -0.097 S 
ATOM     95  C   UNL     1       9.213  -2.116  -8.779  1.00  0.00     0.084 A 
ATOM     96  C   UNL     1       9.894  -1.904  -9.975  1.00  0.00     0.056 A 
ATOM     97  C   UNL     1       9.802  -2.922  -7.785  1.00  0.00     0.030 A 
ATOM     98  C   UNL     1      11.163  -2.462 -10.208  1.00  0.00     0.021 A 
ATOM     99  C   UNL     1      11.068  -3.470  -7.998  1.00  0.00     0.002 A 
ATOM    100  C   UNL     1      11.740  -3.237  -9.194  1.00  0.00     0.002 A 
ENDBRANCH  90  92
ENDBRANCH  82  90
ENDBRANCH  75  78
ENDBRANCH  73  74
ENDBRANCH  72  73
ENDBRANCH   1  72
TORSDOF 14
