REMARK SMILES COc1ccc(Cl)c2sc(N3CC(C(=O)NCCCCNC(=O)c4ccc(-c5c6nc(c(-c7c(F)c(F)c(F)c(F)c7F)c7ccc([nH]7)c(-c7c(F)c(F)c(F)c(F)c7F)c7nc(c(-c8c(F)c(F)c(F)c(F)c8F)c8ccc5[nH]8)C=C7)C=C6)cc4)C3)nc12
REMARK SMILES IDX 18 1 17 2 16 3 14 4 15 5 13 7 11 8 12 9 87 10 10 11 3 12
REMARK SMILES IDX 4 13 89 14 5 15 8 16 88 17 6 18 9 19 7 20 2 21 1 22 19 23
REMARK SMILES IDX 20 24 21 25 22 26 23 28 24 29 25 30 86 31 26 32 85 33 27 34
REMARK SMILES IDX 28 35 29 36 79 37 30 38 84 39 78 40 80 41 31 42 83 43 77 44
REMARK SMILES IDX 76 45 32 47 64 48 44 49 63 50 45 51 48 52 62 53 81 54 46 55
REMARK SMILES IDX 47 56 61 58 82 59 49 60 33 61 34 62 42 63 35 64 36 65 40 66
REMARK SMILES IDX 43 67 37 68 38 69 41 70 39 71 65 72 66 73 74 74 67 75 68 76
REMARK SMILES IDX 72 77 75 78 69 79 70 80 73 81 71 82 50 83 51 84 59 85 52 86
REMARK SMILES IDX 53 87 57 88 60 89 54 90 55 91 58 92 56 93
REMARK H PARENT 16 6 21 27 80 46 48 57
REMARK Flexibility Score: inf
ROOT
ATOM      1  C   UNL     1      -4.935   9.547   0.663  1.00  0.00     0.023 C 
ENDROOT
BRANCH   1   2
ATOM      2  C   UNL     1      -5.320   8.119   1.069  1.00  0.00     0.116 C 
BRANCH   2   3
ATOM      3  N   UNL     1      -6.267   7.527   0.145  1.00  0.00    -0.356 N 
ATOM      4  C   UNL     1      -6.147   6.489  -0.748  1.00  0.00     0.226 C 
ATOM      5  O   UNL     1      -7.180   6.236  -1.390  1.00  0.00    -0.275 OA
ATOM      6  H   UNL     1      -7.159   7.944   0.160  1.00  0.00     0.163 HD
BRANCH   4   7
ATOM      7  C   UNL     1      -4.860   5.693  -0.966  1.00  0.00     0.117 C 
ATOM      8  N   UNL     1      -3.001   5.504  -0.094  1.00  0.00    -0.346 N 
ATOM      9  C   UNL     1      -4.243   4.858   0.159  1.00  0.00     0.134 C 
ATOM     10  C   UNL     1      -3.498   6.364  -1.120  1.00  0.00     0.134 C 
BRANCH   8  11
ATOM     11  C   UNL     1      -1.736   5.056   0.055  1.00  0.00     0.186 A 
ATOM     12  C   UNL     1       0.844   2.528   0.116  1.00  0.00     0.146 A 
ATOM     13  C   UNL     1       2.213   2.609   0.430  1.00  0.00     0.050 A 
ATOM     14  C   UNL     1       0.045   3.707   0.196  1.00  0.00     0.127 A 
ATOM     15  C   UNL     1       2.786   3.811   0.832  1.00  0.00     0.026 A 
ATOM     16  C   UNL     1       0.662   4.913   0.545  1.00  0.00     0.079 A 
ATOM     17  N   UNL     1      -1.335   3.807  -0.025  1.00  0.00    -0.216 NA
ATOM     18  C   UNL     1       2.022   4.975   0.890  1.00  0.00     0.060 A 
ATOM     19  S   UNL     1      -0.494   6.183   0.434  1.00  0.00    -0.095 S 
ATOM     20  Cl  UNL     1       2.778   6.446   1.374  1.00  0.00    -0.083 Cl
BRANCH  12  21
ATOM     21  O   UNL     1       0.251   1.374  -0.339  1.00  0.00    -0.494 OA
ATOM     22  C   UNL     1       0.815   0.146   0.110  1.00  0.00     0.278 C 
ENDBRANCH  12  21
ENDBRANCH   8  11
ENDBRANCH   4   7
ENDBRANCH   2   3
ENDBRANCH   1   2
BRANCH   1  23
ATOM     23  C   UNL     1      -6.072  10.582   0.670  1.00  0.00     0.023 C 
BRANCH  23  24
ATOM     24  C   UNL     1      -6.747  10.774   2.021  1.00  0.00     0.116 C 
BRANCH  24  25
ATOM     25  N   UNL     1      -5.837  11.289   3.038  1.00  0.00    -0.352 N 
ATOM     26  C   UNL     1      -6.123  11.641   4.341  1.00  0.00     0.251 C 
ATOM     27  H   UNL     1      -4.899  11.400   2.759  1.00  0.00     0.163 HD
ATOM     28  O   UNL     1      -5.385  12.389   4.963  1.00  0.00    -0.269 OA
BRANCH  26  29
ATOM     29  C   UNL     1      -7.326  11.086   4.989  1.00  0.00     0.039 A 
ATOM     30  C   UNL     1      -8.072  11.856   5.889  1.00  0.00     0.014 A 
ATOM     31  C   UNL     1      -7.675   9.761   4.729  1.00  0.00     0.014 A 
ATOM     32  C   UNL     1      -9.196  11.295   6.487  1.00  0.00     0.010 A 
ATOM     33  C   UNL     1      -8.846   9.246   5.222  1.00  0.00     0.010 A 
ATOM     34  C   UNL     1      -9.573   9.989   6.144  1.00  0.00    -0.014 A 
BRANCH  34  35
ATOM     35  C   UNL     1     -10.789   9.399   6.676  1.00  0.00     0.031 A 
ATOM     36  C   UNL     1     -12.040  10.076   6.250  1.00  0.00     0.074 A 
ATOM     37  C   UNL     1     -10.790   8.207   7.309  1.00  0.00     0.049 A 
ATOM     38  N   UNL     1     -12.885  10.706   6.995  1.00  0.00    -0.248 NA
ATOM     39  C   UNL     1     -12.328  10.174   4.809  1.00  0.00     0.031 C 
ATOM     40  C   UNL     1      -9.670   7.282   7.515  1.00  0.00     0.029 A 
ATOM     41  N   UNL     1     -11.842   7.519   7.825  1.00  0.00    -0.354 N 
ATOM     42  C   UNL     1     -13.908  11.126   6.151  1.00  0.00     0.074 A 
ATOM     43  C   UNL     1     -13.431  10.927   4.808  1.00  0.00     0.031 C 
ATOM     44  C   UNL     1     -10.144   6.079   7.908  1.00  0.00     0.029 A 
ATOM     45  C   UNL     1     -11.575   6.190   8.127  1.00  0.00     0.049 A 
ATOM     46  H   UNL     1     -12.724   7.931   7.974  1.00  0.00     0.167 HD
ATOM     47  C   UNL     1     -15.154  11.384   6.637  1.00  0.00     0.037 A 
ATOM     48  C   UNL     1     -12.482   5.249   8.494  1.00  0.00     0.037 A 
ATOM     49  C   UNL     1     -15.127  11.533   8.070  1.00  0.00     0.049 A 
ATOM     50  C   UNL     1     -13.688   5.971   8.976  1.00  0.00     0.074 A 
ATOM     51  C   UNL     1     -14.482  12.394   8.938  1.00  0.00     0.029 A 
ATOM     52  N   UNL     1     -15.527  10.464   8.835  1.00  0.00    -0.354 N 
ATOM     53  N   UNL     1     -13.712   6.682  10.070  1.00  0.00    -0.248 NA
ATOM     54  C   UNL     1     -14.712   6.300   7.994  1.00  0.00     0.031 C 
ATOM     55  C   UNL     1     -14.089  11.577  10.038  1.00  0.00     0.029 A 
ATOM     56  C   UNL     1     -14.585  10.291   9.817  1.00  0.00     0.049 A 
ATOM     57  H   UNL     1     -16.339   9.922   8.703  1.00  0.00     0.167 HD
ATOM     58  C   UNL     1     -14.448   7.810   9.740  1.00  0.00     0.074 A 
ATOM     59  C   UNL     1     -15.103   7.484   8.474  1.00  0.00     0.031 C 
ATOM     60  C   UNL     1     -14.223   9.004  10.361  1.00  0.00     0.037 A 
BRANCH  47  61
ATOM     61  C   UNL     1     -16.441  11.142   5.887  1.00  0.00     0.064 A 
ATOM     62  C   UNL     1     -17.657  11.569   6.460  1.00  0.00     0.173 A 
ATOM     63  C   UNL     1     -16.562  10.252   4.798  1.00  0.00     0.173 A 
ATOM     64  F   UNL     1     -17.662  12.403   7.511  1.00  0.00    -0.203 F 
ATOM     65  C   UNL     1     -18.890  11.074   6.030  1.00  0.00     0.198 A 
ATOM     66  C   UNL     1     -17.799   9.804   4.336  1.00  0.00     0.198 A 
ATOM     67  F   UNL     1     -15.500   9.690   4.213  1.00  0.00    -0.203 F 
ATOM     68  F   UNL     1     -20.007  11.405   6.692  1.00  0.00    -0.200 F 
ATOM     69  C   UNL     1     -18.960  10.187   4.973  1.00  0.00     0.200 A 
ATOM     70  F   UNL     1     -17.843   8.930   3.321  1.00  0.00    -0.200 F 
ATOM     71  F   UNL     1     -20.134   9.661   4.600  1.00  0.00    -0.200 F 
ENDBRANCH  47  61
BRANCH  48  72
ATOM     72  C   UNL     1     -12.489   3.797   8.191  1.00  0.00     0.064 A 
ATOM     73  C   UNL     1     -13.330   2.911   8.886  1.00  0.00     0.173 A 
ATOM     74  C   UNL     1     -11.876   3.290   7.029  1.00  0.00     0.173 A 
ATOM     75  F   UNL     1     -13.990   3.324   9.977  1.00  0.00    -0.203 F 
ATOM     76  C   UNL     1     -13.563   1.607   8.431  1.00  0.00     0.198 A 
ATOM     77  C   UNL     1     -12.104   1.988   6.579  1.00  0.00     0.198 A 
ATOM     78  F   UNL     1     -11.118   4.077   6.252  1.00  0.00    -0.203 F 
ATOM     79  F   UNL     1     -14.420   0.812   9.087  1.00  0.00    -0.200 F 
ATOM     80  C   UNL     1     -12.958   1.151   7.272  1.00  0.00     0.200 A 
ATOM     81  F   UNL     1     -11.542   1.572   5.435  1.00  0.00    -0.200 F 
ATOM     82  F   UNL     1     -13.228  -0.075   6.802  1.00  0.00    -0.200 F 
ENDBRANCH  48  72
BRANCH  60  83
ATOM     83  C   UNL     1     -13.327   9.022  11.569  1.00  0.00     0.064 A 
ATOM     84  C   UNL     1     -11.958   8.703  11.537  1.00  0.00     0.173 A 
ATOM     85  C   UNL     1     -13.831   9.569  12.756  1.00  0.00     0.173 A 
ATOM     86  F   UNL     1     -11.377   8.263  10.415  1.00  0.00    -0.203 F 
ATOM     87  C   UNL     1     -11.141   8.901  12.649  1.00  0.00     0.198 A 
ATOM     88  C   UNL     1     -13.006   9.801  13.853  1.00  0.00     0.198 A 
ATOM     89  F   UNL     1     -15.118   9.943  12.829  1.00  0.00    -0.203 F 
ATOM     90  F   UNL     1      -9.837   8.591  12.590  1.00  0.00    -0.200 F 
ATOM     91  C   UNL     1     -11.664   9.462  13.802  1.00  0.00     0.200 A 
ATOM     92  F   UNL     1     -13.506  10.390  14.948  1.00  0.00    -0.200 F 
ATOM     93  F   UNL     1     -10.868   9.705  14.853  1.00  0.00    -0.200 F 
ENDBRANCH  60  83
ENDBRANCH  34  35
ENDBRANCH  26  29
ENDBRANCH  24  25
ENDBRANCH  23  24
ENDBRANCH   1  23
TORSDOF 13
