REMARK SMILES O=C(NCCCCNC(=O)c1nccnc1C(=O)Nc1ccc2c(c1)OCO2)c1ccc(-c2c3nc(c(-c4c(F)c(F)c(F)c(F)c4F)c4ccc([nH]4)c(-c4c(F)c(F)c(F)c(F)c4F)c4nc(c(-c5c(F)c(F)c(F)c(F)c5F)c5ccc2[nH]5)C=C4)C=C3)cc1
REMARK SMILES IDX 5 1 4 2 3 3 1 4 2 5 29 7 30 8 91 9 31 10 90 11 32 12 33 13
REMARK SMILES IDX 34 14 84 15 35 16 89 17 83 18 85 19 36 20 88 21 82 22 81 23
REMARK SMILES IDX 37 25 69 26 49 27 68 28 50 29 53 30 67 31 86 32 51 33 52 34
REMARK SMILES IDX 66 36 87 37 54 38 38 39 39 40 47 41 40 42 41 43 45 44 48 45
REMARK SMILES IDX 42 46 43 47 46 48 44 49 70 50 71 51 79 52 72 53 73 54 77 55
REMARK SMILES IDX 80 56 74 57 75 58 78 59 76 60 55 61 56 62 64 63 57 64 58 65
REMARK SMILES IDX 62 66 65 67 59 68 60 69 63 70 61 71 6 72 7 73 8 74 9 75
REMARK SMILES IDX 10 77 11 78 12 79 16 80 13 81 15 82 14 83 17 84 18 85 19 86
REMARK SMILES IDX 20 88 21 89 25 90 22 91 24 92 23 93 26 94 28 95 27 96
REMARK H PARENT 3 6 85 24 53 35 8 76 19 87
REMARK Flexibility Score: inf
ROOT
ATOM      1  C   UNL     1       4.401  -0.922   2.493  1.00  0.00     0.023 C 
ENDROOT
BRANCH   1   2
ATOM      2  C   UNL     1       4.203  -1.025   0.984  1.00  0.00     0.116 C 
BRANCH   2   3
ATOM      3  N   UNL     1       2.810  -0.979   0.589  1.00  0.00    -0.352 N 
ATOM      4  O   UNL     1       0.928  -0.177  -0.335  1.00  0.00    -0.269 OA
ATOM      5  C   UNL     1       2.150  -0.104  -0.236  1.00  0.00     0.251 C 
ATOM      6  H   UNL     1       2.247  -1.689   0.974  1.00  0.00     0.163 HD
BRANCH   5   7
ATOM      7  C   UNL     1       2.875   0.943  -0.994  1.00  0.00     0.039 A 
ATOM      8  C   UNL     1       4.042   0.671  -1.717  1.00  0.00     0.014 A 
ATOM      9  C   UNL     1       2.310   2.222  -1.048  1.00  0.00     0.014 A 
ATOM     10  C   UNL     1       4.684   1.694  -2.422  1.00  0.00     0.010 A 
ATOM     11  C   UNL     1       2.925   3.231  -1.792  1.00  0.00     0.010 A 
ATOM     12  C   UNL     1       4.126   2.981  -2.474  1.00  0.00    -0.014 A 
BRANCH  12  13
ATOM     13  C   UNL     1       4.754   4.061  -3.276  1.00  0.00     0.031 A 
ATOM     14  C   UNL     1       5.352   5.263  -2.603  1.00  0.00     0.074 A 
ATOM     15  C   UNL     1       4.722   3.993  -4.620  1.00  0.00     0.049 A 
ATOM     16  N   UNL     1       5.837   6.357  -3.136  1.00  0.00    -0.248 NA
ATOM     17  C   UNL     1       5.399   5.237  -1.134  1.00  0.00     0.031 C 
ATOM     18  C   UNL     1       4.156   2.889  -5.393  1.00  0.00     0.029 A 
ATOM     19  N   UNL     1       5.151   4.884  -5.573  1.00  0.00    -0.354 N 
ATOM     20  C   UNL     1       6.226   7.157  -2.071  1.00  0.00     0.074 A 
ATOM     21  C   UNL     1       5.902   6.432  -0.860  1.00  0.00     0.031 C 
ATOM     22  C   UNL     1       4.265   3.168  -6.701  1.00  0.00     0.029 A 
ATOM     23  C   UNL     1       4.866   4.490  -6.856  1.00  0.00     0.049 A 
ATOM     24  H   UNL     1       5.617   5.724  -5.356  1.00  0.00     0.167 HD
ATOM     25  C   UNL     1       6.806   8.382  -2.102  1.00  0.00     0.037 A 
ATOM     26  C   UNL     1       5.039   5.132  -8.027  1.00  0.00     0.037 A 
ATOM     27  C   UNL     1       7.136   9.096  -3.309  1.00  0.00     0.049 A 
ATOM     28  C   UNL     1       5.660   6.501  -8.039  1.00  0.00     0.074 A 
ATOM     29  C   UNL     1       7.772  10.319  -3.442  1.00  0.00     0.029 A 
ATOM     30  N   UNL     1       6.848   8.655  -4.592  1.00  0.00    -0.354 N 
ATOM     31  N   UNL     1       6.068   7.229  -7.029  1.00  0.00    -0.248 NA
ATOM     32  C   UNL     1       5.844   7.137  -9.351  1.00  0.00     0.031 C 
ATOM     33  C   UNL     1       7.827  10.639  -4.803  1.00  0.00     0.029 A 
ATOM     34  C   UNL     1       7.270   9.593  -5.521  1.00  0.00     0.049 A 
ATOM     35  H   UNL     1       6.408   7.802  -4.811  1.00  0.00     0.167 HD
ATOM     36  C   UNL     1       6.580   8.395  -7.580  1.00  0.00     0.074 A 
ATOM     37  C   UNL     1       6.434   8.277  -9.016  1.00  0.00     0.031 C 
ATOM     38  C   UNL     1       7.128   9.462  -6.949  1.00  0.00     0.037 A 
BRANCH  25  39
ATOM     39  C   UNL     1       7.099   9.041  -0.786  1.00  0.00     0.064 A 
ATOM     40  C   UNL     1       8.124   8.584   0.056  1.00  0.00     0.173 A 
ATOM     41  C   UNL     1       6.361  10.161  -0.373  1.00  0.00     0.173 A 
ATOM     42  F   UNL     1       8.852   7.512  -0.289  1.00  0.00    -0.203 F 
ATOM     43  C   UNL     1       8.376   9.203   1.278  1.00  0.00     0.198 A 
ATOM     44  C   UNL     1       6.634  10.794   0.836  1.00  0.00     0.198 A 
ATOM     45  F   UNL     1       5.375  10.644  -1.145  1.00  0.00    -0.203 F 
ATOM     46  F   UNL     1       9.327   8.718   2.088  1.00  0.00    -0.200 F 
ATOM     47  C   UNL     1       7.635  10.309   1.665  1.00  0.00     0.200 A 
ATOM     48  F   UNL     1       5.924  11.870   1.204  1.00  0.00    -0.200 F 
ATOM     49  F   UNL     1       7.879  10.903   2.841  1.00  0.00    -0.200 F 
ENDBRANCH  25  39
BRANCH  26  50
ATOM     50  C   UNL     1       4.610   4.472  -9.285  1.00  0.00     0.064 A 
ATOM     51  C   UNL     1       5.551   3.951 -10.182  1.00  0.00     0.173 A 
ATOM     52  C   UNL     1       3.251   4.307  -9.591  1.00  0.00     0.173 A 
ATOM     53  F   UNL     1       6.862   4.103  -9.940  1.00  0.00    -0.203 F 
ATOM     54  C   UNL     1       5.149   3.289 -11.340  1.00  0.00     0.198 A 
ATOM     55  C   UNL     1       2.850   3.624 -10.737  1.00  0.00     0.198 A 
ATOM     56  F   UNL     1       2.313   4.785  -8.760  1.00  0.00    -0.203 F 
ATOM     57  F   UNL     1       6.069   2.819 -12.193  1.00  0.00    -0.200 F 
ATOM     58  C   UNL     1       3.800   3.118 -11.612  1.00  0.00     0.200 A 
ATOM     59  F   UNL     1       1.546   3.449 -10.988  1.00  0.00    -0.200 F 
ATOM     60  F   UNL     1       3.415   2.466 -12.717  1.00  0.00    -0.200 F 
ENDBRANCH  26  50
BRANCH  38  61
ATOM     61  C   UNL     1       7.650  10.579  -7.803  1.00  0.00     0.064 A 
ATOM     62  C   UNL     1       6.789  11.491  -8.430  1.00  0.00     0.173 A 
ATOM     63  C   UNL     1       9.032  10.776  -7.940  1.00  0.00     0.173 A 
ATOM     64  F   UNL     1       5.459  11.334  -8.341  1.00  0.00    -0.203 F 
ATOM     65  C   UNL     1       7.294  12.556  -9.170  1.00  0.00     0.198 A 
ATOM     66  C   UNL     1       9.533  11.855  -8.662  1.00  0.00     0.198 A 
ATOM     67  F   UNL     1       9.896   9.932  -7.357  1.00  0.00    -0.203 F 
ATOM     68  F   UNL     1       6.454  13.401  -9.784  1.00  0.00    -0.200 F 
ATOM     69  C   UNL     1       8.664  12.743  -9.279  1.00  0.00     0.200 A 
ATOM     70  F   UNL     1      10.857  12.040  -8.757  1.00  0.00    -0.200 F 
ATOM     71  F   UNL     1       9.148  13.777  -9.980  1.00  0.00    -0.200 F 
ENDBRANCH  38  61
ENDBRANCH  12  13
ENDBRANCH   5   7
ENDBRANCH   2   3
ENDBRANCH   1   2
BRANCH   1  72
ATOM     72  C   UNL     1       3.791  -2.020   3.367  1.00  0.00     0.023 C 
BRANCH  72  73
ATOM     73  C   UNL     1       3.950  -3.471   2.917  1.00  0.00     0.116 C 
BRANCH  73  74
ATOM     74  N   UNL     1       5.283  -3.842   2.478  1.00  0.00    -0.351 N 
ATOM     75  C   UNL     1       6.087  -4.859   2.942  1.00  0.00     0.272 C 
ATOM     76  H   UNL     1       5.662  -3.295   1.754  1.00  0.00     0.163 HD
ATOM     77  O   UNL     1       6.962  -5.327   2.219  1.00  0.00    -0.267 OA
BRANCH  75  78
ATOM     78  C   UNL     1       5.859  -5.456   4.265  1.00  0.00     0.159 A 
ATOM     79  N   UNL     1       4.818  -6.351   4.277  1.00  0.00    -0.247 NA
ATOM     80  C   UNL     1       6.649  -5.198   5.383  1.00  0.00     0.159 A 
ATOM     81  C   UNL     1       4.600  -6.979   5.449  1.00  0.00     0.132 A 
ATOM     82  N   UNL     1       6.392  -5.838   6.568  1.00  0.00    -0.247 NA
ATOM     83  C   UNL     1       5.368  -6.725   6.569  1.00  0.00     0.132 A 
BRANCH  80  84
ATOM     84  C   UNL     1       7.742  -4.168   5.476  1.00  0.00     0.276 C 
ATOM     85  O   UNL     1       7.745  -3.355   6.397  1.00  0.00    -0.267 OA
ATOM     86  N   UNL     1       8.819  -4.293   4.623  1.00  0.00    -0.320 N 
ATOM     87  H   UNL     1       9.533  -4.921   4.877  1.00  0.00     0.170 HD
BRANCH  86  88
ATOM     88  C   UNL     1       8.970  -3.586   3.416  1.00  0.00     0.045 A 
ATOM     89  C   UNL     1       8.187  -2.452   3.118  1.00  0.00     0.030 A 
ATOM     90  C   UNL     1       9.814  -4.140   2.446  1.00  0.00     0.076 A 
ATOM     91  C   UNL     1       8.161  -1.929   1.820  1.00  0.00     0.053 A 
ATOM     92  C   UNL     1       9.716  -3.641   1.164  1.00  0.00     0.167 A 
ATOM     93  C   UNL     1       8.896  -2.580   0.856  1.00  0.00     0.165 A 
ATOM     94  O   UNL     1      10.321  -4.160   0.061  1.00  0.00    -0.454 OA
ATOM     95  O   UNL     1       8.874  -2.310  -0.477  1.00  0.00    -0.454 OA
ATOM     96  C   UNL     1       9.643  -3.426  -0.979  1.00  0.00     0.468 C 
ENDBRANCH  86  88
ENDBRANCH  80  84
ENDBRANCH  75  78
ENDBRANCH  73  74
ENDBRANCH  72  73
ENDBRANCH   1  72
TORSDOF 13
