REMARK SMILES CC[NH+]1CC[NH+]([C@@H]2CC(=O)N(c3ccc(C(=O)NCCCCNC(=O)c4ccc(-c5c6nc(c(-c7c(F)c(F)c(F)c(F)c7F)c7ccc([nH]7)c(-c7c(F)c(F)c(F)c(F)c7F)c7nc(c(-c8c(F)c(F)c(F)c(F)c8F)c8ccc5[nH]8)C=C7)C=C6)cc4)cc3)C2=O)CC1
REMARK SMILES IDX 20 1 19 2 18 3 16 4 17 5 15 7 12 8 13 9 90 10 14 11 89 12
REMARK SMILES IDX 11 13 7 14 8 15 91 16 9 17 92 18 10 19 6 20 3 21 4 22 94 23
REMARK SMILES IDX 5 25 93 26 2 28 1 29 21 30 22 31 23 32 24 33 25 35 26 36
REMARK SMILES IDX 27 37 88 38 28 39 87 40 29 41 30 42 31 43 81 44 32 45 86 46
REMARK SMILES IDX 80 47 82 48 33 49 85 50 79 51 78 52 34 54 66 55 46 56 65 57
REMARK SMILES IDX 47 58 50 59 64 60 83 61 48 62 49 63 63 65 84 66 51 67 35 68
REMARK SMILES IDX 36 69 44 70 37 71 38 72 42 73 45 74 39 75 40 76 43 77 41 78
REMARK SMILES IDX 67 79 68 80 76 81 69 82 70 83 74 84 77 85 71 86 72 87 75 88
REMARK SMILES IDX 73 89 52 90 53 91 61 92 54 93 55 94 59 95 62 96 56 97 57 98
REMARK SMILES IDX 60 99 58 100
REMARK H PARENT 18 6 3 24 6 27 23 34 82 53 50 64
REMARK Flexibility Score: inf
ROOT
ATOM      1  C   UNL     1      11.996   5.447   3.551  1.00  0.00     0.023 C 
ENDROOT
BRANCH   1   2
ATOM      2  C   UNL     1      11.909   4.217   2.641  1.00  0.00     0.116 C 
BRANCH   2   3
ATOM      3  N   UNL     1      11.748   3.009   3.424  1.00  0.00    -0.352 N 
ATOM      4  C   UNL     1      10.632   2.334   3.851  1.00  0.00     0.251 C 
ATOM      5  O   UNL     1      10.813   1.293   4.485  1.00  0.00    -0.269 OA
ATOM      6  H   UNL     1      12.598   2.595   3.701  1.00  0.00     0.163 HD
BRANCH   4   7
ATOM      7  C   UNL     1       9.234   2.773   3.560  1.00  0.00     0.039 A 
ATOM      8  C   UNL     1       6.546   3.437   3.023  1.00  0.00     0.052 A 
ATOM      9  C   UNL     1       6.880   2.146   3.444  1.00  0.00     0.027 A 
ATOM     10  C   UNL     1       7.547   4.394   2.897  1.00  0.00     0.027 A 
ATOM     11  C   UNL     1       8.219   1.811   3.679  1.00  0.00     0.016 A 
ATOM     12  C   UNL     1       8.864   4.074   3.217  1.00  0.00     0.016 A 
BRANCH   8  13
ATOM     13  N   UNL     1       5.216   3.798   2.761  1.00  0.00    -0.245 N 
ATOM     14  C   UNL     1       2.899   4.059   3.004  1.00  0.00     0.285 C 
ATOM     15  C   UNL     1       3.353   4.746   1.721  1.00  0.00     0.176 C 
ATOM     16  C   UNL     1       4.194   3.583   3.650  1.00  0.00     0.292 C 
ATOM     17  C   UNL     1       4.827   4.506   1.655  1.00  0.00     0.240 C 
ATOM     18  O   UNL     1       4.282   3.118   4.780  1.00  0.00    -0.267 OA
ATOM     19  O   UNL     1       5.521   4.892   0.723  1.00  0.00    -0.274 OA
BRANCH  14  20
ATOM     20  N   UNL     1       1.911   2.969   2.950  1.00  0.00    -0.315 N 
ATOM     21  N   UNL     1       0.942   1.824   0.333  1.00  0.00    -0.326 N 
ATOM     22  C   UNL     1       0.426   3.102   0.869  1.00  0.00     0.324 C 
ATOM     23  C   UNL     1       2.277   1.538   0.891  1.00  0.00     0.324 C 
ATOM     24  H   UNL     1       1.041   1.913  -0.678  1.00  0.00     0.348 HD
ATOM     25  C   UNL     1       0.604   3.334   2.390  1.00  0.00     0.325 C 
ATOM     26  C   UNL     1       2.369   1.677   2.423  1.00  0.00     0.325 C 
ATOM     27  H   UNL     1       1.778   2.813   3.949  1.00  0.00     0.349 HD
BRANCH  21  28
ATOM     28  C   UNL     1      -0.005   0.723   0.561  1.00  0.00     0.259 C 
ATOM     29  C   UNL     1       0.282  -0.460  -0.359  1.00  0.00     0.071 C 
ENDBRANCH  21  28
ENDBRANCH  14  20
ENDBRANCH   8  13
ENDBRANCH   4   7
ENDBRANCH   2   3
ENDBRANCH   1   2
BRANCH   1  30
ATOM     30  C   UNL     1      13.380   5.685   4.153  1.00  0.00     0.023 C 
BRANCH  30  31
ATOM     31  C   UNL     1      14.466   5.986   3.130  1.00  0.00     0.116 C 
BRANCH  31  32
ATOM     32  N   UNL     1      14.178   7.151   2.308  1.00  0.00    -0.352 N 
ATOM     33  C   UNL     1      15.073   8.004   1.705  1.00  0.00     0.251 C 
ATOM     34  H   UNL     1      13.226   7.354   2.167  1.00  0.00     0.163 HD
ATOM     35  O   UNL     1      14.690   9.007   1.123  1.00  0.00    -0.269 OA
BRANCH  33  36
ATOM     36  C   UNL     1      16.516   7.710   1.818  1.00  0.00     0.039 A 
ATOM     37  C   UNL     1      17.368   8.712   2.284  1.00  0.00     0.014 A 
ATOM     38  C   UNL     1      17.008   6.437   1.520  1.00  0.00     0.014 A 
ATOM     39  C   UNL     1      18.711   8.416   2.517  1.00  0.00     0.010 A 
ATOM     40  C   UNL     1      18.329   6.125   1.819  1.00  0.00     0.010 A 
ATOM     41  C   UNL     1      19.192   7.111   2.321  1.00  0.00    -0.014 A 
BRANCH  41  42
ATOM     42  C   UNL     1      20.596   6.756   2.637  1.00  0.00     0.031 A 
ATOM     43  C   UNL     1      21.529   6.338   1.537  1.00  0.00     0.074 A 
ATOM     44  C   UNL     1      21.006   6.746   3.920  1.00  0.00     0.049 A 
ATOM     45  N   UNL     1      22.767   5.923   1.616  1.00  0.00    -0.248 NA
ATOM     46  C   UNL     1      20.990   6.365   0.168  1.00  0.00     0.031 C 
ATOM     47  C   UNL     1      20.175   7.081   5.077  1.00  0.00     0.029 A 
ATOM     48  N   UNL     1      22.224   6.429   4.466  1.00  0.00    -0.354 N 
ATOM     49  C   UNL     1      23.148   5.627   0.315  1.00  0.00     0.074 A 
ATOM     50  C   UNL     1      21.997   5.859  -0.529  1.00  0.00     0.031 C 
ATOM     51  C   UNL     1      20.912   6.970   6.194  1.00  0.00     0.029 A 
ATOM     52  C   UNL     1      22.255   6.525   5.836  1.00  0.00     0.049 A 
ATOM     53  H   UNL     1      23.003   6.158   3.927  1.00  0.00     0.167 HD
ATOM     54  C   UNL     1      24.358   5.222  -0.138  1.00  0.00     0.037 A 
ATOM     55  C   UNL     1      23.255   6.276   6.702  1.00  0.00     0.037 A 
ATOM     56  C   UNL     1      25.509   5.020   0.702  1.00  0.00     0.049 A 
ATOM     57  C   UNL     1      24.591   5.833   6.171  1.00  0.00     0.074 A 
ATOM     58  C   UNL     1      26.795   4.666   0.333  1.00  0.00     0.029 A 
ATOM     59  N   UNL     1      25.511   5.157   2.082  1.00  0.00    -0.354 N 
ATOM     60  N   UNL     1      24.961   5.623   4.931  1.00  0.00    -0.248 NA
ATOM     61  C   UNL     1      25.653   5.600   7.160  1.00  0.00     0.031 C 
ATOM     62  C   UNL     1      27.567   4.553   1.494  1.00  0.00     0.029 A 
ATOM     63  C   UNL     1      26.773   4.879   2.582  1.00  0.00     0.049 A 
ATOM     64  H   UNL     1      24.731   5.413   2.626  1.00  0.00     0.167 HD
ATOM     65  C   UNL     1      26.300   5.263   4.987  1.00  0.00     0.074 A 
ATOM     66  C   UNL     1      26.683   5.297   6.383  1.00  0.00     0.031 C 
ATOM     67  C   UNL     1      27.137   4.932   3.974  1.00  0.00     0.037 A 
BRANCH  54  68
ATOM     68  C   UNL     1      24.503   4.982  -1.611  1.00  0.00     0.064 A 
ATOM     69  C   UNL     1      24.505   6.043  -2.530  1.00  0.00     0.173 A 
ATOM     70  C   UNL     1      24.685   3.683  -2.108  1.00  0.00     0.173 A 
ATOM     71  F   UNL     1      24.322   7.303  -2.106  1.00  0.00    -0.203 F 
ATOM     72  C   UNL     1      24.660   5.810  -3.893  1.00  0.00     0.198 A 
ATOM     73  C   UNL     1      24.867   3.456  -3.470  1.00  0.00     0.198 A 
ATOM     74  F   UNL     1      24.695   2.634  -1.273  1.00  0.00    -0.203 F 
ATOM     75  F   UNL     1      24.614   6.835  -4.756  1.00  0.00    -0.200 F 
ATOM     76  C   UNL     1      24.848   4.519  -4.362  1.00  0.00     0.200 A 
ATOM     77  F   UNL     1      25.061   2.209  -3.921  1.00  0.00    -0.200 F 
ATOM     78  F   UNL     1      25.006   4.297  -5.674  1.00  0.00    -0.200 F 
ENDBRANCH  54  68
BRANCH  55  79
ATOM     79  C   UNL     1      23.042   6.463   8.161  1.00  0.00     0.064 A 
ATOM     80  C   UNL     1      23.675   7.505   8.852  1.00  0.00     0.173 A 
ATOM     81  C   UNL     1      22.217   5.598   8.896  1.00  0.00     0.173 A 
ATOM     82  F   UNL     1      24.488   8.345   8.195  1.00  0.00    -0.203 F 
ATOM     83  C   UNL     1      23.512   7.662  10.226  1.00  0.00     0.198 A 
ATOM     84  C   UNL     1      22.033   5.772  10.266  1.00  0.00     0.198 A 
ATOM     85  F   UNL     1      21.585   4.589   8.280  1.00  0.00    -0.203 F 
ATOM     86  F   UNL     1      24.168   8.636  10.870  1.00  0.00    -0.200 F 
ATOM     87  C   UNL     1      22.688   6.798  10.932  1.00  0.00     0.200 A 
ATOM     88  F   UNL     1      21.226   4.943  10.942  1.00  0.00    -0.200 F 
ATOM     89  F   UNL     1      22.532   6.947  12.254  1.00  0.00    -0.200 F 
ENDBRANCH  55  79
BRANCH  67  90
ATOM     90  C   UNL     1      28.559   4.618   4.334  1.00  0.00     0.064 A 
ATOM     91  C   UNL     1      28.907   3.422   4.978  1.00  0.00     0.173 A 
ATOM     92  C   UNL     1      29.589   5.507   3.993  1.00  0.00     0.173 A 
ATOM     93  F   UNL     1      27.956   2.547   5.338  1.00  0.00    -0.203 F 
ATOM     94  C   UNL     1      30.234   3.139   5.289  1.00  0.00     0.198 A 
ATOM     95  C   UNL     1      30.918   5.207   4.280  1.00  0.00     0.198 A 
ATOM     96  F   UNL     1      29.308   6.662   3.370  1.00  0.00    -0.203 F 
ATOM     97  F   UNL     1      30.540   2.011   5.944  1.00  0.00    -0.200 F 
ATOM     98  C   UNL     1      31.238   4.027   4.933  1.00  0.00     0.200 A 
ATOM     99  F   UNL     1      31.888   6.061   3.924  1.00  0.00    -0.200 F 
ATOM    100  F   UNL     1      32.516   3.749   5.227  1.00  0.00    -0.200 F 
ENDBRANCH  67  90
ENDBRANCH  41  42
ENDBRANCH  33  36
ENDBRANCH  31  32
ENDBRANCH  30  31
ENDBRANCH   1  30
TORSDOF 14
