REMARK SMILES O=C(N[C@H]1c2ccccc2C[C@H]1C(=O)NCCCCNC(=O)c1ccc(-c2c3nc(c(-c4c(F)c(F)c(F)c(F)c4F)c4ccc([nH]4)c(-c4c(F)c(F)c(F)c(F)c4F)c4nc(c(-c5c(F)c(F)c(F)c(F)c5F)c5ccc2[nH]5)C=C4)C=C3)cc1)OCC1c2ccccc2-c2ccccc21
REMARK SMILES IDX 16 1 15 2 13 3 14 4 12 6 4 7 5 8 6 9 10 10 11 11 7 12 9 13
REMARK SMILES IDX 8 14 3 15 1 16 2 17 86 19 87 20 88 21 89 22 100 23 90 24
REMARK SMILES IDX 94 25 95 26 99 27 91 28 93 29 96 30 98 31 92 32 97 33 17 34
REMARK SMILES IDX 18 35 19 36 20 37 21 38 22 40 23 41 24 42 85 43 25 44 84 45
REMARK SMILES IDX 26 46 27 47 28 48 78 49 29 50 83 51 77 52 79 53 30 54 82 55
REMARK SMILES IDX 76 56 75 57 31 59 63 60 43 61 62 62 44 63 47 64 61 65 80 66
REMARK SMILES IDX 45 67 46 68 60 70 81 71 48 72 32 73 33 74 41 75 34 76 35 77
REMARK SMILES IDX 39 78 42 79 36 80 37 81 40 82 38 83 64 84 65 85 73 86 66 87
REMARK SMILES IDX 67 88 71 89 74 90 68 91 69 92 72 93 70 94 49 95 50 96 58 97
REMARK SMILES IDX 51 98 52 99 56 100 59 101 53 102 54 103 57 104 55 105
REMARK H PARENT 15 5 3 18 20 39 79 58 47 69
REMARK Flexibility Score: inf
ROOT
ATOM      1  C   UNL     1       3.615   1.110  -2.134  1.00  0.00     0.116 C 
ENDROOT
BRANCH   1   2
ATOM      2  N   UNL     1       3.544   0.158  -3.219  1.00  0.00    -0.356 N 
ATOM      3  C   UNL     1       3.901  -1.167  -3.204  1.00  0.00     0.225 C 
ATOM      4  O   UNL     1       3.568  -1.842  -4.181  1.00  0.00    -0.275 OA
ATOM      5  H   UNL     1       3.197   0.502  -4.074  1.00  0.00     0.163 HD
BRANCH   3   6
ATOM      6  C   UNL     1       4.776  -1.745  -2.090  1.00  0.00     0.110 C 
ATOM      7  C   UNL     1       4.308  -1.650  -0.617  1.00  0.00     0.129 C 
ATOM      8  C   UNL     1       4.748  -2.944  -0.002  1.00  0.00    -0.021 A 
ATOM      9  C   UNL     1       4.693  -3.310   1.339  1.00  0.00     0.006 A 
ATOM     10  C   UNL     1       5.336  -3.775  -0.948  1.00  0.00    -0.042 A 
ATOM     11  C   UNL     1       5.141  -3.234  -2.331  1.00  0.00     0.052 C 
ATOM     12  C   UNL     1       5.311  -4.489   1.741  1.00  0.00     0.000 A 
ATOM     13  C   UNL     1       5.951  -4.954  -0.559  1.00  0.00     0.004 A 
ATOM     14  C   UNL     1       5.956  -5.296   0.798  1.00  0.00     0.000 A 
BRANCH   7  15
ATOM     15  N   UNL     1       2.927  -1.365  -0.336  1.00  0.00    -0.314 N 
ATOM     16  O   UNL     1       1.393  -0.206   0.875  1.00  0.00    -0.225 OA
ATOM     17  C   UNL     1       2.528  -0.625   0.748  1.00  0.00     0.407 C 
ATOM     18  H   UNL     1       2.239  -1.715  -0.947  1.00  0.00     0.167 HD
BRANCH  17  19
ATOM     19  O   UNL     1       3.548  -0.348   1.614  1.00  0.00    -0.449 OA
BRANCH  19  20
ATOM     20  C   UNL     1       3.904   1.028   1.567  1.00  0.00     0.248 C 
BRANCH  20  21
ATOM     21  C   UNL     1       5.200   1.376   2.324  1.00  0.00     0.088 C 
ATOM     22  C   UNL     1       6.487   0.660   1.900  1.00  0.00    -0.029 A 
ATOM     23  C   UNL     1       5.530   2.820   1.929  1.00  0.00    -0.029 A 
ATOM     24  C   UNL     1       6.875  -0.650   2.132  1.00  0.00     0.005 A 
ATOM     25  C   UNL     1       7.388   1.572   1.305  1.00  0.00    -0.014 A 
ATOM     26  C   UNL     1       6.767   2.875   1.253  1.00  0.00    -0.014 A 
ATOM     27  C   UNL     1       4.714   3.936   2.037  1.00  0.00     0.005 A 
ATOM     28  C   UNL     1       8.161  -1.052   1.746  1.00  0.00     0.000 A 
ATOM     29  C   UNL     1       8.669   1.182   0.939  1.00  0.00     0.009 A 
ATOM     30  C   UNL     1       7.172   4.041   0.627  1.00  0.00     0.009 A 
ATOM     31  C   UNL     1       5.120   5.106   1.401  1.00  0.00     0.000 A 
ATOM     32  C   UNL     1       9.054  -0.141   1.163  1.00  0.00     0.001 A 
ATOM     33  C   UNL     1       6.330   5.155   0.691  1.00  0.00     0.001 A 
ENDBRANCH  20  21
ENDBRANCH  19  20
ENDBRANCH  17  19
ENDBRANCH   7  15
ENDBRANCH   3   6
ENDBRANCH   1   2
BRANCH   1  34
ATOM     34  C   UNL     1       3.724   2.580  -2.521  1.00  0.00     0.023 C 
BRANCH  34  35
ATOM     35  C   UNL     1       2.543   3.188  -3.276  1.00  0.00     0.023 C 
BRANCH  35  36
ATOM     36  C   UNL     1       1.155   2.995  -2.669  1.00  0.00     0.116 C 
BRANCH  36  37
ATOM     37  N   UNL     1       0.978   3.615  -1.363  1.00  0.00    -0.352 N 
ATOM     38  C   UNL     1       0.046   4.535  -0.934  1.00  0.00     0.251 C 
ATOM     39  H   UNL     1       1.626   3.332  -0.679  1.00  0.00     0.163 HD
ATOM     40  O   UNL     1       0.120   4.997   0.201  1.00  0.00    -0.269 OA
BRANCH  38  41
ATOM     41  C   UNL     1      -1.018   5.016  -1.849  1.00  0.00     0.039 A 
ATOM     42  C   UNL     1      -1.286   6.388  -1.911  1.00  0.00     0.014 A 
ATOM     43  C   UNL     1      -1.734   4.135  -2.660  1.00  0.00     0.014 A 
ATOM     44  C   UNL     1      -2.185   6.881  -2.863  1.00  0.00     0.010 A 
ATOM     45  C   UNL     1      -2.562   4.633  -3.665  1.00  0.00     0.010 A 
ATOM     46  C   UNL     1      -2.785   6.013  -3.788  1.00  0.00    -0.014 A 
BRANCH  46  47
ATOM     47  C   UNL     1      -3.621   6.525  -4.909  1.00  0.00     0.031 A 
ATOM     48  C   UNL     1      -5.067   6.130  -5.025  1.00  0.00     0.074 A 
ATOM     49  C   UNL     1      -3.055   7.274  -5.876  1.00  0.00     0.049 A 
ATOM     50  N   UNL     1      -5.929   6.404  -5.972  1.00  0.00    -0.248 NA
ATOM     51  C   UNL     1      -5.606   5.286  -3.948  1.00  0.00     0.031 C 
ATOM     52  C   UNL     1      -1.652   7.687  -5.915  1.00  0.00     0.029 A 
ATOM     53  N   UNL     1      -3.590   7.814  -7.021  1.00  0.00    -0.354 N 
ATOM     54  C   UNL     1      -7.100   5.746  -5.619  1.00  0.00     0.074 A 
ATOM     55  C   UNL     1      -6.823   5.019  -4.399  1.00  0.00     0.031 C 
ATOM     56  C   UNL     1      -1.445   8.443  -7.006  1.00  0.00     0.029 A 
ATOM     57  C   UNL     1      -2.688   8.533  -7.766  1.00  0.00     0.049 A 
ATOM     58  H   UNL     1      -4.532   7.696  -7.283  1.00  0.00     0.167 HD
ATOM     59  C   UNL     1      -8.303   5.762  -6.243  1.00  0.00     0.037 A 
ATOM     60  C   UNL     1      -2.842   9.190  -8.931  1.00  0.00     0.037 A 
ATOM     61  C   UNL     1      -8.588   6.513  -7.438  1.00  0.00     0.049 A 
ATOM     62  C   UNL     1      -4.186   9.191  -9.607  1.00  0.00     0.074 A 
ATOM     63  C   UNL     1      -9.797   6.664  -8.095  1.00  0.00     0.029 A 
ATOM     64  N   UNL     1      -7.649   7.234  -8.160  1.00  0.00    -0.354 N 
ATOM     65  N   UNL     1      -5.307   8.632  -9.222  1.00  0.00    -0.248 NA
ATOM     66  C   UNL     1      -4.284   9.915 -10.883  1.00  0.00     0.031 C 
ATOM     67  C   UNL     1      -9.579   7.436  -9.242  1.00  0.00     0.029 A 
ATOM     68  C   UNL     1      -8.245   7.809  -9.272  1.00  0.00     0.049 A 
ATOM     69  H   UNL     1      -6.699   7.325  -7.918  1.00  0.00     0.167 HD
ATOM     70  C   UNL     1      -6.250   8.963 -10.186  1.00  0.00     0.074 A 
ATOM     71  C   UNL     1      -5.571   9.778 -11.172  1.00  0.00     0.031 C 
ATOM     72  C   UNL     1      -7.561   8.624 -10.245  1.00  0.00     0.037 A 
BRANCH  59  73
ATOM     73  C   UNL     1      -9.402   4.933  -5.641  1.00  0.00     0.064 A 
ATOM     74  C   UNL     1      -9.987   5.263  -4.409  1.00  0.00     0.173 A 
ATOM     75  C   UNL     1      -9.884   3.798  -6.312  1.00  0.00     0.173 A 
ATOM     76  F   UNL     1      -9.557   6.332  -3.722  1.00  0.00    -0.203 F 
ATOM     77  C   UNL     1     -10.980   4.463  -3.849  1.00  0.00     0.198 A 
ATOM     78  C   UNL     1     -10.901   3.020  -5.764  1.00  0.00     0.198 A 
ATOM     79  F   UNL     1      -9.369   3.442  -7.498  1.00  0.00    -0.203 F 
ATOM     80  F   UNL     1     -11.476   4.762  -2.640  1.00  0.00    -0.200 F 
ATOM     81  C   UNL     1     -11.439   3.345  -4.529  1.00  0.00     0.200 A 
ATOM     82  F   UNL     1     -11.354   1.948  -6.429  1.00  0.00    -0.200 F 
ATOM     83  F   UNL     1     -12.394   2.576  -3.988  1.00  0.00    -0.200 F 
ENDBRANCH  59  73
BRANCH  60  84
ATOM     84  C   UNL     1      -1.702   9.947  -9.511  1.00  0.00     0.064 A 
ATOM     85  C   UNL     1      -1.704  11.349  -9.507  1.00  0.00     0.173 A 
ATOM     86  C   UNL     1      -0.591   9.297 -10.066  1.00  0.00     0.173 A 
ATOM     87  F   UNL     1      -2.756  12.015  -9.007  1.00  0.00    -0.203 F 
ATOM     88  C   UNL     1      -0.643  12.072 -10.046  1.00  0.00     0.198 A 
ATOM     89  C   UNL     1       0.481  10.021 -10.583  1.00  0.00     0.198 A 
ATOM     90  F   UNL     1      -0.540   7.957 -10.091  1.00  0.00    -0.203 F 
ATOM     91  F   UNL     1      -0.687  13.412 -10.061  1.00  0.00    -0.200 F 
ATOM     92  C   UNL     1       0.452  11.408 -10.577  1.00  0.00     0.200 A 
ATOM     93  F   UNL     1       1.543   9.377 -11.084  1.00  0.00    -0.200 F 
ATOM     94  F   UNL     1       1.477  12.104 -11.088  1.00  0.00    -0.200 F 
ENDBRANCH  60  84
BRANCH  72  95
ATOM     95  C   UNL     1      -8.362   9.164 -11.394  1.00  0.00     0.064 A 
ATOM     96  C   UNL     1      -8.198   8.678 -12.700  1.00  0.00     0.173 A 
ATOM     97  C   UNL     1      -9.334  10.152 -11.178  1.00  0.00     0.173 A 
ATOM     98  F   UNL     1      -7.271   7.746 -12.962  1.00  0.00    -0.203 F 
ATOM     99  C   UNL     1      -8.963   9.180 -13.750  1.00  0.00     0.198 A 
ATOM    100  C   UNL     1     -10.117  10.630 -12.225  1.00  0.00     0.198 A 
ATOM    101  F   UNL     1      -9.533  10.647  -9.947  1.00  0.00    -0.203 F 
ATOM    102  F   UNL     1      -8.758   8.734 -14.998  1.00  0.00    -0.200 F 
ATOM    103  C   UNL     1      -9.927  10.148 -13.511  1.00  0.00     0.200 A 
ATOM    104  F   UNL     1     -11.056  11.557 -11.989  1.00  0.00    -0.200 F 
ATOM    105  F   UNL     1     -10.667  10.623 -14.522  1.00  0.00    -0.200 F 
ENDBRANCH  72  95
ENDBRANCH  46  47
ENDBRANCH  38  41
ENDBRANCH  36  37
ENDBRANCH  35  36
ENDBRANCH  34  35
ENDBRANCH   1  34
TORSDOF 15
