REMARK SMILES CCCN(CC(=O)NCCCCNC(=O)c1ccc(-c2c3nc(c(-c4c(F)c(F)c(F)c(F)c4F)c4ccc([nH]4)c(-c4c(F)c(F)c(F)c(F)c4F)c4nc(c(-c5c(F)c(F)c(F)c(F)c5F)c5ccc2[nH]5)C=C4)C=C3)cc1)C(=O)Cc1ccc(F)c(F)c1
REMARK SMILES IDX 9 1 8 2 6 3 7 4 5 6 4 7 3 8 2 9 1 10 79 11 80 12 81 13 82 14
REMARK SMILES IDX 83 15 89 16 84 17 87 18 85 19 88 20 86 21 10 22 11 23 12 24
REMARK SMILES IDX 13 25 14 26 15 28 16 29 17 30 78 31 18 32 77 33 19 34 20 35
REMARK SMILES IDX 21 36 71 37 22 38 76 39 70 40 72 41 23 42 75 43 69 44 68 45
REMARK SMILES IDX 24 47 56 48 36 49 55 50 37 51 40 52 54 53 73 54 38 55 39 56
REMARK SMILES IDX 53 58 74 59 41 60 25 61 26 62 34 63 27 64 28 65 32 66 35 67
REMARK SMILES IDX 29 68 30 69 33 70 31 71 57 72 58 73 66 74 59 75 60 76 64 77
REMARK SMILES IDX 67 78 61 79 62 80 65 81 63 82 42 83 43 84 51 85 44 86 45 87
REMARK SMILES IDX 49 88 52 89 46 90 47 91 50 92 48 93
REMARK H PARENT 8 5 13 27 72 46 40 57
REMARK Flexibility Score: inf
ROOT
ATOM      1  C   UNL     1       2.356   4.869   2.032  1.00  0.00     0.116 C 
ENDROOT
BRANCH   1   2
ATOM      2  N   UNL     1       1.502   5.636   1.154  1.00  0.00    -0.355 N 
ATOM      3  C   UNL     1       0.311   5.278   0.593  1.00  0.00     0.239 C 
ATOM      4  O   UNL     1      -0.320   6.148  -0.012  1.00  0.00    -0.273 OA
ATOM      5  H   UNL     1       1.822   6.540   0.932  1.00  0.00     0.163 HD
BRANCH   3   6
ATOM      6  C   UNL     1      -0.252   3.856   0.765  1.00  0.00     0.219 C 
BRANCH   6   7
ATOM      7  N   UNL     1       0.616   2.795   0.227  1.00  0.00    -0.333 N 
BRANCH   7   8
ATOM      8  C   UNL     1       1.088   1.762   1.158  1.00  0.00     0.120 C 
BRANCH   8   9
ATOM      9  C   UNL     1       0.285   0.458   1.115  1.00  0.00     0.018 C 
ATOM     10  C   UNL     1       0.707  -0.484  -0.004  1.00  0.00     0.006 C 
ENDBRANCH   8   9
ENDBRANCH   7   8
BRANCH   7  11
ATOM     11  C   UNL     1       0.952   2.670  -1.119  1.00  0.00     0.227 C 
ATOM     12  O   UNL     1       1.832   1.882  -1.483  1.00  0.00    -0.275 OA
BRANCH  11  13
ATOM     13  C   UNL     1       0.275   3.546  -2.170  1.00  0.00     0.135 C 
BRANCH  13  14
ATOM     14  C   UNL     1      -1.233   3.442  -2.227  1.00  0.00    -0.036 A 
ATOM     15  C   UNL     1      -2.008   4.612  -2.314  1.00  0.00     0.007 A 
ATOM     16  C   UNL     1      -1.883   2.200  -2.175  1.00  0.00     0.046 A 
ATOM     17  C   UNL     1      -3.402   4.548  -2.275  1.00  0.00     0.043 A 
ATOM     18  C   UNL     1      -3.274   2.145  -2.136  1.00  0.00     0.159 A 
ATOM     19  C   UNL     1      -4.028   3.312  -2.174  1.00  0.00     0.158 A 
ATOM     20  F   UNL     1      -3.881   0.955  -2.035  1.00  0.00    -0.204 F 
ATOM     21  F   UNL     1      -5.365   3.256  -2.104  1.00  0.00    -0.204 F 
ENDBRANCH  13  14
ENDBRANCH  11  13
ENDBRANCH   7  11
ENDBRANCH   6   7
ENDBRANCH   3   6
ENDBRANCH   1   2
BRANCH   1  22
ATOM     22  C   UNL     1       3.531   4.229   1.298  1.00  0.00     0.023 C 
BRANCH  22  23
ATOM     23  C   UNL     1       4.576   5.210   0.769  1.00  0.00     0.023 C 
BRANCH  23  24
ATOM     24  C   UNL     1       5.147   6.167   1.805  1.00  0.00     0.116 C 
BRANCH  24  25
ATOM     25  N   UNL     1       5.746   5.496   2.949  1.00  0.00    -0.352 N 
ATOM     26  C   UNL     1       6.835   5.891   3.688  1.00  0.00     0.251 C 
ATOM     27  H   UNL     1       5.318   4.655   3.228  1.00  0.00     0.163 HD
ATOM     28  O   UNL     1       7.286   5.174   4.575  1.00  0.00    -0.269 OA
BRANCH  26  29
ATOM     29  C   UNL     1       7.484   7.178   3.370  1.00  0.00     0.039 A 
ATOM     30  C   UNL     1       8.864   7.205   3.151  1.00  0.00     0.014 A 
ATOM     31  C   UNL     1       6.720   8.339   3.238  1.00  0.00     0.014 A 
ATOM     32  C   UNL     1       9.470   8.390   2.732  1.00  0.00     0.010 A 
ATOM     33  C   UNL     1       7.312   9.498   2.753  1.00  0.00     0.010 A 
ATOM     34  C   UNL     1       8.693   9.535   2.498  1.00  0.00    -0.014 A 
BRANCH  34  35
ATOM     35  C   UNL     1       9.292  10.801   2.013  1.00  0.00     0.031 A 
ATOM     36  C   UNL     1       9.252  12.020   2.890  1.00  0.00     0.074 A 
ATOM     37  C   UNL     1       9.779  10.881   0.761  1.00  0.00     0.049 A 
ATOM     38  N   UNL     1       9.578  13.255   2.611  1.00  0.00    -0.248 NA
ATOM     39  C   UNL     1       8.739  11.825   4.255  1.00  0.00     0.031 C 
ATOM     40  C   UNL     1       9.845   9.777  -0.195  1.00  0.00     0.029 A 
ATOM     41  N   UNL     1      10.295  11.950   0.073  1.00  0.00    -0.354 N 
ATOM     42  C   UNL     1       9.279  13.988   3.752  1.00  0.00     0.074 A 
ATOM     43  C   UNL     1       8.704  13.068   4.709  1.00  0.00     0.031 C 
ATOM     44  C   UNL     1      10.388  10.220  -1.340  1.00  0.00     0.029 A 
ATOM     45  C   UNL     1      10.669  11.647  -1.213  1.00  0.00     0.049 A 
ATOM     46  H   UNL     1      10.388  12.849   0.463  1.00  0.00     0.167 HD
ATOM     47  C   UNL     1       9.483  15.306   3.986  1.00  0.00     0.037 A 
ATOM     48  C   UNL     1      11.173  12.436  -2.180  1.00  0.00     0.037 A 
ATOM     49  C   UNL     1      10.091  16.207   3.044  1.00  0.00     0.049 A 
ATOM     50  C   UNL     1      11.393  13.898  -1.898  1.00  0.00     0.074 A 
ATOM     51  C   UNL     1      10.402  17.545   3.205  1.00  0.00     0.029 A 
ATOM     52  N   UNL     1      10.483  15.856   1.760  1.00  0.00    -0.354 N 
ATOM     53  N   UNL     1      11.153  14.573  -0.800  1.00  0.00    -0.248 NA
ATOM     54  C   UNL     1      11.954  14.706  -2.990  1.00  0.00     0.031 C 
ATOM     55  C   UNL     1      10.948  18.014   2.006  1.00  0.00     0.029 A 
ATOM     56  C   UNL     1      11.019  16.956   1.112  1.00  0.00     0.049 A 
ATOM     57  H   UNL     1      10.393  14.957   1.367  1.00  0.00     0.167 HD
ATOM     58  C   UNL     1      11.567  15.873  -1.054  1.00  0.00     0.074 A 
ATOM     59  C   UNL     1      12.072  15.893  -2.411  1.00  0.00     0.031 C 
ATOM     60  C   UNL     1      11.536  16.952  -0.233  1.00  0.00     0.037 A 
BRANCH  47  61
ATOM     61  C   UNL     1       9.033  15.845   5.312  1.00  0.00     0.064 A 
ATOM     62  C   UNL     1       9.676  15.492   6.509  1.00  0.00     0.173 A 
ATOM     63  C   UNL     1       7.942  16.724   5.389  1.00  0.00     0.173 A 
ATOM     64  F   UNL     1      10.715  14.643   6.492  1.00  0.00    -0.203 F 
ATOM     65  C   UNL     1       9.217  15.964   7.736  1.00  0.00     0.198 A 
ATOM     66  C   UNL     1       7.506  17.220   6.615  1.00  0.00     0.198 A 
ATOM     67  F   UNL     1       7.295  17.097   4.275  1.00  0.00    -0.203 F 
ATOM     68  F   UNL     1       9.805  15.559   8.870  1.00  0.00    -0.200 F 
ATOM     69  C   UNL     1       8.135  16.830   7.787  1.00  0.00     0.200 A 
ATOM     70  F   UNL     1       6.467  18.065   6.662  1.00  0.00    -0.200 F 
ATOM     71  F   UNL     1       7.691  17.280   8.969  1.00  0.00    -0.200 F 
ENDBRANCH  47  61
BRANCH  48  72
ATOM     72  C   UNL     1      11.542  11.848  -3.493  1.00  0.00     0.064 A 
ATOM     73  C   UNL     1      12.889  11.687  -3.846  1.00  0.00     0.173 A 
ATOM     74  C   UNL     1      10.570  11.419  -4.407  1.00  0.00     0.173 A 
ATOM     75  F   UNL     1      13.854  12.101  -3.011  1.00  0.00    -0.203 F 
ATOM     76  C   UNL     1      13.250  11.126  -5.069  1.00  0.00     0.198 A 
ATOM     77  C   UNL     1      10.932  10.838  -5.620  1.00  0.00     0.198 A 
ATOM     78  F   UNL     1       9.268  11.548  -4.113  1.00  0.00    -0.203 F 
ATOM     79  F   UNL     1      14.545  11.012  -5.395  1.00  0.00    -0.200 F 
ATOM     80  C   UNL     1      12.272  10.696  -5.953  1.00  0.00     0.200 A 
ATOM     81  F   UNL     1       9.985  10.411  -6.466  1.00  0.00    -0.200 F 
ATOM     82  F   UNL     1      12.619  10.149  -7.125  1.00  0.00    -0.200 F 
ENDBRANCH  48  72
BRANCH  60  83
ATOM     83  C   UNL     1      12.113  18.234  -0.755  1.00  0.00     0.064 A 
ATOM     84  C   UNL     1      11.438  19.014  -1.705  1.00  0.00     0.173 A 
ATOM     85  C   UNL     1      13.329  18.717  -0.249  1.00  0.00     0.173 A 
ATOM     86  F   UNL     1      10.279  18.587  -2.229  1.00  0.00    -0.203 F 
ATOM     87  C   UNL     1      11.969  20.225  -2.141  1.00  0.00     0.198 A 
ATOM     88  C   UNL     1      13.844  19.940  -0.668  1.00  0.00     0.198 A 
ATOM     89  F   UNL     1      14.009  18.009   0.665  1.00  0.00    -0.203 F 
ATOM     90  F   UNL     1      11.326  20.939  -3.075  1.00  0.00    -0.200 F 
ATOM     91  C   UNL     1      13.166  20.691  -1.616  1.00  0.00     0.200 A 
ATOM     92  F   UNL     1      14.994  20.394  -0.151  1.00  0.00    -0.200 F 
ATOM     93  F   UNL     1      13.668  21.863  -2.028  1.00  0.00    -0.200 F 
ENDBRANCH  60  83
ENDBRANCH  34  35
ENDBRANCH  26  29
ENDBRANCH  24  25
ENDBRANCH  23  24
ENDBRANCH  22  23
ENDBRANCH   1  22
TORSDOF 17
