REMARK SMILES COCC[N@H+](C)[C@H](C(=O)NCCCCNC(=O)c1ccc(-c2c3nc(c(-c4c(F)c(F)c(F)c(F)c4F)c4ccc([nH]4)c(-c4c(F)c(F)c(F)c(F)c4F)c4nc(c(-c5c(F)c(F)c(F)c(F)c5F)c5ccc2[nH]5)C=C4)C=C3)cc1)c1ccc(OC)nc1
REMARK SMILES IDX 11 1 10 2 8 3 9 4 7 6 5 7 6 8 4 10 3 11 2 12 1 13 81 14
REMARK SMILES IDX 82 15 88 16 83 17 87 18 84 19 85 20 86 21 12 22 13 23 14 24
REMARK SMILES IDX 15 25 16 26 17 28 18 29 19 30 80 31 20 32 79 33 21 34 22 35
REMARK SMILES IDX 23 36 73 37 24 38 78 39 72 40 74 41 25 42 77 43 71 44 70 45
REMARK SMILES IDX 26 47 58 48 38 49 57 50 39 51 42 52 56 53 75 54 40 55 41 56
REMARK SMILES IDX 55 58 76 59 43 60 27 61 28 62 36 63 29 64 30 65 34 66 37 67
REMARK SMILES IDX 31 68 32 69 35 70 33 71 59 72 60 73 68 74 61 75 62 76 66 77
REMARK SMILES IDX 69 78 63 79 64 80 67 81 65 82 44 83 45 84 53 85 46 86 47 87
REMARK SMILES IDX 51 88 54 89 48 90 49 91 52 92 50 93
REMARK H PARENT 10 5 5 9 15 27 74 46 42 57
REMARK Flexibility Score: inf
ROOT
ATOM      1  C   UNL     1       1.426   0.504   2.656  1.00  0.00     0.116 C 
ENDROOT
BRANCH   1   2
ATOM      2  N   UNL     1       1.279  -0.917   2.421  1.00  0.00    -0.351 N 
ATOM      3  C   UNL     1       0.885  -1.647   1.344  1.00  0.00     0.283 C 
ATOM      4  O   UNL     1       0.974  -2.876   1.496  1.00  0.00    -0.268 OA
ATOM      5  H   UNL     1       1.514  -1.468   3.202  1.00  0.00     0.163 HD
BRANCH   3   6
ATOM      6  C   UNL     1       0.303  -1.075   0.009  1.00  0.00     0.306 C 
BRANCH   6   7
ATOM      7  N   UNL     1      -1.124  -1.445  -0.094  1.00  0.00    -0.321 N 
ATOM      8  C   UNL     1      -2.082  -0.891   0.834  1.00  0.00     0.333 C 
ATOM      9  H   UNL     1      -1.013  -2.374   0.313  1.00  0.00     0.348 HD
BRANCH   7  10
ATOM     10  C   UNL     1      -1.648  -1.685  -1.439  1.00  0.00     0.291 C 
BRANCH  10  11
ATOM     11  C   UNL     1      -1.202  -3.028  -2.058  1.00  0.00     0.221 C 
BRANCH  11  12
ATOM     12  O   UNL     1      -1.857  -4.165  -1.488  1.00  0.00    -0.379 OA
ATOM     13  C   UNL     1      -1.310  -4.567  -0.236  1.00  0.00     0.195 C 
ENDBRANCH  11  12
ENDBRANCH  10  11
ENDBRANCH   7  10
ENDBRANCH   6   7
BRANCH   6  14
ATOM     14  C   UNL     1       0.738   0.319  -0.397  1.00  0.00     0.038 A 
ATOM     15  C   UNL     1      -0.048   1.472  -0.331  1.00  0.00     0.017 A 
ATOM     16  C   UNL     1       2.066   0.512  -0.788  1.00  0.00     0.125 A 
ATOM     17  C   UNL     1       0.517   2.729  -0.575  1.00  0.00     0.069 A 
ATOM     18  N   UNL     1       2.634   1.716  -1.025  1.00  0.00    -0.222 NA
ATOM     19  C   UNL     1       1.863   2.813  -0.891  1.00  0.00     0.212 A 
BRANCH  19  20
ATOM     20  O   UNL     1       2.547   3.976  -1.098  1.00  0.00    -0.481 OA
ATOM     21  C   UNL     1       1.984   5.148  -0.525  1.00  0.00     0.280 C 
ENDBRANCH  19  20
ENDBRANCH   6  14
ENDBRANCH   3   6
ENDBRANCH   1   2
BRANCH   1  22
ATOM     22  C   UNL     1       0.247   1.098   3.417  1.00  0.00     0.023 C 
BRANCH  22  23
ATOM     23  C   UNL     1       0.322   0.901   4.930  1.00  0.00     0.023 C 
BRANCH  23  24
ATOM     24  C   UNL     1       1.583   1.452   5.587  1.00  0.00     0.116 C 
BRANCH  24  25
ATOM     25  N   UNL     1       1.868   2.836   5.236  1.00  0.00    -0.352 N 
ATOM     26  C   UNL     1       2.474   3.802   6.006  1.00  0.00     0.251 C 
ATOM     27  H   UNL     1       1.593   3.116   4.333  1.00  0.00     0.163 HD
ATOM     28  O   UNL     1       2.563   4.954   5.619  1.00  0.00    -0.269 OA
BRANCH  26  29
ATOM     29  C   UNL     1       2.974   3.414   7.339  1.00  0.00     0.039 A 
ATOM     30  C   UNL     1       2.534   4.124   8.457  1.00  0.00     0.014 A 
ATOM     31  C   UNL     1       3.808   2.301   7.478  1.00  0.00     0.014 A 
ATOM     32  C   UNL     1       2.873   3.669   9.730  1.00  0.00     0.010 A 
ATOM     33  C   UNL     1       4.083   1.809   8.746  1.00  0.00     0.010 A 
ATOM     34  C   UNL     1       3.616   2.486   9.883  1.00  0.00    -0.014 A 
BRANCH  34  35
ATOM     35  C   UNL     1       3.919   1.938  11.226  1.00  0.00     0.031 A 
ATOM     36  C   UNL     1       5.343   1.855  11.694  1.00  0.00     0.074 A 
ATOM     37  C   UNL     1       2.921   1.444  11.984  1.00  0.00     0.049 A 
ATOM     38  N   UNL     1       5.823   1.337  12.796  1.00  0.00    -0.248 NA
ATOM     39  C   UNL     1       6.368   2.396  10.787  1.00  0.00     0.031 C 
ATOM     40  C   UNL     1       1.506   1.416  11.609  1.00  0.00     0.029 A 
ATOM     41  N   UNL     1       2.946   0.860  13.225  1.00  0.00    -0.354 N 
ATOM     42  C   UNL     1       7.202   1.471  12.703  1.00  0.00     0.074 A 
ATOM     43  C   UNL     1       7.486   2.070  11.417  1.00  0.00     0.031 C 
ATOM     44  C   UNL     1       0.796   0.868  12.609  1.00  0.00     0.029 A 
ATOM     45  C   UNL     1       1.708   0.476  13.679  1.00  0.00     0.049 A 
ATOM     46  H   UNL     1       3.774   0.729  13.742  1.00  0.00     0.167 HD
ATOM     47  C   UNL     1       8.143   1.145  13.619  1.00  0.00     0.037 A 
ATOM     48  C   UNL     1       1.354  -0.125  14.830  1.00  0.00     0.037 A 
ATOM     49  C   UNL     1       7.850   0.589  14.913  1.00  0.00     0.049 A 
ATOM     50  C   UNL     1       2.418  -0.457  15.840  1.00  0.00     0.074 A 
ATOM     51  C   UNL     1       8.724   0.295  15.944  1.00  0.00     0.029 A 
ATOM     52  N   UNL     1       6.580   0.243  15.351  1.00  0.00    -0.354 N 
ATOM     53  N   UNL     1       3.712  -0.255  15.775  1.00  0.00    -0.248 NA
ATOM     54  C   UNL     1       1.972  -1.093  17.087  1.00  0.00     0.031 C 
ATOM     55  C   UNL     1       7.987  -0.263  16.994  1.00  0.00     0.029 A 
ATOM     56  C   UNL     1       6.649  -0.277  16.633  1.00  0.00     0.049 A 
ATOM     57  H   UNL     1       5.753   0.352  14.829  1.00  0.00     0.167 HD
ATOM     58  C   UNL     1       4.230  -0.711  16.979  1.00  0.00     0.074 A 
ATOM     59  C   UNL     1       3.109  -1.189  17.762  1.00  0.00     0.031 C 
ATOM     60  C   UNL     1       5.519  -0.733  17.399  1.00  0.00     0.037 A 
BRANCH  47  61
ATOM     61  C   UNL     1       9.577   1.394  13.257  1.00  0.00     0.064 A 
ATOM     62  C   UNL     1      10.096   2.694  13.162  1.00  0.00     0.173 A 
ATOM     63  C   UNL     1      10.451   0.320  13.032  1.00  0.00     0.173 A 
ATOM     64  F   UNL     1       9.298   3.756  13.354  1.00  0.00    -0.203 F 
ATOM     65  C   UNL     1      11.430   2.911  12.825  1.00  0.00     0.198 A 
ATOM     66  C   UNL     1      11.791   0.540  12.725  1.00  0.00     0.198 A 
ATOM     67  F   UNL     1      10.006  -0.943  13.114  1.00  0.00    -0.203 F 
ATOM     68  F   UNL     1      11.890   4.162  12.691  1.00  0.00    -0.200 F 
ATOM     69  C   UNL     1      12.277   1.834  12.614  1.00  0.00     0.200 A 
ATOM     70  F   UNL     1      12.612  -0.502  12.532  1.00  0.00    -0.200 F 
ATOM     71  F   UNL     1      13.562   2.044  12.297  1.00  0.00    -0.200 F 
ENDBRANCH  47  61
BRANCH  48  72
ATOM     72  C   UNL     1      -0.076  -0.419  15.108  1.00  0.00     0.064 A 
ATOM     73  C   UNL     1      -0.777   0.297  16.088  1.00  0.00     0.173 A 
ATOM     74  C   UNL     1      -0.768  -1.419  14.410  1.00  0.00     0.173 A 
ATOM     75  F   UNL     1      -0.151   1.250  16.795  1.00  0.00    -0.203 F 
ATOM     76  C   UNL     1      -2.109   0.010  16.376  1.00  0.00     0.198 A 
ATOM     77  C   UNL     1      -2.108  -1.688  14.681  1.00  0.00     0.198 A 
ATOM     78  F   UNL     1      -0.145  -2.128  13.458  1.00  0.00    -0.203 F 
ATOM     79  F   UNL     1      -2.741   0.680  17.349  1.00  0.00    -0.200 F 
ATOM     80  C   UNL     1      -2.775  -0.979  15.669  1.00  0.00     0.200 A 
ATOM     81  F   UNL     1      -2.753  -2.636  13.987  1.00  0.00    -0.200 F 
ATOM     82  F   UNL     1      -4.057  -1.254  15.945  1.00  0.00    -0.200 F 
ENDBRANCH  48  72
BRANCH  60  83
ATOM     83  C   UNL     1       5.781  -1.256  18.780  1.00  0.00     0.064 A 
ATOM     84  C   UNL     1       5.696  -2.624  19.076  1.00  0.00     0.173 A 
ATOM     85  C   UNL     1       6.165  -0.382  19.808  1.00  0.00     0.173 A 
ATOM     86  F   UNL     1       5.317  -3.497  18.131  1.00  0.00    -0.203 F 
ATOM     87  C   UNL     1       5.966  -3.095  20.358  1.00  0.00     0.198 A 
ATOM     88  C   UNL     1       6.461  -0.859  21.081  1.00  0.00     0.198 A 
ATOM     89  F   UNL     1       6.267   0.935  19.572  1.00  0.00    -0.203 F 
ATOM     90  F   UNL     1       5.837  -4.401  20.630  1.00  0.00    -0.200 F 
ATOM     91  C   UNL     1       6.355  -2.214  21.356  1.00  0.00     0.200 A 
ATOM     92  F   UNL     1       6.849  -0.009  22.041  1.00  0.00    -0.200 F 
ATOM     93  F   UNL     1       6.622  -2.671  22.588  1.00  0.00    -0.200 F 
ENDBRANCH  60  83
ENDBRANCH  34  35
ENDBRANCH  26  29
ENDBRANCH  24  25
ENDBRANCH  23  24
ENDBRANCH  22  23
ENDBRANCH   1  22
TORSDOF 17
