REMARK SMILES Cc1ccc2c(=O)c3cccc(CC(=O)NCCCCNC(=O)c4ccc(-c5c6nc(c(-c7c(F)c(F)c(F)c(F)c7F)c7ccc([nH]7)c(-c7c(F)c(F)c(F)c(F)c7F)c7nc(c(-c8c(F)c(F)c(F)c(F)c8F)c8ccc5[nH]8)C=C7)C=C6)cc4)c3oc2c1C
REMARK SMILES IDX 19 1 18 2 17 3 16 4 14 5 15 6 13 8 12 9 1 10 2 11 3 12 90 13
REMARK SMILES IDX 4 14 89 15 91 16 5 17 88 18 6 19 87 20 7 21 8 22 9 23 11 24
REMARK SMILES IDX 10 25 20 26 21 27 22 28 23 30 24 31 25 32 86 33 26 34 85 35
REMARK SMILES IDX 27 36 28 37 29 38 79 39 30 40 84 41 78 42 80 43 31 44 83 45
REMARK SMILES IDX 77 46 76 47 32 49 64 50 44 51 63 52 45 53 48 54 62 55 81 56
REMARK SMILES IDX 46 57 47 58 61 60 82 61 49 62 33 63 34 64 42 65 35 66 36 67
REMARK SMILES IDX 40 68 43 69 37 70 38 71 41 72 39 73 65 74 66 75 74 76 67 77
REMARK SMILES IDX 68 78 72 79 75 80 69 81 70 82 73 83 71 84 50 85 51 86 59 87
REMARK SMILES IDX 52 88 53 89 57 90 60 91 54 92 55 93 58 94 56 95
REMARK H PARENT 16 7 21 29 80 48 48 59
REMARK Flexibility Score: inf
ROOT
ATOM      1  C   UNL     1       0.473   7.502   4.540  1.00  0.00     0.023 C 
ENDROOT
BRANCH   1   2
ATOM      2  C   UNL     1       0.987   8.173   3.266  1.00  0.00     0.023 C 
BRANCH   2   3
ATOM      3  C   UNL     1       2.509   8.274   3.156  1.00  0.00     0.116 C 
BRANCH   3   4
ATOM      4  N   UNL     1       3.142   6.976   3.035  1.00  0.00    -0.356 N 
ATOM      5  C   UNL     1       3.604   6.339   1.919  1.00  0.00     0.224 C 
ATOM      6  O   UNL     1       4.159   5.248   2.068  1.00  0.00    -0.275 OA
ATOM      7  H   UNL     1       3.254   6.482   3.879  1.00  0.00     0.163 HD
BRANCH   5   8
ATOM      8  C   UNL     1       3.509   7.000   0.553  1.00  0.00     0.139 C 
BRANCH   8   9
ATOM      9  C   UNL     1       2.103   7.229   0.044  1.00  0.00     0.005 A 
ATOM     10  C   UNL     1       1.072  -0.003  -0.060  1.00  0.00     0.045 C 
ATOM     11  C   UNL     1       0.560   1.404  -0.215  1.00  0.00    -0.044 A 
ATOM     12  C   UNL     1      -0.772   1.583  -0.626  1.00  0.00     0.005 A 
ATOM     13  C   UNL     1       1.358   2.536   0.070  1.00  0.00    -0.005 A 
ATOM     14  C   UNL     1      -1.305   2.860  -0.787  1.00  0.00     0.016 A 
ATOM     15  C   UNL     1       0.816   3.826  -0.122  1.00  0.00     0.141 A 
ATOM     16  C   UNL     1       2.779   2.413   0.561  1.00  0.00     0.049 C 
ATOM     17  C   UNL     1      -0.504   3.974  -0.544  1.00  0.00     0.066 A 
ATOM     18  O   UNL     1       1.645   4.899   0.124  1.00  0.00    -0.455 OA
ATOM     19  C   UNL     1      -1.042   5.326  -0.738  1.00  0.00     0.200 A 
ATOM     20  C   UNL     1       1.195   6.170  -0.137  1.00  0.00     0.142 A 
ATOM     21  O   UNL     1      -2.212   5.516  -1.043  1.00  0.00    -0.288 OA
ATOM     22  C   UNL     1      -0.106   6.443  -0.561  1.00  0.00     0.066 A 
ATOM     23  C   UNL     1      -0.521   7.753  -0.818  1.00  0.00     0.016 A 
ATOM     24  C   UNL     1       1.688   8.540  -0.261  1.00  0.00     0.008 A 
ATOM     25  C   UNL     1       0.382   8.801  -0.676  1.00  0.00     0.001 A 
ENDBRANCH   8   9
ENDBRANCH   5   8
ENDBRANCH   3   4
ENDBRANCH   2   3
ENDBRANCH   1   2
BRANCH   1  26
ATOM     26  C   UNL     1       0.900   8.161   5.845  1.00  0.00     0.116 C 
BRANCH  26  27
ATOM     27  N   UNL     1       0.461   9.542   5.977  1.00  0.00    -0.352 N 
ATOM     28  C   UNL     1       0.055  10.209   7.112  1.00  0.00     0.251 C 
ATOM     29  H   UNL     1       0.452  10.070   5.146  1.00  0.00     0.163 HD
ATOM     30  O   UNL     1      -0.369  11.358   7.041  1.00  0.00    -0.269 OA
BRANCH  28  31
ATOM     31  C   UNL     1       0.083   9.508   8.414  1.00  0.00     0.039 A 
ATOM     32  C   UNL     1       1.205   8.776   8.804  1.00  0.00     0.014 A 
ATOM     33  C   UNL     1      -1.057   9.535   9.223  1.00  0.00     0.014 A 
ATOM     34  C   UNL     1       1.122   7.929   9.903  1.00  0.00     0.010 A 
ATOM     35  C   UNL     1      -1.109   8.742  10.373  1.00  0.00     0.010 A 
ATOM     36  C   UNL     1      -0.043   7.886  10.687  1.00  0.00    -0.014 A 
BRANCH  36  37
ATOM     37  C   UNL     1      -0.128   6.907  11.801  1.00  0.00     0.031 A 
ATOM     38  C   UNL     1      -1.090   5.751  11.733  1.00  0.00     0.074 A 
ATOM     39  C   UNL     1       0.729   7.007  12.835  1.00  0.00     0.049 A 
ATOM     40  N   UNL     1      -1.252   4.760  12.575  1.00  0.00    -0.248 NA
ATOM     41  C   UNL     1      -1.990   5.696  10.570  1.00  0.00     0.031 C 
ATOM     42  C   UNL     1       1.719   8.070  13.003  1.00  0.00     0.029 A 
ATOM     43  N   UNL     1       0.934   6.185  13.914  1.00  0.00    -0.354 N 
ATOM     44  C   UNL     1      -2.272   3.976  12.051  1.00  0.00     0.074 A 
ATOM     45  C   UNL     1      -2.718   4.621  10.835  1.00  0.00     0.031 C 
ATOM     46  C   UNL     1       2.472   7.801  14.079  1.00  0.00     0.029 A 
ATOM     47  C   UNL     1       1.984   6.576  14.707  1.00  0.00     0.049 A 
ATOM     48  H   UNL     1       0.382   5.392  14.101  1.00  0.00     0.167 HD
ATOM     49  C   UNL     1      -2.778   2.815  12.531  1.00  0.00     0.037 A 
ATOM     50  C   UNL     1       2.500   6.010  15.814  1.00  0.00     0.037 A 
ATOM     51  C   UNL     1      -2.320   2.159  13.727  1.00  0.00     0.049 A 
ATOM     52  C   UNL     1       1.889   4.747  16.349  1.00  0.00     0.074 A 
ATOM     53  C   UNL     1      -2.765   0.973  14.285  1.00  0.00     0.029 A 
ATOM     54  N   UNL     1      -1.307   2.631  14.548  1.00  0.00    -0.354 N 
ATOM     55  N   UNL     1       0.921   4.021  15.847  1.00  0.00    -0.248 NA
ATOM     56  C   UNL     1       2.434   4.233  17.614  1.00  0.00     0.031 C 
ATOM     57  C   UNL     1      -2.044   0.744  15.462  1.00  0.00     0.029 A 
ATOM     58  C   UNL     1      -1.124   1.768  15.617  1.00  0.00     0.049 A 
ATOM     59  H   UNL     1      -0.793   3.456  14.393  1.00  0.00     0.167 HD
ATOM     60  C   UNL     1       0.743   2.964  16.727  1.00  0.00     0.074 A 
ATOM     61  C   UNL     1       1.718   3.130  17.785  1.00  0.00     0.031 C 
ATOM     62  C   UNL     1      -0.154   1.950  16.665  1.00  0.00     0.037 A 
BRANCH  49  63
ATOM     63  C   UNL     1      -3.894   2.171  11.762  1.00  0.00     0.064 A 
ATOM     64  C   UNL     1      -3.659   1.508  10.549  1.00  0.00     0.173 A 
ATOM     65  C   UNL     1      -5.201   2.165  12.273  1.00  0.00     0.173 A 
ATOM     66  F   UNL     1      -2.429   1.495  10.014  1.00  0.00    -0.203 F 
ATOM     67  C   UNL     1      -4.696   0.874   9.868  1.00  0.00     0.198 A 
ATOM     68  C   UNL     1      -6.230   1.511  11.601  1.00  0.00     0.198 A 
ATOM     69  F   UNL     1      -5.476   2.780  13.433  1.00  0.00    -0.203 F 
ATOM     70  F   UNL     1      -4.455   0.273   8.695  1.00  0.00    -0.200 F 
ATOM     71  C   UNL     1      -5.978   0.870  10.398  1.00  0.00     0.200 A 
ATOM     72  F   UNL     1      -7.466   1.498  12.120  1.00  0.00    -0.200 F 
ATOM     73  F   UNL     1      -6.971   0.250   9.746  1.00  0.00    -0.200 F 
ENDBRANCH  49  63
BRANCH  50  74
ATOM     74  C   UNL     1       3.675   6.633  16.472  1.00  0.00     0.064 A 
ATOM     75  C   UNL     1       4.936   6.027  16.405  1.00  0.00     0.173 A 
ATOM     76  C   UNL     1       3.570   7.859  17.144  1.00  0.00     0.173 A 
ATOM     77  F   UNL     1       5.080   4.845  15.789  1.00  0.00    -0.203 F 
ATOM     78  C   UNL     1       6.052   6.627  16.986  1.00  0.00     0.198 A 
ATOM     79  C   UNL     1       4.690   8.469  17.704  1.00  0.00     0.198 A 
ATOM     80  F   UNL     1       2.384   8.477  17.233  1.00  0.00    -0.203 F 
ATOM     81  F   UNL     1       7.244   6.018  16.927  1.00  0.00    -0.200 F 
ATOM     82  C   UNL     1       5.930   7.851  17.626  1.00  0.00     0.200 A 
ATOM     83  F   UNL     1       4.571   9.659  18.308  1.00  0.00    -0.200 F 
ATOM     84  F   UNL     1       7.006   8.435  18.170  1.00  0.00    -0.200 F 
ENDBRANCH  50  74
BRANCH  62  85
ATOM     85  C   UNL     1      -0.129   0.939  17.770  1.00  0.00     0.064 A 
ATOM     86  C   UNL     1      -0.651   1.234  19.038  1.00  0.00     0.173 A 
ATOM     87  C   UNL     1       0.363  -0.355  17.543  1.00  0.00     0.173 A 
ATOM     88  F   UNL     1      -1.119   2.462  19.305  1.00  0.00    -0.203 F 
ATOM     89  C   UNL     1      -0.672   0.271  20.043  1.00  0.00     0.198 A 
ATOM     90  C   UNL     1       0.320  -1.321  18.544  1.00  0.00     0.198 A 
ATOM     91  F   UNL     1       0.868  -0.686  16.345  1.00  0.00    -0.203 F 
ATOM     92  F   UNL     1      -1.149   0.582  21.256  1.00  0.00    -0.200 F 
ATOM     93  C   UNL     1      -0.194  -1.007  19.793  1.00  0.00     0.200 A 
ATOM     94  F   UNL     1       0.772  -2.559  18.299  1.00  0.00    -0.200 F 
ATOM     95  F   UNL     1      -0.226  -1.936  20.759  1.00  0.00    -0.200 F 
ENDBRANCH  62  85
ENDBRANCH  36  37
ENDBRANCH  28  31
ENDBRANCH  26  27
ENDBRANCH   1  26
TORSDOF 12
