REMARK SMILES C[C@]12C=CC(=O)C=C1CC[C@H]1[C@H]2[C@H](O)C[C@]2(C)[C@H]1CC[C@]2(O)C(=O)COC(=O)CCC(=O)NCCCCNC(=O)c1ccc(-c2c3nc(c(-c4c(F)c(F)c(F)c(F)c4F)c4ccc([nH]4)c(-c4c(F)c(F)c(F)c(F)c4F)c4nc(c(-c5c(F)c(F)c(F)c(F)c5F)c5ccc2[nH]5)C=C4)C=C3)cc1
REMARK SMILES IDX 31 1 32 2 33 3 30 5 29 6 27 7 28 8 26 9 25 10 23 11 24 12
REMARK SMILES IDX 21 13 1 14 2 15 3 16 8 17 12 18 4 19 7 20 9 21 11 22 13 23
REMARK SMILES IDX 5 24 10 25 18 26 15 27 6 28 16 29 19 30 17 31 20 32 14 33
REMARK SMILES IDX 22 35 34 37 35 38 36 39 37 40 38 41 39 42 40 44 41 45 42 46
REMARK SMILES IDX 103 47 43 48 102 49 44 50 45 51 46 52 96 53 47 54 101 55
REMARK SMILES IDX 95 56 97 57 48 58 100 59 94 60 93 61 49 63 81 64 61 65 80 66
REMARK SMILES IDX 62 67 65 68 79 69 98 70 63 71 64 72 78 74 99 75 66 76 50 77
REMARK SMILES IDX 51 78 59 79 52 80 53 81 57 82 60 83 54 84 55 85 58 86 56 87
REMARK SMILES IDX 82 88 83 89 91 90 84 91 85 92 89 93 92 94 86 95 87 96 90 97
REMARK SMILES IDX 88 98 67 99 68 100 76 101 69 102 70 103 74 104 77 105 71 106
REMARK SMILES IDX 72 107 75 108 73 109
REMARK H PARENT 33 4 14 34 22 36 38 43 97 62 65 73
REMARK Flexibility Score: inf
ROOT
ATOM      1  C   UNL     1       3.685  -1.331  10.940  1.00  0.00     0.220 C 
ATOM      2  O   UNL     1       3.836  -1.140  12.149  1.00  0.00    -0.275 OA
ATOM      3  N   UNL     1       3.426  -2.599  10.519  1.00  0.00    -0.356 N 
ATOM      4  H   UNL     1       3.412  -3.271  11.238  1.00  0.00     0.163 HD
ENDROOT
BRANCH   1   5
ATOM      5  C   UNL     1       3.841  -0.192   9.960  1.00  0.00     0.111 C 
BRANCH   5   6
ATOM      6  C   UNL     1       5.315   0.079   9.693  1.00  0.00     0.132 C 
BRANCH   6   7
ATOM      7  C   UNL     1       5.602   0.407   8.250  1.00  0.00     0.306 C 
ATOM      8  O   UNL     1       5.789   1.539   7.831  1.00  0.00    -0.252 OA
BRANCH   7   9
ATOM      9  O   UNL     1       5.636  -0.720   7.497  1.00  0.00    -0.458 OA
BRANCH   9  10
ATOM     10  C   UNL     1       5.855  -0.603   6.091  1.00  0.00     0.311 C 
BRANCH  10  11
ATOM     11  C   UNL     1       4.641  -0.882   5.164  1.00  0.00     0.202 C 
ATOM     12  O   UNL     1       4.834  -1.524   4.134  1.00  0.00    -0.293 OA
BRANCH  11  13
ATOM     13  C   UNL     1       3.242  -0.344   5.577  1.00  0.00     0.132 C 
ATOM     14  C   UNL     1       0.776   0.417  -0.566  1.00  0.00     0.021 C 
ATOM     15  C   UNL     1      -0.037   0.754   0.716  1.00  0.00     0.013 C 
ATOM     16  C   UNL     1      -1.353  -0.057   0.673  1.00  0.00    -0.012 C 
ATOM     17  C   UNL     1      -0.497   2.228   0.675  1.00  0.00    -0.056 C 
ATOM     18  C   UNL     1       0.906   0.398   1.940  1.00  0.00     0.035 C 
ATOM     19  C   UNL     1      -2.199   0.135  -0.364  1.00  0.00     0.048 C 
ATOM     20  C   UNL     1      -1.615   2.588   0.006  1.00  0.00     0.052 C 
ATOM     21  C   UNL     1       0.114   3.279   1.550  1.00  0.00     0.032 C 
ATOM     22  C   UNL     1       0.678   1.329   3.139  1.00  0.00    -0.000 C 
ATOM     23  C   UNL     1       0.948  -1.093   2.352  1.00  0.00     0.119 C 
ATOM     24  C   UNL     1      -2.468   1.582  -0.671  1.00  0.00     0.178 C 
ATOM     25  C   UNL     1       0.965   2.772   2.691  1.00  0.00     0.009 C 
ATOM     26  C   UNL     1       1.534   1.015   4.385  1.00  0.00     0.002 C 
ATOM     27  C   UNL     1       2.039  -1.313   3.413  1.00  0.00     0.042 C 
ATOM     28  O   UNL     1      -3.352   1.918  -1.448  1.00  0.00    -0.290 OA
ATOM     29  C   UNL     1       1.894  -0.468   4.700  1.00  0.00     0.009 C 
ATOM     30  C   UNL     1       2.878   1.726   4.474  1.00  0.00     0.008 C 
ATOM     31  C   UNL     1       0.714  -1.042   5.547  1.00  0.00     0.015 C 
ATOM     32  C   UNL     1       3.425   1.162   5.761  1.00  0.00     0.044 C 
BRANCH  23  33
ATOM     33  O   UNL     1      -0.292  -1.561   2.865  1.00  0.00    -0.393 OA
ATOM     34  H   UNL     1      -0.512  -1.072   3.673  1.00  0.00     0.210 HD
ENDBRANCH  23  33
BRANCH  13  35
ATOM     35  O   UNL     1       3.006  -0.980   6.826  1.00  0.00    -0.381 OA
ATOM     36  H   UNL     1       2.142  -0.704   7.172  1.00  0.00     0.212 HD
ENDBRANCH  13  35
ENDBRANCH  11  13
ENDBRANCH  10  11
ENDBRANCH   9  10
ENDBRANCH   7   9
ENDBRANCH   6   7
ENDBRANCH   5   6
ENDBRANCH   1   5
BRANCH   3  37
ATOM     37  C   UNL     1       3.166  -3.131   9.193  1.00  0.00     0.116 C 
BRANCH  37  38
ATOM     38  C   UNL     1       4.456  -3.418   8.418  1.00  0.00     0.023 C 
BRANCH  38  39
ATOM     39  C   UNL     1       4.516  -4.772   7.720  1.00  0.00     0.023 C 
BRANCH  39  40
ATOM     40  C   UNL     1       3.550  -4.951   6.552  1.00  0.00     0.116 C 
BRANCH  40  41
ATOM     41  N   UNL     1       3.918  -4.269   5.313  1.00  0.00    -0.352 N 
ATOM     42  C   UNL     1       3.760  -4.692   4.003  1.00  0.00     0.251 C 
ATOM     43  H   UNL     1       4.337  -3.385   5.424  1.00  0.00     0.163 HD
ATOM     44  O   UNL     1       4.085  -4.001   3.053  1.00  0.00    -0.269 OA
BRANCH  42  45
ATOM     45  C   UNL     1       3.289  -6.059   3.734  1.00  0.00     0.039 A 
ATOM     46  C   UNL     1       4.049  -6.837   2.854  1.00  0.00     0.014 A 
ATOM     47  C   UNL     1       2.212  -6.602   4.426  1.00  0.00     0.014 A 
ATOM     48  C   UNL     1       3.821  -8.205   2.785  1.00  0.00     0.010 A 
ATOM     49  C   UNL     1       2.062  -7.978   4.445  1.00  0.00     0.010 A 
ATOM     50  C   UNL     1       2.884  -8.790   3.646  1.00  0.00    -0.014 A 
BRANCH  50  51
ATOM     51  C   UNL     1       2.762 -10.259   3.756  1.00  0.00     0.031 A 
ATOM     52  C   UNL     1       1.457 -10.912   3.420  1.00  0.00     0.074 A 
ATOM     53  C   UNL     1       3.792 -10.970   4.256  1.00  0.00     0.049 A 
ATOM     54  N   UNL     1       1.090 -12.156   3.578  1.00  0.00    -0.248 NA
ATOM     55  C   UNL     1       0.405 -10.037   2.878  1.00  0.00     0.031 C 
ATOM     56  C   UNL     1       5.083 -10.416   4.675  1.00  0.00     0.029 A 
ATOM     57  N   UNL     1       3.912 -12.311   4.511  1.00  0.00    -0.354 N 
ATOM     58  C   UNL     1      -0.239 -12.203   3.184  1.00  0.00     0.074 A 
ATOM     59  C   UNL     1      -0.634 -10.855   2.842  1.00  0.00     0.031 C 
ATOM     60  C   UNL     1       5.873 -11.413   5.104  1.00  0.00     0.029 A 
ATOM     61  C   UNL     1       5.133 -12.666   5.032  1.00  0.00     0.049 A 
ATOM     62  H   UNL     1       3.191 -12.960   4.337  1.00  0.00     0.167 HD
ATOM     63  C   UNL     1      -1.046 -13.285   3.090  1.00  0.00     0.037 A 
ATOM     64  C   UNL     1       5.593 -13.873   5.412  1.00  0.00     0.037 A 
ATOM     65  C   UNL     1      -0.619 -14.623   3.393  1.00  0.00     0.049 A 
ATOM     66  C   UNL     1       4.685 -15.063   5.267  1.00  0.00     0.074 A 
ATOM     67  C   UNL     1      -1.326 -15.804   3.273  1.00  0.00     0.029 A 
ATOM     68  N   UNL     1       0.642 -14.954   3.873  1.00  0.00    -0.354 N 
ATOM     69  N   UNL     1       3.448 -15.111   4.833  1.00  0.00    -0.248 NA
ATOM     70  C   UNL     1       5.235 -16.367   5.659  1.00  0.00     0.031 C 
ATOM     71  C   UNL     1      -0.505 -16.848   3.714  1.00  0.00     0.029 A 
ATOM     72  C   UNL     1       0.729 -16.322   4.066  1.00  0.00     0.049 A 
ATOM     73  H   UNL     1       1.366 -14.311   4.049  1.00  0.00     0.167 HD
ATOM     74  C   UNL     1       3.080 -16.447   4.873  1.00  0.00     0.074 A 
ATOM     75  C   UNL     1       4.232 -17.180   5.360  1.00  0.00     0.031 C 
ATOM     76  C   UNL     1       1.897 -17.020   4.541  1.00  0.00     0.037 A 
BRANCH  63  77
ATOM     77  C   UNL     1      -2.456 -13.054   2.633  1.00  0.00     0.064 A 
ATOM     78  C   UNL     1      -2.749 -12.649   1.321  1.00  0.00     0.173 A 
ATOM     79  C   UNL     1      -3.530 -13.235   3.518  1.00  0.00     0.173 A 
ATOM     80  F   UNL     1      -1.757 -12.442   0.442  1.00  0.00    -0.203 F 
ATOM     81  C   UNL     1      -4.059 -12.399   0.923  1.00  0.00     0.198 A 
ATOM     82  C   UNL     1      -4.842 -13.016   3.106  1.00  0.00     0.198 A 
ATOM     83  F   UNL     1      -3.307 -13.619   4.783  1.00  0.00    -0.203 F 
ATOM     84  F   UNL     1      -4.306 -11.951  -0.316  1.00  0.00    -0.200 F 
ATOM     85  C   UNL     1      -5.105 -12.588   1.813  1.00  0.00     0.200 A 
ATOM     86  F   UNL     1      -5.853 -13.208   3.965  1.00  0.00    -0.200 F 
ATOM     87  F   UNL     1      -6.366 -12.347   1.429  1.00  0.00    -0.200 F 
ENDBRANCH  63  77
BRANCH  64  88
ATOM     88  C   UNL     1       6.981 -14.018   5.926  1.00  0.00     0.064 A 
ATOM     89  C   UNL     1       7.958 -14.683   5.172  1.00  0.00     0.173 A 
ATOM     90  C   UNL     1       7.363 -13.496   7.171  1.00  0.00     0.173 A 
ATOM     91  F   UNL     1       7.639 -15.212   3.982  1.00  0.00    -0.203 F 
ATOM     92  C   UNL     1       9.257 -14.841   5.652  1.00  0.00     0.198 A 
ATOM     93  C   UNL     1       8.669 -13.631   7.638  1.00  0.00     0.198 A 
ATOM     94  F   UNL     1       6.470 -12.843   7.928  1.00  0.00    -0.203 F 
ATOM     95  F   UNL     1      10.158 -15.519   4.929  1.00  0.00    -0.200 F 
ATOM     96  C   UNL     1       9.613 -14.310   6.883  1.00  0.00     0.200 A 
ATOM     97  F   UNL     1       9.013 -13.103   8.821  1.00  0.00    -0.200 F 
ATOM     98  F   UNL     1      10.863 -14.459   7.343  1.00  0.00    -0.200 F 
ENDBRANCH  64  88
BRANCH  76  99
ATOM     99  C   UNL     1       1.803 -18.511   4.663  1.00  0.00     0.064 A 
ATOM    100  C   UNL     1       1.725 -19.141   5.913  1.00  0.00     0.173 A 
ATOM    101  C   UNL     1       1.738 -19.311   3.513  1.00  0.00     0.173 A 
ATOM    102  F   UNL     1       1.799 -18.416   7.040  1.00  0.00    -0.203 F 
ATOM    103  C   UNL     1       1.605 -20.524   6.007  1.00  0.00     0.198 A 
ATOM    104  C   UNL     1       1.588 -20.691   3.611  1.00  0.00     0.198 A 
ATOM    105  F   UNL     1       1.802 -18.753   2.295  1.00  0.00    -0.203 F 
ATOM    106  F   UNL     1       1.574 -21.110   7.212  1.00  0.00    -0.200 F 
ATOM    107  C   UNL     1       1.528 -21.296   4.857  1.00  0.00     0.200 A 
ATOM    108  F   UNL     1       1.500 -21.434   2.500  1.00  0.00    -0.200 F 
ATOM    109  F   UNL     1       1.401 -22.627   4.951  1.00  0.00    -0.200 F 
ENDBRANCH  76  99
ENDBRANCH  50  51
ENDBRANCH  42  45
ENDBRANCH  40  41
ENDBRANCH  39  40
ENDBRANCH  38  39
ENDBRANCH  37  38
ENDBRANCH   3  37
TORSDOF 19
