REMARK SMILES CC(C)c1ccc(O[C@H](C)C(=O)Nc2ccccc2C(=O)NCCCCNC(=O)c2ccc(-c3c4nc(c(-c5c(F)c(F)c(F)c(F)c5F)c5ccc([nH]5)c(-c5c(F)c(F)c(F)c(F)c5F)c5nc(c(-c6c(F)c(F)c(F)c(F)c6F)c6ccc3[nH]6)C=C5)C=C4)cc2)cc1
REMARK SMILES IDX 23 1 22 2 20 3 21 4 19 6 14 7 15 8 16 9 18 10 17 11 13 12
REMARK SMILES IDX 11 13 12 14 9 16 10 17 8 18 7 19 4 20 5 21 94 22 6 23 93 24
REMARK SMILES IDX 2 25 1 26 3 27 24 28 25 29 26 30 27 31 28 32 29 34 30 35
REMARK SMILES IDX 31 36 92 37 32 38 91 39 33 40 34 41 35 42 85 43 36 44 90 45
REMARK SMILES IDX 84 46 86 47 37 48 89 49 83 50 82 51 38 53 70 54 50 55 69 56
REMARK SMILES IDX 51 57 54 58 68 59 87 60 52 61 53 62 67 64 88 65 55 66 39 67
REMARK SMILES IDX 40 68 48 69 41 70 42 71 46 72 49 73 43 74 44 75 47 76 45 77
REMARK SMILES IDX 71 78 72 79 80 80 73 81 74 82 78 83 81 84 75 85 76 86 79 87
REMARK SMILES IDX 77 88 56 89 57 90 65 91 58 92 59 93 63 94 66 95 60 96 61 97
REMARK SMILES IDX 64 98 62 99
REMARK H PARENT 22 5 13 15 27 33 86 52 54 63
REMARK Flexibility Score: inf
ROOT
ATOM      1  C   UNL     1      -4.484   0.032   3.408  1.00  0.00     0.116 C 
ENDROOT
BRANCH   1   2
ATOM      2  N   UNL     1      -4.211   1.290   2.758  1.00  0.00    -0.352 N 
ATOM      3  C   UNL     1      -3.550   1.559   1.581  1.00  0.00     0.253 C 
ATOM      4  O   UNL     1      -3.504   2.745   1.239  1.00  0.00    -0.269 OA
ATOM      5  H   UNL     1      -4.552   2.083   3.231  1.00  0.00     0.163 HD
BRANCH   3   6
ATOM      6  C   UNL     1      -2.840   0.542   0.733  1.00  0.00     0.063 A 
ATOM      7  C   UNL     1      -3.097  -0.834   0.583  1.00  0.00     0.054 A 
ATOM      8  C   UNL     1      -2.119  -1.648  -0.028  1.00  0.00     0.027 A 
ATOM      9  C   UNL     1      -0.982  -1.103  -0.625  1.00  0.00     0.002 A 
ATOM     10  C   UNL     1      -1.700   1.075   0.079  1.00  0.00     0.016 A 
ATOM     11  C   UNL     1      -0.792   0.268  -0.608  1.00  0.00     0.001 A 
BRANCH   7  12
ATOM     12  N   UNL     1      -4.247  -1.542   0.985  1.00  0.00    -0.322 N 
ATOM     13  C   UNL     1      -5.576  -1.377   0.660  1.00  0.00     0.265 C 
ATOM     14  O   UNL     1      -6.397  -2.053   1.295  1.00  0.00    -0.270 OA
ATOM     15  H   UNL     1      -4.071  -2.285   1.607  1.00  0.00     0.170 HD
BRANCH  13  16
ATOM     16  C   UNL     1      -6.040  -0.461  -0.478  1.00  0.00     0.259 C 
ATOM     17  C   UNL     1      -6.399   0.938  -0.008  1.00  0.00     0.064 C 
BRANCH  16  18
ATOM     18  O   UNL     1      -5.039  -0.673  -1.465  1.00  0.00    -0.481 OA
BRANCH  18  19
ATOM     19  C   UNL     1      -4.921   0.118  -2.553  1.00  0.00     0.120 A 
ATOM     20  C   UNL     1      -4.133   1.477  -4.878  1.00  0.00    -0.045 A 
ATOM     21  C   UNL     1      -4.157   2.125  -3.632  1.00  0.00     0.008 A 
ATOM     22  C   UNL     1      -4.519   0.132  -4.934  1.00  0.00     0.008 A 
ATOM     23  C   UNL     1      -4.540   1.449  -2.477  1.00  0.00     0.047 A 
ATOM     24  C   UNL     1      -4.904  -0.543  -3.776  1.00  0.00     0.047 A 
BRANCH  20  25
ATOM     25  C   UNL     1      -3.663   2.260  -6.091  1.00  0.00     0.013 C 
ATOM     26  C   UNL     1      -3.401   1.417  -7.342  1.00  0.00     0.012 C 
ATOM     27  C   UNL     1      -4.664   3.373  -6.416  1.00  0.00     0.012 C 
ENDBRANCH  20  25
ENDBRANCH  18  19
ENDBRANCH  16  18
ENDBRANCH  13  16
ENDBRANCH   7  12
ENDBRANCH   3   6
ENDBRANCH   1   2
BRANCH   1  28
ATOM     28  C   UNL     1      -5.071   0.118   4.809  1.00  0.00     0.023 C 
BRANCH  28  29
ATOM     29  C   UNL     1      -6.506   0.656   4.887  1.00  0.00     0.023 C 
BRANCH  29  30
ATOM     30  C   UNL     1      -7.564  -0.030   4.016  1.00  0.00     0.116 C 
BRANCH  30  31
ATOM     31  N   UNL     1      -7.743  -1.449   4.289  1.00  0.00    -0.352 N 
ATOM     32  C   UNL     1      -8.790  -2.122   4.871  1.00  0.00     0.251 C 
ATOM     33  H   UNL     1      -6.990  -2.019   4.011  1.00  0.00     0.163 HD
ATOM     34  O   UNL     1      -8.696  -3.322   5.124  1.00  0.00    -0.269 OA
BRANCH  32  35
ATOM     35  C   UNL     1     -10.034  -1.406   5.228  1.00  0.00     0.039 A 
ATOM     36  C   UNL     1     -10.578  -1.587   6.502  1.00  0.00     0.014 A 
ATOM     37  C   UNL     1     -10.669  -0.564   4.313  1.00  0.00     0.014 A 
ATOM     38  C   UNL     1     -11.696  -0.843   6.891  1.00  0.00     0.010 A 
ATOM     39  C   UNL     1     -11.734   0.236   4.727  1.00  0.00     0.010 A 
ATOM     40  C   UNL     1     -12.250   0.117   6.027  1.00  0.00    -0.014 A 
BRANCH  40  41
ATOM     41  C   UNL     1     -13.332   1.030   6.487  1.00  0.00     0.031 A 
ATOM     42  C   UNL     1     -14.682   1.020   5.824  1.00  0.00     0.074 A 
ATOM     43  C   UNL     1     -13.073   1.925   7.463  1.00  0.00     0.049 A 
ATOM     44  N   UNL     1     -15.724   1.780   6.057  1.00  0.00    -0.248 NA
ATOM     45  C   UNL     1     -14.883   0.046   4.740  1.00  0.00     0.031 C 
ATOM     46  C   UNL     1     -11.786   2.082   8.145  1.00  0.00     0.029 A 
ATOM     47  N   UNL     1     -13.871   2.879   8.044  1.00  0.00    -0.354 N 
ATOM     48  C   UNL     1     -16.694   1.386   5.144  1.00  0.00     0.074 A 
ATOM     49  C   UNL     1     -16.102   0.354   4.320  1.00  0.00     0.031 C 
ATOM     50  C   UNL     1     -11.889   3.054   9.065  1.00  0.00     0.029 A 
ATOM     51  C   UNL     1     -13.234   3.619   9.012  1.00  0.00     0.049 A 
ATOM     52  H   UNL     1     -14.812   3.021   7.792  1.00  0.00     0.167 HD
ATOM     53  C   UNL     1     -17.968   1.829   5.019  1.00  0.00     0.037 A 
ATOM     54  C   UNL     1     -13.677   4.645   9.764  1.00  0.00     0.037 A 
ATOM     55  C   UNL     1     -18.565   2.838   5.857  1.00  0.00     0.049 A 
ATOM     56  C   UNL     1     -15.098   5.114   9.604  1.00  0.00     0.074 A 
ATOM     57  C   UNL     1     -19.871   3.297   5.855  1.00  0.00     0.029 A 
ATOM     58  N   UNL     1     -17.894   3.548   6.841  1.00  0.00    -0.354 N 
ATOM     59  N   UNL     1     -16.031   4.670   8.798  1.00  0.00    -0.248 NA
ATOM     60  C   UNL     1     -15.532   6.222  10.467  1.00  0.00     0.031 C 
ATOM     61  C   UNL     1     -19.976   4.324   6.798  1.00  0.00     0.029 A 
ATOM     62  C   UNL     1     -18.752   4.463   7.432  1.00  0.00     0.049 A 
ATOM     63  H   UNL     1     -16.948   3.421   7.084  1.00  0.00     0.167 HD
ATOM     64  C   UNL     1     -17.165   5.423   9.074  1.00  0.00     0.074 A 
ATOM     65  C   UNL     1     -16.810   6.336  10.139  1.00  0.00     0.031 C 
ATOM     66  C   UNL     1     -18.389   5.364   8.495  1.00  0.00     0.037 A 
BRANCH  53  67
ATOM     67  C   UNL     1     -18.819   1.223   3.939  1.00  0.00     0.064 A 
ATOM     68  C   UNL     1     -19.273  -0.102   4.015  1.00  0.00     0.173 A 
ATOM     69  C   UNL     1     -19.242   1.999   2.848  1.00  0.00     0.173 A 
ATOM     70  F   UNL     1     -18.893  -0.889   5.033  1.00  0.00    -0.203 F 
ATOM     71  C   UNL     1     -20.099  -0.635   3.029  1.00  0.00     0.198 A 
ATOM     72  C   UNL     1     -20.093   1.472   1.881  1.00  0.00     0.198 A 
ATOM     73  F   UNL     1     -18.844   3.275   2.731  1.00  0.00    -0.203 F 
ATOM     74  F   UNL     1     -20.488  -1.915   3.103  1.00  0.00    -0.200 F 
ATOM     75  C   UNL     1     -20.517   0.155   1.968  1.00  0.00     0.200 A 
ATOM     76  F   UNL     1     -20.509   2.242   0.865  1.00  0.00    -0.200 F 
ATOM     77  F   UNL     1     -21.326  -0.354   1.029  1.00  0.00    -0.200 F 
ENDBRANCH  53  67
BRANCH  54  78
ATOM     78  C   UNL     1     -12.771   5.298  10.748  1.00  0.00     0.064 A 
ATOM     79  C   UNL     1     -13.005   5.194  12.127  1.00  0.00     0.173 A 
ATOM     80  C   UNL     1     -11.671   6.062  10.331  1.00  0.00     0.173 A 
ATOM     81  F   UNL     1     -14.056   4.492  12.576  1.00  0.00    -0.203 F 
ATOM     82  C   UNL     1     -12.194   5.854  13.048  1.00  0.00     0.198 A 
ATOM     83  C   UNL     1     -10.841   6.694  11.255  1.00  0.00     0.198 A 
ATOM     84  F   UNL     1     -11.399   6.191   9.024  1.00  0.00    -0.203 F 
ATOM     85  F   UNL     1     -12.478   5.787  14.356  1.00  0.00    -0.200 F 
ATOM     86  C   UNL     1     -11.110   6.600  12.611  1.00  0.00     0.200 A 
ATOM     87  F   UNL     1      -9.785   7.401  10.829  1.00  0.00    -0.200 F 
ATOM     88  F   UNL     1     -10.332   7.237  13.497  1.00  0.00    -0.200 F 
ENDBRANCH  54  78
BRANCH  66  89
ATOM     89  C   UNL     1     -19.447   6.291   9.024  1.00  0.00     0.064 A 
ATOM     90  C   UNL     1     -19.390   7.676   8.808  1.00  0.00     0.173 A 
ATOM     91  C   UNL     1     -20.547   5.782   9.732  1.00  0.00     0.173 A 
ATOM     92  F   UNL     1     -18.353   8.215   8.151  1.00  0.00    -0.203 F 
ATOM     93  C   UNL     1     -20.379   8.520   9.308  1.00  0.00     0.198 A 
ATOM     94  C   UNL     1     -21.551   6.625  10.200  1.00  0.00     0.198 A 
ATOM     95  F   UNL     1     -20.654   4.465   9.960  1.00  0.00    -0.203 F 
ATOM     96  F   UNL     1     -20.275   9.845   9.138  1.00  0.00    -0.200 F 
ATOM     97  C   UNL     1     -21.462   7.993   9.996  1.00  0.00     0.200 A 
ATOM     98  F   UNL     1     -22.605   6.112  10.851  1.00  0.00    -0.200 F 
ATOM     99  F   UNL     1     -22.415   8.806  10.471  1.00  0.00    -0.200 F 
ENDBRANCH  66  89
ENDBRANCH  40  41
ENDBRANCH  32  35
ENDBRANCH  30  31
ENDBRANCH  29  30
ENDBRANCH  28  29
ENDBRANCH   1  28
TORSDOF 16
