REMARK SMILES C[C@H]1CCCN(C(=O)c2cn(C)nc2C(=O)NCCCCNC(=O)c2ccc(-c3c4nc(c(-c5c(F)c(F)c(F)c(F)c5F)c5ccc([nH]5)c(-c5c(F)c(F)c(F)c(F)c5F)c5nc(c(-c6c(F)c(F)c(F)c(F)c6F)c6ccc3[nH]6)C=C5)C=C4)cc2)C1
REMARK SMILES IDX 19 1 18 2 17 3 15 4 16 5 14 7 9 8 10 9 11 10 13 11 12 12
REMARK SMILES IDX 7 13 8 14 6 15 1 16 2 17 3 18 88 19 4 20 5 21 20 22 21 23
REMARK SMILES IDX 22 24 23 25 24 27 25 28 26 29 87 30 27 31 86 32 28 33 29 34
REMARK SMILES IDX 30 35 80 36 31 37 85 38 79 39 81 40 32 41 84 42 78 43 77 44
REMARK SMILES IDX 33 46 65 47 45 48 64 49 46 50 49 51 63 52 82 53 47 54 48 55
REMARK SMILES IDX 62 57 83 58 50 59 34 60 35 61 43 62 36 63 37 64 41 65 44 66
REMARK SMILES IDX 38 67 39 68 42 69 40 70 66 71 67 72 75 73 68 74 69 75 73 76
REMARK SMILES IDX 76 77 70 78 71 79 74 80 72 81 51 82 52 83 60 84 53 85 54 86
REMARK SMILES IDX 58 87 61 88 55 89 56 90 59 91 57 92
REMARK H PARENT 17 6 22 26 81 45 49 56
REMARK Flexibility Score: inf
ROOT
ATOM      1  C   UNL     1      -2.098   3.666  -1.916  1.00  0.00     0.023 C 
ENDROOT
BRANCH   1   2
ATOM      2  C   UNL     1      -2.012   3.488  -0.408  1.00  0.00     0.116 C 
BRANCH   2   3
ATOM      3  N   UNL     1      -2.898   4.291   0.387  1.00  0.00    -0.351 N 
ATOM      4  C   UNL     1      -3.456   4.029   1.625  1.00  0.00     0.272 C 
ATOM      5  O   UNL     1      -4.182   4.928   2.066  1.00  0.00    -0.267 OA
ATOM      6  H   UNL     1      -3.145   5.158  -0.008  1.00  0.00     0.163 HD
BRANCH   4   7
ATOM      7  C   UNL     1      -3.264   2.750   2.366  1.00  0.00     0.162 A 
ATOM      8  C   UNL     1      -2.176   1.814   2.439  1.00  0.00     0.091 A 
ATOM      9  C   UNL     1      -2.561   0.872   3.377  1.00  0.00     0.123 A 
ATOM     10  N   UNL     1      -3.806   1.228   3.777  1.00  0.00    -0.274 N 
ATOM     11  N   UNL     1      -4.266   2.330   3.175  1.00  0.00    -0.167 NA
ATOM     12  C   UNL     1      -4.633   0.550   4.746  1.00  0.00     0.173 C 
BRANCH   8  13
ATOM     13  C   UNL     1      -0.888   1.831   1.781  1.00  0.00     0.257 C 
ATOM     14  O   UNL     1      -0.086   2.735   2.020  1.00  0.00    -0.269 OA
BRANCH  13  15
ATOM     15  N   UNL     1      -0.649   0.853   0.809  1.00  0.00    -0.338 N 
ATOM     16  C   UNL     1       2.157  -0.431   1.180  1.00  0.00     0.009 C 
ATOM     17  C   UNL     1       1.351  -0.286  -0.112  1.00  0.00     0.005 C 
ATOM     18  C   UNL     1       0.471  -1.517  -0.388  1.00  0.00     0.007 C 
ATOM     19  C   UNL     1       0.510   0.992  -0.070  1.00  0.00     0.123 C 
ATOM     20  C   UNL     1      -0.769  -1.576   0.506  1.00  0.00     0.022 C 
ATOM     21  C   UNL     1      -1.539  -0.261   0.467  1.00  0.00     0.120 C 
ENDBRANCH  13  15
ENDBRANCH   8  13
ENDBRANCH   4   7
ENDBRANCH   2   3
ENDBRANCH   1   2
BRANCH   1  22
ATOM     22  C   UNL     1      -1.692   5.023  -2.479  1.00  0.00     0.023 C 
BRANCH  22  23
ATOM     23  C   UNL     1      -0.393   5.629  -1.956  1.00  0.00     0.116 C 
BRANCH  23  24
ATOM     24  N   UNL     1       0.785   4.786  -2.132  1.00  0.00    -0.352 N 
ATOM     25  C   UNL     1       1.906   4.947  -2.916  1.00  0.00     0.251 C 
ATOM     26  H   UNL     1       0.777   3.959  -1.598  1.00  0.00     0.163 HD
ATOM     27  O   UNL     1       2.756   4.063  -2.958  1.00  0.00    -0.269 OA
BRANCH  25  28
ATOM     28  C   UNL     1       2.063   6.154  -3.756  1.00  0.00     0.039 A 
ATOM     29  C   UNL     1       2.419   6.000  -5.099  1.00  0.00     0.014 A 
ATOM     30  C   UNL     1       1.813   7.427  -3.244  1.00  0.00     0.014 A 
ATOM     31  C   UNL     1       2.375   7.102  -5.959  1.00  0.00     0.010 A 
ATOM     32  C   UNL     1       1.678   8.503  -4.115  1.00  0.00     0.010 A 
ATOM     33  C   UNL     1       1.924   8.345  -5.487  1.00  0.00    -0.014 A 
BRANCH  33  34
ATOM     34  C   UNL     1       1.630   9.473  -6.409  1.00  0.00     0.031 A 
ATOM     35  C   UNL     1       2.340  10.787  -6.252  1.00  0.00     0.074 A 
ATOM     36  C   UNL     1       0.623   9.356  -7.299  1.00  0.00     0.049 A 
ATOM     37  N   UNL     1       2.104  11.932  -6.841  1.00  0.00    -0.248 NA
ATOM     38  C   UNL     1       3.438  10.829  -5.274  1.00  0.00     0.031 C 
ATOM     39  C   UNL     1      -0.192   8.156  -7.504  1.00  0.00     0.029 A 
ATOM     40  N   UNL     1       0.093  10.268  -8.179  1.00  0.00    -0.354 N 
ATOM     41  C   UNL     1       2.997  12.835  -6.281  1.00  0.00     0.074 A 
ATOM     42  C   UNL     1       3.753  12.116  -5.279  1.00  0.00     0.031 C 
ATOM     43  C   UNL     1      -1.108   8.401  -8.454  1.00  0.00     0.029 A 
ATOM     44  C   UNL     1      -0.978   9.786  -8.893  1.00  0.00     0.049 A 
ATOM     45  H   UNL     1       0.447  11.180  -8.288  1.00  0.00     0.167 HD
ATOM     46  C   UNL     1       3.180  14.141  -6.589  1.00  0.00     0.037 A 
ATOM     47  C   UNL     1      -1.781  10.396  -9.786  1.00  0.00     0.037 A 
ATOM     48  C   UNL     1       2.461  14.840  -7.620  1.00  0.00     0.049 A 
ATOM     49  C   UNL     1      -1.546  11.841 -10.121  1.00  0.00     0.074 A 
ATOM     50  C   UNL     1       2.659  16.127  -8.089  1.00  0.00     0.029 A 
ATOM     51  N   UNL     1       1.401  14.310  -8.341  1.00  0.00    -0.354 N 
ATOM     52  N   UNL     1      -0.642  12.662  -9.646  1.00  0.00    -0.248 NA
ATOM     53  C   UNL     1      -2.447  12.448 -11.112  1.00  0.00     0.031 C 
ATOM     54  C   UNL     1       1.692  16.390  -9.065  1.00  0.00     0.029 A 
ATOM     55  C   UNL     1       0.914  15.255  -9.229  1.00  0.00     0.049 A 
ATOM     56  H   UNL     1       1.048  13.397  -8.237  1.00  0.00     0.167 HD
ATOM     57  C   UNL     1      -0.858  13.876 -10.282  1.00  0.00     0.074 A 
ATOM     58  C   UNL     1      -1.966  13.681 -11.194  1.00  0.00     0.031 C 
ATOM     59  C   UNL     1      -0.198  15.049 -10.120  1.00  0.00     0.037 A 
BRANCH  46  60
ATOM     60  C   UNL     1       4.207  14.899  -5.802  1.00  0.00     0.064 A 
ATOM     61  C   UNL     1       5.581  14.663  -5.964  1.00  0.00     0.173 A 
ATOM     62  C   UNL     1       3.814  15.895  -4.895  1.00  0.00     0.173 A 
ATOM     63  F   UNL     1       6.007  13.715  -6.812  1.00  0.00    -0.203 F 
ATOM     64  C   UNL     1       6.522  15.373  -5.224  1.00  0.00     0.198 A 
ATOM     65  C   UNL     1       4.759  16.622  -4.176  1.00  0.00     0.198 A 
ATOM     66  F   UNL     1       2.514  16.164  -4.707  1.00  0.00    -0.203 F 
ATOM     67  F   UNL     1       7.826  15.096  -5.359  1.00  0.00    -0.200 F 
ATOM     68  C   UNL     1       6.111  16.355  -4.335  1.00  0.00     0.200 A 
ATOM     69  F   UNL     1       4.362  17.578  -3.325  1.00  0.00    -0.200 F 
ATOM     70  F   UNL     1       7.019  17.040  -3.625  1.00  0.00    -0.200 F 
ENDBRANCH  46  60
BRANCH  47  71
ATOM     71  C   UNL     1      -2.883   9.634 -10.427  1.00  0.00     0.064 A 
ATOM     72  C   UNL     1      -2.803   9.256 -11.774  1.00  0.00     0.173 A 
ATOM     73  C   UNL     1      -4.027   9.259  -9.709  1.00  0.00     0.173 A 
ATOM     74  F   UNL     1      -1.737   9.612 -12.506  1.00  0.00    -0.203 F 
ATOM     75  C   UNL     1      -3.831   8.539 -12.382  1.00  0.00     0.198 A 
ATOM     76  C   UNL     1      -5.045   8.521 -10.312  1.00  0.00     0.198 A 
ATOM     77  F   UNL     1      -4.149   9.594  -8.417  1.00  0.00    -0.203 F 
ATOM     78  F   UNL     1      -3.744   8.217 -13.680  1.00  0.00    -0.200 F 
ATOM     79  C   UNL     1      -4.948   8.166 -11.649  1.00  0.00     0.200 A 
ATOM     80  F   UNL     1      -6.116   8.153  -9.598  1.00  0.00    -0.200 F 
ATOM     81  F   UNL     1      -5.933   7.470 -12.233  1.00  0.00    -0.200 F 
ENDBRANCH  47  71
BRANCH  59  82
ATOM     82  C   UNL     1      -0.659  16.214 -10.944  1.00  0.00     0.064 A 
ATOM     83  C   UNL     1      -1.842  16.900 -10.635  1.00  0.00     0.173 A 
ATOM     84  C   UNL     1       0.114  16.680 -12.018  1.00  0.00     0.173 A 
ATOM     85  F   UNL     1      -2.623  16.479  -9.629  1.00  0.00    -0.203 F 
ATOM     86  C   UNL     1      -2.242  18.005 -11.381  1.00  0.00     0.198 A 
ATOM     87  C   UNL     1      -0.277  17.800 -12.746  1.00  0.00     0.198 A 
ATOM     88  F   UNL     1       1.255  16.058 -12.349  1.00  0.00    -0.203 F 
ATOM     89  F   UNL     1      -3.394  18.626 -11.091  1.00  0.00    -0.200 F 
ATOM     90  C   UNL     1      -1.456  18.459 -12.430  1.00  0.00     0.200 A 
ATOM     91  F   UNL     1       0.488  18.243 -13.753  1.00  0.00    -0.200 F 
ATOM     92  F   UNL     1      -1.837  19.529 -13.140  1.00  0.00    -0.200 F 
ENDBRANCH  59  82
ENDBRANCH  33  34
ENDBRANCH  25  28
ENDBRANCH  23  24
ENDBRANCH  22  23
ENDBRANCH   1  22
TORSDOF 13
