REMARK SMILES O=C(NCCCCNC(=O)c1nc(NC[C@H]2c3ccccc3CSc3ccccc32)c2ccccc2n1)c1ccc(-c2c3nc(c(-c4c(F)c(F)c(F)c(F)c4F)c4ccc([nH]4)c(-c4c(F)c(F)c(F)c(F)c4F)c4nc(c(-c5c(F)c(F)c(F)c(F)c5F)c5ccc2[nH]5)C=C4)C=C3)cc1
REMARK SMILES IDX 6 1 5 2 4 3 3 4 1 5 2 6 38 8 39 9 100 10 40 11 99 12 41 13
REMARK SMILES IDX 42 14 43 15 93 16 44 17 98 18 92 19 94 20 45 21 97 22 91 23
REMARK SMILES IDX 90 24 46 26 78 27 58 28 77 29 59 30 62 31 76 32 95 33 60 34
REMARK SMILES IDX 61 35 75 37 96 38 63 39 47 40 48 41 56 42 49 43 50 44 54 45
REMARK SMILES IDX 57 46 51 47 52 48 55 49 53 50 79 51 80 52 88 53 81 54 82 55
REMARK SMILES IDX 86 56 89 57 83 58 84 59 87 60 85 61 64 62 65 63 73 64 66 65
REMARK SMILES IDX 67 66 71 67 74 68 68 69 69 70 72 71 70 72 7 73 8 74 9 75
REMARK SMILES IDX 10 77 11 78 12 79 37 80 13 81 36 82 31 83 35 84 32 85 34 86
REMARK SMILES IDX 33 87 14 88 15 90 16 91 17 92 30 93 18 94 22 95 25 96 29 97
REMARK SMILES IDX 19 98 21 99 23 100 24 101 26 102 28 103 20 104 27 105
REMARK H PARENT 3 7 94 25 62 36 8 76 14 89
REMARK Flexibility Score: inf
ROOT
ATOM      1  C   UNL     1       4.536   1.997  -3.290  1.00  0.00     0.023 C 
ENDROOT
BRANCH   1   2
ATOM      2  C   UNL     1       4.979   0.761  -2.513  1.00  0.00     0.023 C 
BRANCH   2   3
ATOM      3  C   UNL     1       4.620   0.763  -1.035  1.00  0.00     0.116 C 
BRANCH   3   4
ATOM      4  N   UNL     1       3.185   0.768  -0.796  1.00  0.00    -0.352 N 
ATOM      5  O   UNL     1       1.204   0.013  -0.030  1.00  0.00    -0.269 OA
ATOM      6  C   UNL     1       2.431  -0.058   0.001  1.00  0.00     0.251 C 
ATOM      7  H   UNL     1       2.682   1.465  -1.275  1.00  0.00     0.163 HD
BRANCH   6   8
ATOM      8  C   UNL     1       3.086  -1.055   0.877  1.00  0.00     0.039 A 
ATOM      9  C   UNL     1       2.523  -2.329   0.989  1.00  0.00     0.014 A 
ATOM     10  C   UNL     1       4.241  -0.742   1.598  1.00  0.00     0.014 A 
ATOM     11  C   UNL     1       3.141  -3.294   1.788  1.00  0.00     0.010 A 
ATOM     12  C   UNL     1       4.914  -1.734   2.306  1.00  0.00     0.010 A 
ATOM     13  C   UNL     1       4.357  -3.014   2.435  1.00  0.00    -0.014 A 
BRANCH  13  14
ATOM     14  C   UNL     1       5.016  -4.030   3.298  1.00  0.00     0.031 A 
ATOM     15  C   UNL     1       5.208  -3.755   4.767  1.00  0.00     0.074 A 
ATOM     16  C   UNL     1       5.448  -5.191   2.766  1.00  0.00     0.049 A 
ATOM     17  N   UNL     1       5.754  -4.514   5.685  1.00  0.00    -0.248 NA
ATOM     18  C   UNL     1       4.751  -2.450   5.274  1.00  0.00     0.031 C 
ATOM     19  C   UNL     1       5.363  -5.554   1.350  1.00  0.00     0.029 A 
ATOM     20  N   UNL     1       6.035  -6.286   3.353  1.00  0.00    -0.354 N 
ATOM     21  C   UNL     1       5.708  -3.777   6.861  1.00  0.00     0.074 A 
ATOM     22  C   UNL     1       5.152  -2.485   6.536  1.00  0.00     0.031 C 
ATOM     23  C   UNL     1       5.831  -6.802   1.187  1.00  0.00     0.029 A 
ATOM     24  C   UNL     1       6.285  -7.316   2.477  1.00  0.00     0.049 A 
ATOM     25  H   UNL     1       6.255  -6.329   4.311  1.00  0.00     0.167 HD
ATOM     26  C   UNL     1       6.057  -4.159   8.110  1.00  0.00     0.037 A 
ATOM     27  C   UNL     1       6.815  -8.537   2.691  1.00  0.00     0.037 A 
ATOM     28  C   UNL     1       6.564  -5.462   8.442  1.00  0.00     0.049 A 
ATOM     29  C   UNL     1       7.210  -8.930   4.091  1.00  0.00     0.074 A 
ATOM     30  C   UNL     1       6.894  -5.961   9.688  1.00  0.00     0.029 A 
ATOM     31  N   UNL     1       6.806  -6.471   7.524  1.00  0.00    -0.354 N 
ATOM     32  N   UNL     1       7.093  -8.247   5.204  1.00  0.00    -0.248 NA
ATOM     33  C   UNL     1       7.807 -10.263   4.269  1.00  0.00     0.031 C 
ATOM     34  C   UNL     1       7.383  -7.257   9.521  1.00  0.00     0.029 A 
ATOM     35  C   UNL     1       7.303  -7.585   8.177  1.00  0.00     0.049 A 
ATOM     36  H   UNL     1       6.647  -6.406   6.554  1.00  0.00     0.167 HD
ATOM     37  C   UNL     1       7.567  -9.075   6.213  1.00  0.00     0.074 A 
ATOM     38  C   UNL     1       7.967 -10.316   5.585  1.00  0.00     0.031 C 
ATOM     39  C   UNL     1       7.664  -8.825   7.540  1.00  0.00     0.037 A 
BRANCH  26  40
ATOM     40  C   UNL     1       5.868  -3.181   9.232  1.00  0.00     0.064 A 
ATOM     41  C   UNL     1       4.588  -2.848   9.700  1.00  0.00     0.173 A 
ATOM     42  C   UNL     1       6.975  -2.658   9.918  1.00  0.00     0.173 A 
ATOM     43  F   UNL     1       3.497  -3.314   9.072  1.00  0.00    -0.203 F 
ATOM     44  C   UNL     1       4.423  -2.025  10.810  1.00  0.00     0.198 A 
ATOM     45  C   UNL     1       6.806  -1.860  11.046  1.00  0.00     0.198 A 
ATOM     46  F   UNL     1       8.220  -2.952   9.516  1.00  0.00    -0.203 F 
ATOM     47  F   UNL     1       3.190  -1.702  11.224  1.00  0.00    -0.200 F 
ATOM     48  C   UNL     1       5.531  -1.544  11.490  1.00  0.00     0.200 A 
ATOM     49  F   UNL     1       7.878  -1.411  11.714  1.00  0.00    -0.200 F 
ATOM     50  F   UNL     1       5.370  -0.777  12.578  1.00  0.00    -0.200 F 
ENDBRANCH  26  40
BRANCH  27  51
ATOM     51  C   UNL     1       6.964  -9.493   1.560  1.00  0.00     0.064 A 
ATOM     52  C   UNL     1       6.199 -10.666   1.502  1.00  0.00     0.173 A 
ATOM     53  C   UNL     1       7.869  -9.256   0.514  1.00  0.00     0.173 A 
ATOM     54  F   UNL     1       5.333 -10.950   2.487  1.00  0.00    -0.203 F 
ATOM     55  C   UNL     1       6.345 -11.573   0.454  1.00  0.00     0.198 A 
ATOM     56  C   UNL     1       7.992 -10.148  -0.550  1.00  0.00     0.198 A 
ATOM     57  F   UNL     1       8.624  -8.147   0.516  1.00  0.00    -0.203 F 
ATOM     58  F   UNL     1       5.633 -12.709   0.449  1.00  0.00    -0.200 F 
ATOM     59  C   UNL     1       7.236 -11.310  -0.575  1.00  0.00     0.200 A 
ATOM     60  F   UNL     1       8.842  -9.881  -1.551  1.00  0.00    -0.200 F 
ATOM     61  F   UNL     1       7.371 -12.178  -1.586  1.00  0.00    -0.200 F 
ENDBRANCH  27  51
BRANCH  39  62
ATOM     62  C   UNL     1       8.187  -9.911   8.433  1.00  0.00     0.064 A 
ATOM     63  C   UNL     1       9.551 -10.226   8.476  1.00  0.00     0.173 A 
ATOM     64  C   UNL     1       7.335 -10.531   9.361  1.00  0.00     0.173 A 
ATOM     65  F   UNL     1      10.402  -9.664   7.604  1.00  0.00    -0.203 F 
ATOM     66  C   UNL     1      10.046 -11.119   9.422  1.00  0.00     0.198 A 
ATOM     67  C   UNL     1       7.838 -11.401  10.323  1.00  0.00     0.198 A 
ATOM     68  F   UNL     1       6.022 -10.251   9.367  1.00  0.00    -0.203 F 
ATOM     69  F   UNL     1      11.353 -11.414   9.441  1.00  0.00    -0.200 F 
ATOM     70  C   UNL     1       9.193 -11.693  10.354  1.00  0.00     0.200 A 
ATOM     71  F   UNL     1       7.016 -11.935  11.237  1.00  0.00    -0.200 F 
ATOM     72  F   UNL     1       9.679 -12.521  11.288  1.00  0.00    -0.200 F 
ENDBRANCH  39  62
ENDBRANCH  13  14
ENDBRANCH   6   8
ENDBRANCH   3   4
ENDBRANCH   2   3
ENDBRANCH   1   2
BRANCH   1  73
ATOM     73  C   UNL     1       5.003   3.334  -2.718  1.00  0.00     0.116 C 
BRANCH  73  74
ATOM     74  N   UNL     1       6.452   3.435  -2.641  1.00  0.00    -0.349 N 
ATOM     75  C   UNL     1       7.268   4.454  -3.106  1.00  0.00     0.289 C 
ATOM     76  H   UNL     1       6.912   2.683  -2.202  1.00  0.00     0.163 HD
ATOM     77  O   UNL     1       8.489   4.309  -3.041  1.00  0.00    -0.266 OA
BRANCH  75  78
ATOM     78  C   UNL     1       6.655   5.687  -3.709  1.00  0.00     0.220 A 
ATOM     79  N   UNL     1       7.077   6.010  -4.942  1.00  0.00    -0.206 NA
ATOM     80  N   UNL     1       5.603   6.218  -3.057  1.00  0.00    -0.224 NA
ATOM     81  C   UNL     1       6.335   6.904  -5.604  1.00  0.00     0.138 A 
ATOM     82  C   UNL     1       4.905   7.142  -3.715  1.00  0.00     0.077 A 
ATOM     83  C   UNL     1       5.228   7.550  -5.014  1.00  0.00     0.043 A 
ATOM     84  C   UNL     1       3.776   7.677  -3.106  1.00  0.00     0.029 A 
ATOM     85  C   UNL     1       4.422   8.528  -5.652  1.00  0.00     0.014 A 
ATOM     86  C   UNL     1       2.966   8.617  -3.748  1.00  0.00     0.002 A 
ATOM     87  C   UNL     1       3.296   9.053  -5.023  1.00  0.00     0.001 A 
BRANCH  81  88
ATOM     88  N   UNL     1       6.606   7.127  -6.944  1.00  0.00    -0.368 N 
ATOM     89  H   UNL     1       5.973   7.689  -7.447  1.00  0.00     0.162 HD
BRANCH  88  90
ATOM     90  C   UNL     1       7.762   6.593  -7.674  1.00  0.00     0.127 C 
BRANCH  90  91
ATOM     91  C   UNL     1       7.343   6.003  -9.091  1.00  0.00     0.070 C 
ATOM     92  C   UNL     1       6.870   4.531  -8.959  1.00  0.00    -0.035 A 
ATOM     93  C   UNL     1       6.443   6.966  -9.934  1.00  0.00    -0.025 A 
ATOM     94  C   UNL     1       6.548   3.938  -7.723  1.00  0.00     0.005 A 
ATOM     95  C   UNL     1       6.824   3.688 -10.087  1.00  0.00    -0.034 A 
ATOM     96  C   UNL     1       5.623   6.615 -11.032  1.00  0.00     0.011 A 
ATOM     97  C   UNL     1       6.460   8.352  -9.602  1.00  0.00     0.005 A 
ATOM     98  C   UNL     1       6.194   2.591  -7.600  1.00  0.00     0.000 A 
ATOM     99  C   UNL     1       6.441   2.334  -9.962  1.00  0.00     0.005 A 
ATOM    100  C   UNL     1       7.057   4.238 -11.461  1.00  0.00     0.110 C 
ATOM    101  S   UNL     1       5.559   5.096 -11.983  1.00  0.00    -0.121 SA
ATOM    102  C   UNL     1       4.730   7.574 -11.572  1.00  0.00     0.015 A 
ATOM    103  C   UNL     1       5.585   9.289 -10.157  1.00  0.00     0.000 A 
ATOM    104  C   UNL     1       6.134   1.787  -8.723  1.00  0.00     0.000 A 
ATOM    105  C   UNL     1       4.687   8.889 -11.123  1.00  0.00     0.001 A 
ENDBRANCH  90  91
ENDBRANCH  88  90
ENDBRANCH  81  88
ENDBRANCH  75  78
ENDBRANCH  73  74
ENDBRANCH   1  73
TORSDOF 14
