REMARK SMILES CC(C)NC(=O)C[N@@H+]1CCC[C@H]1C(=O)NCCCCNC(=O)c1ccc(-c2c3nc(c(-c4c(F)c(F)c(F)c(F)c4F)c4ccc([nH]4)c(-c4c(F)c(F)c(F)c(F)c4F)c4nc(c(-c5c(F)c(F)c(F)c(F)c5F)c5ccc2[nH]5)C=C4)C=C3)cc1
REMARK SMILES IDX 17 1 16 2 15 3 13 4 14 5 12 7 8 8 9 9 10 11 11 12 7 13 5 14
REMARK SMILES IDX 4 15 6 17 2 18 1 19 3 20 18 21 19 22 20 23 21 24 22 26 23 27
REMARK SMILES IDX 24 28 85 29 25 30 84 31 26 32 27 33 28 34 78 35 29 36 83 37
REMARK SMILES IDX 77 38 79 39 30 40 82 41 76 42 75 43 31 45 63 46 43 47 62 48
REMARK SMILES IDX 44 49 47 50 61 51 80 52 45 53 46 54 60 56 81 57 48 58 32 59
REMARK SMILES IDX 33 60 41 61 34 62 35 63 39 64 42 65 36 66 37 67 40 68 38 69
REMARK SMILES IDX 64 70 65 71 73 72 66 73 67 74 71 75 74 76 68 77 69 78 72 79
REMARK SMILES IDX 70 80 49 81 50 82 58 83 51 84 52 85 56 86 59 87 53 88 54 89
REMARK SMILES IDX 57 90 55 91
REMARK H PARENT 15 6 8 10 4 16 20 25 79 44 47 55
REMARK Flexibility Score: inf
ROOT
ATOM      1  C   UNL     1       3.383   0.096   3.493  1.00  0.00     0.023 C 
ENDROOT
BRANCH   1   2
ATOM      2  C   UNL     1       2.560  -0.959   4.236  1.00  0.00     0.116 C 
BRANCH   2   3
ATOM      3  N   UNL     1       1.760  -0.375   5.292  1.00  0.00    -0.351 N 
ATOM      4  C   UNL     1       0.490   0.128   5.269  1.00  0.00     0.278 C 
ATOM      5  O   UNL     1       0.075   0.616   6.327  1.00  0.00    -0.268 OA
ATOM      6  H   UNL     1       2.204  -0.333   6.170  1.00  0.00     0.163 HD
BRANCH   4   7
ATOM      7  C   UNL     1      -0.445   0.030   4.038  1.00  0.00     0.274 C 
ATOM      8  N   UNL     1       0.156   0.622   2.815  1.00  0.00    -0.317 N 
ATOM      9  C   UNL     1       0.231  -0.427   1.806  1.00  0.00     0.263 C 
ATOM     10  H   UNL     1       1.107   0.939   3.003  1.00  0.00     0.349 HD
ATOM     11  C   UNL     1      -0.680  -1.551   2.231  1.00  0.00     0.068 C 
ATOM     12  C   UNL     1      -0.808  -1.419   3.728  1.00  0.00     0.081 C 
BRANCH   8  13
ATOM     13  C   UNL     1      -0.473   1.901   2.392  1.00  0.00     0.364 C 
BRANCH  13  14
ATOM     14  C   UNL     1      -1.326   1.827   1.114  1.00  0.00     0.275 C 
ATOM     15  N   UNL     1      -0.745   1.973  -0.122  1.00  0.00    -0.349 N 
ATOM     16  H   UNL     1      -1.375   1.952  -0.878  1.00  0.00     0.163 HD
ATOM     17  O   UNL     1      -2.538   1.603   1.163  1.00  0.00    -0.268 OA
BRANCH  15  18
ATOM     18  C   UNL     1       0.660   2.155  -0.500  1.00  0.00     0.076 C 
ATOM     19  C   UNL     1       1.203   0.948  -1.278  1.00  0.00     0.030 C 
ATOM     20  C   UNL     1       0.793   3.392  -1.383  1.00  0.00     0.030 C 
ENDBRANCH  15  18
ENDBRANCH  13  14
ENDBRANCH   8  13
ENDBRANCH   4   7
ENDBRANCH   2   3
ENDBRANCH   1   2
BRANCH   1  21
ATOM     21  C   UNL     1       4.737   0.395   4.141  1.00  0.00     0.023 C 
BRANCH  21  22
ATOM     22  C   UNL     1       5.734  -0.758   4.085  1.00  0.00     0.116 C 
BRANCH  22  23
ATOM     23  N   UNL     1       6.114  -1.143   2.733  1.00  0.00    -0.352 N 
ATOM     24  C   UNL     1       7.301  -1.700   2.316  1.00  0.00     0.251 C 
ATOM     25  H   UNL     1       5.440  -0.986   2.033  1.00  0.00     0.163 HD
ATOM     26  O   UNL     1       7.520  -1.894   1.124  1.00  0.00    -0.269 OA
BRANCH  24  27
ATOM     27  C   UNL     1       8.335  -2.014   3.323  1.00  0.00     0.039 A 
ATOM     28  C   UNL     1       9.628  -1.519   3.140  1.00  0.00     0.014 A 
ATOM     29  C   UNL     1       8.009  -2.733   4.475  1.00  0.00     0.014 A 
ATOM     30  C   UNL     1      10.575  -1.677   4.153  1.00  0.00     0.010 A 
ATOM     31  C   UNL     1       8.929  -2.821   5.514  1.00  0.00     0.010 A 
ATOM     32  C   UNL     1      10.219  -2.290   5.366  1.00  0.00    -0.014 A 
BRANCH  32  33
ATOM     33  C   UNL     1      11.178  -2.380   6.496  1.00  0.00     0.031 A 
ATOM     34  C   UNL     1      11.637  -3.723   6.989  1.00  0.00     0.074 A 
ATOM     35  C   UNL     1      11.576  -1.257   7.124  1.00  0.00     0.049 A 
ATOM     36  N   UNL     1      12.409  -4.014   8.005  1.00  0.00    -0.248 NA
ATOM     37  C   UNL     1      11.136  -4.899   6.261  1.00  0.00     0.031 C 
ATOM     38  C   UNL     1      11.157   0.102   6.777  1.00  0.00     0.029 A 
ATOM     39  N   UNL     1      12.415  -1.080   8.197  1.00  0.00    -0.354 N 
ATOM     40  C   UNL     1      12.474  -5.400   8.045  1.00  0.00     0.074 A 
ATOM     41  C   UNL     1      11.617  -5.895   6.990  1.00  0.00     0.031 C 
ATOM     42  C   UNL     1      11.756   0.973   7.604  1.00  0.00     0.029 A 
ATOM     43  C   UNL     1      12.572   0.235   8.563  1.00  0.00     0.049 A 
ATOM     44  H   UNL     1      12.861  -1.825   8.661  1.00  0.00     0.167 HD
ATOM     45  C   UNL     1      13.203  -6.188   8.870  1.00  0.00     0.037 A 
ATOM     46  C   UNL     1      13.290   0.781   9.563  1.00  0.00     0.037 A 
ATOM     47  C   UNL     1      14.075  -5.691   9.901  1.00  0.00     0.049 A 
ATOM     48  C   UNL     1      14.092  -0.117  10.466  1.00  0.00     0.074 A 
ATOM     49  C   UNL     1      14.903  -6.405  10.749  1.00  0.00     0.029 A 
ATOM     50  N   UNL     1      14.228  -4.351  10.226  1.00  0.00    -0.354 N 
ATOM     51  N   UNL     1      14.204  -1.423  10.447  1.00  0.00    -0.248 NA
ATOM     52  C   UNL     1      14.874   0.536  11.525  1.00  0.00     0.031 C 
ATOM     53  C   UNL     1      15.524  -5.500  11.617  1.00  0.00     0.029 A 
ATOM     54  C   UNL     1      15.123  -4.219  11.276  1.00  0.00     0.049 A 
ATOM     55  H   UNL     1      13.770  -3.605   9.777  1.00  0.00     0.167 HD
ATOM     56  C   UNL     1      15.089  -1.746  11.467  1.00  0.00     0.074 A 
ATOM     57  C   UNL     1      15.495  -0.497  12.077  1.00  0.00     0.031 C 
ATOM     58  C   UNL     1      15.524  -2.966  11.864  1.00  0.00     0.037 A 
BRANCH  45  59
ATOM     59  C   UNL     1      13.094  -7.674   8.683  1.00  0.00     0.064 A 
ATOM     60  C   UNL     1      13.620  -8.313   7.550  1.00  0.00     0.173 A 
ATOM     61  C   UNL     1      12.485  -8.473   9.662  1.00  0.00     0.173 A 
ATOM     62  F   UNL     1      14.201  -7.594   6.578  1.00  0.00    -0.203 F 
ATOM     63  C   UNL     1      13.511  -9.692   7.388  1.00  0.00     0.198 A 
ATOM     64  C   UNL     1      12.407  -9.855   9.513  1.00  0.00     0.198 A 
ATOM     65  F   UNL     1      11.970  -7.915  10.768  1.00  0.00    -0.203 F 
ATOM     66  F   UNL     1      13.973 -10.272   6.272  1.00  0.00    -0.200 F 
ATOM     67  C   UNL     1      12.912 -10.462   8.373  1.00  0.00     0.200 A 
ATOM     68  F   UNL     1      11.839 -10.601  10.471  1.00  0.00    -0.200 F 
ATOM     69  F   UNL     1      12.814 -11.790   8.219  1.00  0.00    -0.200 F 
ENDBRANCH  45  59
BRANCH  46  70
ATOM     70  C   UNL     1      13.307   2.256   9.748  1.00  0.00     0.064 A 
ATOM     71  C   UNL     1      14.466   3.000   9.484  1.00  0.00     0.173 A 
ATOM     72  C   UNL     1      12.175   2.951  10.196  1.00  0.00     0.173 A 
ATOM     73  F   UNL     1      15.581   2.379   9.073  1.00  0.00    -0.203 F 
ATOM     74  C   UNL     1      14.498   4.379   9.684  1.00  0.00     0.198 A 
ATOM     75  C   UNL     1      12.199   4.333  10.368  1.00  0.00     0.198 A 
ATOM     76  F   UNL     1      11.039   2.287  10.457  1.00  0.00    -0.203 F 
ATOM     77  F   UNL     1      15.633   5.058   9.470  1.00  0.00    -0.200 F 
ATOM     78  C   UNL     1      13.363   5.045  10.120  1.00  0.00     0.200 A 
ATOM     79  F   UNL     1      11.096   4.975  10.776  1.00  0.00    -0.200 F 
ATOM     80  F   UNL     1      13.393   6.371  10.309  1.00  0.00    -0.200 F 
ENDBRANCH  46  70
BRANCH  58  81
ATOM     81  C   UNL     1      16.520  -3.011  12.987  1.00  0.00     0.064 A 
ATOM     82  C   UNL     1      16.152  -2.724  14.310  1.00  0.00     0.173 A 
ATOM     83  C   UNL     1      17.849  -3.386  12.740  1.00  0.00     0.173 A 
ATOM     84  F   UNL     1      14.897  -2.346  14.595  1.00  0.00    -0.203 F 
ATOM     85  C   UNL     1      17.086  -2.788  15.341  1.00  0.00     0.198 A 
ATOM     86  C   UNL     1      18.772  -3.479  13.778  1.00  0.00     0.198 A 
ATOM     87  F   UNL     1      18.250  -3.677  11.493  1.00  0.00    -0.203 F 
ATOM     88  F   UNL     1      16.724  -2.465  16.590  1.00  0.00    -0.200 F 
ATOM     89  C   UNL     1      18.392  -3.173  15.076  1.00  0.00     0.200 A 
ATOM     90  F   UNL     1      20.029  -3.865  13.522  1.00  0.00    -0.200 F 
ATOM     91  F   UNL     1      19.286  -3.243  16.071  1.00  0.00    -0.200 F 
ENDBRANCH  58  81
ENDBRANCH  32  33
ENDBRANCH  24  27
ENDBRANCH  22  23
ENDBRANCH  21  22
ENDBRANCH   1  21
TORSDOF 14
