REMARK SMILES Cc1cc(C)c2c(c1)C=C(C(=O)NCCCCNC(=O)c1ccc(-c3c4nc(c(-c5c(F)c(F)c(F)c(F)c5F)c5ccc([nH]5)c(-c5c(F)c(F)c(F)c(F)c5F)c5nc(c(-c6c(F)c(F)c(F)c(F)c6F)c6ccc3[nH]6)C=C5)C=C4)cc1)[C@@H](C(F)(F)F)O2
REMARK SMILES IDX 16 1 15 2 14 3 13 4 11 5 12 6 10 8 1 9 2 10 3 11 8 12 4 13
REMARK SMILES IDX 7 14 5 15 6 16 9 17 89 18 84 19 85 20 86 21 87 22 88 23
REMARK SMILES IDX 17 24 18 25 19 26 20 28 21 29 22 30 83 31 23 32 82 33 24 34
REMARK SMILES IDX 25 35 26 36 76 37 27 38 81 39 75 40 77 41 28 42 80 43 74 44
REMARK SMILES IDX 73 45 29 47 61 48 41 49 60 50 42 51 45 52 59 53 78 54 43 55
REMARK SMILES IDX 44 56 58 58 79 59 46 60 30 61 31 62 39 63 32 64 33 65 37 66
REMARK SMILES IDX 40 67 34 68 35 69 38 70 36 71 62 72 63 73 71 74 64 75 65 76
REMARK SMILES IDX 69 77 72 78 66 79 67 80 70 81 68 82 47 83 48 84 56 85 49 86
REMARK SMILES IDX 50 87 54 88 57 89 51 90 52 91 55 92 53 93
REMARK H PARENT 13 7 18 27 77 46 45 57
REMARK Flexibility Score: inf
ROOT
ATOM      1  C   UNL     1       1.775  10.169   4.406  1.00  0.00     0.023 C 
ENDROOT
BRANCH   1   2
ATOM      2  C   UNL     1       1.231   8.740   4.364  1.00  0.00     0.023 C 
BRANCH   2   3
ATOM      3  C   UNL     1       0.253   8.483   3.222  1.00  0.00     0.116 C 
BRANCH   3   4
ATOM      4  N   UNL     1       0.937   8.129   1.992  1.00  0.00    -0.352 N 
ATOM      5  C   UNL     1       1.155   7.002   1.274  1.00  0.00     0.251 C 
ATOM      6  O   UNL     1       1.821   7.159   0.246  1.00  0.00    -0.270 OA
ATOM      7  H   UNL     1       1.351   8.915   1.568  1.00  0.00     0.163 HD
BRANCH   5   8
ATOM      8  C   UNL     1       0.662   5.639   1.637  1.00  0.00     0.067 C 
ATOM      9  C   UNL     1       1.006  -0.222  -0.302  1.00  0.00     0.044 C 
ATOM     10  C   UNL     1       0.628   0.903   0.616  1.00  0.00    -0.050 A 
ATOM     11  C   UNL     1      -0.100   0.659   1.787  1.00  0.00     0.010 A 
ATOM     12  C   UNL     1       1.022   2.214   0.312  1.00  0.00     0.015 A 
ATOM     13  C   UNL     1      -0.438   1.707   2.653  1.00  0.00    -0.008 A 
ATOM     14  C   UNL     1       0.692   3.269   1.166  1.00  0.00     0.018 A 
ATOM     15  C   UNL     1      -1.214   1.435   3.910  1.00  0.00     0.048 C 
ATOM     16  C   UNL     1      -0.040   3.010   2.327  1.00  0.00     0.130 A 
ATOM     17  C   UNL     1       1.138   4.629   0.887  1.00  0.00     0.025 C 
ATOM     18  O   UNL     1      -0.352   3.995   3.221  1.00  0.00    -0.475 OA
ATOM     19  C   UNL     1      -0.331   5.359   2.728  1.00  0.00     0.314 C 
BRANCH  19  20
ATOM     20  C   UNL     1      -1.764   5.783   2.354  1.00  0.00     0.429 C 
ATOM     21  F   UNL     1      -2.546   5.832   3.462  1.00  0.00    -0.167 F 
ATOM     22  F   UNL     1      -1.812   7.019   1.801  1.00  0.00    -0.167 F 
ATOM     23  F   UNL     1      -2.351   4.938   1.479  1.00  0.00    -0.167 F 
ENDBRANCH  19  20
ENDBRANCH   5   8
ENDBRANCH   3   4
ENDBRANCH   2   3
ENDBRANCH   1   2
BRANCH   1  24
ATOM     24  C   UNL     1       0.717  11.270   4.439  1.00  0.00     0.116 C 
BRANCH  24  25
ATOM     25  N   UNL     1      -0.299  11.076   5.464  1.00  0.00    -0.352 N 
ATOM     26  C   UNL     1      -0.940  12.027   6.217  1.00  0.00     0.251 C 
ATOM     27  H   UNL     1      -0.559  10.142   5.639  1.00  0.00     0.163 HD
ATOM     28  O   UNL     1      -1.719  11.705   7.108  1.00  0.00    -0.269 OA
BRANCH  26  29
ATOM     29  C   UNL     1      -0.647  13.449   5.965  1.00  0.00     0.039 A 
ATOM     30  C   UNL     1      -0.237  14.250   7.032  1.00  0.00     0.014 A 
ATOM     31  C   UNL     1      -0.726  13.966   4.669  1.00  0.00     0.014 A 
ATOM     32  C   UNL     1       0.157  15.565   6.788  1.00  0.00     0.010 A 
ATOM     33  C   UNL     1      -0.274  15.256   4.419  1.00  0.00     0.010 A 
ATOM     34  C   UNL     1       0.169  16.065   5.476  1.00  0.00    -0.014 A 
BRANCH  34  35
ATOM     35  C   UNL     1       0.616  17.448   5.191  1.00  0.00     0.031 A 
ATOM     36  C   UNL     1      -0.377  18.461   4.703  1.00  0.00     0.074 A 
ATOM     37  C   UNL     1       1.915  17.772   5.326  1.00  0.00     0.049 A 
ATOM     38  N   UNL     1      -0.179  19.700   4.331  1.00  0.00    -0.248 NA
ATOM     39  C   UNL     1      -1.775  18.015   4.594  1.00  0.00     0.031 C 
ATOM     40  C   UNL     1       2.974  16.861   5.762  1.00  0.00     0.029 A 
ATOM     41  N   UNL     1       2.566  18.959   5.106  1.00  0.00    -0.354 N 
ATOM     42  C   UNL     1      -1.422  20.174   3.938  1.00  0.00     0.074 A 
ATOM     43  C   UNL     1      -2.358  19.078   4.062  1.00  0.00     0.031 C 
ATOM     44  C   UNL     1       4.138  17.530   5.804  1.00  0.00     0.029 A 
ATOM     45  C   UNL     1       3.913  18.905   5.369  1.00  0.00     0.049 A 
ATOM     46  H   UNL     1       2.111  19.773   4.789  1.00  0.00     0.167 HD
ATOM     47  C   UNL     1      -1.758  21.422   3.536  1.00  0.00     0.037 A 
ATOM     48  C   UNL     1       4.855  19.861   5.269  1.00  0.00     0.037 A 
ATOM     49  C   UNL     1      -0.830  22.517   3.443  1.00  0.00     0.049 A 
ATOM     50  C   UNL     1       4.459  21.236   4.805  1.00  0.00     0.074 A 
ATOM     51  C   UNL     1      -1.079  23.831   3.091  1.00  0.00     0.029 A 
ATOM     52  N   UNL     1       0.527  22.422   3.710  1.00  0.00    -0.354 N 
ATOM     53  N   UNL     1       3.274  21.686   4.472  1.00  0.00    -0.248 NA
ATOM     54  C   UNL     1       5.532  22.235   4.701  1.00  0.00     0.031 C 
ATOM     55  C   UNL     1       0.134  24.526   3.114  1.00  0.00     0.029 A 
ATOM     56  C   UNL     1       1.133  23.653   3.515  1.00  0.00     0.049 A 
ATOM     57  H   UNL     1       0.992  21.603   3.995  1.00  0.00     0.167 HD
ATOM     58  C   UNL     1       3.453  23.020   4.134  1.00  0.00     0.074 A 
ATOM     59  C   UNL     1       4.859  23.313   4.319  1.00  0.00     0.031 C 
ATOM     60  C   UNL     1       2.536  23.920   3.703  1.00  0.00     0.037 A 
BRANCH  47  61
ATOM     61  C   UNL     1      -3.194  21.672   3.186  1.00  0.00     0.064 A 
ATOM     62  C   UNL     1      -4.187  21.726   4.176  1.00  0.00     0.173 A 
ATOM     63  C   UNL     1      -3.578  21.892   1.855  1.00  0.00     0.173 A 
ATOM     64  F   UNL     1      -3.871  21.506   5.461  1.00  0.00    -0.203 F 
ATOM     65  C   UNL     1      -5.516  21.969   3.843  1.00  0.00     0.198 A 
ATOM     66  C   UNL     1      -4.904  22.161   1.530  1.00  0.00     0.198 A 
ATOM     67  F   UNL     1      -2.666  21.851   0.872  1.00  0.00    -0.203 F 
ATOM     68  F   UNL     1      -6.454  21.974   4.800  1.00  0.00    -0.200 F 
ATOM     69  C   UNL     1      -5.873  22.194   2.522  1.00  0.00     0.200 A 
ATOM     70  F   UNL     1      -5.247  22.386   0.254  1.00  0.00    -0.200 F 
ATOM     71  F   UNL     1      -7.152  22.435   2.204  1.00  0.00    -0.200 F 
ENDBRANCH  47  61
BRANCH  48  72
ATOM     72  C   UNL     1       6.258  19.559   5.651  1.00  0.00     0.064 A 
ATOM     73  C   UNL     1       6.807  20.088   6.827  1.00  0.00     0.173 A 
ATOM     74  C   UNL     1       7.070  18.730   4.865  1.00  0.00     0.173 A 
ATOM     75  F   UNL     1       6.074  20.903   7.599  1.00  0.00    -0.203 F 
ATOM     76  C   UNL     1       8.120  19.807   7.198  1.00  0.00     0.198 A 
ATOM     77  C   UNL     1       8.376  18.431   5.248  1.00  0.00     0.198 A 
ATOM     78  F   UNL     1       6.590  18.197   3.732  1.00  0.00    -0.203 F 
ATOM     79  F   UNL     1       8.631  20.351   8.311  1.00  0.00    -0.200 F 
ATOM     80  C   UNL     1       8.902  18.974   6.412  1.00  0.00     0.200 A 
ATOM     81  F   UNL     1       9.125  17.616   4.493  1.00  0.00    -0.200 F 
ATOM     82  F   UNL     1      10.162  18.697   6.773  1.00  0.00    -0.200 F 
ENDBRANCH  48  72
BRANCH  60  83
ATOM     83  C   UNL     1       3.020  25.307   3.407  1.00  0.00     0.064 A 
ATOM     84  C   UNL     1       3.760  25.588   2.249  1.00  0.00     0.173 A 
ATOM     85  C   UNL     1       2.684  26.375   4.252  1.00  0.00     0.173 A 
ATOM     86  F   UNL     1       4.116  24.596   1.419  1.00  0.00    -0.203 F 
ATOM     87  C   UNL     1       4.158  26.888   1.955  1.00  0.00     0.198 A 
ATOM     88  C   UNL     1       3.062  27.678   3.941  1.00  0.00     0.198 A 
ATOM     89  F   UNL     1       1.971  26.157   5.367  1.00  0.00    -0.203 F 
ATOM     90  F   UNL     1       4.892  27.130   0.860  1.00  0.00    -0.200 F 
ATOM     91  C   UNL     1       3.802  27.933   2.795  1.00  0.00     0.200 A 
ATOM     92  F   UNL     1       2.707  28.688   4.747  1.00  0.00    -0.200 F 
ATOM     93  F   UNL     1       4.175  29.186   2.503  1.00  0.00    -0.200 F 
ENDBRANCH  60  83
ENDBRANCH  34  35
ENDBRANCH  26  29
ENDBRANCH  24  25
ENDBRANCH   1  24
TORSDOF 12
