REMARK SMILES O=C(COc1ccccc1Br)Nc1cccc(C(=O)Nc2ccc(C(=O)NCCCCNC(=O)c3ccc(-c4c5nc(c(-c6c(F)c(F)c(F)c(F)c6F)c6ccc([nH]6)c(-c6c(F)c(F)c(F)c(F)c6F)c6nc(c(-c7c(F)c(F)c(F)c(F)c7F)c7ccc4[nH]7)C=C6)C=C5)cc3)cc2)c1
REMARK SMILES IDX 25 1 26 2 27 3 24 5 21 6 22 7 99 8 23 9 98 10 20 11 18 12
REMARK SMILES IDX 19 13 17 15 13 16 14 17 100 18 15 19 16 20 12 21 1 22 2 23
REMARK SMILES IDX 3 25 4 26 5 27 6 28 10 29 7 30 9 31 11 32 8 33 28 34 29 35
REMARK SMILES IDX 30 36 31 37 32 38 33 39 34 41 35 42 36 43 97 44 37 45 96 46
REMARK SMILES IDX 38 47 39 48 40 49 90 50 41 51 95 52 89 53 91 54 42 55 94 56
REMARK SMILES IDX 88 57 87 58 43 60 75 61 55 62 74 63 56 64 59 65 73 66 92 67
REMARK SMILES IDX 57 68 58 69 72 71 93 72 60 73 44 74 45 75 53 76 46 77 47 78
REMARK SMILES IDX 51 79 54 80 48 81 49 82 52 83 50 84 76 85 77 86 85 87 78 88
REMARK SMILES IDX 79 89 83 90 86 91 80 92 81 93 84 94 82 95 61 96 62 97 70 98
REMARK SMILES IDX 63 99 64 100 68 101 71 102 65 103 66 104 69 105 67 106
REMARK H PARENT 27 4 20 14 12 24 32 40 91 59 59 70
REMARK Flexibility Score: inf
ROOT
ATOM      1  C   UNL     1       1.750   2.846   2.880  1.00  0.00     0.251 C 
ATOM      2  O   UNL     1       1.152   2.748   3.952  1.00  0.00    -0.269 OA
ATOM      3  N   UNL     1       3.060   2.428   2.853  1.00  0.00    -0.352 N 
ATOM      4  H   UNL     1       3.389   2.098   3.720  1.00  0.00     0.163 HD
ENDROOT
BRANCH   1   5
ATOM      5  C   UNL     1       1.015   3.329   1.675  1.00  0.00     0.039 A 
ATOM      6  C   UNL     1      -0.426   3.723  -0.697  1.00  0.00     0.041 A 
ATOM      7  C   UNL     1      -1.090   3.280   0.446  1.00  0.00     0.027 A 
ATOM      8  C   UNL     1       0.901   4.149  -0.603  1.00  0.00     0.027 A 
ATOM      9  C   UNL     1      -0.361   3.053   1.618  1.00  0.00     0.016 A 
ATOM     10  C   UNL     1       1.609   3.982   0.594  1.00  0.00     0.016 A 
BRANCH   6  11
ATOM     11  N   UNL     1      -1.098   3.618  -1.926  1.00  0.00    -0.322 N 
ATOM     12  C   UNL     1      -0.640   3.132  -3.141  1.00  0.00     0.255 C 
ATOM     13  O   UNL     1      -1.314   3.324  -4.154  1.00  0.00    -0.269 OA
ATOM     14  H   UNL     1      -2.029   3.936  -1.924  1.00  0.00     0.170 HD
BRANCH  12  15
ATOM     15  C   UNL     1       0.587   2.280  -3.248  1.00  0.00     0.042 A 
ATOM     16  C   UNL     1       2.248   0.802  -2.253  1.00  0.00     0.042 A 
ATOM     17  C   UNL     1       2.909   0.729  -3.481  1.00  0.00     0.026 A 
ATOM     18  C   UNL     1       1.057   1.519  -2.173  1.00  0.00     0.040 A 
ATOM     19  C   UNL     1       2.381   1.374  -4.603  1.00  0.00     0.003 A 
ATOM     20  C   UNL     1       1.232   2.160  -4.484  1.00  0.00     0.014 A 
BRANCH  16  21
ATOM     21  N   UNL     1       2.783   0.084  -1.168  1.00  0.00    -0.323 N 
ATOM     22  O   UNL     1       1.229   0.456   0.544  1.00  0.00    -0.271 OA
ATOM     23  C   UNL     1       2.203  -0.122   0.077  1.00  0.00     0.262 C 
ATOM     24  H   UNL     1       3.670  -0.319  -1.308  1.00  0.00     0.170 HD
BRANCH  23  25
ATOM     25  C   UNL     1       2.918  -1.198   0.882  1.00  0.00     0.329 C 
BRANCH  25  26
ATOM     26  O   UNL     1       3.638  -2.059  -0.005  1.00  0.00    -0.483 OA
BRANCH  26  27
ATOM     27  C   UNL     1       3.131  -3.330  -0.000  1.00  0.00     0.134 A 
ATOM     28  C   UNL     1       3.823  -4.262   0.777  1.00  0.00     0.047 A 
ATOM     29  C   UNL     1       2.061  -3.748  -0.802  1.00  0.00     0.060 A 
ATOM     30  C   UNL     1       3.442  -5.603   0.763  1.00  0.00     0.004 A 
ATOM     31  C   UNL     1       1.681  -5.090  -0.806  1.00  0.00     0.019 A 
ATOM     32  Br  UNL     1       1.080  -2.610  -1.953  1.00  0.00    -0.047 Br
ATOM     33  C   UNL     1       2.374  -6.016  -0.030  1.00  0.00     0.001 A 
ENDBRANCH  26  27
ENDBRANCH  25  26
ENDBRANCH  23  25
ENDBRANCH  16  21
ENDBRANCH  12  15
ENDBRANCH   6  11
ENDBRANCH   1   5
BRANCH   3  34
ATOM     34  C   UNL     1       4.050   2.378   1.795  1.00  0.00     0.116 C 
BRANCH  34  35
ATOM     35  C   UNL     1       5.074   3.498   1.962  1.00  0.00     0.023 C 
BRANCH  35  36
ATOM     36  C   UNL     1       6.072   3.263   3.102  1.00  0.00     0.023 C 
BRANCH  36  37
ATOM     37  C   UNL     1       6.924   2.002   2.978  1.00  0.00     0.116 C 
BRANCH  37  38
ATOM     38  N   UNL     1       7.663   1.929   1.728  1.00  0.00    -0.352 N 
ATOM     39  C   UNL     1       8.961   1.532   1.505  1.00  0.00     0.251 C 
ATOM     40  H   UNL     1       7.162   2.204   0.926  1.00  0.00     0.163 HD
ATOM     41  O   UNL     1       9.458   1.647   0.396  1.00  0.00    -0.269 OA
BRANCH  39  42
ATOM     42  C   UNL     1       9.763   0.994   2.625  1.00  0.00     0.039 A 
ATOM     43  C   UNL     1      11.060   1.479   2.811  1.00  0.00     0.014 A 
ATOM     44  C   UNL     1       9.241   0.029   3.490  1.00  0.00     0.014 A 
ATOM     45  C   UNL     1      11.809   1.042   3.905  1.00  0.00     0.010 A 
ATOM     46  C   UNL     1       9.961  -0.350   4.620  1.00  0.00     0.010 A 
ATOM     47  C   UNL     1      11.252   0.153   4.840  1.00  0.00    -0.014 A 
BRANCH  47  48
ATOM     48  C   UNL     1      12.010  -0.243   6.055  1.00  0.00     0.031 A 
ATOM     49  C   UNL     1      12.419  -1.673   6.268  1.00  0.00     0.074 A 
ATOM     50  C   UNL     1      12.293   0.686   6.989  1.00  0.00     0.049 A 
ATOM     51  N   UNL     1      13.074  -2.206   7.269  1.00  0.00    -0.248 NA
ATOM     52  C   UNL     1      12.017  -2.639   5.234  1.00  0.00     0.031 C 
ATOM     53  C   UNL     1      11.898   2.094   6.927  1.00  0.00     0.029 A 
ATOM     54  N   UNL     1      12.976   0.585   8.176  1.00  0.00    -0.354 N 
ATOM     55  C   UNL     1      13.161  -3.563   6.986  1.00  0.00     0.074 A 
ATOM     56  C   UNL     1      12.434  -3.783   5.754  1.00  0.00     0.031 C 
ATOM     57  C   UNL     1      12.371   2.732   8.009  1.00  0.00     0.029 A 
ATOM     58  C   UNL     1      13.070   1.773   8.859  1.00  0.00     0.049 A 
ATOM     59  H   UNL     1      13.361  -0.259   8.507  1.00  0.00     0.167 HD
ATOM     60  C   UNL     1      13.811  -4.532   7.674  1.00  0.00     0.037 A 
ATOM     61  C   UNL     1      13.655   2.057  10.039  1.00  0.00     0.037 A 
ATOM     62  C   UNL     1      14.542  -4.306   8.895  1.00  0.00     0.049 A 
ATOM     63  C   UNL     1      14.363   0.961  10.788  1.00  0.00     0.074 A 
ATOM     64  C   UNL     1      15.275  -5.211   9.642  1.00  0.00     0.029 A 
ATOM     65  N   UNL     1      14.625  -3.086   9.552  1.00  0.00    -0.354 N 
ATOM     66  N   UNL     1      14.506  -0.303  10.470  1.00  0.00    -0.248 NA
ATOM     67  C   UNL     1      15.004   1.335  12.056  1.00  0.00     0.031 C 
ATOM     68  C   UNL     1      15.758  -4.553  10.778  1.00  0.00     0.029 A 
ATOM     69  C   UNL     1      15.378  -3.222  10.708  1.00  0.00     0.049 A 
ATOM     70  H   UNL     1      14.211  -2.249   9.243  1.00  0.00     0.167 HD
ATOM     71  C   UNL     1      15.273  -0.867  11.480  1.00  0.00     0.074 A 
ATOM     72  C   UNL     1      15.584   0.198  12.410  1.00  0.00     0.031 C 
ATOM     73  C   UNL     1      15.681  -2.152  11.625  1.00  0.00     0.037 A 
BRANCH  60  74
ATOM     74  C   UNL     1      13.767  -5.927   7.118  1.00  0.00     0.064 A 
ATOM     75  C   UNL     1      14.423  -6.265   5.924  1.00  0.00     0.173 A 
ATOM     76  C   UNL     1      13.090  -6.948   7.803  1.00  0.00     0.173 A 
ATOM     77  F   UNL     1      15.075  -5.325   5.223  1.00  0.00    -0.203 F 
ATOM     78  C   UNL     1      14.376  -7.562   5.420  1.00  0.00     0.198 A 
ATOM     79  C   UNL     1      13.074  -8.252   7.314  1.00  0.00     0.198 A 
ATOM     80  F   UNL     1      12.450  -6.684   8.952  1.00  0.00    -0.203 F 
ATOM     81  F   UNL     1      14.964  -7.846   4.250  1.00  0.00    -0.200 F 
ATOM     82  C   UNL     1      13.709  -8.556   6.119  1.00  0.00     0.200 A 
ATOM     83  F   UNL     1      12.441  -9.215   7.998  1.00  0.00    -0.200 F 
ATOM     84  F   UNL     1      13.670  -9.806   5.637  1.00  0.00    -0.200 F 
ENDBRANCH  60  74
BRANCH  61  85
ATOM     85  C   UNL     1      13.617   3.445  10.572  1.00  0.00     0.064 A 
ATOM     86  C   UNL     1      14.784   4.216  10.662  1.00  0.00     0.173 A 
ATOM     87  C   UNL     1      12.418   4.025  11.013  1.00  0.00     0.173 A 
ATOM     88  F   UNL     1      15.959   3.700  10.272  1.00  0.00    -0.203 F 
ATOM     89  C   UNL     1      14.759   5.504  11.195  1.00  0.00     0.198 A 
ATOM     90  C   UNL     1      12.388   5.324  11.515  1.00  0.00     0.198 A 
ATOM     91  F   UNL     1      11.272   3.332  10.943  1.00  0.00    -0.203 F 
ATOM     92  F   UNL     1      15.898   6.198  11.317  1.00  0.00    -0.200 F 
ATOM     93  C   UNL     1      13.560   6.059  11.615  1.00  0.00     0.200 A 
ATOM     94  F   UNL     1      11.224   5.862  11.904  1.00  0.00    -0.200 F 
ATOM     95  F   UNL     1      13.534   7.298  12.124  1.00  0.00    -0.200 F 
ENDBRANCH  61  85
BRANCH  73  96
ATOM     96  C   UNL     1      16.539  -2.469  12.818  1.00  0.00     0.064 A 
ATOM     97  C   UNL     1      16.026  -2.454  14.123  1.00  0.00     0.173 A 
ATOM     98  C   UNL     1      17.889  -2.814  12.649  1.00  0.00     0.173 A 
ATOM     99  F   UNL     1      14.745  -2.118  14.341  1.00  0.00    -0.203 F 
ATOM    100  C   UNL     1      16.840  -2.737  15.217  1.00  0.00     0.198 A 
ATOM    101  C   UNL     1      18.692  -3.131  13.742  1.00  0.00     0.198 A 
ATOM    102  F   UNL     1      18.430  -2.852  11.422  1.00  0.00    -0.203 F 
ATOM    103  F   UNL     1      16.342  -2.657  16.459  1.00  0.00    -0.200 F 
ATOM    104  C   UNL     1      18.170  -3.081  15.025  1.00  0.00     0.200 A 
ATOM    105  F   UNL     1      19.972  -3.479  13.553  1.00  0.00    -0.200 F 
ATOM    106  F   UNL     1      18.951  -3.356  16.078  1.00  0.00    -0.200 F 
ENDBRANCH  73  96
ENDBRANCH  47  48
ENDBRANCH  39  42
ENDBRANCH  37  38
ENDBRANCH  36  37
ENDBRANCH  35  36
ENDBRANCH  34  35
ENDBRANCH   3  34
TORSDOF 17
