REMARK SMILES O=C(NCCCCNC(=O)[C@@H]1CCCC[C@@H]1NS(=O)(=O)c1ccc2ccccc2c1)c1ccc(-c2c3nc(c(-c4c(F)c(F)c(F)c(F)c4F)c4ccc([nH]4)c(-c4c(F)c(F)c(F)c(F)c4F)c4nc(c(-c5c(F)c(F)c(F)c(F)c5F)c5ccc2[nH]5)C=C4)C=C3)cc1
REMARK SMILES IDX 6 1 5 2 4 3 3 4 1 5 2 6 31 8 32 9 93 10 33 11 92 12 34 13
REMARK SMILES IDX 35 14 36 15 86 16 37 17 91 18 85 19 87 20 38 21 90 22 84 23
REMARK SMILES IDX 83 24 39 26 71 27 51 28 70 29 52 30 55 31 69 32 88 33 53 34
REMARK SMILES IDX 54 35 68 37 89 38 56 39 40 40 41 41 49 42 42 43 43 44 47 45
REMARK SMILES IDX 50 46 44 47 45 48 48 49 46 50 72 51 73 52 81 53 74 54 75 55
REMARK SMILES IDX 79 56 82 57 76 58 77 59 80 60 78 61 57 62 58 63 66 64 59 65
REMARK SMILES IDX 60 66 64 67 67 68 61 69 62 70 65 71 63 72 7 73 8 74 9 75
REMARK SMILES IDX 10 77 11 78 12 79 16 80 13 81 15 82 14 83 17 84 18 86 19 87
REMARK SMILES IDX 20 88 21 89 22 90 30 91 23 92 29 93 24 94 28 95 25 96 27 97
REMARK SMILES IDX 26 98
REMARK H PARENT 3 7 87 25 55 36 8 76 17 85
REMARK Flexibility Score: inf
ROOT
ATOM      1  C   UNL     1       4.580  -2.580  -2.683  1.00  0.00     0.023 C 
ENDROOT
BRANCH   1   2
ATOM      2  C   UNL     1       5.108  -2.046  -1.360  1.00  0.00     0.023 C 
BRANCH   2   3
ATOM      3  C   UNL     1       4.735  -0.604  -1.056  1.00  0.00     0.116 C 
BRANCH   3   4
ATOM      4  N   UNL     1       3.296  -0.376  -1.016  1.00  0.00    -0.352 N 
ATOM      5  O   UNL     1       1.290   0.109  -0.098  1.00  0.00    -0.269 OA
ATOM      6  C   UNL     1       2.511   0.093   0.011  1.00  0.00     0.251 C 
ATOM      7  H   UNL     1       2.815  -0.590  -1.847  1.00  0.00     0.163 HD
BRANCH   6   8
ATOM      8  C   UNL     1       3.149   0.545   1.264  1.00  0.00     0.039 A 
ATOM      9  C   UNL     1       4.274   1.368   1.224  1.00  0.00     0.014 A 
ATOM     10  C   UNL     1       2.639   0.105   2.489  1.00  0.00     0.014 A 
ATOM     11  C   UNL     1       5.000   1.589   2.385  1.00  0.00     0.010 A 
ATOM     12  C   UNL     1       3.313   0.422   3.671  1.00  0.00     0.010 A 
ATOM     13  C   UNL     1       4.525   1.126   3.624  1.00  0.00    -0.014 A 
BRANCH  13  14
ATOM     14  C   UNL     1       5.306   1.433   4.849  1.00  0.00     0.031 A 
ATOM     15  C   UNL     1       5.928   0.340   5.673  1.00  0.00     0.074 A 
ATOM     16  C   UNL     1       5.499   2.724   5.178  1.00  0.00     0.049 A 
ATOM     17  N   UNL     1       6.678   0.442   6.742  1.00  0.00    -0.248 NA
ATOM     18  C   UNL     1       5.672  -1.046   5.253  1.00  0.00     0.031 C 
ATOM     19  C   UNL     1       4.937   3.867   4.454  1.00  0.00     0.029 A 
ATOM     20  N   UNL     1       6.245   3.297   6.174  1.00  0.00    -0.354 N 
ATOM     21  C   UNL     1       6.957  -0.860   7.138  1.00  0.00     0.074 A 
ATOM     22  C   UNL     1       6.284  -1.737   6.205  1.00  0.00     0.031 C 
ATOM     23  C   UNL     1       5.414   5.001   4.984  1.00  0.00     0.029 A 
ATOM     24  C   UNL     1       6.258   4.669   6.125  1.00  0.00     0.049 A 
ATOM     25  H   UNL     1       6.724   2.776   6.858  1.00  0.00     0.167 HD
ATOM     26  C   UNL     1       7.712  -1.280   8.183  1.00  0.00     0.037 A 
ATOM     27  C   UNL     1       6.876   5.564   6.917  1.00  0.00     0.037 A 
ATOM     28  C   UNL     1       8.407  -0.400   9.088  1.00  0.00     0.049 A 
ATOM     29  C   UNL     1       7.704   5.068   8.065  1.00  0.00     0.074 A 
ATOM     30  C   UNL     1       9.228  -0.729  10.154  1.00  0.00     0.029 A 
ATOM     31  N   UNL     1       8.363   0.986   9.033  1.00  0.00    -0.354 N 
ATOM     32  N   UNL     1       7.973   3.835   8.416  1.00  0.00    -0.248 NA
ATOM     33  C   UNL     1       8.304   6.090   8.931  1.00  0.00     0.031 C 
ATOM     34  C   UNL     1       9.650   0.457  10.765  1.00  0.00     0.029 A 
ATOM     35  C   UNL     1       9.126   1.526  10.056  1.00  0.00     0.049 A 
ATOM     36  H   UNL     1       7.864   1.508   8.364  1.00  0.00     0.167 HD
ATOM     37  C   UNL     1       8.781   3.929   9.539  1.00  0.00     0.074 A 
ATOM     38  C   UNL     1       8.978   5.342   9.795  1.00  0.00     0.031 C 
ATOM     39  C   UNL     1       9.306   2.935  10.295  1.00  0.00     0.037 A 
BRANCH  26  40
ATOM     40  C   UNL     1       7.812  -2.759   8.421  1.00  0.00     0.064 A 
ATOM     41  C   UNL     1       8.572  -3.592   7.588  1.00  0.00     0.173 A 
ATOM     42  C   UNL     1       7.173  -3.342   9.526  1.00  0.00     0.173 A 
ATOM     43  F   UNL     1       9.194  -3.086   6.512  1.00  0.00    -0.203 F 
ATOM     44  C   UNL     1       8.672  -4.959   7.841  1.00  0.00     0.198 A 
ATOM     45  C   UNL     1       7.295  -4.704   9.790  1.00  0.00     0.198 A 
ATOM     46  F   UNL     1       6.439  -2.589  10.358  1.00  0.00    -0.203 F 
ATOM     47  F   UNL     1       9.374  -5.743   7.010  1.00  0.00    -0.200 F 
ATOM     48  C   UNL     1       8.040  -5.512   8.944  1.00  0.00     0.200 A 
ATOM     49  F   UNL     1       6.693  -5.235  10.863  1.00  0.00    -0.200 F 
ATOM     50  F   UNL     1       8.143  -6.826   9.190  1.00  0.00    -0.200 F 
ENDBRANCH  26  40
BRANCH  27  51
ATOM     51  C   UNL     1       6.733   7.014   6.635  1.00  0.00     0.064 A 
ATOM     52  C   UNL     1       7.816   7.763   6.157  1.00  0.00     0.173 A 
ATOM     53  C   UNL     1       5.507   7.672   6.808  1.00  0.00     0.173 A 
ATOM     54  F   UNL     1       9.013   7.180   5.992  1.00  0.00    -0.203 F 
ATOM     55  C   UNL     1       7.679   9.119   5.868  1.00  0.00     0.198 A 
ATOM     56  C   UNL     1       5.364   9.020   6.492  1.00  0.00     0.198 A 
ATOM     57  F   UNL     1       4.439   6.995   7.257  1.00  0.00    -0.203 F 
ATOM     58  F   UNL     1       8.737   9.821   5.441  1.00  0.00    -0.200 F 
ATOM     59  C   UNL     1       6.451   9.744   6.028  1.00  0.00     0.200 A 
ATOM     60  F   UNL     1       4.171   9.615   6.631  1.00  0.00    -0.200 F 
ATOM     61  F   UNL     1       6.317  11.045   5.737  1.00  0.00    -0.200 F 
ENDBRANCH  27  51
BRANCH  39  62
ATOM     62  C   UNL     1      10.158   3.349  11.457  1.00  0.00     0.064 A 
ATOM     63  C   UNL     1       9.595   3.896  12.618  1.00  0.00     0.173 A 
ATOM     64  C   UNL     1      11.550   3.186  11.411  1.00  0.00     0.173 A 
ATOM     65  F   UNL     1       8.270   4.088  12.700  1.00  0.00    -0.203 F 
ATOM     66  C   UNL     1      10.399   4.291  13.684  1.00  0.00     0.198 A 
ATOM     67  C   UNL     1      12.349   3.559  12.488  1.00  0.00     0.198 A 
ATOM     68  F   UNL     1      12.135   2.665  10.322  1.00  0.00    -0.203 F 
ATOM     69  F   UNL     1       9.845   4.858  14.764  1.00  0.00    -0.200 F 
ATOM     70  C   UNL     1      11.774   4.118  13.620  1.00  0.00     0.200 A 
ATOM     71  F   UNL     1      13.676   3.385  12.428  1.00  0.00    -0.200 F 
ATOM     72  F   UNL     1      12.546   4.501  14.645  1.00  0.00    -0.200 F 
ENDBRANCH  39  62
ENDBRANCH  13  14
ENDBRANCH   6   8
ENDBRANCH   3   4
ENDBRANCH   2   3
ENDBRANCH   1   2
BRANCH   1  73
ATOM     73  C   UNL     1       4.860  -1.707  -3.903  1.00  0.00     0.116 C 
BRANCH  73  74
ATOM     74  N   UNL     1       6.276  -1.553  -4.185  1.00  0.00    -0.356 N 
ATOM     75  C   UNL     1       7.001  -1.773  -5.316  1.00  0.00     0.224 C 
ATOM     76  H   UNL     1       6.807  -1.232  -3.421  1.00  0.00     0.163 HD
ATOM     77  O   UNL     1       8.215  -1.553  -5.248  1.00  0.00    -0.275 OA
BRANCH  75  78
ATOM     78  C   UNL     1       6.392  -2.295  -6.615  1.00  0.00     0.096 C 
ATOM     79  C   UNL     1       5.258  -1.395  -7.139  1.00  0.00     0.015 C 
ATOM     80  C   UNL     1       6.192  -3.837  -6.648  1.00  0.00     0.082 C 
ATOM     81  C   UNL     1       4.514  -1.973  -8.332  1.00  0.00     0.001 C 
ATOM     82  C   UNL     1       5.386  -4.267  -7.881  1.00  0.00     0.021 C 
ATOM     83  C   UNL     1       4.134  -3.424  -8.097  1.00  0.00     0.002 C 
BRANCH  80  84
ATOM     84  N   UNL     1       5.567  -4.359  -5.417  1.00  0.00    -0.207 NA
ATOM     85  H   UNL     1       4.560  -4.257  -5.542  1.00  0.00     0.141 HD
BRANCH  84  86
ATOM     86  S   UNL     1       5.819  -5.945  -4.888  1.00  0.00     0.240 S 
ATOM     87  O   UNL     1       5.007  -6.082  -3.704  1.00  0.00    -0.207 OA
ATOM     88  O   UNL     1       5.637  -6.817  -6.026  1.00  0.00    -0.207 OA
BRANCH  86  89
ATOM     89  C   UNL     1       7.509  -6.080  -4.376  1.00  0.00     0.083 A 
ATOM     90  C   UNL     1       8.291  -4.968  -4.079  1.00  0.00     0.022 A 
ATOM     91  C   UNL     1       8.068  -7.364  -4.348  1.00  0.00     0.030 A 
ATOM     92  C   UNL     1       9.653  -5.136  -3.805  1.00  0.00     0.010 A 
ATOM     93  C   UNL     1       9.425  -7.546  -4.052  1.00  0.00    -0.017 A 
ATOM     94  C   UNL     1      10.236  -6.416  -3.797  1.00  0.00    -0.018 A 
ATOM     95  C   UNL     1       9.996  -8.828  -4.020  1.00  0.00     0.009 A 
ATOM     96  C   UNL     1      11.605  -6.602  -3.545  1.00  0.00     0.009 A 
ATOM     97  C   UNL     1      11.356  -8.995  -3.758  1.00  0.00     0.001 A 
ATOM     98  C   UNL     1      12.161  -7.883  -3.529  1.00  0.00     0.001 A 
ENDBRANCH  86  89
ENDBRANCH  84  86
ENDBRANCH  80  84
ENDBRANCH  75  78
ENDBRANCH  73  74
ENDBRANCH   1  73
TORSDOF 14
