REMARK SMILES COc1cccc(N2C(=O)/C(=C/c3ccccc3C(=O)NCCCCNC(=O)c3ccc(-c4c5nc(c(-c6c(F)c(F)c(F)c(F)c6F)c6ccc([nH]6)c(-c6c(F)c(F)c(F)c(F)c6F)c6nc(c(-c7c(F)c(F)c(F)c(F)c7F)c7ccc4[nH]7)C=C6)C=C5)cc3)SC2=S)c1
REMARK SMILES IDX 23 1 22 2 21 3 19 4 20 5 18 7 13 8 14 9 15 10 17 11 16 12
REMARK SMILES IDX 12 13 8 14 9 15 93 16 10 17 11 18 92 19 94 20 7 21 3 22 4 23
REMARK SMILES IDX 95 24 5 25 6 26 2 27 1 28 24 29 25 30 26 31 27 32 28 34
REMARK SMILES IDX 29 35 30 36 91 37 31 38 90 39 32 40 33 41 34 42 84 43 35 44
REMARK SMILES IDX 89 45 83 46 85 47 36 48 88 49 82 50 81 51 37 53 69 54 49 55
REMARK SMILES IDX 68 56 50 57 53 58 67 59 86 60 51 61 52 62 66 64 87 65 54 66
REMARK SMILES IDX 38 67 39 68 47 69 40 70 41 71 45 72 48 73 42 74 43 75 46 76
REMARK SMILES IDX 44 77 70 78 71 79 79 80 72 81 73 82 77 83 80 84 74 85 75 86
REMARK SMILES IDX 78 87 76 88 55 89 56 90 64 91 57 92 58 93 62 94 65 95 59 96
REMARK SMILES IDX 60 97 63 98 61 99
REMARK H PARENT 21 6 26 33 85 52 53 63
REMARK Flexibility Score: inf
ROOT
ATOM      1  C   UNL     1       4.518  -8.036   3.604  1.00  0.00     0.023 C 
ENDROOT
BRANCH   1   2
ATOM      2  C   UNL     1       5.454  -6.967   3.063  1.00  0.00     0.116 C 
BRANCH   2   3
ATOM      3  N   UNL     1       6.313  -6.324   4.034  1.00  0.00    -0.352 N 
ATOM      4  C   UNL     1       7.586  -5.819   3.880  1.00  0.00     0.251 C 
ATOM      5  O   UNL     1       8.105  -5.245   4.836  1.00  0.00    -0.269 OA
ATOM      6  H   UNL     1       5.932  -6.235   4.938  1.00  0.00     0.163 HD
BRANCH   4   7
ATOM      7  C   UNL     1       8.392  -6.034   2.643  1.00  0.00     0.047 A 
ATOM      8  C   UNL     1       7.977  -5.777   1.319  1.00  0.00    -0.012 A 
ATOM      9  C   UNL     1       8.820  -6.173   0.263  1.00  0.00     0.009 A 
ATOM     10  C   UNL     1      10.074  -6.739   0.509  1.00  0.00     0.001 A 
ATOM     11  C   UNL     1       9.682  -6.551   2.875  1.00  0.00     0.014 A 
ATOM     12  C   UNL     1      10.517  -6.904   1.815  1.00  0.00     0.001 A 
BRANCH   8  13
ATOM     13  C   UNL     1       6.675  -5.210   0.932  1.00  0.00     0.030 C 
ATOM     14  N   UNL     1       4.352  -2.514   1.578  1.00  0.00    -0.261 N 
ATOM     15  C   UNL     1       4.701  -3.740   1.028  1.00  0.00     0.270 C 
ATOM     16  C   UNL     1       5.346  -1.863   2.298  1.00  0.00     0.152 C 
ATOM     17  O   UNL     1       3.971  -4.535   0.438  1.00  0.00    -0.268 OA
ATOM     18  C   UNL     1       6.136  -4.039   1.298  1.00  0.00     0.081 C 
ATOM     19  S   UNL     1       6.858  -2.765   2.179  1.00  0.00    -0.054 SA
ATOM     20  S   UNL     1       5.235  -0.507   3.272  1.00  0.00    -0.051 S 
BRANCH  14  21
ATOM     21  C   UNL     1       3.012  -2.036   1.483  1.00  0.00     0.054 A 
ATOM     22  C   UNL     1       1.412  -0.297   0.960  1.00  0.00     0.120 A 
ATOM     23  C   UNL     1       0.368  -1.069   1.449  1.00  0.00     0.046 A 
ATOM     24  C   UNL     1       2.732  -0.754   0.999  1.00  0.00     0.073 A 
ATOM     25  C   UNL     1       0.636  -2.355   1.889  1.00  0.00     0.006 A 
ATOM     26  C   UNL     1       1.946  -2.846   1.889  1.00  0.00     0.027 A 
BRANCH  22  27
ATOM     27  O   UNL     1       1.116   0.936   0.451  1.00  0.00    -0.497 OA
ATOM     28  C   UNL     1       1.074   0.861  -0.976  1.00  0.00     0.278 C 
ENDBRANCH  22  27
ENDBRANCH  14  21
ENDBRANCH   8  13
ENDBRANCH   4   7
ENDBRANCH   2   3
ENDBRANCH   1   2
BRANCH   1  29
ATOM     29  C   UNL     1       3.492  -7.593   4.646  1.00  0.00     0.023 C 
BRANCH  29  30
ATOM     30  C   UNL     1       2.648  -6.361   4.325  1.00  0.00     0.116 C 
BRANCH  30  31
ATOM     31  N   UNL     1       1.859  -6.483   3.114  1.00  0.00    -0.352 N 
ATOM     32  C   UNL     1       0.591  -6.056   2.803  1.00  0.00     0.251 C 
ATOM     33  H   UNL     1       2.314  -6.960   2.383  1.00  0.00     0.163 HD
ATOM     34  O   UNL     1       0.126  -6.392   1.713  1.00  0.00    -0.269 OA
BRANCH  32  35
ATOM     35  C   UNL     1      -0.237  -5.192   3.696  1.00  0.00     0.039 A 
ATOM     36  C   UNL     1      -1.620  -5.143   3.444  1.00  0.00     0.014 A 
ATOM     37  C   UNL     1       0.290  -4.345   4.678  1.00  0.00     0.014 A 
ATOM     38  C   UNL     1      -2.462  -4.337   4.216  1.00  0.00     0.010 A 
ATOM     39  C   UNL     1      -0.549  -3.577   5.486  1.00  0.00     0.010 A 
ATOM     40  C   UNL     1      -1.933  -3.602   5.285  1.00  0.00    -0.014 A 
BRANCH  40  41
ATOM     41  C   UNL     1      -2.815  -3.097   6.361  1.00  0.00     0.031 A 
ATOM     42  C   UNL     1      -3.059  -1.639   6.587  1.00  0.00     0.074 A 
ATOM     43  C   UNL     1      -3.278  -4.024   7.221  1.00  0.00     0.049 A 
ATOM     44  N   UNL     1      -3.790  -1.065   7.509  1.00  0.00    -0.248 NA
ATOM     45  C   UNL     1      -2.385  -0.698   5.681  1.00  0.00     0.031 C 
ATOM     46  C   UNL     1      -3.002  -5.463   7.125  1.00  0.00     0.029 A 
ATOM     47  N   UNL     1      -4.041  -3.911   8.351  1.00  0.00    -0.354 N 
ATOM     48  C   UNL     1      -3.674   0.301   7.294  1.00  0.00     0.074 A 
ATOM     49  C   UNL     1      -2.770   0.474   6.175  1.00  0.00     0.031 C 
ATOM     50  C   UNL     1      -3.587  -6.096   8.148  1.00  0.00     0.029 A 
ATOM     51  C   UNL     1      -4.257  -5.110   8.984  1.00  0.00     0.049 A 
ATOM     52  H   UNL     1      -4.400  -3.054   8.678  1.00  0.00     0.167 HD
ATOM     53  C   UNL     1      -4.279   1.306   7.976  1.00  0.00     0.037 A 
ATOM     54  C   UNL     1      -4.921  -5.386  10.118  1.00  0.00     0.037 A 
ATOM     55  C   UNL     1      -5.155   1.094   9.105  1.00  0.00     0.049 A 
ATOM     56  C   UNL     1      -5.593  -4.256  10.836  1.00  0.00     0.074 A 
ATOM     57  C   UNL     1      -5.891   2.025   9.818  1.00  0.00     0.029 A 
ATOM     58  N   UNL     1      -5.391  -0.139   9.701  1.00  0.00    -0.354 N 
ATOM     59  N   UNL     1      -5.587  -2.977  10.547  1.00  0.00    -0.248 NA
ATOM     60  C   UNL     1      -6.381  -4.606  12.021  1.00  0.00     0.031 C 
ATOM     61  C   UNL     1      -6.521   1.366  10.880  1.00  0.00     0.029 A 
ATOM     62  C   UNL     1      -6.232   0.013  10.794  1.00  0.00     0.049 A 
ATOM     63  H   UNL     1      -5.016  -0.995   9.393  1.00  0.00     0.167 HD
ATOM     64  C   UNL     1      -6.391  -2.369  11.496  1.00  0.00     0.074 A 
ATOM     65  C   UNL     1      -6.886  -3.428  12.356  1.00  0.00     0.031 C 
ATOM     66  C   UNL     1      -6.696  -1.056  11.644  1.00  0.00     0.037 A 
BRANCH  53  67
ATOM     67  C   UNL     1      -4.026   2.722   7.533  1.00  0.00     0.064 A 
ATOM     68  C   UNL     1      -4.523   3.214   6.316  1.00  0.00     0.173 A 
ATOM     69  C   UNL     1      -3.354   3.626   8.372  1.00  0.00     0.173 A 
ATOM     70  F   UNL     1      -5.174   2.398   5.473  1.00  0.00    -0.203 F 
ATOM     71  C   UNL     1      -4.342   4.547   5.948  1.00  0.00     0.198 A 
ATOM     72  C   UNL     1      -3.199   4.964   8.015  1.00  0.00     0.198 A 
ATOM     73  F   UNL     1      -2.867   3.218   9.553  1.00  0.00    -0.203 F 
ATOM     74  F   UNL     1      -4.802   4.984   4.768  1.00  0.00    -0.200 F 
ATOM     75  C   UNL     1      -3.688   5.423   6.802  1.00  0.00     0.200 A 
ATOM     76  F   UNL     1      -2.584   5.814   8.850  1.00  0.00    -0.200 F 
ATOM     77  F   UNL     1      -3.533   6.708   6.456  1.00  0.00    -0.200 F 
ENDBRANCH  53  67
BRANCH  54  78
ATOM     78  C   UNL     1      -5.023  -6.791  10.585  1.00  0.00     0.064 A 
ATOM     79  C   UNL     1      -6.239  -7.484  10.510  1.00  0.00     0.173 A 
ATOM     80  C   UNL     1      -3.901  -7.489  11.058  1.00  0.00     0.173 A 
ATOM     81  F   UNL     1      -7.339  -6.858  10.066  1.00  0.00    -0.203 F 
ATOM     82  C   UNL     1      -6.335  -8.814  10.910  1.00  0.00     0.198 A 
ATOM     83  C   UNL     1      -3.992  -8.829  11.429  1.00  0.00     0.198 A 
ATOM     84  F   UNL     1      -2.709  -6.878  11.127  1.00  0.00    -0.203 F 
ATOM     85  F   UNL     1      -7.517  -9.442  10.860  1.00  0.00    -0.200 F 
ATOM     86  C   UNL     1      -5.210  -9.488  11.362  1.00  0.00     0.200 A 
ATOM     87  F   UNL     1      -2.897  -9.484  11.840  1.00  0.00    -0.200 F 
ATOM     88  F   UNL     1      -5.300 -10.773  11.731  1.00  0.00    -0.200 F 
ENDBRANCH  54  78
BRANCH  66  89
ATOM     89  C   UNL     1      -7.624  -0.712  12.772  1.00  0.00     0.064 A 
ATOM     90  C   UNL     1      -7.221  -0.812  14.112  1.00  0.00     0.173 A 
ATOM     91  C   UNL     1      -8.935  -0.288  12.507  1.00  0.00     0.173 A 
ATOM     92  F   UNL     1      -5.984  -1.234  14.416  1.00  0.00    -0.203 F 
ATOM     93  C   UNL     1      -8.112  -0.543  15.147  1.00  0.00     0.198 A 
ATOM     94  C   UNL     1      -9.811   0.016  13.544  1.00  0.00     0.198 A 
ATOM     95  F   UNL     1      -9.367  -0.172  11.243  1.00  0.00    -0.203 F 
ATOM     96  F   UNL     1      -7.728  -0.716  16.419  1.00  0.00    -0.200 F 
ATOM     97  C   UNL     1      -9.403  -0.125  14.863  1.00  0.00     0.200 A 
ATOM     98  F   UNL     1     -11.054   0.431  13.268  1.00  0.00    -0.200 F 
ATOM     99  F   UNL     1     -10.261   0.130  15.860  1.00  0.00    -0.200 F 
ENDBRANCH  66  89
ENDBRANCH  40  41
ENDBRANCH  32  35
ENDBRANCH  30  31
ENDBRANCH  29  30
ENDBRANCH   1  29
TORSDOF 14
