REMARK SMILES COc1ccc(CCN2C(=O)CC[C@@H](C(=O)NCCCCNC(=O)c3ccc(-c4c5nc(c(-c6c(F)c(F)c(F)c(F)c6F)c6ccc([nH]6)c(-c6c(F)c(F)c(F)c(F)c6F)c6nc(c(-c7c(F)c(F)c(F)c(F)c7F)c7ccc4[nH]7)C=C6)C=C5)cc3)[C@@H]2c2ccc(Cl)cc2)cc1OC
REMARK SMILES IDX 18 1 17 2 15 3 16 4 14 6 9 7 10 8 88 9 11 10 12 11 13 12
REMARK SMILES IDX 8 13 7 14 6 15 3 16 4 17 97 18 5 19 96 20 2 21 1 22 98 23
REMARK SMILES IDX 99 24 89 25 90 26 95 27 91 28 94 29 92 30 93 31 19 32 20 33
REMARK SMILES IDX 21 34 22 35 23 36 24 38 25 39 26 40 87 41 27 42 86 43 28 44
REMARK SMILES IDX 29 45 30 46 80 47 31 48 85 49 79 50 81 51 32 52 84 53 78 54
REMARK SMILES IDX 77 55 33 57 65 58 45 59 64 60 46 61 49 62 63 63 82 64 47 65
REMARK SMILES IDX 48 66 62 68 83 69 50 70 34 71 35 72 43 73 36 74 37 75 41 76
REMARK SMILES IDX 44 77 38 78 39 79 42 80 40 81 66 82 67 83 75 84 68 85 69 86
REMARK SMILES IDX 73 87 76 88 70 89 71 90 74 91 72 92 51 93 52 94 60 95 53 96
REMARK SMILES IDX 54 97 58 98 61 99 55 100 56 101 59 102 57 103
REMARK H PARENT 17 5 22 37 81 56 49 67
REMARK Flexibility Score: inf
ROOT
ATOM      1  C   UNL     1       1.302   4.177  -6.445  1.00  0.00     0.116 C 
ENDROOT
BRANCH   1   2
ATOM      2  N   UNL     1       0.048   4.474  -7.110  1.00  0.00    -0.356 N 
ATOM      3  C   UNL     1      -1.111   5.066  -6.708  1.00  0.00     0.225 C 
ATOM      4  O   UNL     1      -1.807   5.493  -7.641  1.00  0.00    -0.275 OA
ATOM      5  H   UNL     1       0.030   4.187  -8.052  1.00  0.00     0.163 HD
BRANCH   3   6
ATOM      6  C   UNL     1      -1.702   5.093  -5.276  1.00  0.00     0.106 C 
ATOM      7  N   UNL     1       0.129   6.151  -3.904  1.00  0.00    -0.335 N 
ATOM      8  C   UNL     1      -0.360   7.427  -4.187  1.00  0.00     0.223 C 
ATOM      9  C   UNL     1      -0.787   5.010  -4.061  1.00  0.00     0.128 C 
ATOM     10  O   UNL     1       0.306   8.444  -3.986  1.00  0.00    -0.275 OA
ATOM     11  C   UNL     1      -1.736   7.565  -4.851  1.00  0.00     0.101 C 
ATOM     12  C   UNL     1      -2.581   6.317  -5.055  1.00  0.00     0.026 C 
BRANCH   7  13
ATOM     13  C   UNL     1       1.594   5.986  -3.556  1.00  0.00     0.125 C 
BRANCH  13  14
ATOM     14  C   UNL     1       2.133   5.430  -2.189  1.00  0.00     0.057 C 
BRANCH  14  15
ATOM     15  C   UNL     1       2.306   3.928  -1.966  1.00  0.00    -0.042 A 
ATOM     16  C   UNL     1       2.244   1.160  -1.276  1.00  0.00     0.160 A 
ATOM     17  C   UNL     1       1.272   1.705  -2.081  1.00  0.00     0.051 A 
ATOM     18  C   UNL     1       3.337   1.953  -0.899  1.00  0.00     0.160 A 
ATOM     19  C   UNL     1       1.323   3.052  -2.377  1.00  0.00     0.008 A 
ATOM     20  C   UNL     1       3.352   3.338  -1.241  1.00  0.00     0.054 A 
BRANCH  16  21
ATOM     21  O   UNL     1       2.073  -0.142  -0.890  1.00  0.00    -0.493 OA
ATOM     22  C   UNL     1       0.862  -0.298  -0.137  1.00  0.00     0.278 C 
ENDBRANCH  16  21
BRANCH  18  23
ATOM     23  O   UNL     1       4.428   1.543  -0.172  1.00  0.00    -0.493 OA
ATOM     24  C   UNL     1       4.457   0.179   0.239  1.00  0.00     0.278 C 
ENDBRANCH  18  23
ENDBRANCH  14  15
ENDBRANCH  13  14
ENDBRANCH   7  13
BRANCH   9  25
ATOM     25  C   UNL     1      -1.490   4.620  -2.734  1.00  0.00    -0.025 A 
ATOM     26  C   UNL     1      -1.290   5.352  -1.549  1.00  0.00     0.007 A 
ATOM     27  C   UNL     1      -2.108   3.353  -2.631  1.00  0.00     0.007 A 
ATOM     28  C   UNL     1      -1.553   4.780  -0.300  1.00  0.00     0.021 A 
ATOM     29  C   UNL     1      -2.379   2.788  -1.379  1.00  0.00     0.021 A 
ATOM     30  C   UNL     1      -2.063   3.489  -0.220  1.00  0.00     0.041 A 
ATOM     31  Cl  UNL     1      -2.241   2.730   1.313  1.00  0.00    -0.084 Cl
ENDBRANCH   9  25
ENDBRANCH   3   6
ENDBRANCH   1   2
BRANCH   1  32
ATOM     32  C   UNL     1       2.075   2.982  -6.986  1.00  0.00     0.023 C 
BRANCH  32  33
ATOM     33  C   UNL     1       2.778   3.196  -8.317  1.00  0.00     0.023 C 
BRANCH  33  34
ATOM     34  C   UNL     1       3.751   4.370  -8.371  1.00  0.00     0.116 C 
BRANCH  34  35
ATOM     35  N   UNL     1       4.852   4.277  -7.423  1.00  0.00    -0.352 N 
ATOM     36  C   UNL     1       6.206   4.448  -7.639  1.00  0.00     0.251 C 
ATOM     37  H   UNL     1       4.596   4.062  -6.497  1.00  0.00     0.163 HD
ATOM     38  O   UNL     1       7.008   4.260  -6.747  1.00  0.00    -0.269 OA
BRANCH  36  39
ATOM     39  C   UNL     1       6.675   4.821  -8.995  1.00  0.00     0.039 A 
ATOM     40  C   UNL     1       7.700   4.074  -9.581  1.00  0.00     0.014 A 
ATOM     41  C   UNL     1       6.067   5.860  -9.701  1.00  0.00     0.014 A 
ATOM     42  C   UNL     1       8.050   4.311 -10.912  1.00  0.00     0.010 A 
ATOM     43  C   UNL     1       6.356   6.035 -11.050  1.00  0.00     0.010 A 
ATOM     44  C   UNL     1       7.347   5.260 -11.672  1.00  0.00    -0.014 A 
BRANCH  44  45
ATOM     45  C   UNL     1       7.626   5.454 -13.119  1.00  0.00     0.031 A 
ATOM     46  C   UNL     1       8.127   6.780 -13.618  1.00  0.00     0.074 A 
ATOM     47  C   UNL     1       7.359   4.462 -13.992  1.00  0.00     0.049 A 
ATOM     48  N   UNL     1       8.356   7.172 -14.846  1.00  0.00    -0.248 NA
ATOM     49  C   UNL     1       8.374   7.816 -12.602  1.00  0.00     0.031 C 
ATOM     50  C   UNL     1       6.822   3.146 -13.642  1.00  0.00     0.029 A 
ATOM     51  N   UNL     1       7.494   4.411 -15.358  1.00  0.00    -0.354 N 
ATOM     52  C   UNL     1       8.759   8.497 -14.750  1.00  0.00     0.074 A 
ATOM     53  C   UNL     1       8.684   8.862 -13.352  1.00  0.00     0.031 C 
ATOM     54  C   UNL     1       6.699   2.410 -14.757  1.00  0.00     0.029 A 
ATOM     55  C   UNL     1       7.107   3.212 -15.906  1.00  0.00     0.049 A 
ATOM     56  H   UNL     1       7.835   5.163 -15.894  1.00  0.00     0.167 HD
ATOM     57  C   UNL     1       9.182   9.326 -15.734  1.00  0.00     0.037 A 
ATOM     58  C   UNL     1       7.080   2.808 -17.191  1.00  0.00     0.037 A 
ATOM     59  C   UNL     1       9.277   8.953 -17.121  1.00  0.00     0.049 A 
ATOM     60  C   UNL     1       7.541   3.754 -18.268  1.00  0.00     0.074 A 
ATOM     61  C   UNL     1       9.746   9.702 -18.186  1.00  0.00     0.029 A 
ATOM     62  N   UNL     1       8.890   7.724 -17.636  1.00  0.00    -0.354 N 
ATOM     63  N   UNL     1       7.989   4.981 -18.157  1.00  0.00    -0.248 NA
ATOM     64  C   UNL     1       7.497   3.255 -19.650  1.00  0.00     0.031 C 
ATOM     65  C   UNL     1       9.597   8.945 -19.352  1.00  0.00     0.029 A 
ATOM     66  C   UNL     1       9.088   7.703 -19.007  1.00  0.00     0.049 A 
ATOM     67  H   UNL     1       8.528   6.978 -17.105  1.00  0.00     0.167 HD
ATOM     68  C   UNL     1       8.310   5.389 -19.445  1.00  0.00     0.074 A 
ATOM     69  C   UNL     1       8.018   4.273 -20.320  1.00  0.00     0.031 C 
ATOM     70  C   UNL     1       8.802   6.580 -19.864  1.00  0.00     0.037 A 
BRANCH  57  71
ATOM     71  C   UNL     1       9.577  10.721 -15.341  1.00  0.00     0.064 A 
ATOM     72  C   UNL     1      10.725  10.972 -14.572  1.00  0.00     0.173 A 
ATOM     73  C   UNL     1       8.816  11.823 -15.759  1.00  0.00     0.173 A 
ATOM     74  F   UNL     1      11.481   9.953 -14.136  1.00  0.00    -0.203 F 
ATOM     75  C   UNL     1      11.075  12.269 -14.207  1.00  0.00     0.198 A 
ATOM     76  C   UNL     1       9.188  13.121 -15.421  1.00  0.00     0.198 A 
ATOM     77  F   UNL     1       7.713  11.642 -16.501  1.00  0.00    -0.203 F 
ATOM     78  F   UNL     1      12.142  12.477 -13.424  1.00  0.00    -0.200 F 
ATOM     79  C   UNL     1      10.311  13.343 -14.637  1.00  0.00     0.200 A 
ATOM     80  F   UNL     1       8.457  14.159 -15.850  1.00  0.00    -0.200 F 
ATOM     81  F   UNL     1      10.653  14.591 -14.291  1.00  0.00    -0.200 F 
ENDBRANCH  57  71
BRANCH  58  82
ATOM     82  C   UNL     1       6.626   1.434 -17.531  1.00  0.00     0.064 A 
ATOM     83  C   UNL     1       7.529   0.479 -18.019  1.00  0.00     0.173 A 
ATOM     84  C   UNL     1       5.285   1.048 -17.385  1.00  0.00     0.173 A 
ATOM     85  F   UNL     1       8.818   0.805 -18.196  1.00  0.00    -0.203 F 
ATOM     86  C   UNL     1       7.105  -0.801 -18.370  1.00  0.00     0.198 A 
ATOM     87  C   UNL     1       4.868  -0.242 -17.708  1.00  0.00     0.198 A 
ATOM     88  F   UNL     1       4.381   1.921 -16.918  1.00  0.00    -0.203 F 
ATOM     89  F   UNL     1       7.980  -1.678 -18.880  1.00  0.00    -0.200 F 
ATOM     90  C   UNL     1       5.776  -1.163 -18.209  1.00  0.00     0.200 A 
ATOM     91  F   UNL     1       3.586  -0.592 -17.537  1.00  0.00    -0.200 F 
ATOM     92  F   UNL     1       5.369  -2.395 -18.543  1.00  0.00    -0.200 F 
ENDBRANCH  58  82
BRANCH  70  93
ATOM     93  C   UNL     1       9.097   6.728 -21.330  1.00  0.00     0.064 A 
ATOM     94  C   UNL     1       8.073   6.817 -22.284  1.00  0.00     0.173 A 
ATOM     95  C   UNL     1      10.424   6.823 -21.779  1.00  0.00     0.173 A 
ATOM     96  F   UNL     1       6.789   6.716 -21.908  1.00  0.00    -0.203 F 
ATOM     97  C   UNL     1       8.367   6.969 -23.637  1.00  0.00     0.198 A 
ATOM     98  C   UNL     1      10.713   7.008 -23.128  1.00  0.00     0.198 A 
ATOM     99  F   UNL     1      11.440   6.751 -20.906  1.00  0.00    -0.203 F 
ATOM    100  F   UNL     1       7.374   7.001 -24.536  1.00  0.00    -0.200 F 
ATOM    101  C   UNL     1       9.685   7.073 -24.056  1.00  0.00     0.200 A 
ATOM    102  F   UNL     1      11.986   7.124 -23.529  1.00  0.00    -0.200 F 
ATOM    103  F   UNL     1       9.965   7.228 -25.357  1.00  0.00    -0.200 F 
ENDBRANCH  70  93
ENDBRANCH  44  45
ENDBRANCH  36  39
ENDBRANCH  34  35
ENDBRANCH  33  34
ENDBRANCH  32  33
ENDBRANCH   1  32
TORSDOF 17
