REMARK SMILES O=C(NCCCCNC(=O)c1ccc(-c2c3nc(c(-c4c(F)c(F)c(F)c(F)c4F)c4ccc([nH]4)c(-c4c(F)c(F)c(F)c(F)c4F)c4nc(c(-c5c(F)c(F)c(F)c(F)c5F)c5ccc2[nH]5)C=C4)C=C3)cc1)c1ccc(N[C@H]2OC(=O)c3ccccc32)cc1
REMARK SMILES IDX 5 1 4 2 3 3 1 4 2 5 74 7 75 8 90 9 76 10 89 11 77 12 78 13
REMARK SMILES IDX 79 15 80 16 88 17 81 18 83 19 87 20 82 21 84 22 86 23 85 24
REMARK SMILES IDX 6 25 7 26 8 27 9 28 10 30 11 31 12 32 73 33 13 34 72 35
REMARK SMILES IDX 14 36 15 37 16 38 66 39 17 40 71 41 65 42 67 43 18 44 70 45
REMARK SMILES IDX 64 46 63 47 19 49 51 50 31 51 50 52 32 53 35 54 49 55 68 56
REMARK SMILES IDX 33 57 34 58 48 60 69 61 36 62 20 63 21 64 29 65 22 66 23 67
REMARK SMILES IDX 27 68 30 69 24 70 25 71 28 72 26 73 52 74 53 75 61 76 54 77
REMARK SMILES IDX 55 78 59 79 62 80 56 81 57 82 60 83 58 84 37 85 38 86 46 87
REMARK SMILES IDX 39 88 40 89 44 90 47 91 41 92 42 93 45 94 43 95
REMARK H PARENT 3 6 78 14 8 29 67 48 35 59
REMARK Flexibility Score: inf
ROOT
ATOM      1  C   UNL     1       5.024   2.264  -1.064  1.00  0.00     0.023 C 
ENDROOT
BRANCH   1   2
ATOM      2  C   UNL     1       4.667   1.252   0.020  1.00  0.00     0.116 C 
BRANCH   2   3
ATOM      3  N   UNL     1       3.232   1.070   0.164  1.00  0.00    -0.352 N 
ATOM      4  O   UNL     1       1.256  -0.011  -0.008  1.00  0.00    -0.269 OA
ATOM      5  C   UNL     1       2.482  -0.067  -0.021  1.00  0.00     0.251 C 
ATOM      6  H   UNL     1       2.727   1.872   0.430  1.00  0.00     0.163 HD
BRANCH   5   7
ATOM      7  C   UNL     1       3.161  -1.356  -0.260  1.00  0.00     0.039 A 
ATOM      8  C   UNL     1       4.133  -1.825   0.623  1.00  0.00     0.016 A 
ATOM      9  C   UNL     1       2.826  -2.103  -1.386  1.00  0.00     0.016 A 
ATOM     10  C   UNL     1       4.840  -2.993   0.325  1.00  0.00     0.026 A 
ATOM     11  C   UNL     1       3.527  -3.282  -1.662  1.00  0.00     0.026 A 
ATOM     12  C   UNL     1       4.559  -3.741  -0.825  1.00  0.00     0.037 A 
BRANCH  12  13
ATOM     13  N   UNL     1       5.257  -4.869  -1.196  1.00  0.00    -0.347 N 
ATOM     14  H   UNL     1       4.914  -5.365  -1.973  1.00  0.00     0.164 HD
BRANCH  13  15
ATOM     15  C   UNL     1       6.437  -5.394  -0.564  1.00  0.00     0.305 C 
ATOM     16  O   UNL     1       6.329  -6.827  -0.483  1.00  0.00    -0.434 OA
ATOM     17  C   UNL     1       7.645  -5.187  -1.398  1.00  0.00     0.028 A 
ATOM     18  C   UNL     1       7.422  -7.445  -1.012  1.00  0.00     0.340 C 
ATOM     19  C   UNL     1       8.243  -6.409  -1.619  1.00  0.00     0.069 A 
ATOM     20  C   UNL     1       8.217  -4.030  -1.905  1.00  0.00     0.010 A 
ATOM     21  O   UNL     1       7.657  -8.637  -1.002  1.00  0.00    -0.246 OA
ATOM     22  C   UNL     1       9.422  -6.552  -2.331  1.00  0.00     0.016 A 
ATOM     23  C   UNL     1       9.406  -4.141  -2.636  1.00  0.00     0.001 A 
ATOM     24  C   UNL     1      10.008  -5.395  -2.844  1.00  0.00     0.001 A 
ENDBRANCH  13  15
ENDBRANCH  12  13
ENDBRANCH   5   7
ENDBRANCH   2   3
ENDBRANCH   1   2
BRANCH   1  25
ATOM     25  C   UNL     1       4.540   3.691  -0.811  1.00  0.00     0.023 C 
BRANCH  25  26
ATOM     26  C   UNL     1       4.919   4.288   0.540  1.00  0.00     0.116 C 
BRANCH  26  27
ATOM     27  N   UNL     1       6.355   4.319   0.775  1.00  0.00    -0.352 N 
ATOM     28  C   UNL     1       7.152   5.351   1.206  1.00  0.00     0.251 C 
ATOM     29  H   UNL     1       6.826   3.472   0.598  1.00  0.00     0.163 HD
ATOM     30  O   UNL     1       8.371   5.209   1.245  1.00  0.00    -0.269 OA
BRANCH  28  31
ATOM     31  C   UNL     1       6.552   6.650   1.586  1.00  0.00     0.039 A 
ATOM     32  C   UNL     1       7.140   7.824   1.107  1.00  0.00     0.014 A 
ATOM     33  C   UNL     1       5.416   6.716   2.396  1.00  0.00     0.014 A 
ATOM     34  C   UNL     1       6.541   9.058   1.371  1.00  0.00     0.010 A 
ATOM     35  C   UNL     1       4.780   7.939   2.598  1.00  0.00     0.010 A 
ATOM     36  C   UNL     1       5.331   9.121   2.080  1.00  0.00    -0.014 A 
BRANCH  36  37
ATOM     37  C   UNL     1       4.616  10.410   2.266  1.00  0.00     0.031 A 
ATOM     38  C   UNL     1       4.425  10.983   3.642  1.00  0.00     0.074 A 
ATOM     39  C   UNL     1       4.075  11.028   1.199  1.00  0.00     0.049 A 
ATOM     40  N   UNL     1       3.770  12.057   4.007  1.00  0.00    -0.248 NA
ATOM     41  C   UNL     1       5.025  10.237   4.758  1.00  0.00     0.031 C 
ATOM     42  C   UNL     1       4.144  10.546  -0.182  1.00  0.00     0.029 A 
ATOM     43  N   UNL     1       3.349  12.190   1.109  1.00  0.00    -0.354 N 
ATOM     44  C   UNL     1       3.867  12.105   5.391  1.00  0.00     0.074 A 
ATOM     45  C   UNL     1       4.602  10.930   5.805  1.00  0.00     0.031 C 
ATOM     46  C   UNL     1       3.505  11.414  -0.983  1.00  0.00     0.029 A 
ATOM     47  C   UNL     1       2.953  12.494  -0.171  1.00  0.00     0.049 A 
ATOM     48  H   UNL     1       3.131  12.751   1.888  1.00  0.00     0.167 HD
ATOM     49  C   UNL     1       3.403  13.056   6.238  1.00  0.00     0.037 A 
ATOM     50  C   UNL     1       2.222  13.525  -0.637  1.00  0.00     0.037 A 
ATOM     51  C   UNL     1       2.697  14.240   5.823  1.00  0.00     0.049 A 
ATOM     52  C   UNL     1       1.726  14.570   0.324  1.00  0.00     0.074 A 
ATOM     53  C   UNL     1       2.248  15.294   6.600  1.00  0.00     0.029 A 
ATOM     54  N   UNL     1       2.335  14.525   4.515  1.00  0.00    -0.354 N 
ATOM     55  N   UNL     1       1.885  14.642   1.623  1.00  0.00    -0.248 NA
ATOM     56  C   UNL     1       0.952  15.681  -0.248  1.00  0.00     0.031 C 
ATOM     57  C   UNL     1       1.579  16.198   5.768  1.00  0.00     0.029 A 
ATOM     58  C   UNL     1       1.650  15.729   4.466  1.00  0.00     0.049 A 
ATOM     59  H   UNL     1       2.534  13.956   3.737  1.00  0.00     0.167 HD
ATOM     60  C   UNL     1       1.256  15.813   2.020  1.00  0.00     0.074 A 
ATOM     61  C   UNL     1       0.724  16.429   0.822  1.00  0.00     0.031 C 
ATOM     62  C   UNL     1       1.130  16.332   3.265  1.00  0.00     0.037 A 
BRANCH  49  63
ATOM     63  C   UNL     1       3.652  12.857   7.705  1.00  0.00     0.064 A 
ATOM     64  C   UNL     1       4.937  12.982   8.255  1.00  0.00     0.173 A 
ATOM     65  C   UNL     1       2.589  12.575   8.576  1.00  0.00     0.173 A 
ATOM     66  F   UNL     1       5.988  13.240   7.462  1.00  0.00    -0.203 F 
ATOM     67  C   UNL     1       5.153  12.804   9.618  1.00  0.00     0.198 A 
ATOM     68  C   UNL     1       2.805  12.425   9.944  1.00  0.00     0.198 A 
ATOM     69  F   UNL     1       1.340  12.451   8.102  1.00  0.00    -0.203 F 
ATOM     70  F   UNL     1       6.396  12.881  10.114  1.00  0.00    -0.200 F 
ATOM     71  C   UNL     1       4.086  12.532  10.462  1.00  0.00     0.200 A 
ATOM     72  F   UNL     1       1.772  12.174  10.760  1.00  0.00    -0.200 F 
ATOM     73  F   UNL     1       4.295  12.367  11.776  1.00  0.00    -0.200 F 
ENDBRANCH  49  63
BRANCH  50  74
ATOM     74  C   UNL     1       1.941  13.634  -2.091  1.00  0.00     0.064 A 
ATOM     75  C   UNL     1       2.558  14.624  -2.868  1.00  0.00     0.173 A 
ATOM     76  C   UNL     1       1.056  12.756  -2.732  1.00  0.00     0.173 A 
ATOM     77  F   UNL     1       3.396  15.499  -2.293  1.00  0.00    -0.203 F 
ATOM     78  C   UNL     1       2.288  14.742  -4.229  1.00  0.00     0.198 A 
ATOM     79  C   UNL     1       0.806  12.859  -4.099  1.00  0.00     0.198 A 
ATOM     80  F   UNL     1       0.444  11.789  -2.033  1.00  0.00    -0.203 F 
ATOM     81  F   UNL     1       2.861  15.723  -4.941  1.00  0.00    -0.200 F 
ATOM     82  C   UNL     1       1.417  13.856  -4.845  1.00  0.00     0.200 A 
ATOM     83  F   UNL     1      -0.026  11.993  -4.694  1.00  0.00    -0.200 F 
ATOM     84  F   UNL     1       1.161  13.967  -6.156  1.00  0.00    -0.200 F 
ENDBRANCH  50  74
BRANCH  62  85
ATOM     85  C   UNL     1       0.413  17.643   3.394  1.00  0.00     0.064 A 
ATOM     86  C   UNL     1      -0.978  17.738   3.245  1.00  0.00     0.173 A 
ATOM     87  C   UNL     1       1.123  18.813   3.704  1.00  0.00     0.173 A 
ATOM     88  F   UNL     1      -1.698  16.650   2.932  1.00  0.00    -0.203 F 
ATOM     89  C   UNL     1      -1.630  18.961   3.381  1.00  0.00     0.198 A 
ATOM     90  C   UNL     1       0.465  20.029   3.866  1.00  0.00     0.198 A 
ATOM     91  F   UNL     1       2.455  18.774   3.861  1.00  0.00    -0.203 F 
ATOM     92  F   UNL     1      -2.954  19.036   3.191  1.00  0.00    -0.200 F 
ATOM     93  C   UNL     1      -0.909  20.103   3.697  1.00  0.00     0.200 A 
ATOM     94  F   UNL     1       1.161  21.129   4.182  1.00  0.00    -0.200 F 
ATOM     95  F   UNL     1      -1.539  21.278   3.832  1.00  0.00    -0.200 F 
ENDBRANCH  62  85
ENDBRANCH  36  37
ENDBRANCH  28  31
ENDBRANCH  26  27
ENDBRANCH  25  26
ENDBRANCH   1  25
TORSDOF 13
