REMARK SMILES O=C(NCCCCNC(=O)c1cnc(OCC2CC2)c(Cl)c1)c1ccc(-c2c3nc(c(-c4c(F)c(F)c(F)c(F)c4F)c4ccc([nH]4)c(-c4c(F)c(F)c(F)c(F)c4F)c4nc(c(-c5c(F)c(F)c(F)c(F)c5F)c5ccc2[nH]5)C=C4)C=C3)cc1
REMARK SMILES IDX 6 1 5 2 4 3 3 4 1 5 2 6 23 8 24 9 85 10 25 11 84 12 26 13
REMARK SMILES IDX 27 14 28 15 78 16 29 17 83 18 77 19 79 20 30 21 82 22 76 23
REMARK SMILES IDX 75 24 31 26 63 27 43 28 62 29 44 30 47 31 61 32 80 33 45 34
REMARK SMILES IDX 46 35 60 37 81 38 48 39 32 40 33 41 41 42 34 43 35 44 39 45
REMARK SMILES IDX 42 46 36 47 37 48 40 49 38 50 64 51 65 52 73 53 66 54 67 55
REMARK SMILES IDX 71 56 74 57 68 58 69 59 72 60 70 61 49 62 50 63 58 64 51 65
REMARK SMILES IDX 52 66 56 67 59 68 53 69 54 70 57 71 55 72 7 73 8 74 9 75
REMARK SMILES IDX 10 77 11 78 12 79 22 80 13 81 20 82 14 83 21 84 15 85 16 86
REMARK SMILES IDX 17 87 18 88 19 89
REMARK H PARENT 3 7 79 25 47 36 8 76
REMARK Flexibility Score: inf
ROOT
ATOM      1  C   UNL     1       4.380  -2.094  -3.359  1.00  0.00     0.023 C 
ENDROOT
BRANCH   1   2
ATOM      2  C   UNL     1       4.830  -1.936  -1.909  1.00  0.00     0.023 C 
BRANCH   2   3
ATOM      3  C   UNL     1       4.507  -0.589  -1.278  1.00  0.00     0.116 C 
BRANCH   3   4
ATOM      4  N   UNL     1       3.077  -0.338  -1.172  1.00  0.00    -0.352 N 
ATOM      5  O   UNL     1       1.106   0.015  -0.127  1.00  0.00    -0.269 OA
ATOM      6  C   UNL     1       2.330  -0.030  -0.059  1.00  0.00     0.251 C 
ATOM      7  H   UNL     1       2.574  -0.396  -2.016  1.00  0.00     0.163 HD
BRANCH   6   8
ATOM      8  C   UNL     1       3.008   0.217   1.232  1.00  0.00     0.039 A 
ATOM      9  C   UNL     1       4.143   1.028   1.292  1.00  0.00     0.014 A 
ATOM     10  C   UNL     1       2.512  -0.384   2.392  1.00  0.00     0.014 A 
ATOM     11  C   UNL     1       4.873   1.104   2.471  1.00  0.00     0.010 A 
ATOM     12  C   UNL     1       3.195  -0.225   3.602  1.00  0.00     0.010 A 
ATOM     13  C   UNL     1       4.401   0.492   3.643  1.00  0.00    -0.014 A 
BRANCH  13  14
ATOM     14  C   UNL     1       5.158   0.674   4.908  1.00  0.00     0.031 A 
ATOM     15  C   UNL     1       5.793  -0.490   5.615  1.00  0.00     0.074 A 
ATOM     16  C   UNL     1       5.293   1.921   5.399  1.00  0.00     0.049 A 
ATOM     17  N   UNL     1       6.504  -0.496   6.716  1.00  0.00    -0.248 NA
ATOM     18  C   UNL     1       5.604  -1.820   5.019  1.00  0.00     0.031 C 
ATOM     19  C   UNL     1       4.707   3.125   4.806  1.00  0.00     0.029 A 
ATOM     20  N   UNL     1       5.976   2.389   6.492  1.00  0.00    -0.354 N 
ATOM     21  C   UNL     1       6.830  -1.825   6.954  1.00  0.00     0.074 A 
ATOM     22  C   UNL     1       6.218  -2.602   5.897  1.00  0.00     0.031 C 
ATOM     23  C   UNL     1       5.093   4.196   5.512  1.00  0.00     0.029 A 
ATOM     24  C   UNL     1       5.896   3.751   6.644  1.00  0.00     0.049 A 
ATOM     25  H   UNL     1       6.476   1.805   7.108  1.00  0.00     0.167 HD
ATOM     26  C   UNL     1       7.578  -2.343   7.959  1.00  0.00     0.037 A 
ATOM     27  C   UNL     1       6.395   4.554   7.601  1.00  0.00     0.037 A 
ATOM     28  C   UNL     1       8.197  -1.559   8.999  1.00  0.00     0.049 A 
ATOM     29  C   UNL     1       7.203   3.948   8.711  1.00  0.00     0.074 A 
ATOM     30  C   UNL     1       9.005  -1.988  10.038  1.00  0.00     0.029 A 
ATOM     31  N   UNL     1       8.071  -0.184   9.135  1.00  0.00    -0.354 N 
ATOM     32  N   UNL     1       7.534   2.695   8.903  1.00  0.00    -0.248 NA
ATOM     33  C   UNL     1       7.705   4.869   9.739  1.00  0.00     0.031 C 
ATOM     34  C   UNL     1       9.326  -0.881  10.831  1.00  0.00     0.029 A 
ATOM     35  C   UNL     1       8.765   0.248  10.255  1.00  0.00     0.049 A 
ATOM     36  H   UNL     1       7.563   0.400   8.526  1.00  0.00     0.167 HD
ATOM     37  C   UNL     1       8.295   2.676  10.062  1.00  0.00     0.074 A 
ATOM     38  C   UNL     1       8.397   4.048  10.516  1.00  0.00     0.031 C 
ATOM     39  C   UNL     1       8.856   1.617  10.695  1.00  0.00     0.037 A 
BRANCH  26  40
ATOM     40  C   UNL     1       7.759  -3.834   8.001  1.00  0.00     0.064 A 
ATOM     41  C   UNL     1       8.566  -4.507   7.072  1.00  0.00     0.173 A 
ATOM     42  C   UNL     1       7.165  -4.592   9.023  1.00  0.00     0.173 A 
ATOM     43  F   UNL     1       9.150  -3.832   6.071  1.00  0.00    -0.203 F 
ATOM     44  C   UNL     1       8.755  -5.886   7.151  1.00  0.00     0.198 A 
ATOM     45  C   UNL     1       7.378  -5.965   9.115  1.00  0.00     0.198 A 
ATOM     46  F   UNL     1       6.390  -3.998   9.942  1.00  0.00    -0.203 F 
ATOM     47  F   UNL     1       9.499  -6.513   6.229  1.00  0.00    -0.200 F 
ATOM     48  C   UNL     1       8.168  -6.612   8.177  1.00  0.00     0.200 A 
ATOM     49  F   UNL     1       6.822  -6.663  10.116  1.00  0.00    -0.200 F 
ATOM     50  F   UNL     1       8.359  -7.936   8.258  1.00  0.00    -0.200 F 
ENDBRANCH  26  40
BRANCH  27  51
ATOM     51  C   UNL     1       6.133   6.015   7.544  1.00  0.00     0.064 A 
ATOM     52  C   UNL     1       7.165   6.926   7.286  1.00  0.00     0.173 A 
ATOM     53  C   UNL     1       4.840   6.527   7.729  1.00  0.00     0.173 A 
ATOM     54  F   UNL     1       8.421   6.485   7.119  1.00  0.00    -0.203 F 
ATOM     55  C   UNL     1       6.917   8.295   7.230  1.00  0.00     0.198 A 
ATOM     56  C   UNL     1       4.587   7.893   7.640  1.00  0.00     0.198 A 
ATOM     57  F   UNL     1       3.816   5.696   7.971  1.00  0.00    -0.203 F 
ATOM     58  F   UNL     1       7.929   9.149   7.022  1.00  0.00    -0.200 F 
ATOM     59  C   UNL     1       5.628   8.777   7.399  1.00  0.00     0.200 A 
ATOM     60  F   UNL     1       3.337   8.352   7.784  1.00  0.00    -0.200 F 
ATOM     61  F   UNL     1       5.388  10.094   7.333  1.00  0.00    -0.200 F 
ENDBRANCH  27  51
BRANCH  39  62
ATOM     62  C   UNL     1       9.653   1.908  11.933  1.00  0.00     0.064 A 
ATOM     63  C   UNL     1       9.036   2.300  13.130  1.00  0.00     0.173 A 
ATOM     64  C   UNL     1      11.050   1.772  11.926  1.00  0.00     0.173 A 
ATOM     65  F   UNL     1       7.706   2.462  13.183  1.00  0.00    -0.203 F 
ATOM     66  C   UNL     1       9.792   2.575  14.267  1.00  0.00     0.198 A 
ATOM     67  C   UNL     1      11.799   2.017  13.073  1.00  0.00     0.198 A 
ATOM     68  F   UNL     1      11.687   1.395  10.808  1.00  0.00    -0.203 F 
ATOM     69  F   UNL     1       9.186   3.001  15.384  1.00  0.00    -0.200 F 
ATOM     70  C   UNL     1      11.170   2.427  14.240  1.00  0.00     0.200 A 
ATOM     71  F   UNL     1      13.130   1.862  13.049  1.00  0.00    -0.200 F 
ATOM     72  F   UNL     1      11.895   2.689  15.336  1.00  0.00    -0.200 F 
ENDBRANCH  39  62
ENDBRANCH  13  14
ENDBRANCH   6   8
ENDBRANCH   3   4
ENDBRANCH   2   3
ENDBRANCH   1   2
BRANCH   1  73
ATOM     73  C   UNL     1       4.864  -1.001  -4.308  1.00  0.00     0.116 C 
BRANCH  73  74
ATOM     74  N   UNL     1       6.316  -0.939  -4.388  1.00  0.00    -0.352 N 
ATOM     75  C   UNL     1       7.115  -1.045  -5.498  1.00  0.00     0.252 C 
ATOM     76  H   UNL     1       6.787  -0.803  -3.533  1.00  0.00     0.163 HD
ATOM     77  O   UNL     1       8.334  -1.124  -5.401  1.00  0.00    -0.269 OA
BRANCH  75  78
ATOM     78  C   UNL     1       6.483  -1.074  -6.819  1.00  0.00     0.059 A 
ATOM     79  C   UNL     1       6.630  -2.181  -7.624  1.00  0.00     0.129 A 
ATOM     80  C   UNL     1       5.698  -0.017  -7.269  1.00  0.00     0.041 A 
ATOM     81  N   UNL     1       5.966  -2.325  -8.793  1.00  0.00    -0.220 NA
ATOM     82  C   UNL     1       5.014  -0.134  -8.483  1.00  0.00     0.104 A 
ATOM     83  C   UNL     1       5.137  -1.326  -9.207  1.00  0.00     0.232 A 
ATOM     84  Cl  UNL     1       4.094   1.251  -8.939  1.00  0.00    -0.078 Cl
BRANCH  83  85
ATOM     85  O   UNL     1       4.514  -1.696 -10.354  1.00  0.00    -0.476 OA
BRANCH  85  86
ATOM     86  C   UNL     1       3.264  -1.148 -10.758  1.00  0.00     0.235 C 
BRANCH  86  87
ATOM     87  C   UNL     1       2.146  -1.432  -9.791  1.00  0.00     0.027 C 
ATOM     88  C   UNL     1       0.782  -0.849 -10.074  1.00  0.00     0.007 C 
ATOM     89  C   UNL     1       0.994  -2.333 -10.168  1.00  0.00     0.007 C 
ENDBRANCH  86  87
ENDBRANCH  85  86
ENDBRANCH  83  85
ENDBRANCH  75  78
ENDBRANCH  73  74
ENDBRANCH   1  73
TORSDOF 14
