REMARK SMILES C[C@H]1[C@H](C(=O)NCCCCNC(=O)c2ccc(-c3c4nc(c(-c5c(F)c(F)c(F)c(F)c5F)c5ccc([nH]5)c(-c5c(F)c(F)c(F)c(F)c5F)c5nc(c(-c6c(F)c(F)c(F)c(F)c6F)c6ccc3[nH]6)C=C5)C=C4)cc2)CCN1C(=O)[C@H]1CC=CCC1
REMARK SMILES IDX 8 1 7 2 6 3 4 4 5 5 3 7 1 8 2 9 79 10 77 11 78 12 80 13
REMARK SMILES IDX 81 14 82 15 83 16 87 17 84 18 86 19 85 20 9 21 10 22 11 23
REMARK SMILES IDX 12 24 13 26 14 27 15 28 76 29 16 30 75 31 17 32 18 33 19 34
REMARK SMILES IDX 69 35 20 36 74 37 68 38 70 39 21 40 73 41 67 42 66 43 22 45
REMARK SMILES IDX 54 46 34 47 53 48 35 49 38 50 52 51 71 52 36 53 37 54 51 56
REMARK SMILES IDX 72 57 39 58 23 59 24 60 32 61 25 62 26 63 30 64 33 65 27 66
REMARK SMILES IDX 28 67 31 68 29 69 55 70 56 71 64 72 57 73 58 74 62 75 65 76
REMARK SMILES IDX 59 77 60 78 63 79 61 80 40 81 41 82 49 83 42 84 43 85 47 86
REMARK SMILES IDX 50 87 44 88 45 89 48 90 46 91
REMARK H PARENT 6 6 11 25 70 44 38 55
REMARK Flexibility Score: inf
ROOT
ATOM      1  C   UNL     1      -0.239   0.066   4.113  1.00  0.00     0.023 C 
ENDROOT
BRANCH   1   2
ATOM      2  C   UNL     1      -0.999   0.539   2.879  1.00  0.00     0.116 C 
BRANCH   2   3
ATOM      3  N   UNL     1      -0.481   1.790   2.361  1.00  0.00    -0.356 N 
ATOM      4  C   UNL     1      -0.197   2.188   1.095  1.00  0.00     0.225 C 
ATOM      5  O   UNL     1       0.207   3.347   0.958  1.00  0.00    -0.275 OA
ATOM      6  H   UNL     1      -0.305   2.471   3.049  1.00  0.00     0.163 HD
BRANCH   4   7
ATOM      7  C   UNL     1      -0.318   1.286  -0.125  1.00  0.00     0.102 C 
ATOM      8  C   UNL     1       1.491   0.266  -1.517  1.00  0.00     0.032 C 
ATOM      9  C   UNL     1       0.759   0.185  -0.174  1.00  0.00     0.094 C 
ATOM     10  N   UNL     1       0.022  -1.068  -0.034  1.00  0.00    -0.339 N 
ATOM     11  C   UNL     1      -1.666   0.592  -0.311  1.00  0.00     0.037 C 
ATOM     12  C   UNL     1      -1.345  -0.883  -0.503  1.00  0.00     0.120 C 
BRANCH  10  13
ATOM     13  C   UNL     1       0.404  -2.304   0.437  1.00  0.00     0.226 C 
ATOM     14  O   UNL     1      -0.433  -3.220   0.450  1.00  0.00    -0.275 OA
BRANCH  13  15
ATOM     15  C   UNL     1       1.798  -2.635   1.009  1.00  0.00     0.083 C 
ATOM     16  C   UNL     1       2.988  -2.529   0.057  1.00  0.00     0.040 C 
ATOM     17  C   UNL     1       2.076  -2.129   2.426  1.00  0.00     0.018 C 
ATOM     18  C   UNL     1       3.949  -1.413   0.343  1.00  0.00    -0.030 C 
ATOM     19  C   UNL     1       2.901  -0.847   2.532  1.00  0.00     0.028 C 
ATOM     20  C   UNL     1       3.913  -0.665   1.451  1.00  0.00    -0.031 C 
ENDBRANCH  13  15
ENDBRANCH  10  13
ENDBRANCH   4   7
ENDBRANCH   2   3
ENDBRANCH   1   2
BRANCH   1  21
ATOM     21  C   UNL     1      -0.412   0.911   5.362  1.00  0.00     0.023 C 
BRANCH  21  22
ATOM     22  C   UNL     1      -1.838   0.963   5.873  1.00  0.00     0.116 C 
BRANCH  22  23
ATOM     23  N   UNL     1      -2.359  -0.355   6.215  1.00  0.00    -0.352 N 
ATOM     24  C   UNL     1      -2.745  -0.860   7.433  1.00  0.00     0.251 C 
ATOM     25  H   UNL     1      -2.449  -0.978   5.458  1.00  0.00     0.163 HD
ATOM     26  O   UNL     1      -2.987  -2.055   7.562  1.00  0.00    -0.269 OA
BRANCH  24  27
ATOM     27  C   UNL     1      -2.837   0.044   8.597  1.00  0.00     0.039 A 
ATOM     28  C   UNL     1      -2.331  -0.372   9.830  1.00  0.00     0.014 A 
ATOM     29  C   UNL     1      -3.387   1.318   8.454  1.00  0.00     0.014 A 
ATOM     30  C   UNL     1      -2.301   0.527  10.897  1.00  0.00     0.010 A 
ATOM     31  C   UNL     1      -3.240   2.246   9.473  1.00  0.00     0.010 A 
ATOM     32  C   UNL     1      -2.710   1.858  10.712  1.00  0.00    -0.014 A 
BRANCH  32  33
ATOM     33  C   UNL     1      -2.626   2.862  11.800  1.00  0.00     0.031 A 
ATOM     34  C   UNL     1      -3.877   3.550  12.274  1.00  0.00     0.074 A 
ATOM     35  C   UNL     1      -1.425   3.216  12.296  1.00  0.00     0.049 A 
ATOM     36  N   UNL     1      -4.012   4.532  13.129  1.00  0.00    -0.248 NA
ATOM     37  C   UNL     1      -5.145   3.107  11.670  1.00  0.00     0.031 C 
ATOM     38  C   UNL     1      -0.135   2.668  11.871  1.00  0.00     0.029 A 
ATOM     39  N   UNL     1      -1.092   4.132  13.262  1.00  0.00    -0.354 N 
ATOM     40  C   UNL     1      -5.366   4.836  13.141  1.00  0.00     0.074 A 
ATOM     41  C   UNL     1      -6.003   3.988  12.160  1.00  0.00     0.031 C 
ATOM     42  C   UNL     1       0.844   3.235  12.594  1.00  0.00     0.029 A 
ATOM     43  C   UNL     1       0.258   4.213  13.504  1.00  0.00     0.049 A 
ATOM     44  H   UNL     1      -1.758   4.680  13.737  1.00  0.00     0.167 HD
ATOM     45  C   UNL     1      -6.027   5.720  13.925  1.00  0.00     0.037 A 
ATOM     46  C   UNL     1       0.942   4.994  14.361  1.00  0.00     0.037 A 
ATOM     47  C   UNL     1      -5.393   6.526  14.934  1.00  0.00     0.049 A 
ATOM     48  C   UNL     1       0.183   5.951  15.239  1.00  0.00     0.074 A 
ATOM     49  C   UNL     1      -5.978   7.397  15.835  1.00  0.00     0.029 A 
ATOM     50  N   UNL     1      -4.028   6.551  15.177  1.00  0.00    -0.354 N 
ATOM     51  N   UNL     1      -1.107   6.178  15.295  1.00  0.00    -0.248 NA
ATOM     52  C   UNL     1       0.974   6.757  16.179  1.00  0.00     0.031 C 
ATOM     53  C   UNL     1      -4.960   7.982  16.596  1.00  0.00     0.029 A 
ATOM     54  C   UNL     1      -3.748   7.438  16.203  1.00  0.00     0.049 A 
ATOM     55  H   UNL     1      -3.357   6.018  14.691  1.00  0.00     0.167 HD
ATOM     56  C   UNL     1      -1.286   7.128  16.291  1.00  0.00     0.074 A 
ATOM     57  C   UNL     1       0.028   7.423  16.825  1.00  0.00     0.031 C 
ATOM     58  C   UNL     1      -2.432   7.707  16.724  1.00  0.00     0.037 A 
BRANCH  45  59
ATOM     59  C   UNL     1      -7.510   5.848  13.730  1.00  0.00     0.064 A 
ATOM     60  C   UNL     1      -8.391   4.811  14.076  1.00  0.00     0.173 A 
ATOM     61  C   UNL     1      -8.061   7.029  13.210  1.00  0.00     0.173 A 
ATOM     62  F   UNL     1      -7.914   3.655  14.562  1.00  0.00    -0.203 F 
ATOM     63  C   UNL     1      -9.763   4.939  13.877  1.00  0.00     0.198 A 
ATOM     64  C   UNL     1      -9.437   7.166  13.045  1.00  0.00     0.198 A 
ATOM     65  F   UNL     1      -7.266   8.053  12.866  1.00  0.00    -0.203 F 
ATOM     66  F   UNL     1     -10.577   3.912  14.160  1.00  0.00    -0.200 F 
ATOM     67  C   UNL     1     -10.285   6.118  13.369  1.00  0.00     0.200 A 
ATOM     68  F   UNL     1      -9.942   8.311  12.565  1.00  0.00    -0.200 F 
ATOM     69  F   UNL     1     -11.607   6.241  13.184  1.00  0.00    -0.200 F 
ENDBRANCH  45  59
BRANCH  46  70
ATOM     70  C   UNL     1       2.421   4.876  14.458  1.00  0.00     0.064 A 
ATOM     71  C   UNL     1       3.024   4.330  15.599  1.00  0.00     0.173 A 
ATOM     72  C   UNL     1       3.260   5.307  13.420  1.00  0.00     0.173 A 
ATOM     73  F   UNL     1       2.264   3.921  16.626  1.00  0.00    -0.203 F 
ATOM     74  C   UNL     1       4.410   4.239  15.709  1.00  0.00     0.198 A 
ATOM     75  C   UNL     1       4.645   5.190  13.519  1.00  0.00     0.198 A 
ATOM     76  F   UNL     1       2.733   5.830  12.303  1.00  0.00    -0.203 F 
ATOM     77  F   UNL     1       4.961   3.756  16.831  1.00  0.00    -0.200 F 
ATOM     78  C   UNL     1       5.219   4.664  14.667  1.00  0.00     0.200 A 
ATOM     79  F   UNL     1       5.423   5.588  12.504  1.00  0.00    -0.200 F 
ATOM     80  F   UNL     1       6.552   4.574  14.771  1.00  0.00    -0.200 F 
ENDBRANCH  46  70
BRANCH  58  81
ATOM     81  C   UNL     1      -2.322   8.689  17.853  1.00  0.00     0.064 A 
ATOM     82  C   UNL     1      -1.766   9.963  17.667  1.00  0.00     0.173 A 
ATOM     83  C   UNL     1      -2.820   8.366  19.124  1.00  0.00     0.173 A 
ATOM     84  F   UNL     1      -1.263  10.313  16.474  1.00  0.00    -0.203 F 
ATOM     85  C   UNL     1      -1.690  10.870  18.721  1.00  0.00     0.198 A 
ATOM     86  C   UNL     1      -2.772   9.286  20.167  1.00  0.00     0.198 A 
ATOM     87  F   UNL     1      -3.369   7.163  19.350  1.00  0.00    -0.203 F 
ATOM     88  F   UNL     1      -1.113  12.064  18.534  1.00  0.00    -0.200 F 
ATOM     89  C   UNL     1      -2.200  10.534  19.967  1.00  0.00     0.200 A 
ATOM     90  F   UNL     1      -3.278   8.966  21.366  1.00  0.00    -0.200 F 
ATOM     91  F   UNL     1      -2.135  11.411  20.977  1.00  0.00    -0.200 F 
ENDBRANCH  58  81
ENDBRANCH  32  33
ENDBRANCH  24  27
ENDBRANCH  22  23
ENDBRANCH  21  22
ENDBRANCH   1  21
TORSDOF 13
