REMARK SMILES O=C(NCCCCNC(=O)c1cn(C2C[NH+](CC(F)(F)F)C2)nn1)c1ccc(-c2c3nc(c(-c4c(F)c(F)c(F)c(F)c4F)c4ccc([nH]4)c(-c4c(F)c(F)c(F)c(F)c4F)c4nc(c(-c5c(F)c(F)c(F)c(F)c5F)c5ccc2[nH]5)C=C4)C=C3)cc1
REMARK SMILES IDX 6 1 5 2 4 3 3 4 1 5 2 6 25 8 26 9 87 10 27 11 86 12 28 13
REMARK SMILES IDX 29 14 30 15 80 16 31 17 85 18 79 19 81 20 32 21 84 22 78 23
REMARK SMILES IDX 77 24 33 26 65 27 45 28 64 29 46 30 49 31 63 32 82 33 47 34
REMARK SMILES IDX 48 35 62 37 83 38 50 39 34 40 35 41 43 42 36 43 37 44 41 45
REMARK SMILES IDX 44 46 38 47 39 48 42 49 40 50 66 51 67 52 75 53 68 54 69 55
REMARK SMILES IDX 73 56 76 57 70 58 71 59 74 60 72 61 51 62 52 63 60 64 53 65
REMARK SMILES IDX 54 66 58 67 61 68 55 69 56 70 59 71 57 72 7 73 8 74 9 75
REMARK SMILES IDX 10 77 11 78 12 79 24 80 13 81 23 82 14 83 15 84 22 85 16 86
REMARK SMILES IDX 17 88 18 89 19 90 20 91 21 92
REMARK H PARENT 3 7 81 25 49 36 8 76 16 87
REMARK Flexibility Score: inf
ROOT
ATOM      1  C   UNL     1       4.404  -1.402   3.224  1.00  0.00     0.023 C 
ENDROOT
BRANCH   1   2
ATOM      2  C   UNL     1       4.898  -0.374   2.202  1.00  0.00     0.023 C 
BRANCH   2   3
ATOM      3  C   UNL     1       4.655  -0.746   0.741  1.00  0.00     0.116 C 
BRANCH   3   4
ATOM      4  N   UNL     1       3.268  -0.982   0.398  1.00  0.00    -0.352 N 
ATOM      5  O   UNL     1       1.188  -0.741  -0.310  1.00  0.00    -0.269 OA
ATOM      6  C   UNL     1       2.208  -0.175   0.091  1.00  0.00     0.251 C 
ATOM      7  H   UNL     1       3.037  -1.938   0.382  1.00  0.00     0.163 HD
BRANCH   6   8
ATOM      8  C   UNL     1       2.178   1.299   0.281  1.00  0.00     0.039 A 
ATOM      9  C   UNL     1       3.291   2.127   0.432  1.00  0.00     0.014 A 
ATOM     10  C   UNL     1       0.895   1.878   0.325  1.00  0.00     0.014 A 
ATOM     11  C   UNL     1       3.128   3.480   0.720  1.00  0.00     0.010 A 
ATOM     12  C   UNL     1       0.726   3.229   0.592  1.00  0.00     0.010 A 
ATOM     13  C   UNL     1       1.845   4.022   0.826  1.00  0.00    -0.014 A 
BRANCH  13  14
ATOM     14  C   UNL     1       1.712   5.462   1.025  1.00  0.00     0.031 A 
ATOM     15  C   UNL     1       2.165   6.296  -0.129  1.00  0.00     0.074 A 
ATOM     16  C   UNL     1       1.077   6.002   2.084  1.00  0.00     0.049 A 
ATOM     17  N   UNL     1       3.058   7.233  -0.143  1.00  0.00    -0.248 NA
ATOM     18  C   UNL     1       1.611   5.983  -1.457  1.00  0.00     0.031 C 
ATOM     19  C   UNL     1       0.323   5.306   3.130  1.00  0.00     0.029 A 
ATOM     20  N   UNL     1       0.878   7.316   2.390  1.00  0.00    -0.354 N 
ATOM     21  C   UNL     1       3.072   7.736  -1.445  1.00  0.00     0.074 A 
ATOM     22  C   UNL     1       2.257   6.852  -2.235  1.00  0.00     0.031 C 
ATOM     23  C   UNL     1      -0.429   6.202   3.809  1.00  0.00     0.029 A 
ATOM     24  C   UNL     1      -0.117   7.539   3.333  1.00  0.00     0.049 A 
ATOM     25  H   UNL     1       1.396   8.045   1.977  1.00  0.00     0.167 HD
ATOM     26  C   UNL     1       3.594   8.960  -1.735  1.00  0.00     0.037 A 
ATOM     27  C   UNL     1      -0.690   8.730   3.643  1.00  0.00     0.037 A 
ATOM     28  C   UNL     1       4.465   9.423  -0.690  1.00  0.00     0.049 A 
ATOM     29  C   UNL     1       0.211   9.805   3.159  1.00  0.00     0.074 A 
ATOM     30  C   UNL     1       5.654   8.983  -0.145  1.00  0.00     0.029 A 
ATOM     31  N   UNL     1       3.974  10.349   0.194  1.00  0.00    -0.354 N 
ATOM     32  N   UNL     1       1.379  10.066   3.675  1.00  0.00    -0.248 NA
ATOM     33  C   UNL     1      -0.008  10.312   1.813  1.00  0.00     0.031 C 
ATOM     34  C   UNL     1       5.560   9.291   1.243  1.00  0.00     0.029 A 
ATOM     35  C   UNL     1       4.345   9.945   1.448  1.00  0.00     0.049 A 
ATOM     36  H   UNL     1       3.453  11.154  -0.031  1.00  0.00     0.167 HD
ATOM     37  C   UNL     1       2.179  10.370   2.585  1.00  0.00     0.074 A 
ATOM     38  C   UNL     1       1.253  10.598   1.480  1.00  0.00     0.031 C 
ATOM     39  C   UNL     1       3.522  10.130   2.617  1.00  0.00     0.037 A 
BRANCH  26  40
ATOM     40  C   UNL     1       3.047   9.900  -2.783  1.00  0.00     0.064 A 
ATOM     41  C   UNL     1       3.753  11.085  -3.081  1.00  0.00     0.173 A 
ATOM     42  C   UNL     1       1.719   9.848  -3.257  1.00  0.00     0.173 A 
ATOM     43  F   UNL     1       5.019  11.249  -2.668  1.00  0.00    -0.203 F 
ATOM     44  C   UNL     1       3.142  12.168  -3.719  1.00  0.00     0.198 A 
ATOM     45  C   UNL     1       1.130  10.911  -3.941  1.00  0.00     0.198 A 
ATOM     46  F   UNL     1       0.904   8.824  -2.979  1.00  0.00    -0.203 F 
ATOM     47  F   UNL     1       3.810  13.322  -3.857  1.00  0.00    -0.200 F 
ATOM     48  C   UNL     1       1.828  12.083  -4.140  1.00  0.00     0.200 A 
ATOM     49  F   UNL     1      -0.151  10.817  -4.325  1.00  0.00    -0.200 F 
ATOM     50  F   UNL     1       1.219  13.142  -4.688  1.00  0.00    -0.200 F 
ENDBRANCH  26  40
BRANCH  27  51
ATOM     51  C   UNL     1      -2.093   9.007   4.037  1.00  0.00     0.064 A 
ATOM     52  C   UNL     1      -2.457  10.231   4.625  1.00  0.00     0.173 A 
ATOM     53  C   UNL     1      -3.150   8.194   3.583  1.00  0.00     0.173 A 
ATOM     54  F   UNL     1      -1.513  11.088   5.039  1.00  0.00    -0.203 F 
ATOM     55  C   UNL     1      -3.796  10.626   4.730  1.00  0.00     0.198 A 
ATOM     56  C   UNL     1      -4.485   8.586   3.696  1.00  0.00     0.198 A 
ATOM     57  F   UNL     1      -2.905   7.049   2.932  1.00  0.00    -0.203 F 
ATOM     58  F   UNL     1      -4.101  11.829   5.237  1.00  0.00    -0.200 F 
ATOM     59  C   UNL     1      -4.808   9.808   4.256  1.00  0.00     0.200 A 
ATOM     60  F   UNL     1      -5.451   7.801   3.197  1.00  0.00    -0.200 F 
ATOM     61  F   UNL     1      -6.085  10.212   4.298  1.00  0.00    -0.200 F 
ENDBRANCH  27  51
BRANCH  39  62
ATOM     62  C   UNL     1       4.143   9.794   3.942  1.00  0.00     0.064 A 
ATOM     63  C   UNL     1       3.822   8.650   4.693  1.00  0.00     0.173 A 
ATOM     64  C   UNL     1       5.205  10.587   4.394  1.00  0.00     0.173 A 
ATOM     65  F   UNL     1       2.890   7.785   4.273  1.00  0.00    -0.203 F 
ATOM     66  C   UNL     1       4.505   8.345   5.869  1.00  0.00     0.198 A 
ATOM     67  C   UNL     1       5.911  10.259   5.547  1.00  0.00     0.198 A 
ATOM     68  F   UNL     1       5.592  11.660   3.685  1.00  0.00    -0.203 F 
ATOM     69  F   UNL     1       4.173   7.254   6.576  1.00  0.00    -0.200 F 
ATOM     70  C   UNL     1       5.554   9.145   6.290  1.00  0.00     0.200 A 
ATOM     71  F   UNL     1       6.958  11.007   5.921  1.00  0.00    -0.200 F 
ATOM     72  F   UNL     1       6.241   8.827   7.396  1.00  0.00    -0.200 F 
ENDBRANCH  39  62
ENDBRANCH  13  14
ENDBRANCH   6   8
ENDBRANCH   3   4
ENDBRANCH   2   3
ENDBRANCH   1   2
BRANCH   1  73
ATOM     73  C   UNL     1       4.837  -2.843   2.970  1.00  0.00     0.116 C 
BRANCH  73  74
ATOM     74  N   UNL     1       6.280  -2.996   2.973  1.00  0.00    -0.351 N 
ATOM     75  C   UNL     1       7.061  -3.853   3.719  1.00  0.00     0.273 C 
ATOM     76  H   UNL     1       6.770  -2.405   2.356  1.00  0.00     0.163 HD
ATOM     77  O   UNL     1       8.276  -3.708   3.695  1.00  0.00    -0.267 OA
BRANCH  75  78
ATOM     78  C   UNL     1       6.404  -4.892   4.493  1.00  0.00     0.170 A 
ATOM     79  C   UNL     1       5.412  -5.768   4.096  1.00  0.00     0.145 A 
ATOM     80  N   UNL     1       6.737  -5.161   5.796  1.00  0.00    -0.125 NA
ATOM     81  N   UNL     1       5.152  -6.503   5.215  1.00  0.00    -0.237 N 
ATOM     82  N   UNL     1       5.946  -6.130   6.233  1.00  0.00    -0.066 NA
BRANCH  81  83
ATOM     83  C   UNL     1       4.192  -7.549   5.387  1.00  0.00     0.218 C 
ATOM     84  C   UNL     1       2.764  -7.207   4.896  1.00  0.00     0.296 C 
ATOM     85  C   UNL     1       4.176  -8.592   4.242  1.00  0.00     0.296 C 
ATOM     86  N   UNL     1       2.703  -8.505   4.194  1.00  0.00    -0.323 N 
ATOM     87  H   UNL     1       2.201  -8.592   3.310  1.00  0.00     0.348 HD
BRANCH  86  88
ATOM     88  C   UNL     1       2.037  -9.574   4.994  1.00  0.00     0.379 C 
BRANCH  88  89
ATOM     89  C   UNL     1       2.413  -9.932   6.448  1.00  0.00     0.438 C 
ATOM     90  F   UNL     1       2.200  -8.895   7.288  1.00  0.00    -0.165 F 
ATOM     91  F   UNL     1       1.664 -10.969   6.889  1.00  0.00    -0.165 F 
ATOM     92  F   UNL     1       3.708 -10.299   6.559  1.00  0.00    -0.165 F 
ENDBRANCH  88  89
ENDBRANCH  86  88
ENDBRANCH  81  83
ENDBRANCH  75  78
ENDBRANCH  73  74
ENDBRANCH   1  73
TORSDOF 14
