REMARK SMILES CC[C@H](C)[NH+]1CCN(C(=O)CC(=O)NCCCCNC(=O)c2ccc(-c3c4nc(c(-c5c(F)c(F)c(F)c(F)c5F)c5ccc([nH]5)c(-c5c(F)c(F)c(F)c(F)c5F)c5nc(c(-c6c(F)c(F)c(F)c(F)c6F)c6ccc3[nH]6)C=C5)C=C4)cc2)CC1
REMARK SMILES IDX 16 1 15 2 14 3 12 4 13 5 11 7 9 8 5 9 6 10 86 11 7 13 85 14
REMARK SMILES IDX 8 15 10 16 3 17 4 18 2 19 1 20 17 21 18 22 19 23 20 24 21 26
REMARK SMILES IDX 22 27 23 28 84 29 24 30 83 31 25 32 26 33 27 34 77 35 28 36
REMARK SMILES IDX 82 37 76 38 78 39 29 40 81 41 75 42 74 43 30 45 62 46 42 47
REMARK SMILES IDX 61 48 43 49 46 50 60 51 79 52 44 53 45 54 59 56 80 57 47 58
REMARK SMILES IDX 31 59 32 60 40 61 33 62 34 63 38 64 41 65 35 66 36 67 39 68
REMARK SMILES IDX 37 69 63 70 64 71 72 72 65 73 66 74 70 75 73 76 67 77 68 78
REMARK SMILES IDX 71 79 69 80 48 81 49 82 57 83 50 84 51 85 55 86 58 87 52 88
REMARK SMILES IDX 53 89 56 90 54 91
REMARK H PARENT 14 6 5 12 19 25 78 44 46 55
REMARK Flexibility Score: inf
ROOT
ATOM      1  C   UNL     1      -1.947  -6.649   1.830  1.00  0.00     0.023 C 
ENDROOT
BRANCH   1   2
ATOM      2  C   UNL     1      -3.344  -6.825   1.234  1.00  0.00     0.116 C 
BRANCH   2   3
ATOM      3  N   UNL     1      -3.960  -5.545   0.937  1.00  0.00    -0.356 N 
ATOM      4  C   UNL     1      -4.114  -4.931  -0.269  1.00  0.00     0.229 C 
ATOM      5  O   UNL     1      -4.610  -3.803  -0.288  1.00  0.00    -0.275 OA
ATOM      6  H   UNL     1      -4.315  -5.054   1.713  1.00  0.00     0.163 HD
BRANCH   4   7
ATOM      7  C   UNL     1      -3.726  -5.635  -1.544  1.00  0.00     0.200 C 
BRANCH   7   8
ATOM      8  C   UNL     1      -2.248  -5.895  -1.697  1.00  0.00     0.232 C 
ATOM      9  N   UNL     1       0.560  -2.648  -2.346  1.00  0.00    -0.330 N 
ATOM     10  C   UNL     1       0.948  -4.059  -2.497  1.00  0.00     0.284 C 
ATOM     11  C   UNL     1      -0.874  -2.493  -2.617  1.00  0.00     0.284 C 
ATOM     12  H   UNL     1       1.027  -2.104  -3.072  1.00  0.00     0.348 HD
ATOM     13  C   UNL     1       0.053  -5.089  -1.779  1.00  0.00     0.181 C 
ATOM     14  C   UNL     1      -1.795  -3.416  -1.812  1.00  0.00     0.181 C 
ATOM     15  N   UNL     1      -1.386  -4.824  -1.868  1.00  0.00    -0.331 N 
ATOM     16  O   UNL     1      -1.835  -7.059  -1.666  1.00  0.00    -0.274 OA
BRANCH   9  17
ATOM     17  C   UNL     1       1.144  -1.933  -1.194  1.00  0.00     0.180 C 
ATOM     18  C   UNL     1       0.671  -0.471  -1.136  1.00  0.00     0.075 C 
BRANCH  17  19
ATOM     19  C   UNL     1       1.023  -2.629   0.181  1.00  0.00     0.061 C 
ATOM     20  C   UNL     1       1.657  -1.857   1.334  1.00  0.00     0.010 C 
ENDBRANCH  17  19
ENDBRANCH   9  17
ENDBRANCH   7   8
ENDBRANCH   4   7
ENDBRANCH   2   3
ENDBRANCH   1   2
BRANCH   1  21
ATOM     21  C   UNL     1      -1.919  -6.009   3.223  1.00  0.00     0.023 C 
BRANCH  21  22
ATOM     22  C   UNL     1      -2.774  -6.698   4.284  1.00  0.00     0.116 C 
BRANCH  22  23
ATOM     23  N   UNL     1      -2.441  -8.100   4.467  1.00  0.00    -0.352 N 
ATOM     24  C   UNL     1      -2.428  -8.852   5.613  1.00  0.00     0.251 C 
ATOM     25  H   UNL     1      -2.187  -8.581   3.647  1.00  0.00     0.163 HD
ATOM     26  O   UNL     1      -2.008 -10.010   5.575  1.00  0.00    -0.269 OA
BRANCH  24  27
ATOM     27  C   UNL     1      -2.875  -8.283   6.904  1.00  0.00     0.039 A 
ATOM     28  C   UNL     1      -2.136  -8.584   8.052  1.00  0.00     0.014 A 
ATOM     29  C   UNL     1      -4.019  -7.486   7.003  1.00  0.00     0.014 A 
ATOM     30  C   UNL     1      -2.513  -8.048   9.285  1.00  0.00     0.010 A 
ATOM     31  C   UNL     1      -4.355  -6.895   8.222  1.00  0.00     0.010 A 
ATOM     32  C   UNL     1      -3.609  -7.175   9.376  1.00  0.00    -0.014 A 
BRANCH  32  33
ATOM     33  C   UNL     1      -3.969  -6.551  10.676  1.00  0.00     0.031 A 
ATOM     34  C   UNL     1      -5.270  -6.881  11.353  1.00  0.00     0.074 A 
ATOM     35  C   UNL     1      -3.128  -5.659  11.235  1.00  0.00     0.049 A 
ATOM     36  N   UNL     1      -5.740  -6.451  12.498  1.00  0.00    -0.248 NA
ATOM     37  C   UNL     1      -6.175  -7.796  10.641  1.00  0.00     0.031 C 
ATOM     38  C   UNL     1      -1.865  -5.207  10.649  1.00  0.00     0.029 A 
ATOM     39  N   UNL     1      -3.208  -4.974  12.422  1.00  0.00    -0.354 N 
ATOM     40  C   UNL     1      -6.992  -7.036  12.639  1.00  0.00     0.074 A 
ATOM     41  C   UNL     1      -7.234  -7.805  11.437  1.00  0.00     0.031 C 
ATOM     42  C   UNL     1      -1.272  -4.348  11.493  1.00  0.00     0.029 A 
ATOM     43  C   UNL     1      -2.123  -4.168  12.665  1.00  0.00     0.049 A 
ATOM     44  H   UNL     1      -3.970  -5.053  13.040  1.00  0.00     0.167 HD
ATOM     45  C   UNL     1      -7.849  -6.960  13.685  1.00  0.00     0.037 A 
ATOM     46  C   UNL     1      -1.841  -3.380  13.720  1.00  0.00     0.037 A 
ATOM     47  C   UNL     1      -7.598  -6.210  14.889  1.00  0.00     0.049 A 
ATOM     48  C   UNL     1      -2.800  -3.329  14.877  1.00  0.00     0.074 A 
ATOM     49  C   UNL     1      -8.379  -6.114  16.027  1.00  0.00     0.029 A 
ATOM     50  N   UNL     1      -6.477  -5.422  15.108  1.00  0.00    -0.354 N 
ATOM     51  N   UNL     1      -3.944  -3.951  15.033  1.00  0.00    -0.248 NA
ATOM     52  C   UNL     1      -2.420  -2.479  16.013  1.00  0.00     0.031 C 
ATOM     53  C   UNL     1      -7.752  -5.236  16.918  1.00  0.00     0.029 A 
ATOM     54  C   UNL     1      -6.555  -4.824  16.356  1.00  0.00     0.049 A 
ATOM     55  H   UNL     1      -5.736  -5.305  14.471  1.00  0.00     0.167 HD
ATOM     56  C   UNL     1      -4.405  -3.591  16.292  1.00  0.00     0.074 A 
ATOM     57  C   UNL     1      -3.407  -2.712  16.866  1.00  0.00     0.031 C 
ATOM     58  C   UNL     1      -5.553  -3.954  16.916  1.00  0.00     0.037 A 
BRANCH  45  59
ATOM     59  C   UNL     1      -9.142  -7.718  13.578  1.00  0.00     0.064 A 
ATOM     60  C   UNL     1      -9.176  -9.121  13.616  1.00  0.00     0.173 A 
ATOM     61  C   UNL     1     -10.363  -7.036  13.474  1.00  0.00     0.173 A 
ATOM     62  F   UNL     1      -8.035  -9.822  13.703  1.00  0.00    -0.203 F 
ATOM     63  C   UNL     1     -10.381  -9.812  13.523  1.00  0.00     0.198 A 
ATOM     64  C   UNL     1     -11.569  -7.730  13.413  1.00  0.00     0.198 A 
ATOM     65  F   UNL     1     -10.389  -5.695  13.441  1.00  0.00    -0.203 F 
ATOM     66  F   UNL     1     -10.384 -11.152  13.511  1.00  0.00    -0.200 F 
ATOM     67  C   UNL     1     -11.577  -9.117  13.429  1.00  0.00     0.200 A 
ATOM     68  F   UNL     1     -12.726  -7.056  13.335  1.00  0.00    -0.200 F 
ATOM     69  F   UNL     1     -12.737  -9.783  13.347  1.00  0.00    -0.200 F 
ENDBRANCH  45  59
BRANCH  46  70
ATOM     70  C   UNL     1      -0.571  -2.609  13.751  1.00  0.00     0.064 A 
ATOM     71  C   UNL     1       0.457  -2.951  14.641  1.00  0.00     0.173 A 
ATOM     72  C   UNL     1      -0.359  -1.516  12.899  1.00  0.00     0.173 A 
ATOM     73  F   UNL     1       0.293  -3.977  15.489  1.00  0.00    -0.203 F 
ATOM     74  C   UNL     1       1.639  -2.215  14.694  1.00  0.00     0.198 A 
ATOM     75  C   UNL     1       0.834  -0.798  12.932  1.00  0.00     0.198 A 
ATOM     76  F   UNL     1      -1.309  -1.152  12.024  1.00  0.00    -0.203 F 
ATOM     77  F   UNL     1       2.585  -2.535  15.587  1.00  0.00    -0.200 F 
ATOM     78  C   UNL     1       1.829  -1.142  13.836  1.00  0.00     0.200 A 
ATOM     79  F   UNL     1       1.020   0.229  12.092  1.00  0.00    -0.200 F 
ATOM     80  F   UNL     1       2.966  -0.436  13.885  1.00  0.00    -0.200 F 
ENDBRANCH  46  70
BRANCH  58  81
ATOM     81  C   UNL     1      -5.771  -3.427  18.306  1.00  0.00     0.064 A 
ATOM     82  C   UNL     1      -6.052  -2.074  18.546  1.00  0.00     0.173 A 
ATOM     83  C   UNL     1      -5.711  -4.291  19.410  1.00  0.00     0.173 A 
ATOM     84  F   UNL     1      -6.106  -1.204  17.526  1.00  0.00    -0.203 F 
ATOM     85  C   UNL     1      -6.227  -1.599  19.843  1.00  0.00     0.198 A 
ATOM     86  C   UNL     1      -5.919  -3.818  20.702  1.00  0.00     0.198 A 
ATOM     87  F   UNL     1      -5.453  -5.596  19.235  1.00  0.00    -0.203 F 
ATOM     88  F   UNL     1      -6.435  -0.291  20.053  1.00  0.00    -0.200 F 
ATOM     89  C   UNL     1      -6.166  -2.471  20.919  1.00  0.00     0.200 A 
ATOM     90  F   UNL     1      -5.872  -4.665  21.740  1.00  0.00    -0.200 F 
ATOM     91  F   UNL     1      -6.334  -2.012  22.166  1.00  0.00    -0.200 F 
ENDBRANCH  58  81
ENDBRANCH  32  33
ENDBRANCH  24  27
ENDBRANCH  22  23
ENDBRANCH  21  22
ENDBRANCH   1  21
TORSDOF 14
