REMARK SMILES COc1c(C)cccc1C(=O)NC(=S)Nc1ccc(C(=O)NCCCCNC(=O)c2ccc(-c3c4nc(c(-c5c(F)c(F)c(F)c(F)c5F)c5ccc([nH]5)c(-c5c(F)c(F)c(F)c(F)c5F)c5nc(c(-c6c(F)c(F)c(F)c(F)c6F)c6ccc3[nH]6)C=C5)C=C4)cc2)cc1C
REMARK SMILES IDX 23 1 22 2 20 3 21 4 19 6 16 7 17 8 94 9 18 10 93 11 95 12
REMARK SMILES IDX 15 13 13 15 14 16 12 17 10 18 11 19 9 21 3 22 4 23 5 24 6 25
REMARK SMILES IDX 8 26 7 27 2 28 1 29 24 30 25 31 26 32 27 33 28 34 29 36
REMARK SMILES IDX 30 37 31 38 92 39 32 40 91 41 33 42 34 43 35 44 85 45 36 46
REMARK SMILES IDX 90 47 84 48 86 49 37 50 89 51 83 52 82 53 38 55 70 56 50 57
REMARK SMILES IDX 69 58 51 59 54 60 68 61 87 62 52 63 53 64 67 66 88 67 55 68
REMARK SMILES IDX 39 69 40 70 48 71 41 72 42 73 46 74 49 75 43 76 44 77 47 78
REMARK SMILES IDX 45 79 71 80 72 81 80 82 73 83 74 84 78 85 81 86 75 87 76 88
REMARK SMILES IDX 79 89 77 90 56 91 57 92 65 93 58 94 59 95 63 96 66 97 60 98
REMARK SMILES IDX 61 99 64 100 62 101
REMARK H PARENT 22 5 15 14 12 20 27 35 86 54 54 65
REMARK Flexibility Score: inf
ROOT
ATOM      1  C   UNL     1      -0.720   1.321   6.616  1.00  0.00     0.116 C 
ENDROOT
BRANCH   1   2
ATOM      2  N   UNL     1       0.401   2.218   6.451  1.00  0.00    -0.352 N 
ATOM      3  C   UNL     1       1.489   1.942   5.652  1.00  0.00     0.251 C 
ATOM      4  O   UNL     1       2.528   1.704   6.273  1.00  0.00    -0.269 OA
ATOM      5  H   UNL     1       0.387   3.075   6.936  1.00  0.00     0.163 HD
BRANCH   3   6
ATOM      6  C   UNL     1       1.364   1.826   4.016  1.00  0.00     0.040 A 
ATOM      7  C   UNL     1       1.567   0.002   0.979  1.00  0.00     0.043 A 
ATOM      8  C   UNL     1       0.994  -0.695   2.479  1.00  0.00     0.027 A 
ATOM      9  C   UNL     1       2.426   1.636   0.940  1.00  0.00    -0.027 A 
ATOM     10  C   UNL     1       0.831   0.157   3.896  1.00  0.00     0.016 A 
ATOM     11  C   UNL     1       2.178   2.728   2.411  1.00  0.00     0.019 A 
ATOM     12  C   UNL     1       3.602   2.073   0.099  1.00  0.00     0.046 C 
BRANCH   7  13
ATOM     13  N   UNL     1       0.071  -0.142   0.421  1.00  0.00    -0.332 N 
ATOM     14  H   UNL     1       0.041  -0.783  -0.325  1.00  0.00     0.169 HD
BRANCH  13  15
ATOM     15  C   UNL     1      -1.231   0.382   0.682  1.00  0.00     0.177 C 
ATOM     16  S   UNL     1      -2.495  -0.392  -0.138  1.00  0.00    -0.040 S 
BRANCH  15  17
ATOM     17  N   UNL     1      -1.668   1.527   1.446  1.00  0.00    -0.299 N 
ATOM     18  C   UNL     1      -1.387   2.713   2.314  1.00  0.00     0.261 C 
ATOM     19  O   UNL     1      -2.278   3.471   2.682  1.00  0.00    -0.269 OA
ATOM     20  H   UNL     1      -2.648   1.527   1.344  1.00  0.00     0.172 HD
BRANCH  18  21
ATOM     21  C   UNL     1      -0.004   2.925   2.757  1.00  0.00     0.082 A 
ATOM     22  C   UNL     1       0.805   1.514   2.178  1.00  0.00     0.134 A 
ATOM     23  C   UNL     1       2.633   0.995   2.857  1.00  0.00    -0.008 A 
ATOM     24  C   UNL     1       3.645  -0.178   2.650  1.00  0.00     0.048 C 
ATOM     25  C   UNL     1       3.474   2.218   3.929  1.00  0.00     0.007 A 
ATOM     26  C   UNL     1       0.885   4.011   3.784  1.00  0.00     0.018 A 
ATOM     27  C   UNL     1       2.563   3.711   4.337  1.00  0.00     0.001 A 
BRANCH  22  28
ATOM     28  O   UNL     1       0.506   2.422   0.642  1.00  0.00    -0.496 OA
ATOM     29  C   UNL     1       0.604   2.033  -0.802  1.00  0.00     0.278 C 
ENDBRANCH  22  28
ENDBRANCH  18  21
ENDBRANCH  15  17
ENDBRANCH  13  15
ENDBRANCH   7  13
ENDBRANCH   3   6
ENDBRANCH   1   2
BRANCH   1  30
ATOM     30  C   UNL     1      -0.316  -0.055   7.192  1.00  0.00     0.023 C 
BRANCH  30  31
ATOM     31  C   UNL     1       0.244  -0.103   8.609  1.00  0.00     0.023 C 
BRANCH  31  32
ATOM     32  C   UNL     1      -0.673   0.471   9.656  1.00  0.00     0.116 C 
BRANCH  32  33
ATOM     33  N   UNL     1      -1.884  -0.301   9.870  1.00  0.00    -0.352 N 
ATOM     34  C   UNL     1      -2.784  -0.233  10.919  1.00  0.00     0.251 C 
ATOM     35  H   UNL     1      -2.094  -0.964   9.173  1.00  0.00     0.163 HD
ATOM     36  O   UNL     1      -3.528  -1.183  11.140  1.00  0.00    -0.269 OA
BRANCH  34  37
ATOM     37  C   UNL     1      -3.017   1.064  11.610  1.00  0.00     0.039 A 
ATOM     38  C   UNL     1      -4.367   1.401  11.804  1.00  0.00     0.014 A 
ATOM     39  C   UNL     1      -2.063   2.063  11.527  1.00  0.00     0.014 A 
ATOM     40  C   UNL     1      -4.780   2.693  11.534  1.00  0.00     0.010 A 
ATOM     41  C   UNL     1      -2.471   3.264  11.031  1.00  0.00     0.010 A 
ATOM     42  C   UNL     1      -3.835   3.548  10.992  1.00  0.00    -0.014 A 
BRANCH  42  43
ATOM     43  C   UNL     1      -4.096   4.874  10.500  1.00  0.00     0.031 A 
ATOM     44  C   UNL     1      -3.962   5.920  11.524  1.00  0.00     0.074 A 
ATOM     45  C   UNL     1      -4.142   5.008   9.155  1.00  0.00     0.049 A 
ATOM     46  N   UNL     1      -4.529   7.064  11.476  1.00  0.00    -0.248 NA
ATOM     47  C   UNL     1      -3.216   5.723  12.775  1.00  0.00     0.031 C 
ATOM     48  C   UNL     1      -3.981   6.189   8.317  1.00  0.00     0.029 A 
ATOM     49  N   UNL     1      -4.504   4.003   8.237  1.00  0.00    -0.354 N 
ATOM     50  C   UNL     1      -3.884   7.859  12.405  1.00  0.00     0.074 A 
ATOM     51  C   UNL     1      -3.241   6.948  13.307  1.00  0.00     0.031 C 
ATOM     52  C   UNL     1      -4.567   5.958   7.124  1.00  0.00     0.029 A 
ATOM     53  C   UNL     1      -5.226   4.665   7.215  1.00  0.00     0.049 A 
ATOM     54  H   UNL     1      -4.298   3.042   8.294  1.00  0.00     0.167 HD
ATOM     55  C   UNL     1      -3.799   9.191  12.132  1.00  0.00     0.037 A 
ATOM     56  C   UNL     1      -6.574   4.455   7.102  1.00  0.00     0.037 A 
ATOM     57  C   UNL     1      -4.481   9.445  10.864  1.00  0.00     0.049 A 
ATOM     58  C   UNL     1      -7.346   5.703   7.460  1.00  0.00     0.074 A 
ATOM     59  C   UNL     1      -4.007   9.540   9.566  1.00  0.00     0.029 A 
ATOM     60  N   UNL     1      -5.839   9.176  10.773  1.00  0.00    -0.354 N 
ATOM     61  N   UNL     1      -6.923   6.597   8.315  1.00  0.00    -0.248 NA
ATOM     62  C   UNL     1      -8.615   6.066   6.841  1.00  0.00     0.031 C 
ATOM     63  C   UNL     1      -5.096   9.285   8.691  1.00  0.00     0.029 A 
ATOM     64  C   UNL     1      -6.224   9.035   9.457  1.00  0.00     0.049 A 
ATOM     65  H   UNL     1      -6.446   9.097  11.545  1.00  0.00     0.167 HD
ATOM     66  C   UNL     1      -7.807   7.644   8.346  1.00  0.00     0.074 A 
ATOM     67  C   UNL     1      -8.847   7.261   7.410  1.00  0.00     0.031 C 
ATOM     68  C   UNL     1      -7.610   8.750   9.125  1.00  0.00     0.037 A 
BRANCH  55  69
ATOM     69  C   UNL     1      -2.890  10.212  12.779  1.00  0.00     0.064 A 
ATOM     70  C   UNL     1      -2.649  11.441  12.119  1.00  0.00     0.173 A 
ATOM     71  C   UNL     1      -2.218  10.069  14.007  1.00  0.00     0.173 A 
ATOM     72  F   UNL     1      -3.261  11.753  10.969  1.00  0.00    -0.203 F 
ATOM     73  C   UNL     1      -1.774  12.410  12.613  1.00  0.00     0.198 A 
ATOM     74  C   UNL     1      -1.330  11.037  14.497  1.00  0.00     0.198 A 
ATOM     75  F   UNL     1      -2.415   9.017  14.806  1.00  0.00    -0.203 F 
ATOM     76  F   UNL     1      -1.586  13.544  11.925  1.00  0.00    -0.200 F 
ATOM     77  C   UNL     1      -1.105  12.204  13.798  1.00  0.00     0.200 A 
ATOM     78  F   UNL     1      -0.699  10.829  15.662  1.00  0.00    -0.200 F 
ATOM     79  F   UNL     1      -0.265  13.133  14.273  1.00  0.00    -0.200 F 
ENDBRANCH  55  69
BRANCH  56  80
ATOM     80  C   UNL     1      -6.934   3.057   7.499  1.00  0.00     0.064 A 
ATOM     81  C   UNL     1      -6.317   2.012   6.775  1.00  0.00     0.173 A 
ATOM     82  C   UNL     1      -7.395   2.761   8.788  1.00  0.00     0.173 A 
ATOM     83  F   UNL     1      -5.889   2.229   5.521  1.00  0.00    -0.203 F 
ATOM     84  C   UNL     1      -5.969   0.814   7.393  1.00  0.00     0.198 A 
ATOM     85  C   UNL     1      -7.096   1.532   9.382  1.00  0.00     0.198 A 
ATOM     86  F   UNL     1      -8.010   3.697   9.524  1.00  0.00    -0.203 F 
ATOM     87  F   UNL     1      -5.194  -0.071   6.748  1.00  0.00    -0.200 F 
ATOM     88  C   UNL     1      -6.330   0.590   8.709  1.00  0.00     0.200 A 
ATOM     89  F   UNL     1      -7.454   1.303  10.655  1.00  0.00    -0.200 F 
ATOM     90  F   UNL     1      -5.904  -0.513   9.341  1.00  0.00    -0.200 F 
ENDBRANCH  56  80
BRANCH  68  91
ATOM     91  C   UNL     1      -8.681   9.732   9.556  1.00  0.00     0.064 A 
ATOM     92  C   UNL     1     -10.057   9.467   9.483  1.00  0.00     0.173 A 
ATOM     93  C   UNL     1      -8.343  10.949  10.205  1.00  0.00     0.173 A 
ATOM     94  F   UNL     1     -10.527   8.282   9.076  1.00  0.00    -0.203 F 
ATOM     95  C   UNL     1     -11.014  10.396   9.894  1.00  0.00     0.198 A 
ATOM     96  C   UNL     1      -9.300  11.826  10.707  1.00  0.00     0.198 A 
ATOM     97  F   UNL     1      -7.074  11.328  10.409  1.00  0.00    -0.203 F 
ATOM     98  F   UNL     1     -12.313  10.128   9.708  1.00  0.00    -0.200 F 
ATOM     99  C   UNL     1     -10.637  11.571  10.513  1.00  0.00     0.200 A 
ATOM    100  F   UNL     1      -8.910  12.912  11.390  1.00  0.00    -0.200 F 
ATOM    101  F   UNL     1     -11.559  12.441  10.941  1.00  0.00    -0.200 F 
ENDBRANCH  68  91
ENDBRANCH  42  43
ENDBRANCH  34  37
ENDBRANCH  32  33
ENDBRANCH  31  32
ENDBRANCH  30  31
ENDBRANCH   1  30
TORSDOF 16
