REMARK SMILES CCOC(=O)c1nc(Nc2cccc(C(=O)NCCCCNC(=O)c3ccc(-c4c5nc(c(-c6c(F)c(F)c(F)c(F)c6F)c6ccc([nH]6)c(-c6c(F)c(F)c(F)c(F)c6F)c6nc(c(-c7c(F)c(F)c(F)c(F)c7F)c7ccc4[nH]7)C=C6)C=C5)cc3)c2)c2ccccc2n1
REMARK SMILES IDX 18 1 17 2 15 3 16 4 14 6 10 7 11 8 88 9 12 10 13 11 9 12
REMARK SMILES IDX 8 14 6 15 7 16 95 17 94 18 89 19 93 20 90 21 92 22 91 23
REMARK SMILES IDX 4 24 5 25 3 26 2 27 1 28 19 29 20 30 21 31 22 32 23 33 24 35
REMARK SMILES IDX 25 36 26 37 87 38 27 39 86 40 28 41 29 42 30 43 80 44 31 45
REMARK SMILES IDX 85 46 79 47 81 48 32 49 84 50 78 51 77 52 33 54 65 55 45 56
REMARK SMILES IDX 64 57 46 58 49 59 63 60 82 61 47 62 48 63 62 65 83 66 50 67
REMARK SMILES IDX 34 68 35 69 43 70 36 71 37 72 41 73 44 74 38 75 39 76 42 77
REMARK SMILES IDX 40 78 66 79 67 80 75 81 68 82 69 83 73 84 76 85 70 86 71 87
REMARK SMILES IDX 74 88 72 89 51 90 52 91 60 92 53 93 54 94 58 95 61 96 55 97
REMARK SMILES IDX 56 98 59 99 57 100
REMARK H PARENT 17 5 9 13 22 34 81 53 49 64
REMARK Flexibility Score: inf
ROOT
ATOM      1  C   UNL     1       2.545   1.342   5.220  1.00  0.00     0.116 C 
ENDROOT
BRANCH   1   2
ATOM      2  N   UNL     1       3.218   2.427   4.522  1.00  0.00    -0.352 N 
ATOM      3  C   UNL     1       4.510   2.522   4.041  1.00  0.00     0.251 C 
ATOM      4  O   UNL     1       4.866   3.570   3.505  1.00  0.00    -0.269 OA
ATOM      5  H   UNL     1       2.662   3.224   4.366  1.00  0.00     0.163 HD
BRANCH   3   6
ATOM      6  C   UNL     1       5.494   1.420   4.222  1.00  0.00     0.041 A 
ATOM      7  C   UNL     1       5.960  -0.944   4.618  1.00  0.00     0.040 A 
ATOM      8  C   UNL     1       7.282  -0.607   4.922  1.00  0.00     0.026 A 
ATOM      9  C   UNL     1       5.111   0.080   4.180  1.00  0.00     0.040 A 
ATOM     10  C   UNL     1       7.727   0.717   4.811  1.00  0.00     0.003 A 
ATOM     11  C   UNL     1       6.828   1.734   4.483  1.00  0.00     0.014 A 
BRANCH   7  12
ATOM     12  N   UNL     1       5.489  -2.259   4.810  1.00  0.00    -0.340 N 
ATOM     13  H   UNL     1       6.024  -2.822   5.416  1.00  0.00     0.168 HD
BRANCH  12  14
ATOM     14  C   UNL     1       4.351  -2.869   4.246  1.00  0.00     0.142 A 
ATOM     15  C   UNL     1       2.833  -2.942   2.530  1.00  0.00     0.241 A 
ATOM     16  N   UNL     1       3.945  -2.412   3.053  1.00  0.00    -0.204 NA
ATOM     17  N   UNL     1       2.094  -3.915   3.085  1.00  0.00    -0.222 NA
ATOM     18  C   UNL     1       2.518  -4.384   4.261  1.00  0.00     0.077 A 
ATOM     19  C   UNL     1       3.649  -3.880   4.929  1.00  0.00     0.043 A 
ATOM     20  C   UNL     1       1.800  -5.418   4.849  1.00  0.00     0.029 A 
ATOM     21  C   UNL     1       3.982  -4.396   6.209  1.00  0.00     0.014 A 
ATOM     22  C   UNL     1       2.152  -5.950   6.091  1.00  0.00     0.002 A 
ATOM     23  C   UNL     1       3.237  -5.427   6.781  1.00  0.00     0.001 A 
BRANCH  15  24
ATOM     24  C   UNL     1       2.402  -2.362   1.223  1.00  0.00     0.376 C 
ATOM     25  O   UNL     1       3.160  -2.061   0.316  1.00  0.00    -0.242 OA
BRANCH  24  26
ATOM     26  O   UNL     1       1.057  -2.139   1.244  1.00  0.00    -0.460 OA
BRANCH  26  27
ATOM     27  C   UNL     1       0.526  -1.519   0.064  1.00  0.00     0.230 C 
ATOM     28  C   UNL     1       0.797  -0.023   0.053  1.00  0.00     0.049 C 
ENDBRANCH  26  27
ENDBRANCH  24  26
ENDBRANCH  15  24
ENDBRANCH  12  14
ENDBRANCH   7  12
ENDBRANCH   3   6
ENDBRANCH   1   2
BRANCH   1  29
ATOM     29  C   UNL     1       1.752   1.768   6.447  1.00  0.00     0.023 C 
BRANCH  29  30
ATOM     30  C   UNL     1       0.560   2.682   6.197  1.00  0.00     0.023 C 
BRANCH  30  31
ATOM     31  C   UNL     1      -0.431   2.212   5.139  1.00  0.00     0.116 C 
BRANCH  31  32
ATOM     32  N   UNL     1      -1.004   0.900   5.405  1.00  0.00    -0.352 N 
ATOM     33  C   UNL     1      -2.323   0.512   5.469  1.00  0.00     0.251 C 
ATOM     34  H   UNL     1      -0.349   0.182   5.563  1.00  0.00     0.163 HD
ATOM     35  O   UNL     1      -2.615  -0.635   5.793  1.00  0.00    -0.269 OA
BRANCH  33  36
ATOM     36  C   UNL     1      -3.396   1.492   5.193  1.00  0.00     0.039 A 
ATOM     37  C   UNL     1      -4.470   1.583   6.082  1.00  0.00     0.014 A 
ATOM     38  C   UNL     1      -3.327   2.344   4.089  1.00  0.00     0.014 A 
ATOM     39  C   UNL     1      -5.420   2.594   5.920  1.00  0.00     0.010 A 
ATOM     40  C   UNL     1      -4.224   3.403   3.978  1.00  0.00     0.010 A 
ATOM     41  C   UNL     1      -5.274   3.546   4.898  1.00  0.00    -0.014 A 
BRANCH  41  42
ATOM     42  C   UNL     1      -6.194   4.709   4.785  1.00  0.00     0.031 A 
ATOM     43  C   UNL     1      -7.043   4.886   3.557  1.00  0.00     0.074 A 
ATOM     44  C   UNL     1      -6.203   5.648   5.753  1.00  0.00     0.049 A 
ATOM     45  N   UNL     1      -7.835   5.877   3.234  1.00  0.00    -0.248 NA
ATOM     46  C   UNL     1      -6.970   3.823   2.542  1.00  0.00     0.031 C 
ATOM     47  C   UNL     1      -5.383   5.623   6.966  1.00  0.00     0.029 A 
ATOM     48  N   UNL     1      -6.915   6.817   5.862  1.00  0.00    -0.354 N 
ATOM     49  C   UNL     1      -8.335   5.567   1.976  1.00  0.00     0.074 A 
ATOM     50  C   UNL     1      -7.723   4.321   1.571  1.00  0.00     0.031 C 
ATOM     51  C   UNL     1      -5.652   6.713   7.703  1.00  0.00     0.029 A 
ATOM     52  C   UNL     1      -6.631   7.535   6.999  1.00  0.00     0.049 A 
ATOM     53  H   UNL     1      -7.569   7.114   5.188  1.00  0.00     0.167 HD
ATOM     54  C   UNL     1      -9.240   6.249   1.236  1.00  0.00     0.037 A 
ATOM     55  C   UNL     1      -7.098   8.726   7.421  1.00  0.00     0.037 A 
ATOM     56  C   UNL     1      -9.879   7.468   1.657  1.00  0.00     0.049 A 
ATOM     57  C   UNL     1      -8.114   9.454   6.581  1.00  0.00     0.074 A 
ATOM     58  C   UNL     1     -10.866   8.191   1.011  1.00  0.00     0.029 A 
ATOM     59  N   UNL     1      -9.591   8.144   2.833  1.00  0.00    -0.354 N 
ATOM     60  N   UNL     1      -8.640   9.107   5.432  1.00  0.00    -0.248 NA
ATOM     61  C   UNL     1      -8.606  10.739   7.101  1.00  0.00     0.031 C 
ATOM     62  C   UNL     1     -11.144   9.329   1.774  1.00  0.00     0.029 A 
ATOM     63  C   UNL     1     -10.368   9.288   2.920  1.00  0.00     0.049 A 
ATOM     64  H   UNL     1      -8.934   7.854   3.506  1.00  0.00     0.167 HD
ATOM     65  C   UNL     1      -9.546  10.109   5.109  1.00  0.00     0.074 A 
ATOM     66  C   UNL     1      -9.510  11.070   6.191  1.00  0.00     0.031 C 
ATOM     67  C   UNL     1     -10.335  10.225   4.013  1.00  0.00     0.037 A 
BRANCH  54  68
ATOM     68  C   UNL     1      -9.613   5.691  -0.106  1.00  0.00     0.064 A 
ATOM     69  C   UNL     1     -10.392   4.531  -0.229  1.00  0.00     0.173 A 
ATOM     70  C   UNL     1      -9.246   6.363  -1.282  1.00  0.00     0.173 A 
ATOM     71  F   UNL     1     -10.759   3.845   0.864  1.00  0.00    -0.203 F 
ATOM     72  C   UNL     1     -10.775   4.054  -1.480  1.00  0.00     0.198 A 
ATOM     73  C   UNL     1      -9.655   5.900  -2.530  1.00  0.00     0.198 A 
ATOM     74  F   UNL     1      -8.506   7.481  -1.220  1.00  0.00    -0.203 F 
ATOM     75  F   UNL     1     -11.488   2.924  -1.574  1.00  0.00    -0.200 F 
ATOM     76  C   UNL     1     -10.415   4.744  -2.628  1.00  0.00     0.200 A 
ATOM     77  F   UNL     1      -9.319   6.576  -3.637  1.00  0.00    -0.200 F 
ATOM     78  F   UNL     1     -10.800   4.294  -3.830  1.00  0.00    -0.200 F 
ENDBRANCH  54  68
BRANCH  55  79
ATOM     79  C   UNL     1      -6.626   9.306   8.707  1.00  0.00     0.064 A 
ATOM     80  C   UNL     1      -7.495   9.438   9.800  1.00  0.00     0.173 A 
ATOM     81  C   UNL     1      -5.313   9.774   8.859  1.00  0.00     0.173 A 
ATOM     82  F   UNL     1      -8.767   9.025   9.697  1.00  0.00    -0.203 F 
ATOM     83  C   UNL     1      -7.078  10.046  10.983  1.00  0.00     0.198 A 
ATOM     84  C   UNL     1      -4.888  10.353  10.053  1.00  0.00     0.198 A 
ATOM     85  F   UNL     1      -4.440   9.668   7.846  1.00  0.00    -0.203 F 
ATOM     86  F   UNL     1      -7.947  10.214  11.989  1.00  0.00    -0.200 F 
ATOM     87  C   UNL     1      -5.774  10.499  11.110  1.00  0.00     0.200 A 
ATOM     88  F   UNL     1      -3.623  10.777  10.177  1.00  0.00    -0.200 F 
ATOM     89  F   UNL     1      -5.375  11.088  12.246  1.00  0.00    -0.200 F 
ENDBRANCH  55  79
BRANCH  67  90
ATOM     90  C   UNL     1     -11.257  11.407   3.948  1.00  0.00     0.064 A 
ATOM     91  C   UNL     1     -10.778  12.706   3.727  1.00  0.00     0.173 A 
ATOM     92  C   UNL     1     -12.644  11.229   4.067  1.00  0.00     0.173 A 
ATOM     93  F   UNL     1      -9.459  12.930   3.621  1.00  0.00    -0.203 F 
ATOM     94  C   UNL     1     -11.651  13.787   3.653  1.00  0.00     0.198 A 
ATOM     95  C   UNL     1     -13.517  12.308   3.961  1.00  0.00     0.198 A 
ATOM     96  F   UNL     1     -13.155  10.005   4.272  1.00  0.00    -0.203 F 
ATOM     97  F   UNL     1     -11.168  15.026   3.489  1.00  0.00    -0.200 F 
ATOM     98  C   UNL     1     -13.019  13.587   3.762  1.00  0.00     0.200 A 
ATOM     99  F   UNL     1     -14.839  12.110   4.052  1.00  0.00    -0.200 F 
ATOM    100  F   UNL     1     -13.859  14.628   3.682  1.00  0.00    -0.200 F 
ENDBRANCH  67  90
ENDBRANCH  41  42
ENDBRANCH  33  36
ENDBRANCH  31  32
ENDBRANCH  30  31
ENDBRANCH  29  30
ENDBRANCH   1  29
TORSDOF 16
