REMARK SMILES CC[C@@H](C(=O)NCCCCNC(=O)c1ccc(-c2c3nc(c(-c4c(F)c(F)c(F)c(F)c4F)c4ccc([nH]4)c(-c4c(F)c(F)c(F)c(F)c4F)c4nc(c(-c5c(F)c(F)c(F)c(F)c5F)c5ccc2[nH]5)C=C4)C=C3)cc1)N1C(=O)/C(=C/C(C)=C/c2ccccc2)SC1=S
REMARK SMILES IDX 8 1 7 2 6 3 4 4 5 5 3 7 2 8 1 9 77 10 78 11 92 12 79 13
REMARK SMILES IDX 80 14 91 15 93 16 81 17 82 18 83 19 84 20 85 21 86 22 90 23
REMARK SMILES IDX 87 24 89 25 88 26 9 27 10 28 11 29 12 30 13 32 14 33 15 34
REMARK SMILES IDX 76 35 16 36 75 37 17 38 18 39 19 40 69 41 20 42 74 43 68 44
REMARK SMILES IDX 70 45 21 46 73 47 67 48 66 49 22 51 54 52 34 53 53 54 35 55
REMARK SMILES IDX 38 56 52 57 71 58 36 59 37 60 51 62 72 63 39 64 23 65 24 66
REMARK SMILES IDX 32 67 25 68 26 69 30 70 33 71 27 72 28 73 31 74 29 75 55 76
REMARK SMILES IDX 56 77 64 78 57 79 58 80 62 81 65 82 59 83 60 84 63 85 61 86
REMARK SMILES IDX 40 87 41 88 49 89 42 90 43 91 47 92 50 93 44 94 45 95 48 96
REMARK SMILES IDX 46 97
REMARK H PARENT 6 6 11 31 70 50 38 61
REMARK Flexibility Score: inf
ROOT
ATOM      1  C   UNL     1       1.059  -1.359   1.988  1.00  0.00     0.023 C 
ENDROOT
BRANCH   1   2
ATOM      2  C   UNL     1       1.618  -2.060   0.742  1.00  0.00     0.116 C 
BRANCH   2   3
ATOM      3  N   UNL     1       0.522  -2.483  -0.110  1.00  0.00    -0.354 N 
ATOM      4  C   UNL     1       0.002  -1.910  -1.238  1.00  0.00     0.243 C 
ATOM      5  O   UNL     1      -1.134  -2.265  -1.569  1.00  0.00    -0.273 OA
ATOM      6  H   UNL     1       0.081  -3.318   0.169  1.00  0.00     0.163 HD
BRANCH   4   7
ATOM      7  C   UNL     1       0.813  -0.881  -2.081  1.00  0.00     0.181 C 
BRANCH   7   8
ATOM      8  C   UNL     1       0.560   0.567  -1.610  1.00  0.00     0.032 C 
ATOM      9  C   UNL     1       0.663   0.971  -0.160  1.00  0.00     0.006 C 
ENDBRANCH   7   8
BRANCH   7  10
ATOM     10  N   UNL     1       0.360  -1.097  -3.508  1.00  0.00    -0.280 N 
ATOM     11  C   UNL     1       0.500  -2.360  -4.087  1.00  0.00     0.266 C 
ATOM     12  C   UNL     1      -0.183  -0.175  -4.377  1.00  0.00     0.149 C 
ATOM     13  O   UNL     1       1.185  -3.277  -3.653  1.00  0.00    -0.268 OA
ATOM     14  C   UNL     1      -0.256  -2.417  -5.387  1.00  0.00     0.080 C 
ATOM     15  S   UNL     1      -1.243  -1.012  -5.486  1.00  0.00    -0.054 SA
ATOM     16  S   UNL     1       0.154   1.443  -4.620  1.00  0.00    -0.052 S 
ATOM     17  C   UNL     1      -0.100  -3.355  -6.338  1.00  0.00     0.024 C 
BRANCH  17  18
ATOM     18  C   UNL     1      -0.721  -3.389  -7.677  1.00  0.00    -0.049 C 
ATOM     19  C   UNL     1      -1.101  -4.762  -8.167  1.00  0.00     0.044 C 
ATOM     20  C   UNL     1      -0.827  -2.272  -8.432  1.00  0.00     0.011 C 
BRANCH  20  21
ATOM     21  C   UNL     1      -1.495  -2.016  -9.725  1.00  0.00    -0.025 A 
ATOM     22  C   UNL     1      -1.040  -0.927 -10.487  1.00  0.00     0.008 A 
ATOM     23  C   UNL     1      -2.653  -2.679 -10.148  1.00  0.00     0.008 A 
ATOM     24  C   UNL     1      -1.702  -0.531 -11.652  1.00  0.00     0.001 A 
ATOM     25  C   UNL     1      -3.311  -2.292 -11.323  1.00  0.00     0.001 A 
ATOM     26  C   UNL     1      -2.836  -1.218 -12.072  1.00  0.00     0.000 A 
ENDBRANCH  20  21
ENDBRANCH  17  18
ENDBRANCH   7  10
ENDBRANCH   4   7
ENDBRANCH   2   3
ENDBRANCH   1   2
BRANCH   1  27
ATOM     27  C   UNL     1       0.614  -2.279   3.115  1.00  0.00     0.023 C 
BRANCH  27  28
ATOM     28  C   UNL     1       1.751  -2.964   3.842  1.00  0.00     0.116 C 
BRANCH  28  29
ATOM     29  N   UNL     1       2.681  -2.032   4.466  1.00  0.00    -0.352 N 
ATOM     30  C   UNL     1       3.240  -2.080   5.720  1.00  0.00     0.251 C 
ATOM     31  H   UNL     1       2.946  -1.262   3.913  1.00  0.00     0.163 HD
ATOM     32  O   UNL     1       3.923  -1.147   6.131  1.00  0.00    -0.269 OA
BRANCH  30  33
ATOM     33  C   UNL     1       2.983  -3.250   6.582  1.00  0.00     0.039 A 
ATOM     34  C   UNL     1       2.688  -3.048   7.932  1.00  0.00     0.014 A 
ATOM     35  C   UNL     1       2.999  -4.541   6.050  1.00  0.00     0.014 A 
ATOM     36  C   UNL     1       2.362  -4.141   8.734  1.00  0.00     0.010 A 
ATOM     37  C   UNL     1       2.556  -5.609   6.816  1.00  0.00     0.010 A 
ATOM     38  C   UNL     1       2.268  -5.426   8.175  1.00  0.00    -0.014 A 
BRANCH  38  39
ATOM     39  C   UNL     1       1.947  -6.609   9.008  1.00  0.00     0.031 A 
ATOM     40  C   UNL     1       2.958  -7.716   9.143  1.00  0.00     0.074 A 
ATOM     41  C   UNL     1       0.741  -6.709   9.598  1.00  0.00     0.049 A 
ATOM     42  N   UNL     1       2.866  -8.851   9.788  1.00  0.00    -0.248 NA
ATOM     43  C   UNL     1       4.230  -7.544   8.419  1.00  0.00     0.031 C 
ATOM     44  C   UNL     1      -0.345  -5.734   9.482  1.00  0.00     0.029 A 
ATOM     45  N   UNL     1       0.228  -7.682  10.416  1.00  0.00    -0.354 N 
ATOM     46  C   UNL     1       4.051  -9.527   9.528  1.00  0.00     0.074 A 
ATOM     47  C   UNL     1       4.812  -8.718   8.605  1.00  0.00     0.031 C 
ATOM     48  C   UNL     1      -1.381  -6.139  10.234  1.00  0.00     0.029 A 
ATOM     49  C   UNL     1      -1.043  -7.412  10.862  1.00  0.00     0.049 A 
ATOM     50  H   UNL     1       0.723  -8.497  10.661  1.00  0.00     0.167 HD
ATOM     51  C   UNL     1       4.487 -10.699  10.046  1.00  0.00     0.037 A 
ATOM     52  C   UNL     1      -1.836  -8.114  11.693  1.00  0.00     0.037 A 
ATOM     53  C   UNL     1       3.746 -11.476  11.002  1.00  0.00     0.049 A 
ATOM     54  C   UNL     1      -1.314  -9.397  12.284  1.00  0.00     0.074 A 
ATOM     55  C   UNL     1       4.117 -12.643  11.643  1.00  0.00     0.029 A 
ATOM     56  N   UNL     1       2.476 -11.152  11.459  1.00  0.00    -0.354 N 
ATOM     57  N   UNL     1      -0.159  -9.989  12.094  1.00  0.00    -0.248 NA
ATOM     58  C   UNL     1      -2.203 -10.101  13.218  1.00  0.00     0.031 C 
ATOM     59  C   UNL     1       3.056 -13.047  12.460  1.00  0.00     0.029 A 
ATOM     60  C   UNL     1       2.043 -12.106  12.365  1.00  0.00     0.049 A 
ATOM     61  H   UNL     1       1.960 -10.362  11.180  1.00  0.00     0.167 HD
ATOM     62  C   UNL     1      -0.171 -11.117  12.903  1.00  0.00     0.074 A 
ATOM     63  C   UNL     1      -1.439 -11.113  13.603  1.00  0.00     0.031 C 
ATOM     64  C   UNL     1       0.778 -12.075  13.052  1.00  0.00     0.037 A 
BRANCH  51  65
ATOM     65  C   UNL     1       5.833 -11.194   9.600  1.00  0.00     0.064 A 
ATOM     66  C   UNL     1       7.018 -10.528   9.958  1.00  0.00     0.173 A 
ATOM     67  C   UNL     1       5.945 -12.349   8.813  1.00  0.00     0.173 A 
ATOM     68  F   UNL     1       6.967  -9.408  10.694  1.00  0.00    -0.203 F 
ATOM     69  C   UNL     1       8.257 -10.980   9.513  1.00  0.00     0.198 A 
ATOM     70  C   UNL     1       7.190 -12.818   8.399  1.00  0.00     0.198 A 
ATOM     71  F   UNL     1       4.847 -13.025   8.443  1.00  0.00    -0.203 F 
ATOM     72  F   UNL     1       9.367 -10.291   9.815  1.00  0.00    -0.200 F 
ATOM     73  C   UNL     1       8.343 -12.127   8.741  1.00  0.00     0.200 A 
ATOM     74  F   UNL     1       7.272 -13.933   7.661  1.00  0.00    -0.200 F 
ATOM     75  F   UNL     1       9.537 -12.563   8.316  1.00  0.00    -0.200 F 
ENDBRANCH  51  65
BRANCH  52  76
ATOM     76  C   UNL     1      -3.180  -7.596  12.058  1.00  0.00     0.064 A 
ATOM     77  C   UNL     1      -3.445  -7.138  13.357  1.00  0.00     0.173 A 
ATOM     78  C   UNL     1      -4.228  -7.556  11.127  1.00  0.00     0.173 A 
ATOM     79  F   UNL     1      -2.480  -7.172  14.288  1.00  0.00    -0.203 F 
ATOM     80  C   UNL     1      -4.713  -6.688  13.719  1.00  0.00     0.198 A 
ATOM     81  C   UNL     1      -5.488  -7.078  11.482  1.00  0.00     0.198 A 
ATOM     82  F   UNL     1      -4.025  -7.974   9.870  1.00  0.00    -0.203 F 
ATOM     83  F   UNL     1      -4.951  -6.305  14.980  1.00  0.00    -0.200 F 
ATOM     84  C   UNL     1      -5.732  -6.654  12.780  1.00  0.00     0.200 A 
ATOM     85  F   UNL     1      -6.467  -7.033  10.568  1.00  0.00    -0.200 F 
ATOM     86  F   UNL     1      -6.952  -6.220  13.127  1.00  0.00    -0.200 F 
ENDBRANCH  52  76
BRANCH  64  87
ATOM     87  C   UNL     1       0.487 -13.175  14.030  1.00  0.00     0.064 A 
ATOM     88  C   UNL     1      -0.483 -14.155  13.768  1.00  0.00     0.173 A 
ATOM     89  C   UNL     1       1.203 -13.263  15.233  1.00  0.00     0.173 A 
ATOM     90  F   UNL     1      -1.203 -14.106  12.637  1.00  0.00    -0.203 F 
ATOM     91  C   UNL     1      -0.751 -15.159  14.694  1.00  0.00     0.198 A 
ATOM     92  C   UNL     1       0.956 -14.288  16.140  1.00  0.00     0.198 A 
ATOM     93  F   UNL     1       2.148 -12.357  15.525  1.00  0.00    -0.203 F 
ATOM     94  F   UNL     1      -1.723 -16.048  14.450  1.00  0.00    -0.200 F 
ATOM     95  C   UNL     1      -0.028 -15.229  15.875  1.00  0.00     0.200 A 
ATOM     96  F   UNL     1       1.666 -14.363  17.274  1.00  0.00    -0.200 F 
ATOM     97  F   UNL     1      -0.287 -16.197  16.764  1.00  0.00    -0.200 F 
ENDBRANCH  64  87
ENDBRANCH  38  39
ENDBRANCH  30  33
ENDBRANCH  28  29
ENDBRANCH  27  28
ENDBRANCH   1  27
TORSDOF 15
