REMARK SMILES CN1C(=O)C[C@H](C(=O)NCCCCNC(=O)c2ccc(-c3c4nc(c(-c5c(F)c(F)c(F)c(F)c5F)c5ccc([nH]5)c(-c5c(F)c(F)c(F)c(F)c5F)c5nc(c(-c6c(F)c(F)c(F)c(F)c6F)c6ccc3[nH]6)C=C5)C=C4)cc2)C12CC[NH+](Cc1ccc(Cl)c(F)c1)CC2
REMARK SMILES IDX 11 1 10 2 9 3 7 4 8 5 6 7 1 8 2 9 3 10 80 11 4 12 5 13 81 14
REMARK SMILES IDX 94 15 82 16 93 17 83 18 84 20 85 21 86 22 92 23 87 24 90 25
REMARK SMILES IDX 88 26 91 27 89 28 12 29 13 30 14 31 15 32 16 34 17 35 18 36
REMARK SMILES IDX 79 37 19 38 78 39 20 40 21 41 22 42 72 43 23 44 77 45 71 46
REMARK SMILES IDX 73 47 24 48 76 49 70 50 69 51 25 53 57 54 37 55 56 56 38 57
REMARK SMILES IDX 41 58 55 59 74 60 39 61 40 62 54 64 75 65 42 66 26 67 27 68
REMARK SMILES IDX 35 69 28 70 29 71 33 72 36 73 30 74 31 75 34 76 32 77 58 78
REMARK SMILES IDX 59 79 67 80 60 81 61 82 65 83 68 84 62 85 63 86 66 87 64 88
REMARK SMILES IDX 43 89 44 90 52 91 45 92 46 93 50 94 53 95 47 96 48 97 51 98
REMARK SMILES IDX 49 99
REMARK H PARENT 9 6 83 19 14 33 73 52 41 63
REMARK Flexibility Score: inf
ROOT
ATOM      1  C   UNL     1      -4.963   0.068  -0.592  1.00  0.00     0.023 C 
ENDROOT
BRANCH   1   2
ATOM      2  C   UNL     1      -4.144  -0.141  -1.862  1.00  0.00     0.116 C 
BRANCH   2   3
ATOM      3  N   UNL     1      -3.251   0.911  -2.360  1.00  0.00    -0.356 N 
ATOM      4  C   UNL     1      -2.532   0.686  -3.526  1.00  0.00     0.226 C 
ATOM      5  O   UNL     1      -3.142   0.843  -4.590  1.00  0.00    -0.275 OA
ATOM      6  H   UNL     1      -3.163   1.763  -1.875  1.00  0.00     0.163 HD
BRANCH   4   7
ATOM      7  C   UNL     1      -0.973   0.472  -3.576  1.00  0.00     0.114 C 
ATOM      8  C   UNL     1       1.512   0.449  -0.705  1.00  0.00     0.147 C 
ATOM      9  N   UNL     1       0.715   0.666  -1.902  1.00  0.00    -0.339 N 
ATOM     10  C   UNL     1       0.639   1.912  -2.478  1.00  0.00     0.223 C 
ATOM     11  C   UNL     1      -0.147  -0.353  -2.533  1.00  0.00     0.065 C 
ATOM     12  O   UNL     1       1.264   2.907  -2.131  1.00  0.00    -0.275 OA
ATOM     13  C   UNL     1      -0.333   1.871  -3.611  1.00  0.00     0.116 C 
ATOM     14  C   UNL     1       0.774  -1.520  -3.079  1.00  0.00     0.091 C 
ATOM     15  C   UNL     1      -1.058  -0.986  -1.530  1.00  0.00     0.091 C 
ATOM     16  C   UNL     1       0.275  -3.009  -2.983  1.00  0.00     0.265 C 
ATOM     17  C   UNL     1      -1.801  -2.159  -2.186  1.00  0.00     0.265 C 
ATOM     18  N   UNL     1      -0.945  -3.304  -2.247  1.00  0.00    -0.331 N 
ATOM     19  H   UNL     1      -1.302  -4.044  -2.853  1.00  0.00     0.348 HD
BRANCH  18  20
ATOM     20  C   UNL     1      -0.972  -4.107  -1.007  1.00  0.00     0.299 C 
BRANCH  20  21
ATOM     21  C   UNL     1      -0.440  -3.464   0.267  1.00  0.00     0.009 A 
ATOM     22  C   UNL     1       0.899  -3.661   0.619  1.00  0.00     0.011 A 
ATOM     23  C   UNL     1      -1.212  -2.570   1.046  1.00  0.00     0.050 A 
ATOM     24  C   UNL     1       1.484  -2.918   1.650  1.00  0.00     0.024 A 
ATOM     25  C   UNL     1      -0.605  -1.785   2.030  1.00  0.00     0.142 A 
ATOM     26  C   UNL     1       0.743  -1.950   2.327  1.00  0.00     0.076 A 
ATOM     27  F   UNL     1      -1.322  -0.808   2.610  1.00  0.00    -0.205 F 
ATOM     28  Cl  UNL     1       1.527  -0.933   3.472  1.00  0.00    -0.081 Cl
ENDBRANCH  20  21
ENDBRANCH  18  20
ENDBRANCH   4   7
ENDBRANCH   2   3
ENDBRANCH   1   2
BRANCH   1  29
ATOM     29  C   UNL     1      -6.087  -0.986  -0.438  1.00  0.00     0.023 C 
BRANCH  29  30
ATOM     30  C   UNL     1      -5.822  -2.442  -0.862  1.00  0.00     0.116 C 
BRANCH  30  31
ATOM     31  N   UNL     1      -5.207  -3.314   0.133  1.00  0.00    -0.352 N 
ATOM     32  C   UNL     1      -5.669  -4.514   0.646  1.00  0.00     0.251 C 
ATOM     33  H   UNL     1      -4.342  -3.006   0.489  1.00  0.00     0.163 HD
ATOM     34  O   UNL     1      -4.979  -5.180   1.410  1.00  0.00    -0.269 OA
BRANCH  32  35
ATOM     35  C   UNL     1      -7.048  -4.944   0.331  1.00  0.00     0.039 A 
ATOM     36  C   UNL     1      -7.974  -4.997   1.375  1.00  0.00     0.014 A 
ATOM     37  C   UNL     1      -7.455  -5.117  -0.992  1.00  0.00     0.014 A 
ATOM     38  C   UNL     1      -9.337  -5.054   1.077  1.00  0.00     0.010 A 
ATOM     39  C   UNL     1      -8.816  -5.083  -1.288  1.00  0.00     0.010 A 
ATOM     40  C   UNL     1      -9.769  -5.001  -0.258  1.00  0.00    -0.014 A 
BRANCH  40  41
ATOM     41  C   UNL     1     -11.201  -4.768  -0.590  1.00  0.00     0.031 A 
ATOM     42  C   UNL     1     -11.969  -5.780  -1.389  1.00  0.00     0.074 A 
ATOM     43  C   UNL     1     -11.779  -3.597  -0.248  1.00  0.00     0.049 A 
ATOM     44  N   UNL     1     -13.191  -5.713  -1.851  1.00  0.00    -0.248 NA
ATOM     45  C   UNL     1     -11.261  -7.022  -1.740  1.00  0.00     0.031 C 
ATOM     46  C   UNL     1     -11.121  -2.506   0.476  1.00  0.00     0.029 A 
ATOM     47  N   UNL     1     -13.046  -3.115  -0.479  1.00  0.00    -0.354 N 
ATOM     48  C   UNL     1     -13.391  -6.890  -2.560  1.00  0.00     0.074 A 
ATOM     49  C   UNL     1     -12.152  -7.634  -2.506  1.00  0.00     0.031 C 
ATOM     50  C   UNL     1     -11.989  -1.496   0.645  1.00  0.00     0.029 A 
ATOM     51  C   UNL     1     -13.251  -1.840  -0.002  1.00  0.00     0.049 A 
ATOM     52  H   UNL     1     -13.743  -3.633  -0.943  1.00  0.00     0.167 HD
ATOM     53  C   UNL     1     -14.515  -7.316  -3.183  1.00  0.00     0.037 A 
ATOM     54  C   UNL     1     -14.325  -1.030  -0.094  1.00  0.00     0.037 A 
ATOM     55  C   UNL     1     -15.754  -6.585  -3.205  1.00  0.00     0.049 A 
ATOM     56  C   UNL     1     -15.556  -1.528  -0.806  1.00  0.00     0.074 A 
ATOM     57  C   UNL     1     -16.975  -6.978  -3.724  1.00  0.00     0.029 A 
ATOM     58  N   UNL     1     -15.927  -5.306  -2.698  1.00  0.00    -0.354 N 
ATOM     59  N   UNL     1     -15.766  -2.689  -1.379  1.00  0.00    -0.248 NA
ATOM     60  C   UNL     1     -16.699  -0.607  -0.889  1.00  0.00     0.031 C 
ATOM     61  C   UNL     1     -17.867  -5.910  -3.596  1.00  0.00     0.029 A 
ATOM     62  C   UNL     1     -17.222  -4.875  -2.938  1.00  0.00     0.049 A 
ATOM     63  H   UNL     1     -15.233  -4.781  -2.236  1.00  0.00     0.167 HD
ATOM     64  C   UNL     1     -17.064  -2.643  -1.871  1.00  0.00     0.074 A 
ATOM     65  C   UNL     1     -17.604  -1.351  -1.508  1.00  0.00     0.031 C 
ATOM     66  C   UNL     1     -17.744  -3.585  -2.568  1.00  0.00     0.037 A 
BRANCH  53  67
ATOM     67  C   UNL     1     -14.466  -8.633  -3.900  1.00  0.00     0.064 A 
ATOM     68  C   UNL     1     -14.379  -9.850  -3.209  1.00  0.00     0.173 A 
ATOM     69  C   UNL     1     -14.576  -8.680  -5.299  1.00  0.00     0.173 A 
ATOM     70  F   UNL     1     -14.262  -9.861  -1.872  1.00  0.00    -0.203 F 
ATOM     71  C   UNL     1     -14.384 -11.064  -3.892  1.00  0.00     0.198 A 
ATOM     72  C   UNL     1     -14.613  -9.895  -5.976  1.00  0.00     0.198 A 
ATOM     73  F   UNL     1     -14.668  -7.544  -6.008  1.00  0.00    -0.203 F 
ATOM     74  F   UNL     1     -14.259 -12.213  -3.213  1.00  0.00    -0.200 F 
ATOM     75  C   UNL     1     -14.511 -11.086  -5.272  1.00  0.00     0.200 A 
ATOM     76  F   UNL     1     -14.752  -9.914  -7.308  1.00  0.00    -0.200 F 
ATOM     77  F   UNL     1     -14.533 -12.255  -5.926  1.00  0.00    -0.200 F 
ENDBRANCH  53  67
BRANCH  54  78
ATOM     78  C   UNL     1     -14.285   0.345   0.477  1.00  0.00     0.064 A 
ATOM     79  C   UNL     1     -15.113   0.713   1.548  1.00  0.00     0.173 A 
ATOM     80  C   UNL     1     -13.445   1.333  -0.059  1.00  0.00     0.173 A 
ATOM     81  F   UNL     1     -15.952  -0.186   2.084  1.00  0.00    -0.203 F 
ATOM     82  C   UNL     1     -15.126   2.019   2.037  1.00  0.00     0.198 A 
ATOM     83  C   UNL     1     -13.432   2.629   0.454  1.00  0.00     0.198 A 
ATOM     84  F   UNL     1     -12.628   1.039  -1.082  1.00  0.00    -0.203 F 
ATOM     85  F   UNL     1     -15.973   2.356   3.019  1.00  0.00    -0.200 F 
ATOM     86  C   UNL     1     -14.282   2.974   1.493  1.00  0.00     0.200 A 
ATOM     87  F   UNL     1     -12.602   3.544  -0.064  1.00  0.00    -0.200 F 
ATOM     88  F   UNL     1     -14.295   4.229   1.962  1.00  0.00    -0.200 F 
ENDBRANCH  54  78
BRANCH  66  89
ATOM     89  C   UNL     1     -19.152  -3.264  -2.977  1.00  0.00     0.064 A 
ATOM     90  C   UNL     1     -19.427  -2.333  -3.990  1.00  0.00     0.173 A 
ATOM     91  C   UNL     1     -20.235  -3.947  -2.401  1.00  0.00     0.173 A 
ATOM     92  F   UNL     1     -18.428  -1.642  -4.560  1.00  0.00    -0.203 F 
ATOM     93  C   UNL     1     -20.734  -2.089  -4.401  1.00  0.00     0.198 A 
ATOM     94  C   UNL     1     -21.537  -3.725  -2.839  1.00  0.00     0.198 A 
ATOM     95  F   UNL     1     -20.026  -4.853  -1.434  1.00  0.00    -0.203 F 
ATOM     96  F   UNL     1     -20.975  -1.168  -5.344  1.00  0.00    -0.200 F 
ATOM     97  C   UNL     1     -21.786  -2.793  -3.835  1.00  0.00     0.200 A 
ATOM     98  F   UNL     1     -22.550  -4.419  -2.302  1.00  0.00    -0.200 F 
ATOM     99  F   UNL     1     -23.041  -2.570  -4.247  1.00  0.00    -0.200 F 
ENDBRANCH  66  89
ENDBRANCH  40  41
ENDBRANCH  32  35
ENDBRANCH  30  31
ENDBRANCH  29  30
ENDBRANCH   1  29
TORSDOF 13
