REMARK SMILES COc1cc(C(=O)NCCCCNC(=O)c2ccc(-c3c4nc(c(-c5c(F)c(F)c(F)c(F)c5F)c5ccc([nH]5)c(-c5c(F)c(F)c(F)c(F)c5F)c5nc(c(-c6c(F)c(F)c(F)c(F)c6F)c6ccc3[nH]6)C=C5)C=C4)cc2)ccc1OCC(=O)N[C@H]1CCCC[C@H]1C
REMARK SMILES IDX 9 1 8 2 6 3 7 4 5 6 3 7 4 8 81 9 80 10 79 11 2 12 1 13 82 14
REMARK SMILES IDX 83 15 84 16 85 17 86 18 87 20 88 21 92 22 89 23 91 24 93 25
REMARK SMILES IDX 90 26 10 27 11 28 12 29 13 30 14 31 15 33 16 34 17 35 78 36
REMARK SMILES IDX 18 37 77 38 19 39 20 40 21 41 71 42 22 43 76 44 70 45 72 46
REMARK SMILES IDX 23 47 75 48 69 49 68 50 24 52 56 53 36 54 55 55 37 56 40 57
REMARK SMILES IDX 54 58 73 59 38 60 39 61 53 63 74 64 41 65 25 66 26 67 34 68
REMARK SMILES IDX 27 69 28 70 32 71 35 72 29 73 30 74 33 75 31 76 57 77 58 78
REMARK SMILES IDX 66 79 59 80 60 81 64 82 67 83 61 84 62 85 65 86 63 87 42 88
REMARK SMILES IDX 43 89 51 90 44 91 45 92 49 93 52 94 46 95 47 96 50 97 48 98
REMARK H PARENT 8 5 86 19 13 32 72 51 40 62
REMARK Flexibility Score: inf
ROOT
ATOM      1  C   UNL     1       1.419  -7.098   2.722  1.00  0.00     0.116 C 
ENDROOT
BRANCH   1   2
ATOM      2  N   UNL     1       0.119  -6.444   2.669  1.00  0.00    -0.352 N 
ATOM      3  C   UNL     1      -0.342  -5.175   2.390  1.00  0.00     0.251 C 
ATOM      4  O   UNL     1      -1.565  -5.017   2.411  1.00  0.00    -0.269 OA
ATOM      5  H   UNL     1      -0.615  -7.064   2.886  1.00  0.00     0.163 HD
BRANCH   3   6
ATOM      6  C   UNL     1       0.522  -3.990   2.100  1.00  0.00     0.043 A 
ATOM      7  C   UNL     1       0.760  -1.550   1.872  1.00  0.00     0.161 A 
ATOM      8  C   UNL     1      -0.023  -2.690   2.174  1.00  0.00     0.064 A 
ATOM      9  C   UNL     1       2.110  -1.697   1.559  1.00  0.00     0.161 A 
ATOM     10  C   UNL     1       2.661  -2.968   1.635  1.00  0.00     0.051 A 
ATOM     11  C   UNL     1       1.859  -4.092   1.760  1.00  0.00     0.018 A 
BRANCH   7  12
ATOM     12  O   UNL     1       0.251  -0.295   2.058  1.00  0.00    -0.493 OA
ATOM     13  C   UNL     1      -0.783   0.029   1.131  1.00  0.00     0.278 C 
ENDBRANCH   7  12
BRANCH   9  14
ATOM     14  O   UNL     1       3.025  -0.771   1.149  1.00  0.00    -0.480 OA
BRANCH  14  15
ATOM     15  C   UNL     1       2.621   0.293   0.313  1.00  0.00     0.329 C 
BRANCH  15  16
ATOM     16  C   UNL     1       1.899   0.137  -1.053  1.00  0.00     0.258 C 
ATOM     17  O   UNL     1       0.792   0.671  -1.215  1.00  0.00    -0.271 OA
ATOM     18  N   UNL     1       2.390  -0.455  -2.174  1.00  0.00    -0.350 N 
ATOM     19  H   UNL     1       1.694  -0.538  -2.865  1.00  0.00     0.163 HD
BRANCH  18  20
ATOM     20  C   UNL     1       3.671  -1.006  -2.643  1.00  0.00     0.085 C 
ATOM     21  C   UNL     1       4.890  -0.246  -2.124  1.00  0.00     0.025 C 
ATOM     22  C   UNL     1       3.756  -2.557  -2.619  1.00  0.00     0.008 C 
ATOM     23  C   UNL     1       6.203  -0.852  -2.599  1.00  0.00     0.002 C 
ATOM     24  C   UNL     1       5.170  -3.095  -2.917  1.00  0.00     0.005 C 
ATOM     25  C   UNL     1       3.287  -3.137  -1.308  1.00  0.00     0.010 C 
ATOM     26  C   UNL     1       6.270  -2.317  -2.201  1.00  0.00     0.000 C 
ENDBRANCH  18  20
ENDBRANCH  15  16
ENDBRANCH  14  15
ENDBRANCH   9  14
ENDBRANCH   3   6
ENDBRANCH   1   2
BRANCH   1  27
ATOM     27  C   UNL     1       1.986  -7.243   4.130  1.00  0.00     0.023 C 
BRANCH  27  28
ATOM     28  C   UNL     1       1.391  -8.398   4.931  1.00  0.00     0.023 C 
BRANCH  28  29
ATOM     29  C   UNL     1       1.357  -9.742   4.213  1.00  0.00     0.116 C 
BRANCH  29  30
ATOM     30  N   UNL     1       2.654 -10.183   3.717  1.00  0.00    -0.352 N 
ATOM     31  C   UNL     1       3.186 -11.451   3.726  1.00  0.00     0.251 C 
ATOM     32  H   UNL     1       3.223  -9.483   3.324  1.00  0.00     0.163 HD
ATOM     33  O   UNL     1       4.336 -11.651   3.346  1.00  0.00    -0.269 OA
BRANCH  31  34
ATOM     34  C   UNL     1       2.369 -12.570   4.239  1.00  0.00     0.039 A 
ATOM     35  C   UNL     1       2.923 -13.437   5.183  1.00  0.00     0.014 A 
ATOM     36  C   UNL     1       1.044 -12.726   3.828  1.00  0.00     0.014 A 
ATOM     37  C   UNL     1       2.123 -14.422   5.765  1.00  0.00     0.010 A 
ATOM     38  C   UNL     1       0.226 -13.644   4.475  1.00  0.00     0.010 A 
ATOM     39  C   UNL     1       0.759 -14.511   5.442  1.00  0.00    -0.014 A 
BRANCH  39  40
ATOM     40  C   UNL     1      -0.122 -15.526   6.072  1.00  0.00     0.031 A 
ATOM     41  C   UNL     1      -0.781 -16.574   5.215  1.00  0.00     0.074 A 
ATOM     42  C   UNL     1      -0.381 -15.470   7.394  1.00  0.00     0.049 A 
ATOM     43  N   UNL     1      -1.645 -17.498   5.551  1.00  0.00    -0.248 NA
ATOM     44  C   UNL     1      -0.450 -16.561   3.780  1.00  0.00     0.031 C 
ATOM     45  C   UNL     1       0.156 -14.474   8.323  1.00  0.00     0.029 A 
ATOM     46  N   UNL     1      -1.172 -16.266   8.185  1.00  0.00    -0.354 N 
ATOM     47  C   UNL     1      -1.974 -18.153   4.372  1.00  0.00     0.074 A 
ATOM     48  C   UNL     1      -1.264 -17.489   3.303  1.00  0.00     0.031 C 
ATOM     49  C   UNL     1      -0.300 -14.734   9.559  1.00  0.00     0.029 A 
ATOM     50  C   UNL     1      -1.192 -15.888   9.506  1.00  0.00     0.049 A 
ATOM     51  H   UNL     1      -1.678 -17.036   7.838  1.00  0.00     0.167 HD
ATOM     52  C   UNL     1      -2.776 -19.230   4.200  1.00  0.00     0.037 A 
ATOM     53  C   UNL     1      -1.860 -16.412  10.552  1.00  0.00     0.037 A 
ATOM     54  C   UNL     1      -3.445 -19.917   5.272  1.00  0.00     0.049 A 
ATOM     55  C   UNL     1      -2.738 -17.617  10.329  1.00  0.00     0.074 A 
ATOM     56  C   UNL     1      -4.223 -21.059   5.210  1.00  0.00     0.029 A 
ATOM     57  N   UNL     1      -3.411 -19.525   6.601  1.00  0.00    -0.354 N 
ATOM     58  N   UNL     1      -2.979 -18.275   9.221  1.00  0.00    -0.248 NA
ATOM     59  C   UNL     1      -3.429 -18.159  11.508  1.00  0.00     0.031 C 
ATOM     60  C   UNL     1      -4.702 -21.330   6.495  1.00  0.00     0.029 A 
ATOM     61  C   UNL     1      -4.171 -20.393   7.367  1.00  0.00     0.049 A 
ATOM     62  H   UNL     1      -2.920 -18.745   6.949  1.00  0.00     0.167 HD
ATOM     63  C   UNL     1      -3.807 -19.332   9.578  1.00  0.00     0.074 A 
ATOM     64  C   UNL     1      -4.019 -19.233  11.005  1.00  0.00     0.031 C 
ATOM     65  C   UNL     1      -4.344 -20.299   8.793  1.00  0.00     0.037 A 
BRANCH  52  66
ATOM     66  C   UNL     1      -2.969 -19.746   2.803  1.00  0.00     0.064 A 
ATOM     67  C   UNL     1      -1.933 -20.382   2.102  1.00  0.00     0.173 A 
ATOM     68  C   UNL     1      -4.223 -19.656   2.181  1.00  0.00     0.173 A 
ATOM     69  F   UNL     1      -0.711 -20.483   2.645  1.00  0.00    -0.203 F 
ATOM     70  C   UNL     1      -2.141 -20.891   0.822  1.00  0.00     0.198 A 
ATOM     71  C   UNL     1      -4.436 -20.194   0.915  1.00  0.00     0.198 A 
ATOM     72  F   UNL     1      -5.248 -19.060   2.808  1.00  0.00    -0.203 F 
ATOM     73  F   UNL     1      -1.126 -21.457   0.155  1.00  0.00    -0.200 F 
ATOM     74  C   UNL     1      -3.394 -20.806   0.235  1.00  0.00     0.200 A 
ATOM     75  F   UNL     1      -5.652 -20.125   0.354  1.00  0.00    -0.200 F 
ATOM     76  F   UNL     1      -3.597 -21.312  -0.990  1.00  0.00    -0.200 F 
ENDBRANCH  52  66
BRANCH  53  77
ATOM     77  C   UNL     1      -1.716 -15.826  11.912  1.00  0.00     0.064 A 
ATOM     78  C   UNL     1      -1.103 -16.549  12.947  1.00  0.00     0.173 A 
ATOM     79  C   UNL     1      -2.229 -14.559  12.222  1.00  0.00     0.173 A 
ATOM     80  F   UNL     1      -0.613 -17.775  12.707  1.00  0.00    -0.203 F 
ATOM     81  C   UNL     1      -1.046 -16.045  14.245  1.00  0.00     0.198 A 
ATOM     82  C   UNL     1      -2.141 -14.040  13.513  1.00  0.00     0.198 A 
ATOM     83  F   UNL     1      -2.820 -13.821  11.270  1.00  0.00    -0.203 F 
ATOM     84  F   UNL     1      -0.517 -16.788  15.226  1.00  0.00    -0.200 F 
ATOM     85  C   UNL     1      -1.562 -14.790  14.526  1.00  0.00     0.200 A 
ATOM     86  F   UNL     1      -2.628 -12.821  13.778  1.00  0.00    -0.200 F 
ATOM     87  F   UNL     1      -1.515 -14.309  15.776  1.00  0.00    -0.200 F 
ENDBRANCH  53  77
BRANCH  65  88
ATOM     88  C   UNL     1      -5.150 -21.370   9.469  1.00  0.00     0.064 A 
ATOM     89  C   UNL     1      -6.412 -21.114  10.023  1.00  0.00     0.173 A 
ATOM     90  C   UNL     1      -4.663 -22.686   9.525  1.00  0.00     0.173 A 
ATOM     91  F   UNL     1      -6.918 -19.871  10.006  1.00  0.00    -0.203 F 
ATOM     92  C   UNL     1      -7.143 -22.127  10.638  1.00  0.00     0.198 A 
ATOM     93  C   UNL     1      -5.412 -23.704  10.108  1.00  0.00     0.198 A 
ATOM     94  F   UNL     1      -3.466 -22.988   9.000  1.00  0.00    -0.203 F 
ATOM     95  F   UNL     1      -8.322 -21.847  11.210  1.00  0.00    -0.200 F 
ATOM     96  C   UNL     1      -6.646 -23.422  10.673  1.00  0.00     0.200 A 
ATOM     97  F   UNL     1      -4.938 -24.957  10.124  1.00  0.00    -0.200 F 
ATOM     98  F   UNL     1      -7.355 -24.397  11.258  1.00  0.00    -0.200 F 
ENDBRANCH  65  88
ENDBRANCH  39  40
ENDBRANCH  31  34
ENDBRANCH  29  30
ENDBRANCH  28  29
ENDBRANCH  27  28
ENDBRANCH   1  27
TORSDOF 16
