REMARK SMILES O=C(NCCCCNC(=O)c1ccc(S(=O)(=O)Cc2ncccn2)c(F)c1)c1ccc(-c2c3nc(c(-c4c(F)c(F)c(F)c(F)c4F)c4ccc([nH]4)c(-c4c(F)c(F)c(F)c(F)c4F)c4nc(c(-c5c(F)c(F)c(F)c(F)c5F)c5ccc2[nH]5)C=C4)C=C3)cc1
REMARK SMILES IDX 6 1 5 2 4 3 3 4 1 5 2 6 28 8 29 9 90 10 30 11 89 12 31 13
REMARK SMILES IDX 32 14 33 15 83 16 34 17 88 18 82 19 84 20 35 21 87 22 81 23
REMARK SMILES IDX 80 24 36 26 68 27 48 28 67 29 49 30 52 31 66 32 85 33 50 34
REMARK SMILES IDX 51 35 65 37 86 38 53 39 37 40 38 41 46 42 39 43 40 44 44 45
REMARK SMILES IDX 47 46 41 47 42 48 45 49 43 50 69 51 70 52 78 53 71 54 72 55
REMARK SMILES IDX 76 56 79 57 73 58 74 59 77 60 75 61 54 62 55 63 63 64 56 65
REMARK SMILES IDX 57 66 61 67 64 68 58 69 59 70 62 71 60 72 7 73 8 74 9 75
REMARK SMILES IDX 10 77 11 78 12 79 27 80 13 81 25 82 14 83 26 84 15 85 16 86
REMARK SMILES IDX 17 87 18 88 19 89 20 90 24 91 21 92 23 93 22 94
REMARK H PARENT 3 7 84 25 52 36 8 76
REMARK Flexibility Score: inf
ROOT
ATOM      1  C   UNL     1       4.442  -3.770  -0.527  1.00  0.00     0.023 C 
ENDROOT
BRANCH   1   2
ATOM      2  C   UNL     1       4.929  -2.609   0.338  1.00  0.00     0.023 C 
BRANCH   2   3
ATOM      3  C   UNL     1       4.641  -1.216  -0.209  1.00  0.00     0.116 C 
BRANCH   3   4
ATOM      4  N   UNL     1       3.224  -0.954  -0.411  1.00  0.00    -0.352 N 
ATOM      5  O   UNL     1       1.258   0.135  -0.194  1.00  0.00    -0.269 OA
ATOM      6  C   UNL     1       2.472   0.129  -0.019  1.00  0.00     0.251 C 
ATOM      7  H   UNL     1       2.732  -1.652  -0.900  1.00  0.00     0.163 HD
BRANCH   6   8
ATOM      8  C   UNL     1       3.124   1.270   0.659  1.00  0.00     0.039 A 
ATOM      9  C   UNL     1       4.313   1.812   0.168  1.00  0.00     0.014 A 
ATOM     10  C   UNL     1       2.546   1.785   1.824  1.00  0.00     0.014 A 
ATOM     11  C   UNL     1       5.010   2.744   0.929  1.00  0.00     0.010 A 
ATOM     12  C   UNL     1       3.208   2.782   2.546  1.00  0.00     0.010 A 
ATOM     13  C   UNL     1       4.470   3.232   2.131  1.00  0.00    -0.014 A 
BRANCH  13  14
ATOM     14  C   UNL     1       5.249   4.212   2.929  1.00  0.00     0.031 A 
ATOM     15  C   UNL     1       5.798   3.846   4.281  1.00  0.00     0.074 A 
ATOM     16  C   UNL     1       5.517   5.419   2.398  1.00  0.00     0.049 A 
ATOM     17  N   UNL     1       6.548   4.557   5.086  1.00  0.00    -0.248 NA
ATOM     18  C   UNL     1       5.459   2.513   4.802  1.00  0.00     0.031 C 
ATOM     19  C   UNL     1       5.036   5.889   1.099  1.00  0.00     0.029 A 
ATOM     20  N   UNL     1       6.283   6.456   2.866  1.00  0.00    -0.354 N 
ATOM     21  C   UNL     1       6.753   3.770   6.211  1.00  0.00     0.074 A 
ATOM     22  C   UNL     1       6.031   2.534   5.999  1.00  0.00     0.031 C 
ATOM     23  C   UNL     1       5.568   7.093   0.844  1.00  0.00     0.029 A 
ATOM     24  C   UNL     1       6.386   7.501   1.982  1.00  0.00     0.049 A 
ATOM     25  H   UNL     1       6.717   6.451   3.750  1.00  0.00     0.167 HD
ATOM     26  C   UNL     1       7.486   4.050   7.316  1.00  0.00     0.037 A 
ATOM     27  C   UNL     1       7.068   8.658   2.073  1.00  0.00     0.037 A 
ATOM     28  C   UNL     1       8.224   5.269   7.516  1.00  0.00     0.049 A 
ATOM     29  C   UNL     1       7.882   8.938   3.301  1.00  0.00     0.074 A 
ATOM     30  C   UNL     1       9.000   5.641   8.601  1.00  0.00     0.029 A 
ATOM     31  N   UNL     1       8.284   6.314   6.606  1.00  0.00    -0.354 N 
ATOM     32  N   UNL     1       8.066   8.185   4.357  1.00  0.00    -0.248 NA
ATOM     33  C   UNL     1       8.581  10.229   3.353  1.00  0.00     0.031 C 
ATOM     34  C   UNL     1       9.508   6.922   8.360  1.00  0.00     0.029 A 
ATOM     35  C   UNL     1       9.079   7.332   7.108  1.00  0.00     0.049 A 
ATOM     36  H   UNL     1       7.829   6.331   5.733  1.00  0.00     0.167 HD
ATOM     37  C   UNL     1       8.907   8.902   5.195  1.00  0.00     0.074 A 
ATOM     38  C   UNL     1       9.213  10.146   4.516  1.00  0.00     0.031 C 
ATOM     39  C   UNL     1       9.377   8.562   6.419  1.00  0.00     0.037 A 
BRANCH  26  40
ATOM     40  C   UNL     1       7.524   3.020   8.406  1.00  0.00     0.064 A 
ATOM     41  C   UNL     1       6.850   3.240   9.617  1.00  0.00     0.173 A 
ATOM     42  C   UNL     1       8.274   1.842   8.276  1.00  0.00     0.173 A 
ATOM     43  F   UNL     1       6.124   4.354   9.793  1.00  0.00    -0.203 F 
ATOM     44  C   UNL     1       6.932   2.322  10.660  1.00  0.00     0.198 A 
ATOM     45  C   UNL     1       8.335   0.915   9.313  1.00  0.00     0.198 A 
ATOM     46  F   UNL     1       8.926   1.579   7.133  1.00  0.00    -0.203 F 
ATOM     47  F   UNL     1       6.299   2.564  11.816  1.00  0.00    -0.200 F 
ATOM     48  C   UNL     1       7.671   1.159  10.507  1.00  0.00     0.200 A 
ATOM     49  F   UNL     1       9.032  -0.219   9.156  1.00  0.00    -0.200 F 
ATOM     50  F   UNL     1       7.740   0.270  11.507  1.00  0.00    -0.200 F 
ENDBRANCH  26  40
BRANCH  27  51
ATOM     51  C   UNL     1       7.025   9.612   0.939  1.00  0.00     0.064 A 
ATOM     52  C   UNL     1       5.861  10.335   0.640  1.00  0.00     0.173 A 
ATOM     53  C   UNL     1       8.132   9.771   0.095  1.00  0.00     0.173 A 
ATOM     54  F   UNL     1       4.775  10.207   1.416  1.00  0.00    -0.203 F 
ATOM     55  C   UNL     1       5.798  11.162  -0.478  1.00  0.00     0.198 A 
ATOM     56  C   UNL     1       8.074  10.617  -1.010  1.00  0.00     0.198 A 
ATOM     57  F   UNL     1       9.270   9.111   0.352  1.00  0.00    -0.203 F 
ATOM     58  F   UNL     1       4.661  11.811  -0.765  1.00  0.00    -0.200 F 
ATOM     59  C   UNL     1       6.905  11.304  -1.301  1.00  0.00     0.200 A 
ATOM     60  F   UNL     1       9.151  10.765  -1.794  1.00  0.00    -0.200 F 
ATOM     61  F   UNL     1       6.844  12.102  -2.376  1.00  0.00    -0.200 F 
ENDBRANCH  27  51
BRANCH  39  62
ATOM     62  C   UNL     1      10.286   9.537   7.103  1.00  0.00     0.064 A 
ATOM     63  C   UNL     1      11.659   9.273   7.210  1.00  0.00     0.173 A 
ATOM     64  C   UNL     1       9.788  10.703   7.701  1.00  0.00     0.173 A 
ATOM     65  F   UNL     1      12.180   8.167   6.658  1.00  0.00    -0.203 F 
ATOM     66  C   UNL     1      12.501  10.139   7.901  1.00  0.00     0.198 A 
ATOM     67  C   UNL     1      10.636  11.578   8.373  1.00  0.00     0.198 A 
ATOM     68  F   UNL     1       8.483  11.002   7.613  1.00  0.00    -0.203 F 
ATOM     69  F   UNL     1      13.807   9.858   8.010  1.00  0.00    -0.200 F 
ATOM     70  C   UNL     1      11.990  11.292   8.479  1.00  0.00     0.200 A 
ATOM     71  F   UNL     1      10.146  12.702   8.914  1.00  0.00    -0.200 F 
ATOM     72  F   UNL     1      12.804  12.131   9.134  1.00  0.00    -0.200 F 
ENDBRANCH  39  62
ENDBRANCH  13  14
ENDBRANCH   6   8
ENDBRANCH   3   4
ENDBRANCH   2   3
ENDBRANCH   1   2
BRANCH   1  73
ATOM     73  C   UNL     1       4.853  -3.699  -1.996  1.00  0.00     0.116 C 
BRANCH  73  74
ATOM     74  N   UNL     1       6.298  -3.721  -2.169  1.00  0.00    -0.352 N 
ATOM     75  C   UNL     1       7.068  -4.686  -2.764  1.00  0.00     0.251 C 
ATOM     76  H   UNL     1       6.785  -2.942  -1.813  1.00  0.00     0.163 HD
ATOM     77  O   UNL     1       8.291  -4.622  -2.773  1.00  0.00    -0.269 OA
BRANCH  75  78
ATOM     78  C   UNL     1       6.388  -5.833  -3.382  1.00  0.00     0.042 A 
ATOM     79  C   UNL     1       5.666  -5.658  -4.569  1.00  0.00     0.015 A 
ATOM     80  C   UNL     1       6.410  -7.059  -2.720  1.00  0.00     0.054 A 
ATOM     81  C   UNL     1       4.917  -6.720  -5.074  1.00  0.00     0.024 A 
ATOM     82  C   UNL     1       5.648  -8.106  -3.223  1.00  0.00     0.142 A 
ATOM     83  C   UNL     1       4.902  -7.941  -4.386  1.00  0.00     0.103 A 
ATOM     84  F   UNL     1       5.630  -9.258  -2.542  1.00  0.00    -0.206 F 
BRANCH  83  85
ATOM     85  S   UNL     1       3.884  -9.248  -4.998  1.00  0.00     0.188 S 
ATOM     86  O   UNL     1       2.660  -9.145  -4.216  1.00  0.00    -0.223 OA
ATOM     87  O   UNL     1       3.802  -9.088  -6.442  1.00  0.00    -0.223 OA
BRANCH  85  88
ATOM     88  C   UNL     1       4.591 -10.816  -4.646  1.00  0.00     0.219 C 
BRANCH  88  89
ATOM     89  C   UNL     1       5.951 -10.985  -5.238  1.00  0.00     0.143 A 
ATOM     90  N   UNL     1       6.730  -9.920  -5.500  1.00  0.00    -0.240 NA
ATOM     91  N   UNL     1       6.381 -12.260  -5.344  1.00  0.00    -0.240 NA
ATOM     92  C   UNL     1       7.984 -10.162  -5.930  1.00  0.00     0.115 A 
ATOM     93  C   UNL     1       7.646 -12.450  -5.766  1.00  0.00     0.115 A 
ATOM     94  C   UNL     1       8.501 -11.424  -6.079  1.00  0.00     0.040 A 
ENDBRANCH  88  89
ENDBRANCH  85  88
ENDBRANCH  83  85
ENDBRANCH  75  78
ENDBRANCH  73  74
ENDBRANCH   1  73
TORSDOF 14
