REMARK SMILES Cc1cc(C)c2c(O[C@@H](C)C(=O)NCCCCNC(=O)c3ccc(-c4c5nc(c(-c6c(F)c(F)c(F)c(F)c6F)c6ccc([nH]6)c(-c6c(F)c(F)c(F)c(F)c6F)c6nc(c(-c7c(F)c(F)c(F)c(F)c7F)c7ccc4[nH]7)C=C6)C=C5)cc3)nsc2n1
REMARK SMILES IDX 15 1 14 2 13 3 11 4 12 5 9 7 10 8 8 9 7 10 1 11 2 12 3 13
REMARK SMILES IDX 87 14 4 15 86 16 5 17 6 18 85 19 84 20 16 21 17 22 18 23
REMARK SMILES IDX 19 24 20 26 21 27 22 28 83 29 23 30 82 31 24 32 25 33 26 34
REMARK SMILES IDX 76 35 27 36 81 37 75 38 77 39 28 40 80 41 74 42 73 43 29 45
REMARK SMILES IDX 61 46 41 47 60 48 42 49 45 50 59 51 78 52 43 53 44 54 58 56
REMARK SMILES IDX 79 57 46 58 30 59 31 60 39 61 32 62 33 63 37 64 40 65 34 66
REMARK SMILES IDX 35 67 38 68 36 69 62 70 63 71 71 72 64 73 65 74 69 75 72 76
REMARK SMILES IDX 66 77 67 78 70 79 68 80 47 81 48 82 56 83 49 84 50 85 54 86
REMARK SMILES IDX 57 87 51 88 52 89 55 90 53 91
REMARK H PARENT 13 6 18 25 77 44 45 55
REMARK Flexibility Score: inf
ROOT
ATOM      1  C   UNL     1      -1.551   4.144   0.828  1.00  0.00     0.023 C 
ENDROOT
BRANCH   1   2
ATOM      2  C   UNL     1      -2.199   3.577  -0.441  1.00  0.00     0.116 C 
BRANCH   2   3
ATOM      3  N   UNL     1      -3.187   4.400  -1.099  1.00  0.00    -0.353 N 
ATOM      4  C   UNL     1      -3.224   4.708  -2.436  1.00  0.00     0.260 C 
ATOM      5  O   UNL     1      -4.324   4.628  -2.994  1.00  0.00    -0.271 OA
ATOM      6  H   UNL     1      -3.901   4.776  -0.536  1.00  0.00     0.163 HD
BRANCH   4   7
ATOM      7  C   UNL     1      -1.989   5.290  -3.195  1.00  0.00     0.260 C 
ATOM      8  C   UNL     1      -1.832   4.885  -4.665  1.00  0.00     0.064 C 
BRANCH   7   9
ATOM      9  O   UNL     1      -0.798   5.655  -2.573  1.00  0.00    -0.463 OA
BRANCH   9  10
ATOM     10  C   UNL     1       0.284   4.867  -2.403  1.00  0.00     0.235 A 
ATOM     11  C   UNL     1       2.402  -0.267  -1.224  1.00  0.00     0.067 C 
ATOM     12  C   UNL     1       1.797   1.004  -1.741  1.00  0.00     0.039 A 
ATOM     13  C   UNL     1       0.614   0.985  -2.461  1.00  0.00     0.027 A 
ATOM     14  N   UNL     1       2.418   2.134  -1.400  1.00  0.00    -0.240 NA
ATOM     15  C   UNL     1      -0.042   2.183  -2.838  1.00  0.00    -0.034 A 
ATOM     16  C   UNL     1       1.800   3.265  -1.777  1.00  0.00     0.147 A 
ATOM     17  C   UNL     1      -1.318   1.970  -3.614  1.00  0.00     0.045 C 
ATOM     18  C   UNL     1       0.575   3.424  -2.446  1.00  0.00     0.078 A 
ATOM     19  S   UNL     1       2.505   4.762  -1.409  1.00  0.00    -0.012 S 
ATOM     20  N   UNL     1       1.256   5.662  -1.956  1.00  0.00    -0.153 NA
ENDBRANCH   9  10
ENDBRANCH   7   9
ENDBRANCH   4   7
ENDBRANCH   2   3
ENDBRANCH   1   2
BRANCH   1  21
ATOM     21  C   UNL     1      -1.692   3.231   2.063  1.00  0.00     0.023 C 
BRANCH  21  22
ATOM     22  C   UNL     1      -1.166   1.811   1.869  1.00  0.00     0.116 C 
BRANCH  22  23
ATOM     23  N   UNL     1       0.233   1.577   2.199  1.00  0.00    -0.352 N 
ATOM     24  C   UNL     1       0.861   0.342   2.336  1.00  0.00     0.251 C 
ATOM     25  H   UNL     1       0.793   2.375   2.339  1.00  0.00     0.163 HD
ATOM     26  O   UNL     1       1.956   0.234   2.857  1.00  0.00    -0.269 OA
BRANCH  24  27
ATOM     27  C   UNL     1       0.172  -0.866   1.816  1.00  0.00     0.039 A 
ATOM     28  C   UNL     1       0.218  -2.090   2.487  1.00  0.00     0.014 A 
ATOM     29  C   UNL     1      -0.520  -0.761   0.611  1.00  0.00     0.014 A 
ATOM     30  C   UNL     1      -0.525  -3.161   1.988  1.00  0.00     0.010 A 
ATOM     31  C   UNL     1      -1.345  -1.764   0.183  1.00  0.00     0.010 A 
ATOM     32  C   UNL     1      -1.327  -2.977   0.851  1.00  0.00    -0.014 A 
BRANCH  32  33
ATOM     33  C   UNL     1      -2.292  -3.984   0.434  1.00  0.00     0.031 A 
ATOM     34  C   UNL     1      -3.301  -4.337   1.472  1.00  0.00     0.074 A 
ATOM     35  C   UNL     1      -2.457  -4.353  -0.853  1.00  0.00     0.049 A 
ATOM     36  N   UNL     1      -3.495  -5.487   2.026  1.00  0.00    -0.248 NA
ATOM     37  C   UNL     1      -4.123  -3.256   2.044  1.00  0.00     0.031 C 
ATOM     38  C   UNL     1      -1.795  -3.844  -2.059  1.00  0.00     0.029 A 
ATOM     39  N   UNL     1      -3.372  -5.217  -1.362  1.00  0.00    -0.354 N 
ATOM     40  C   UNL     1      -4.561  -5.323   2.908  1.00  0.00     0.074 A 
ATOM     41  C   UNL     1      -4.811  -3.906   2.985  1.00  0.00     0.031 C 
ATOM     42  C   UNL     1      -2.488  -4.232  -3.154  1.00  0.00     0.029 A 
ATOM     43  C   UNL     1      -3.536  -5.146  -2.737  1.00  0.00     0.049 A 
ATOM     44  H   UNL     1      -3.878  -5.846  -0.799  1.00  0.00     0.167 HD
ATOM     45  C   UNL     1      -5.284  -6.387   3.354  1.00  0.00     0.037 A 
ATOM     46  C   UNL     1      -4.509  -5.761  -3.454  1.00  0.00     0.037 A 
ATOM     47  C   UNL     1      -4.598  -7.628   3.106  1.00  0.00     0.049 A 
ATOM     48  C   UNL     1      -5.020  -6.882  -2.618  1.00  0.00     0.074 A 
ATOM     49  C   UNL     1      -3.381  -8.148   3.504  1.00  0.00     0.029 A 
ATOM     50  N   UNL     1      -4.974  -8.372   2.013  1.00  0.00    -0.354 N 
ATOM     51  N   UNL     1      -4.301  -7.921  -2.287  1.00  0.00    -0.248 NA
ATOM     52  C   UNL     1      -6.156  -6.605  -1.748  1.00  0.00     0.031 C 
ATOM     53  C   UNL     1      -2.860  -8.783   2.337  1.00  0.00     0.029 A 
ATOM     54  C   UNL     1      -3.822  -8.680   1.332  1.00  0.00     0.049 A 
ATOM     55  H   UNL     1      -5.891  -8.634   1.766  1.00  0.00     0.167 HD
ATOM     56  C   UNL     1      -4.627  -8.171  -0.962  1.00  0.00     0.074 A 
ATOM     57  C   UNL     1      -5.823  -7.370  -0.704  1.00  0.00     0.031 C 
ATOM     58  C   UNL     1      -3.742  -8.766  -0.107  1.00  0.00     0.037 A 
BRANCH  45  59
ATOM     59  C   UNL     1      -6.743  -6.340   3.719  1.00  0.00     0.064 A 
ATOM     60  C   UNL     1      -7.330  -7.435   4.382  1.00  0.00     0.173 A 
ATOM     61  C   UNL     1      -7.643  -5.393   3.186  1.00  0.00     0.173 A 
ATOM     62  F   UNL     1      -6.565  -8.407   4.904  1.00  0.00    -0.203 F 
ATOM     63  C   UNL     1      -8.716  -7.600   4.448  1.00  0.00     0.198 A 
ATOM     64  C   UNL     1      -9.024  -5.533   3.301  1.00  0.00     0.198 A 
ATOM     65  F   UNL     1      -7.227  -4.364   2.437  1.00  0.00    -0.203 F 
ATOM     66  F   UNL     1      -9.229  -8.717   4.982  1.00  0.00    -0.200 F 
ATOM     67  C   UNL     1      -9.562  -6.651   3.904  1.00  0.00     0.200 A 
ATOM     68  F   UNL     1      -9.827  -4.613   2.748  1.00  0.00    -0.200 F 
ATOM     69  F   UNL     1     -10.888  -6.835   3.914  1.00  0.00    -0.200 F 
ENDBRANCH  45  59
BRANCH  46  70
ATOM     70  C   UNL     1      -5.259  -5.204  -4.608  1.00  0.00     0.064 A 
ATOM     71  C   UNL     1      -6.055  -6.026  -5.422  1.00  0.00     0.173 A 
ATOM     72  C   UNL     1      -5.431  -3.814  -4.770  1.00  0.00     0.173 A 
ATOM     73  F   UNL     1      -5.988  -7.360  -5.301  1.00  0.00    -0.203 F 
ATOM     74  C   UNL     1      -6.981  -5.490  -6.325  1.00  0.00     0.198 A 
ATOM     75  C   UNL     1      -6.351  -3.281  -5.674  1.00  0.00     0.198 A 
ATOM     76  F   UNL     1      -4.777  -2.942  -3.988  1.00  0.00    -0.203 F 
ATOM     77  F   UNL     1      -7.765  -6.307  -7.043  1.00  0.00    -0.200 F 
ATOM     78  C   UNL     1      -7.136  -4.119  -6.442  1.00  0.00     0.200 A 
ATOM     79  F   UNL     1      -6.514  -1.952  -5.749  1.00  0.00    -0.200 F 
ATOM     80  F   UNL     1      -8.065  -3.606  -7.261  1.00  0.00    -0.200 F 
ENDBRANCH  46  70
BRANCH  58  81
ATOM     81  C   UNL     1      -2.466  -9.332  -0.672  1.00  0.00     0.064 A 
ATOM     82  C   UNL     1      -1.471  -8.556  -1.293  1.00  0.00     0.173 A 
ATOM     83  C   UNL     1      -2.155 -10.670  -0.402  1.00  0.00     0.173 A 
ATOM     84  F   UNL     1      -1.643  -7.246  -1.497  1.00  0.00    -0.203 F 
ATOM     85  C   UNL     1      -0.238  -9.101  -1.650  1.00  0.00     0.198 A 
ATOM     86  C   UNL     1      -0.910 -11.205  -0.728  1.00  0.00     0.198 A 
ATOM     87  F   UNL     1      -3.041 -11.448   0.240  1.00  0.00    -0.203 F 
ATOM     88  F   UNL     1       0.692  -8.333  -2.237  1.00  0.00    -0.200 F 
ATOM     89  C   UNL     1       0.044 -10.423  -1.357  1.00  0.00     0.200 A 
ATOM     90  F   UNL     1      -0.623 -12.471  -0.395  1.00  0.00    -0.200 F 
ATOM     91  F   UNL     1       1.248 -10.935  -1.652  1.00  0.00    -0.200 F 
ENDBRANCH  58  81
ENDBRANCH  32  33
ENDBRANCH  24  27
ENDBRANCH  22  23
ENDBRANCH  21  22
ENDBRANCH   1  21
TORSDOF 13
