REMARK SMILES Cc1nn(C)c(C)c1CN(C)C(=O)[C@@H]1CC=CC[C@@H]1C(=O)NCCCCNC(=O)c1ccc(-c2c3nc(c(-c4c(F)c(F)c(F)c(F)c4F)c4ccc([nH]4)c(-c4c(F)c(F)c(F)c(F)c4F)c4nc(c(-c5c(F)c(F)c(F)c(F)c5F)c5ccc2[nH]5)C=C4)C=C3)cc1
REMARK SMILES IDX 23 1 22 2 20 3 21 4 19 6 14 7 15 8 16 9 18 10 17 11 12 12
REMARK SMILES IDX 13 13 10 14 11 15 9 16 8 17 1 18 2 19 3 20 4 21 6 22 5 23
REMARK SMILES IDX 7 24 24 25 25 26 26 27 27 28 28 29 29 31 30 32 31 33 92 34
REMARK SMILES IDX 32 35 91 36 33 37 34 38 35 39 85 40 36 41 90 42 84 43 86 44
REMARK SMILES IDX 37 45 89 46 83 47 82 48 38 50 70 51 50 52 69 53 51 54 54 55
REMARK SMILES IDX 68 56 87 57 52 58 53 59 67 61 88 62 55 63 39 64 40 65 48 66
REMARK SMILES IDX 41 67 42 68 46 69 49 70 43 71 44 72 47 73 45 74 71 75 72 76
REMARK SMILES IDX 80 77 73 78 74 79 78 80 81 81 75 82 76 83 79 84 77 85 56 86
REMARK SMILES IDX 57 87 65 88 58 89 59 90 63 91 66 92 60 93 61 94 64 95 62 96
REMARK H PARENT 22 5 27 30 86 49 54 60
REMARK Flexibility Score: inf
ROOT
ATOM      1  C   UNL     1       3.941   1.367   5.018  1.00  0.00     0.116 C 
ENDROOT
BRANCH   1   2
ATOM      2  N   UNL     1       3.248   2.409   5.748  1.00  0.00    -0.356 N 
ATOM      3  C   UNL     1       1.984   2.895   5.589  1.00  0.00     0.224 C 
ATOM      4  O   UNL     1       1.580   3.676   6.445  1.00  0.00    -0.275 OA
ATOM      5  H   UNL     1       3.770   2.830   6.469  1.00  0.00     0.163 HD
BRANCH   3   6
ATOM      6  C   UNL     1       1.161   2.437   4.384  1.00  0.00     0.095 C 
ATOM      7  C   UNL     1       0.009   3.401   4.015  1.00  0.00     0.095 C 
ATOM      8  C   UNL     1      -1.093   3.417   5.089  1.00  0.00     0.041 C 
ATOM      9  C   UNL     1      -1.416   2.043   5.614  1.00  0.00    -0.030 C 
ATOM     10  C   UNL     1       0.625   1.014   4.606  1.00  0.00     0.041 C 
ATOM     11  C   UNL     1      -0.656   0.963   5.381  1.00  0.00    -0.030 C 
BRANCH   7  12
ATOM     12  C   UNL     1       0.574   4.796   3.724  1.00  0.00     0.226 C 
ATOM     13  O   UNL     1       0.499   5.700   4.554  1.00  0.00    -0.275 OA
BRANCH  12  14
ATOM     14  N   UNL     1       1.253   4.967   2.516  1.00  0.00    -0.341 N 
ATOM     15  C   UNL     1       1.101   4.093   1.362  1.00  0.00     0.147 C 
BRANCH  14  16
ATOM     16  C   UNL     1       2.116   6.140   2.377  1.00  0.00     0.158 C 
BRANCH  16  17
ATOM     17  C   UNL     1       1.362   7.416   2.188  1.00  0.00     0.015 A 
ATOM     18  C   UNL     1       2.237   8.788   4.265  1.00  0.00     0.069 C 
ATOM     19  C   UNL     1       1.440   8.569   3.029  1.00  0.00     0.065 A 
ATOM     20  N   UNL     1       0.675   9.567   2.576  1.00  0.00    -0.178 NA
ATOM     21  N   UNL     1       0.059   9.053   1.504  1.00  0.00    -0.272 N 
ATOM     22  C   UNL     1       0.490   7.793   1.173  1.00  0.00     0.040 A 
ATOM     23  C   UNL     1      -0.943   9.863   0.853  1.00  0.00     0.174 C 
ATOM     24  C   UNL     1       0.020   7.077  -0.037  1.00  0.00     0.067 C 
ENDBRANCH  16  17
ENDBRANCH  14  16
ENDBRANCH  12  14
ENDBRANCH   7  12
ENDBRANCH   3   6
ENDBRANCH   1   2
BRANCH   1  25
ATOM     25  C   UNL     1       5.395   1.723   4.728  1.00  0.00     0.023 C 
BRANCH  25  26
ATOM     26  C   UNL     1       6.240   2.068   5.955  1.00  0.00     0.023 C 
BRANCH  26  27
ATOM     27  C   UNL     1       6.149   1.083   7.114  1.00  0.00     0.116 C 
BRANCH  27  28
ATOM     28  N   UNL     1       6.572  -0.261   6.753  1.00  0.00    -0.352 N 
ATOM     29  C   UNL     1       7.525  -1.062   7.334  1.00  0.00     0.251 C 
ATOM     30  H   UNL     1       6.108  -0.654   5.978  1.00  0.00     0.163 HD
ATOM     31  O   UNL     1       7.842  -2.124   6.807  1.00  0.00    -0.269 OA
BRANCH  29  32
ATOM     32  C   UNL     1       8.196  -0.625   8.576  1.00  0.00     0.039 A 
ATOM     33  C   UNL     1       9.588  -0.715   8.656  1.00  0.00     0.014 A 
ATOM     34  C   UNL     1       7.462  -0.111   9.648  1.00  0.00     0.014 A 
ATOM     35  C   UNL     1      10.250  -0.215   9.779  1.00  0.00     0.010 A 
ATOM     36  C   UNL     1       8.127   0.459  10.730  1.00  0.00     0.010 A 
ATOM     37  C   UNL     1       9.528   0.415  10.806  1.00  0.00    -0.014 A 
BRANCH  37  38
ATOM     38  C   UNL     1      10.219   1.044  11.961  1.00  0.00     0.031 A 
ATOM     39  C   UNL     1       9.987   0.526  13.353  1.00  0.00     0.074 A 
ATOM     40  C   UNL     1      10.995   2.127  11.765  1.00  0.00     0.049 A 
ATOM     41  N   UNL     1      10.432   0.990  14.494  1.00  0.00    -0.248 NA
ATOM     42  C   UNL     1       9.117  -0.653  13.483  1.00  0.00     0.031 C 
ATOM     43  C   UNL     1      11.257   2.758  10.470  1.00  0.00     0.029 A 
ATOM     44  N   UNL     1      11.696   2.901  12.658  1.00  0.00    -0.354 N 
ATOM     45  C   UNL     1       9.882   0.173  15.473  1.00  0.00     0.074 A 
ATOM     46  C   UNL     1       9.031  -0.783  14.799  1.00  0.00     0.031 C 
ATOM     47  C   UNL     1      12.074   3.808  10.649  1.00  0.00     0.029 A 
ATOM     48  C   UNL     1      12.362   3.950  12.073  1.00  0.00     0.049 A 
ATOM     49  H   UNL     1      11.719   2.720  13.625  1.00  0.00     0.167 HD
ATOM     50  C   UNL     1      10.086   0.204  16.812  1.00  0.00     0.037 A 
ATOM     51  C   UNL     1      13.112   4.925  12.624  1.00  0.00     0.037 A 
ATOM     52  C   UNL     1      10.955   1.139  17.477  1.00  0.00     0.049 A 
ATOM     53  C   UNL     1      13.323   4.936  14.114  1.00  0.00     0.074 A 
ATOM     54  C   UNL     1      11.282   1.206  18.820  1.00  0.00     0.029 A 
ATOM     55  N   UNL     1      11.633   2.173  16.848  1.00  0.00    -0.354 N 
ATOM     56  N   UNL     1      12.859   4.112  15.021  1.00  0.00    -0.248 NA
ATOM     57  C   UNL     1      14.169   6.009  14.655  1.00  0.00     0.031 C 
ATOM     58  C   UNL     1      12.118   2.311  19.012  1.00  0.00     0.029 A 
ATOM     59  C   UNL     1      12.357   2.899  17.780  1.00  0.00     0.049 A 
ATOM     60  H   UNL     1      11.603   2.363  15.882  1.00  0.00     0.167 HD
ATOM     61  C   UNL     1      13.376   4.548  16.234  1.00  0.00     0.074 A 
ATOM     62  C   UNL     1      14.203   5.701  15.944  1.00  0.00     0.031 C 
ATOM     63  C   UNL     1      13.183   4.039  17.475  1.00  0.00     0.037 A 
BRANCH  50  64
ATOM     64  C   UNL     1       9.358  -0.807  17.650  1.00  0.00     0.064 A 
ATOM     65  C   UNL     1       9.684  -2.172  17.606  1.00  0.00     0.173 A 
ATOM     66  C   UNL     1       8.351  -0.403  18.539  1.00  0.00     0.173 A 
ATOM     67  F   UNL     1      10.632  -2.613  16.766  1.00  0.00    -0.203 F 
ATOM     68  C   UNL     1       9.009  -3.096  18.399  1.00  0.00     0.198 A 
ATOM     69  C   UNL     1       7.699  -1.326  19.353  1.00  0.00     0.198 A 
ATOM     70  F   UNL     1       8.004   0.890  18.625  1.00  0.00    -0.203 F 
ATOM     71  F   UNL     1       9.304  -4.400  18.303  1.00  0.00    -0.200 F 
ATOM     72  C   UNL     1       8.023  -2.672  19.277  1.00  0.00     0.200 A 
ATOM     73  F   UNL     1       6.756  -0.912  20.211  1.00  0.00    -0.200 F 
ATOM     74  F   UNL     1       7.380  -3.562  20.046  1.00  0.00    -0.200 F 
ENDBRANCH  50  64
BRANCH  51  75
ATOM     75  C   UNL     1      13.736   5.960  11.759  1.00  0.00     0.064 A 
ATOM     76  C   UNL     1      15.124   6.000  11.572  1.00  0.00     0.173 A 
ATOM     77  C   UNL     1      12.961   6.931  11.107  1.00  0.00     0.173 A 
ATOM     78  F   UNL     1      15.909   5.106  12.190  1.00  0.00    -0.203 F 
ATOM     79  C   UNL     1      15.717   6.984  10.783  1.00  0.00     0.198 A 
ATOM     80  C   UNL     1      13.553   7.897  10.295  1.00  0.00     0.198 A 
ATOM     81  F   UNL     1      11.628   6.934  11.249  1.00  0.00    -0.203 F 
ATOM     82  F   UNL     1      17.050   7.027  10.659  1.00  0.00    -0.200 F 
ATOM     83  C   UNL     1      14.930   7.928  10.141  1.00  0.00     0.200 A 
ATOM     84  F   UNL     1      12.787   8.798   9.664  1.00  0.00    -0.200 F 
ATOM     85  F   UNL     1      15.500   8.872   9.378  1.00  0.00    -0.200 F 
ENDBRANCH  51  75
BRANCH  63  86
ATOM     86  C   UNL     1      13.907   4.700  18.612  1.00  0.00     0.064 A 
ATOM     87  C   UNL     1      13.535   5.966  19.087  1.00  0.00     0.173 A 
ATOM     88  C   UNL     1      14.958   4.037  19.264  1.00  0.00     0.173 A 
ATOM     89  F   UNL     1      12.546   6.648  18.488  1.00  0.00    -0.203 F 
ATOM     90  C   UNL     1      14.204   6.554  20.157  1.00  0.00     0.198 A 
ATOM     91  C   UNL     1      15.604   4.614  20.353  1.00  0.00     0.198 A 
ATOM     92  F   UNL     1      15.349   2.821  18.854  1.00  0.00    -0.203 F 
ATOM     93  F   UNL     1      13.862   7.785  20.564  1.00  0.00    -0.200 F 
ATOM     94  C   UNL     1      15.232   5.875  20.794  1.00  0.00     0.200 A 
ATOM     95  F   UNL     1      16.587   3.950  20.977  1.00  0.00    -0.200 F 
ATOM     96  F   UNL     1      15.868   6.439  21.830  1.00  0.00    -0.200 F 
ENDBRANCH  63  86
ENDBRANCH  37  38
ENDBRANCH  29  32
ENDBRANCH  27  28
ENDBRANCH  26  27
ENDBRANCH  25  26
ENDBRANCH   1  25
TORSDOF 15
