REMARK SMILES O=C(NCCCCNC(=O)c1[nH]nc2c1CCC2)c1ccc(-c2c3nc(c(-c4c(F)c(F)c(F)c(F)c4F)c4ccc([nH]4)c(-c4c(F)c(F)c(F)c(F)c4F)c4nc(c(-c5c(F)c(F)c(F)c(F)c5F)c5ccc2[nH]5)C=C4)C=C3)cc1
REMARK SMILES IDX 4 1 3 2 1 3 2 4 19 6 20 7 81 8 21 9 80 10 22 11 23 12 24 13
REMARK SMILES IDX 74 14 25 15 79 16 73 17 75 18 26 19 78 20 72 21 71 22 27 24
REMARK SMILES IDX 59 25 39 26 58 27 40 28 43 29 57 30 76 31 41 32 42 33 56 35
REMARK SMILES IDX 77 36 44 37 28 38 29 39 37 40 30 41 31 42 35 43 38 44 32 45
REMARK SMILES IDX 33 46 36 47 34 48 60 49 61 50 69 51 62 52 63 53 67 54 70 55
REMARK SMILES IDX 64 56 65 57 68 58 66 59 45 60 46 61 54 62 47 63 48 64 52 65
REMARK SMILES IDX 55 66 49 67 50 68 53 69 51 70 5 71 6 72 7 73 8 74 9 75 10 77
REMARK SMILES IDX 11 78 12 79 15 80 13 81 14 83 16 84 18 85 17 86
REMARK H PARENT 3 5 75 23 43 34 8 76 12 82
REMARK Flexibility Score: inf
ROOT
ATOM      1  C   UNL     1       4.743  -0.941  -0.146  1.00  0.00     0.116 C 
ENDROOT
BRANCH   1   2
ATOM      2  N   UNL     1       3.341  -0.797  -0.476  1.00  0.00    -0.352 N 
ATOM      3  O   UNL     1       1.288   0.011  -0.651  1.00  0.00    -0.269 OA
ATOM      4  C   UNL     1       2.319  -0.038   0.024  1.00  0.00     0.251 C 
ATOM      5  H   UNL     1       3.061  -1.371  -1.225  1.00  0.00     0.163 HD
BRANCH   4   6
ATOM      6  C   UNL     1       2.338   0.639   1.347  1.00  0.00     0.039 A 
ATOM      7  C   UNL     1       3.475   0.912   2.107  1.00  0.00     0.014 A 
ATOM      8  C   UNL     1       1.078   0.994   1.866  1.00  0.00     0.014 A 
ATOM      9  C   UNL     1       3.355   1.420   3.396  1.00  0.00     0.010 A 
ATOM     10  C   UNL     1       0.950   1.521   3.144  1.00  0.00     0.010 A 
ATOM     11  C   UNL     1       2.091   1.701   3.919  1.00  0.00    -0.014 A 
BRANCH  11  12
ATOM     12  C   UNL     1       2.017   2.429   5.184  1.00  0.00     0.031 A 
ATOM     13  C   UNL     1       2.550   3.816   5.073  1.00  0.00     0.074 A 
ATOM     14  C   UNL     1       1.388   1.959   6.281  1.00  0.00     0.049 A 
ATOM     15  N   UNL     1       3.550   4.334   5.706  1.00  0.00    -0.248 NA
ATOM     16  C   UNL     1       2.005   4.688   4.016  1.00  0.00     0.031 C 
ATOM     17  C   UNL     1       0.605   0.725   6.377  1.00  0.00     0.029 A 
ATOM     18  N   UNL     1       1.211   2.529   7.512  1.00  0.00    -0.354 N 
ATOM     19  C   UNL     1       3.623   5.662   5.281  1.00  0.00     0.074 A 
ATOM     20  C   UNL     1       2.790   5.761   4.117  1.00  0.00     0.031 C 
ATOM     21  C   UNL     1      -0.148   0.760   7.498  1.00  0.00     0.029 A 
ATOM     22  C   UNL     1       0.179   1.958   8.253  1.00  0.00     0.049 A 
ATOM     23  H   UNL     1       1.762   3.274   7.844  1.00  0.00     0.167 HD
ATOM     24  C   UNL     1       4.094   6.621   6.125  1.00  0.00     0.037 A 
ATOM     25  C   UNL     1      -0.411   2.466   9.366  1.00  0.00     0.037 A 
ATOM     26  C   UNL     1       4.862   6.015   7.185  1.00  0.00     0.049 A 
ATOM     27  C   UNL     1       0.514   3.466   9.944  1.00  0.00     0.074 A 
ATOM     28  C   UNL     1       6.055   5.339   7.314  1.00  0.00     0.029 A 
ATOM     29  N   UNL     1       4.132   5.760   8.312  1.00  0.00    -0.354 N 
ATOM     30  N   UNL     1       1.645   3.164  10.514  1.00  0.00    -0.248 NA
ATOM     31  C   UNL     1       0.351   4.869   9.584  1.00  0.00     0.031 C 
ATOM     32  C   UNL     1       5.896   4.481   8.447  1.00  0.00     0.029 A 
ATOM     33  C   UNL     1       4.633   4.696   8.997  1.00  0.00     0.049 A 
ATOM     34  H   UNL     1       3.345   6.280   8.593  1.00  0.00     0.167 HD
ATOM     35  C   UNL     1       2.489   4.200  10.165  1.00  0.00     0.074 A 
ATOM     36  C   UNL     1       1.604   5.290   9.768  1.00  0.00     0.031 C 
ATOM     37  C   UNL     1       3.810   3.950   9.921  1.00  0.00     0.037 A 
BRANCH  24  38
ATOM     38  C   UNL     1       3.379   7.955   6.366  1.00  0.00     0.064 A 
ATOM     39  C   UNL     1       3.888   8.803   7.378  1.00  0.00     0.173 A 
ATOM     40  C   UNL     1       2.059   8.246   5.956  1.00  0.00     0.173 A 
ATOM     41  F   UNL     1       5.134   8.638   7.845  1.00  0.00    -0.203 F 
ATOM     42  C   UNL     1       3.090   9.755   8.022  1.00  0.00     0.198 A 
ATOM     43  C   UNL     1       1.281   9.227   6.573  1.00  0.00     0.198 A 
ATOM     44  F   UNL     1       1.417   7.542   5.020  1.00  0.00    -0.203 F 
ATOM     45  F   UNL     1       3.571  10.420   9.081  1.00  0.00    -0.200 F 
ATOM     46  C   UNL     1       1.780   9.951   7.632  1.00  0.00     0.200 A 
ATOM     47  F   UNL     1       0.007   9.393   6.186  1.00  0.00    -0.200 F 
ATOM     48  F   UNL     1       0.987  10.800   8.299  1.00  0.00    -0.200 F 
ENDBRANCH  24  38
BRANCH  25  49
ATOM     49  C   UNL     1      -1.816   2.342   9.837  1.00  0.00     0.064 A 
ATOM     50  C   UNL     1      -2.184   2.720  11.142  1.00  0.00     0.173 A 
ATOM     51  C   UNL     1      -2.875   2.124   8.935  1.00  0.00     0.173 A 
ATOM     52  F   UNL     1      -1.244   2.991  12.059  1.00  0.00    -0.203 F 
ATOM     53  C   UNL     1      -3.523   2.902  11.508  1.00  0.00     0.198 A 
ATOM     54  C   UNL     1      -4.210   2.296   9.304  1.00  0.00     0.198 A 
ATOM     55  F   UNL     1      -2.635   1.835   7.649  1.00  0.00    -0.203 F 
ATOM     56  F   UNL     1      -3.828   3.333  12.740  1.00  0.00    -0.200 F 
ATOM     57  C   UNL     1      -4.535   2.701  10.585  1.00  0.00     0.200 A 
ATOM     58  F   UNL     1      -5.177   2.133   8.389  1.00  0.00    -0.200 F 
ATOM     59  F   UNL     1      -5.812   2.939  10.913  1.00  0.00    -0.200 F 
ENDBRANCH  25  49
BRANCH  37  60
ATOM     60  C   UNL     1       4.395   2.716  10.533  1.00  0.00     0.064 A 
ATOM     61  C   UNL     1       4.000   1.404  10.226  1.00  0.00     0.173 A 
ATOM     62  C   UNL     1       5.458   2.883  11.431  1.00  0.00     0.173 A 
ATOM     63  F   UNL     1       3.056   1.162   9.306  1.00  0.00    -0.203 F 
ATOM     64  C   UNL     1       4.608   0.312  10.841  1.00  0.00     0.198 A 
ATOM     65  C   UNL     1       6.091   1.790  12.009  1.00  0.00     0.198 A 
ATOM     66  F   UNL     1       5.905   4.115  11.724  1.00  0.00    -0.203 F 
ATOM     67  F   UNL     1       4.196  -0.933  10.560  1.00  0.00    -0.200 F 
ATOM     68  C   UNL     1       5.656   0.506  11.727  1.00  0.00     0.200 A 
ATOM     69  F   UNL     1       7.135   1.983  12.827  1.00  0.00    -0.200 F 
ATOM     70  F   UNL     1       6.262  -0.546  12.294  1.00  0.00    -0.200 F 
ENDBRANCH  37  60
ENDBRANCH  11  12
ENDBRANCH   4   6
ENDBRANCH   1   2
BRANCH   1  71
ATOM     71  C   UNL     1       5.045  -1.892   1.013  1.00  0.00     0.023 C 
BRANCH  71  72
ATOM     72  C   UNL     1       4.548  -3.326   0.830  1.00  0.00     0.023 C 
BRANCH  72  73
ATOM     73  C   UNL     1       4.954  -3.997  -0.478  1.00  0.00     0.116 C 
BRANCH  73  74
ATOM     74  N   UNL     1       6.391  -4.154  -0.610  1.00  0.00    -0.351 N 
ATOM     75  C   UNL     1       7.101  -5.290  -0.920  1.00  0.00     0.269 C 
ATOM     76  H   UNL     1       6.926  -3.342  -0.459  1.00  0.00     0.163 HD
ATOM     77  O   UNL     1       8.314  -5.284  -0.759  1.00  0.00    -0.268 OA
BRANCH  75  78
ATOM     78  C   UNL     1       6.381  -6.451  -1.354  1.00  0.00     0.126 A 
ATOM     79  N   UNL     1       6.656  -7.715  -0.865  1.00  0.00    -0.272 N 
ATOM     80  C   UNL     1       5.375  -6.661  -2.261  1.00  0.00     0.006 A 
ATOM     81  N   UNL     1       5.773  -8.669  -1.263  1.00  0.00    -0.180 NA
ATOM     82  H   UNL     1       7.424  -7.906  -0.279  1.00  0.00     0.190 HD
ATOM     83  C   UNL     1       5.017  -8.001  -2.119  1.00  0.00     0.066 A 
ATOM     84  C   UNL     1       4.520  -5.976  -3.249  1.00  0.00     0.040 C 
ATOM     85  C   UNL     1       3.833  -8.370  -2.918  1.00  0.00     0.059 C 
ATOM     86  C   UNL     1       3.303  -6.955  -3.336  1.00  0.00     0.011 C 
ENDBRANCH  75  78
ENDBRANCH  73  74
ENDBRANCH  72  73
ENDBRANCH  71  72
ENDBRANCH   1  71
TORSDOF 11
