REMARK SMILES O=C(NCCCCNC(=O)c1cc(Cl)c2c(c1)[C@H]1C=CC[C@H]1[C@H](c1ccc(S(=O)(=O)N3CCOCC3)cc1)N2)c1ccc(-c2c3nc(c(-c4c(F)c(F)c(F)c(F)c4F)c4ccc([nH]4)c(-c4c(F)c(F)c(F)c(F)c4F)c4nc(c(-c5c(F)c(F)c(F)c(F)c5F)c5ccc2[nH]5)C=C4)C=C3)cc1
REMARK SMILES IDX 6 1 5 2 4 3 3 4 1 5 2 6 40 8 41 9 102 10 42 11 101 12 43 13
REMARK SMILES IDX 44 14 45 15 95 16 46 17 100 18 94 19 96 20 47 21 99 22 93 23
REMARK SMILES IDX 92 24 48 26 80 27 60 28 79 29 61 30 64 31 78 32 97 33 62 34
REMARK SMILES IDX 63 35 77 37 98 38 65 39 49 40 50 41 58 42 51 43 52 44 56 45
REMARK SMILES IDX 59 46 53 47 54 48 57 49 55 50 81 51 82 52 90 53 83 54 84 55
REMARK SMILES IDX 88 56 91 57 85 58 86 59 89 60 87 61 66 62 67 63 75 64 68 65
REMARK SMILES IDX 69 66 73 67 76 68 70 69 71 70 74 71 72 72 7 73 8 74 9 75
REMARK SMILES IDX 10 77 11 78 12 79 17 80 13 81 16 82 14 83 15 84 18 85 39 86
REMARK SMILES IDX 19 87 22 88 23 89 20 91 21 92 24 93 25 94 38 95 26 96 37 97
REMARK SMILES IDX 27 98 28 99 29 100 30 101 31 102 32 103 36 104 33 105 35 106
REMARK SMILES IDX 34 107
REMARK H PARENT 3 7 96 25 64 36 8 76 39 90
REMARK Flexibility Score: inf
ROOT
ATOM      1  C   UNL     1       4.585  -3.228   1.578  1.00  0.00     0.023 C 
ENDROOT
BRANCH   1   2
ATOM      2  C   UNL     1       5.013  -1.763   1.531  1.00  0.00     0.023 C 
BRANCH   2   3
ATOM      3  C   UNL     1       4.627  -1.018   0.259  1.00  0.00     0.116 C 
BRANCH   3   4
ATOM      4  N   UNL     1       3.188  -0.962   0.060  1.00  0.00    -0.352 N 
ATOM      5  O   UNL     1       1.161   0.025  -0.097  1.00  0.00    -0.269 OA
ATOM      6  C   UNL     1       2.382   0.139  -0.095  1.00  0.00     0.251 C 
ATOM      7  H   UNL     1       2.728  -1.832   0.034  1.00  0.00     0.163 HD
BRANCH   6   8
ATOM      8  C   UNL     1       2.999   1.473  -0.232  1.00  0.00     0.039 A 
ATOM      9  C   UNL     1       4.010   1.693  -1.172  1.00  0.00     0.014 A 
ATOM     10  C   UNL     1       2.568   2.506   0.603  1.00  0.00     0.014 A 
ATOM     11  C   UNL     1       4.672   2.917  -1.196  1.00  0.00     0.010 A 
ATOM     12  C   UNL     1       3.199   3.750   0.543  1.00  0.00     0.010 A 
ATOM     13  C   UNL     1       4.277   3.952  -0.333  1.00  0.00    -0.014 A 
BRANCH  13  14
ATOM     14  C   UNL     1       4.990   5.250  -0.372  1.00  0.00     0.031 A 
ATOM     15  C   UNL     1       5.906   5.653   0.747  1.00  0.00     0.074 A 
ATOM     16  C   UNL     1       4.828   6.050  -1.441  1.00  0.00     0.049 A 
ATOM     17  N   UNL     1       6.634   6.735   0.867  1.00  0.00    -0.248 NA
ATOM     18  C   UNL     1       6.025   4.721   1.879  1.00  0.00     0.031 C 
ATOM     19  C   UNL     1       3.969   5.755  -2.588  1.00  0.00     0.029 A 
ATOM     20  N   UNL     1       5.385   7.266  -1.742  1.00  0.00    -0.354 N 
ATOM     21  C   UNL     1       7.300   6.612   2.078  1.00  0.00     0.074 A 
ATOM     22  C   UNL     1       6.864   5.369   2.677  1.00  0.00     0.031 C 
ATOM     23  C   UNL     1       4.074   6.752  -3.480  1.00  0.00     0.029 A 
ATOM     24  C   UNL     1       4.976   7.770  -2.952  1.00  0.00     0.049 A 
ATOM     25  H   UNL     1       6.017   7.732  -1.149  1.00  0.00     0.167 HD
ATOM     26  C   UNL     1       8.206   7.455   2.629  1.00  0.00     0.037 A 
ATOM     27  C   UNL     1       5.288   8.929  -3.561  1.00  0.00     0.037 A 
ATOM     28  C   UNL     1       8.637   8.691   2.028  1.00  0.00     0.049 A 
ATOM     29  C   UNL     1       6.246   9.875  -2.894  1.00  0.00     0.074 A 
ATOM     30  C   UNL     1       9.568   9.599   2.500  1.00  0.00     0.029 A 
ATOM     31  N   UNL     1       8.160   9.194   0.827  1.00  0.00    -0.354 N 
ATOM     32  N   UNL     1       6.896   9.732  -1.766  1.00  0.00    -0.248 NA
ATOM     33  C   UNL     1       6.513  11.144  -3.586  1.00  0.00     0.031 C 
ATOM     34  C   UNL     1       9.624  10.673   1.607  1.00  0.00     0.029 A 
ATOM     35  C   UNL     1       8.760  10.413   0.555  1.00  0.00     0.049 A 
ATOM     36  H   UNL     1       7.495   8.751   0.252  1.00  0.00     0.167 HD
ATOM     37  C   UNL     1       7.661  10.881  -1.618  1.00  0.00     0.074 A 
ATOM     38  C   UNL     1       7.407  11.705  -2.782  1.00  0.00     0.031 C 
ATOM     39  C   UNL     1       8.496  11.222  -0.607  1.00  0.00     0.037 A 
BRANCH  26  40
ATOM     40  C   UNL     1       8.805   7.075   3.950  1.00  0.00     0.064 A 
ATOM     41  C   UNL     1       9.769   6.061   4.048  1.00  0.00     0.173 A 
ATOM     42  C   UNL     1       8.478   7.787   5.113  1.00  0.00     0.173 A 
ATOM     43  F   UNL     1      10.108   5.345   2.966  1.00  0.00    -0.203 F 
ATOM     44  C   UNL     1      10.378   5.769   5.266  1.00  0.00     0.198 A 
ATOM     45  C   UNL     1       9.105   7.507   6.324  1.00  0.00     0.198 A 
ATOM     46  F   UNL     1       7.566   8.770   5.071  1.00  0.00    -0.203 F 
ATOM     47  F   UNL     1      11.281   4.781   5.342  1.00  0.00    -0.200 F 
ATOM     48  C   UNL     1      10.053   6.498   6.400  1.00  0.00     0.200 A 
ATOM     49  F   UNL     1       8.799   8.220   7.417  1.00  0.00    -0.200 F 
ATOM     50  F   UNL     1      10.654   6.227   7.567  1.00  0.00    -0.200 F 
ENDBRANCH  26  40
BRANCH  27  51
ATOM     51  C   UNL     1       4.693   9.245  -4.883  1.00  0.00     0.064 A 
ATOM     52  C   UNL     1       5.477   9.241  -6.044  1.00  0.00     0.173 A 
ATOM     53  C   UNL     1       3.327   9.538  -5.016  1.00  0.00     0.173 A 
ATOM     54  F   UNL     1       6.791   8.986  -5.962  1.00  0.00    -0.203 F 
ATOM     55  C   UNL     1       4.919   9.526  -7.288  1.00  0.00     0.198 A 
ATOM     56  C   UNL     1       2.766   9.797  -6.263  1.00  0.00     0.198 A 
ATOM     57  F   UNL     1       2.535   9.551  -3.934  1.00  0.00    -0.203 F 
ATOM     58  F   UNL     1       5.697   9.547  -8.379  1.00  0.00    -0.200 F 
ATOM     59  C   UNL     1       3.563   9.796  -7.398  1.00  0.00     0.200 A 
ATOM     60  F   UNL     1       1.453  10.045  -6.367  1.00  0.00    -0.200 F 
ATOM     61  F   UNL     1       3.026  10.061  -8.597  1.00  0.00    -0.200 F 
ENDBRANCH  27  51
BRANCH  39  62
ATOM     62  C   UNL     1       9.209  12.537  -0.714  1.00  0.00     0.064 A 
ATOM     63  C   UNL     1       8.537  13.749  -0.503  1.00  0.00     0.173 A 
ATOM     64  C   UNL     1      10.589  12.581  -0.963  1.00  0.00     0.173 A 
ATOM     65  F   UNL     1       7.215  13.758  -0.276  1.00  0.00    -0.203 F 
ATOM     66  C   UNL     1       9.221  14.961  -0.550  1.00  0.00     0.198 A 
ATOM     67  C   UNL     1      11.273  13.793  -0.983  1.00  0.00     0.198 A 
ATOM     68  F   UNL     1      11.277  11.447  -1.164  1.00  0.00    -0.203 F 
ATOM     69  F   UNL     1       8.554  16.111  -0.378  1.00  0.00    -0.200 F 
ATOM     70  C   UNL     1      10.588  14.981  -0.781  1.00  0.00     0.200 A 
ATOM     71  F   UNL     1      12.597  13.810  -1.193  1.00  0.00    -0.200 F 
ATOM     72  F   UNL     1      11.247  16.148  -0.811  1.00  0.00    -0.200 F 
ENDBRANCH  39  62
ENDBRANCH  13  14
ENDBRANCH   6   8
ENDBRANCH   3   4
ENDBRANCH   2   3
ENDBRANCH   1   2
BRANCH   1  73
ATOM     73  C   UNL     1       4.982  -4.056   0.361  1.00  0.00     0.116 C 
BRANCH  73  74
ATOM     74  N   UNL     1       6.421  -4.080   0.142  1.00  0.00    -0.352 N 
ATOM     75  C   UNL     1       7.239  -5.168  -0.025  1.00  0.00     0.251 C 
ATOM     76  H   UNL     1       6.864  -3.201   0.110  1.00  0.00     0.163 HD
ATOM     77  O   UNL     1       8.457  -5.046  -0.082  1.00  0.00    -0.269 OA
BRANCH  75  78
ATOM     78  C   UNL     1       6.625  -6.503  -0.089  1.00  0.00     0.041 A 
ATOM     79  C   UNL     1       5.663  -6.792  -1.055  1.00  0.00     0.036 A 
ATOM     80  C   UNL     1       6.983  -7.449   0.868  1.00  0.00     0.020 A 
ATOM     81  C   UNL     1       4.975  -7.998  -0.979  1.00  0.00     0.065 A 
ATOM     82  C   UNL     1       6.310  -8.678   0.923  1.00  0.00    -0.015 A 
ATOM     83  Cl  UNL     1       3.718  -8.291  -2.132  1.00  0.00    -0.082 Cl
ATOM     84  C   UNL     1       5.254  -8.936   0.036  1.00  0.00     0.057 A 
ATOM     85  C   UNL     1       6.758  -9.711   1.917  1.00  0.00     0.049 C 
ATOM     86  N   UNL     1       4.548 -10.128   0.112  1.00  0.00    -0.376 N 
ATOM     87  C   UNL     1       6.434  -9.401   3.355  1.00  0.00    -0.023 C 
ATOM     88  C   UNL     1       6.124 -11.108   1.739  1.00  0.00     0.031 C 
ATOM     89  C   UNL     1       4.645 -10.970   1.294  1.00  0.00     0.114 C 
ATOM     90  H   UNL     1       3.977 -10.406  -0.640  1.00  0.00     0.161 HD
ATOM     91  C   UNL     1       6.196 -10.526   4.040  1.00  0.00    -0.030 C 
ATOM     92  C   UNL     1       6.311 -11.720   3.144  1.00  0.00     0.034 C 
BRANCH  89  93
ATOM     93  C   UNL     1       3.989 -12.313   0.999  1.00  0.00    -0.025 A 
ATOM     94  C   UNL     1       3.908 -12.874  -0.291  1.00  0.00     0.007 A 
ATOM     95  C   UNL     1       3.445 -13.034   2.066  1.00  0.00     0.007 A 
ATOM     96  C   UNL     1       3.318 -14.128  -0.498  1.00  0.00     0.022 A 
ATOM     97  C   UNL     1       2.901 -14.295   1.866  1.00  0.00     0.022 A 
ATOM     98  C   UNL     1       2.830 -14.846   0.594  1.00  0.00     0.082 A 
BRANCH  98  99
ATOM     99  S   UNL     1       2.145 -16.468   0.338  1.00  0.00     0.243 S 
ATOM    100  O   UNL     1       0.780 -16.264  -0.106  1.00  0.00    -0.207 OA
ATOM    101  O   UNL     1       3.106 -17.197  -0.458  1.00  0.00    -0.207 OA
BRANCH  99 102
ATOM    102  N   UNL     1       2.101 -17.171   1.859  1.00  0.00    -0.193 NA
ATOM    103  C   UNL     1       0.935 -17.050   2.759  1.00  0.00     0.131 C 
ATOM    104  C   UNL     1       3.251 -17.910   2.409  1.00  0.00     0.131 C 
ATOM    105  C   UNL     1       1.354 -16.685   4.194  1.00  0.00     0.177 C 
ATOM    106  C   UNL     1       3.586 -17.394   3.810  1.00  0.00     0.177 C 
ATOM    107  O   UNL     1       2.446 -17.475   4.678  1.00  0.00    -0.379 OA
ENDBRANCH  99 102
ENDBRANCH  98  99
ENDBRANCH  89  93
ENDBRANCH  75  78
ENDBRANCH  73  74
ENDBRANCH   1  73
TORSDOF 14
