REMARK SMILES CC(C)(C)[NH2+]CC(=O)N[C@](C)(C(=O)NCCCCNC(=O)c1ccc(-c2c3nc(c(-c4c(F)c(F)c(F)c(F)c4F)c4ccc([nH]4)c(-c4c(F)c(F)c(F)c(F)c4F)c4nc(c(-c5c(F)c(F)c(F)c(F)c5F)c5ccc2[nH]5)C=C4)C=C3)cc1)C1CC1
REMARK SMILES IDX 15 1 14 2 12 3 13 4 10 6 11 7 9 8 7 9 8 10 6 12 5 13 2 16
REMARK SMILES IDX 1 17 3 18 4 19 85 20 86 21 87 22 16 23 17 24 18 25 19 26
REMARK SMILES IDX 20 27 21 29 22 30 23 31 84 32 24 33 83 34 25 35 26 36 27 37
REMARK SMILES IDX 77 38 28 39 82 40 76 41 78 42 29 43 81 44 75 45 74 46 30 48
REMARK SMILES IDX 62 49 42 50 61 51 43 52 46 53 60 54 79 55 44 56 45 57 59 59
REMARK SMILES IDX 80 60 47 61 31 62 32 63 40 64 33 65 34 66 38 67 41 68 35 69
REMARK SMILES IDX 36 70 39 71 37 72 63 73 64 74 72 75 65 76 66 77 70 78 73 79
REMARK SMILES IDX 67 80 68 81 71 82 69 83 48 84 49 85 57 86 50 87 51 88 55 89
REMARK SMILES IDX 58 90 52 91 53 92 56 93 54 94
REMARK H PARENT 14 5 9 11 5 14 5 15 19 28 78 47 46 58
REMARK Flexibility Score: inf
ROOT
ATOM      1  C   UNL     1       2.817  -0.145   4.489  1.00  0.00     0.116 C 
ENDROOT
BRANCH   1   2
ATOM      2  N   UNL     1       3.257   0.264   3.171  1.00  0.00    -0.354 N 
ATOM      3  C   UNL     1       3.117  -0.272   1.924  1.00  0.00     0.245 C 
ATOM      4  O   UNL     1       3.884   0.233   1.097  1.00  0.00    -0.272 OA
ATOM      5  H   UNL     1       3.765   1.107   3.176  1.00  0.00     0.163 HD
BRANCH   3   6
ATOM      6  C   UNL     1       2.165  -1.493   1.595  1.00  0.00     0.119 C 
ATOM      7  C   UNL     1       2.758  -2.713   2.346  1.00  0.00     0.046 C 
BRANCH   6   8
ATOM      8  N   UNL     1       0.800  -1.236   2.173  1.00  0.00    -0.337 N 
ATOM      9  C   UNL     1      -0.284  -0.456   1.903  1.00  0.00     0.275 C 
ATOM     10  O   UNL     1      -1.038  -0.262   2.870  1.00  0.00    -0.268 OA
ATOM     11  H   UNL     1       0.645  -1.789   2.973  1.00  0.00     0.164 HD
BRANCH   9  12
ATOM     12  C   UNL     1      -0.661   0.135   0.535  1.00  0.00     0.362 C 
BRANCH  12  13
ATOM     13  N   UNL     1      -0.667   1.615   0.456  1.00  0.00    -0.334 N 
ATOM     14  H   UNL     1      -1.118   1.871  -0.422  1.00  0.00     0.347 HD
ATOM     15  H   UNL     1      -1.150   1.917   1.302  1.00  0.00     0.347 HD
BRANCH  13  16
ATOM     16  C   UNL     1       0.632   2.306   0.502  1.00  0.00     0.088 C 
ATOM     17  C   UNL     1       1.662   1.668  -0.438  1.00  0.00     0.078 C 
ATOM     18  C   UNL     1       1.095   2.412   1.960  1.00  0.00     0.078 C 
ATOM     19  C   UNL     1       0.465   3.755   0.003  1.00  0.00     0.078 C 
ENDBRANCH  13  16
ENDBRANCH  12  13
ENDBRANCH   9  12
ENDBRANCH   6   8
BRANCH   6  20
ATOM     20  C   UNL     1       2.053  -1.873   0.105  1.00  0.00     0.024 C 
ATOM     21  C   UNL     1       3.139  -1.594  -0.926  1.00  0.00     0.007 C 
ATOM     22  C   UNL     1       2.828  -3.005  -0.561  1.00  0.00     0.007 C 
ENDBRANCH   6  20
ENDBRANCH   3   6
ENDBRANCH   1   2
BRANCH   1  23
ATOM     23  C   UNL     1       4.020  -0.619   5.306  1.00  0.00     0.023 C 
BRANCH  23  24
ATOM     24  C   UNL     1       4.940   0.514   5.774  1.00  0.00     0.023 C 
BRANCH  24  25
ATOM     25  C   UNL     1       4.299   1.493   6.754  1.00  0.00     0.116 C 
BRANCH  25  26
ATOM     26  N   UNL     1       3.846   0.838   7.972  1.00  0.00    -0.352 N 
ATOM     27  C   UNL     1       4.118   1.150   9.280  1.00  0.00     0.251 C 
ATOM     28  H   UNL     1       3.260   0.059   7.839  1.00  0.00     0.163 HD
ATOM     29  O   UNL     1       3.805   0.373  10.178  1.00  0.00    -0.269 OA
BRANCH  27  30
ATOM     30  C   UNL     1       4.803   2.416   9.605  1.00  0.00     0.039 A 
ATOM     31  C   UNL     1       5.849   2.401  10.531  1.00  0.00     0.014 A 
ATOM     32  C   UNL     1       4.410   3.614   9.004  1.00  0.00     0.014 A 
ATOM     33  C   UNL     1       6.540   3.581  10.811  1.00  0.00     0.010 A 
ATOM     34  C   UNL     1       5.147   4.773   9.227  1.00  0.00     0.010 A 
ATOM     35  C   UNL     1       6.214   4.770  10.138  1.00  0.00    -0.014 A 
BRANCH  35  36
ATOM     36  C   UNL     1       6.968   6.024  10.383  1.00  0.00     0.031 A 
ATOM     37  C   UNL     1       6.273   7.214  10.986  1.00  0.00     0.074 A 
ATOM     38  C   UNL     1       8.258   6.112  10.007  1.00  0.00     0.049 A 
ATOM     39  N   UNL     1       6.736   8.417  11.214  1.00  0.00    -0.248 NA
ATOM     40  C   UNL     1       4.860   7.035  11.355  1.00  0.00     0.031 C 
ATOM     41  C   UNL     1       9.028   5.041   9.374  1.00  0.00     0.029 A 
ATOM     42  N   UNL     1       9.146   7.154  10.095  1.00  0.00    -0.354 N 
ATOM     43  C   UNL     1       5.672   9.137  11.738  1.00  0.00     0.074 A 
ATOM     44  C   UNL     1       4.524   8.257  11.739  1.00  0.00     0.031 C 
ATOM     45  C   UNL     1      10.280   5.473   9.153  1.00  0.00     0.029 A 
ATOM     46  C   UNL     1      10.390   6.861   9.591  1.00  0.00     0.049 A 
ATOM     47  H   UNL     1       8.915   8.029  10.482  1.00  0.00     0.167 HD
ATOM     48  C   UNL     1       5.659  10.410  12.202  1.00  0.00     0.037 A 
ATOM     49  C   UNL     1      11.491   7.629   9.489  1.00  0.00     0.037 A 
ATOM     50  C   UNL     1       6.809  11.275  12.217  1.00  0.00     0.049 A 
ATOM     51  C   UNL     1      11.447   9.045   9.997  1.00  0.00     0.074 A 
ATOM     52  C   UNL     1       6.915  12.563  12.711  1.00  0.00     0.029 A 
ATOM     53  N   UNL     1       8.056  10.938  11.710  1.00  0.00    -0.354 N 
ATOM     54  N   UNL     1      10.453   9.696  10.552  1.00  0.00    -0.248 NA
ATOM     55  C   UNL     1      12.681   9.832   9.870  1.00  0.00     0.031 C 
ATOM     56  C   UNL     1       8.211  13.024  12.458  1.00  0.00     0.029 A 
ATOM     57  C   UNL     1       8.931  12.003  11.860  1.00  0.00     0.049 A 
ATOM     58  H   UNL     1       8.286  10.072  11.303  1.00  0.00     0.167 HD
ATOM     59  C   UNL     1      10.950  10.952  10.871  1.00  0.00     0.074 A 
ATOM     60  C   UNL     1      12.338  10.969  10.458  1.00  0.00     0.031 C 
ATOM     61  C   UNL     1      10.314  11.998  11.455  1.00  0.00     0.037 A 
BRANCH  48  62
ATOM     62  C   UNL     1       4.358  10.941  12.733  1.00  0.00     0.064 A 
ATOM     63  C   UNL     1       3.791  10.450  13.920  1.00  0.00     0.173 A 
ATOM     64  C   UNL     1       3.679  11.969  12.061  1.00  0.00     0.173 A 
ATOM     65  F   UNL     1       4.393   9.460  14.596  1.00  0.00    -0.203 F 
ATOM     66  C   UNL     1       2.579  10.944  14.395  1.00  0.00     0.198 A 
ATOM     67  C   UNL     1       2.484  12.483  12.557  1.00  0.00     0.198 A 
ATOM     68  F   UNL     1       4.178  12.479  10.925  1.00  0.00    -0.203 F 
ATOM     69  F   UNL     1       2.030  10.418  15.499  1.00  0.00    -0.200 F 
ATOM     70  C   UNL     1       1.929  11.964  13.717  1.00  0.00     0.200 A 
ATOM     71  F   UNL     1       1.865  13.480  11.908  1.00  0.00    -0.200 F 
ATOM     72  F   UNL     1       0.765  12.441  14.177  1.00  0.00    -0.200 F 
ENDBRANCH  48  62
BRANCH  49  73
ATOM     73  C   UNL     1      12.739   7.066   8.909  1.00  0.00     0.064 A 
ATOM     74  C   UNL     1      13.865   6.839   9.713  1.00  0.00     0.173 A 
ATOM     75  C   UNL     1      12.836   6.749   7.546  1.00  0.00     0.173 A 
ATOM     76  F   UNL     1      13.829   7.144  11.018  1.00  0.00    -0.203 F 
ATOM     77  C   UNL     1      15.047   6.338   9.171  1.00  0.00     0.198 A 
ATOM     78  C   UNL     1      14.009   6.220   7.012  1.00  0.00     0.198 A 
ATOM     79  F   UNL     1      11.785   6.942   6.735  1.00  0.00    -0.203 F 
ATOM     80  F   UNL     1      16.123   6.176   9.953  1.00  0.00    -0.200 F 
ATOM     81  C   UNL     1      15.117   6.023   7.823  1.00  0.00     0.200 A 
ATOM     82  F   UNL     1      14.066   5.903   5.711  1.00  0.00    -0.200 F 
ATOM     83  F   UNL     1      16.252   5.538   7.303  1.00  0.00    -0.200 F 
ENDBRANCH  49  73
BRANCH  61  84
ATOM     84  C   UNL     1      11.125  13.233  11.726  1.00  0.00     0.064 A 
ATOM     85  C   UNL     1      11.559  14.075  10.692  1.00  0.00     0.173 A 
ATOM     86  C   UNL     1      11.436  13.598  13.045  1.00  0.00     0.173 A 
ATOM     87  F   UNL     1      11.300  13.763   9.413  1.00  0.00    -0.203 F 
ATOM     88  C   UNL     1      12.298  15.223  10.966  1.00  0.00     0.198 A 
ATOM     89  C   UNL     1      12.147  14.764  13.318  1.00  0.00     0.198 A 
ATOM     90  F   UNL     1      11.039  12.832  14.071  1.00  0.00    -0.203 F 
ATOM     91  F   UNL     1      12.746  15.986   9.960  1.00  0.00    -0.200 F 
ATOM     92  C   UNL     1      12.584  15.570  12.278  1.00  0.00     0.200 A 
ATOM     93  F   UNL     1      12.409  15.105  14.587  1.00  0.00    -0.200 F 
ATOM     94  F   UNL     1      13.289  16.680  12.541  1.00  0.00    -0.200 F 
ENDBRANCH  61  84
ENDBRANCH  35  36
ENDBRANCH  27  30
ENDBRANCH  25  26
ENDBRANCH  24  25
ENDBRANCH  23  24
ENDBRANCH   1  23
TORSDOF 16
