REMARK SMILES COc1ccc(C(F)(F)F)cc1-c1cccnc1C(=O)NCCCCNC(=O)c1ccc(-c2c3nc(c(-c4c(F)c(F)c(F)c(F)c4F)c4ccc([nH]4)c(-c4c(F)c(F)c(F)c(F)c4F)c4nc(c(-c5c(F)c(F)c(F)c(F)c5F)c5ccc2[nH]5)C=C4)C=C3)cc1
REMARK SMILES IDX 23 1 22 2 21 3 19 4 20 5 18 7 13 8 14 9 15 10 17 11 16 12
REMARK SMILES IDX 12 13 3 14 4 15 5 16 11 17 6 18 2 19 1 20 7 21 8 22 9 23
REMARK SMILES IDX 10 24 24 25 25 26 26 27 27 28 28 30 29 31 30 32 91 33 31 34
REMARK SMILES IDX 90 35 32 36 33 37 34 38 84 39 35 40 89 41 83 42 85 43 36 44
REMARK SMILES IDX 88 45 82 46 81 47 37 49 69 50 49 51 68 52 50 53 53 54 67 55
REMARK SMILES IDX 86 56 51 57 52 58 66 60 87 61 54 62 38 63 39 64 47 65 40 66
REMARK SMILES IDX 41 67 45 68 48 69 42 70 43 71 46 72 44 73 70 74 71 75 79 76
REMARK SMILES IDX 72 77 73 78 77 79 80 80 74 81 75 82 78 83 76 84 55 85 56 86
REMARK SMILES IDX 64 87 57 88 58 89 62 90 65 91 59 92 60 93 63 94 61 95
REMARK H PARENT 21 6 26 29 85 48 53 59
REMARK Flexibility Score: inf
ROOT
ATOM      1  C   UNL     1      -0.539   0.715   3.877  1.00  0.00     0.023 C 
ENDROOT
BRANCH   1   2
ATOM      2  C   UNL     1       0.849   1.017   3.337  1.00  0.00     0.116 C 
BRANCH   2   3
ATOM      3  N   UNL     1       1.966   0.412   4.007  1.00  0.00    -0.351 N 
ATOM      4  C   UNL     1       3.201   0.037   3.505  1.00  0.00     0.270 C 
ATOM      5  O   UNL     1       4.030  -0.334   4.342  1.00  0.00    -0.267 OA
ATOM      6  H   UNL     1       1.835   0.237   4.967  1.00  0.00     0.163 HD
BRANCH   4   7
ATOM      7  C   UNL     1       3.590  -0.004   2.033  1.00  0.00     0.136 A 
ATOM      8  C   UNL     1       3.449   1.028   1.084  1.00  0.00     0.017 A 
ATOM      9  C   UNL     1       4.052   0.819  -0.177  1.00  0.00     0.013 A 
ATOM     10  C   UNL     1       4.730  -0.357  -0.469  1.00  0.00     0.021 A 
ATOM     11  N   UNL     1       4.245  -1.171   1.736  1.00  0.00    -0.250 NA
ATOM     12  C   UNL     1       4.793  -1.319   0.513  1.00  0.00     0.112 A 
BRANCH   8  13
ATOM     13  C   UNL     1       2.729   2.293   1.281  1.00  0.00     0.027 A 
ATOM     14  C   UNL     1       1.600   2.648   0.504  1.00  0.00     0.126 A 
ATOM     15  C   UNL     1       0.902   3.831   0.765  1.00  0.00     0.048 A 
ATOM     16  C   UNL     1       1.312   4.680   1.794  1.00  0.00     0.017 A 
ATOM     17  C   UNL     1       3.160   3.193   2.276  1.00  0.00     0.025 A 
ATOM     18  C   UNL     1       2.458   4.383   2.546  1.00  0.00     0.056 A 
BRANCH  14  19
ATOM     19  O   UNL     1       1.190   1.955  -0.610  1.00  0.00    -0.496 OA
ATOM     20  C   UNL     1       0.560   0.703  -0.345  1.00  0.00     0.278 C 
ENDBRANCH  14  19
BRANCH  18  21
ATOM     21  C   UNL     1       2.894   5.285   3.675  1.00  0.00     0.416 C 
ATOM     22  F   UNL     1       2.585   6.595   3.471  1.00  0.00    -0.166 F 
ATOM     23  F   UNL     1       2.308   4.941   4.857  1.00  0.00    -0.166 F 
ATOM     24  F   UNL     1       4.236   5.249   3.899  1.00  0.00    -0.166 F 
ENDBRANCH  18  21
ENDBRANCH   8  13
ENDBRANCH   4   7
ENDBRANCH   2   3
ENDBRANCH   1   2
BRANCH   1  25
ATOM     25  C   UNL     1      -0.919   1.342   5.218  1.00  0.00     0.023 C 
BRANCH  25  26
ATOM     26  C   UNL     1      -0.575   2.812   5.454  1.00  0.00     0.116 C 
BRANCH  26  27
ATOM     27  N   UNL     1      -1.048   3.747   4.443  1.00  0.00    -0.352 N 
ATOM     28  C   UNL     1      -1.505   5.042   4.601  1.00  0.00     0.251 C 
ATOM     29  H   UNL     1      -1.041   3.409   3.518  1.00  0.00     0.163 HD
ATOM     30  O   UNL     1      -1.799   5.713   3.621  1.00  0.00    -0.269 OA
BRANCH  28  31
ATOM     31  C   UNL     1      -1.714   5.589   5.964  1.00  0.00     0.039 A 
ATOM     32  C   UNL     1      -2.966   6.127   6.280  1.00  0.00     0.014 A 
ATOM     33  C   UNL     1      -0.730   5.491   6.949  1.00  0.00     0.014 A 
ATOM     34  C   UNL     1      -3.278   6.427   7.610  1.00  0.00     0.010 A 
ATOM     35  C   UNL     1      -1.063   5.723   8.283  1.00  0.00     0.010 A 
ATOM     36  C   UNL     1      -2.354   6.151   8.631  1.00  0.00    -0.014 A 
BRANCH  36  37
ATOM     37  C   UNL     1      -2.755   6.200  10.063  1.00  0.00     0.031 A 
ATOM     38  C   UNL     1      -2.112   7.165  11.016  1.00  0.00     0.074 A 
ATOM     39  C   UNL     1      -3.639   5.293  10.527  1.00  0.00     0.049 A 
ATOM     40  N   UNL     1      -2.290   7.294  12.308  1.00  0.00    -0.248 NA
ATOM     41  C   UNL     1      -1.120   8.090  10.450  1.00  0.00     0.031 C 
ATOM     42  C   UNL     1      -4.285   4.253   9.723  1.00  0.00     0.029 A 
ATOM     43  N   UNL     1      -4.137   5.088  11.791  1.00  0.00    -0.354 N 
ATOM     44  C   UNL     1      -1.426   8.302  12.710  1.00  0.00     0.074 A 
ATOM     45  C   UNL     1      -0.693   8.723  11.534  1.00  0.00     0.031 C 
ATOM     46  C   UNL     1      -5.106   3.536  10.506  1.00  0.00     0.029 A 
ATOM     47  C   UNL     1      -5.024   4.041  11.872  1.00  0.00     0.049 A 
ATOM     48  H   UNL     1      -3.883   5.639  12.566  1.00  0.00     0.167 HD
ATOM     49  C   UNL     1      -1.270   8.840  13.944  1.00  0.00     0.037 A 
ATOM     50  C   UNL     1      -5.693   3.539  12.928  1.00  0.00     0.037 A 
ATOM     51  C   UNL     1      -2.013   8.439  15.111  1.00  0.00     0.049 A 
ATOM     52  C   UNL     1      -5.516   4.168  14.282  1.00  0.00     0.074 A 
ATOM     53  C   UNL     1      -1.971   8.975  16.387  1.00  0.00     0.029 A 
ATOM     54  N   UNL     1      -2.929   7.399  15.145  1.00  0.00    -0.354 N 
ATOM     55  N   UNL     1      -4.756   5.176  14.631  1.00  0.00    -0.248 NA
ATOM     56  C   UNL     1      -6.296   3.592  15.387  1.00  0.00     0.031 C 
ATOM     57  C   UNL     1      -2.838   8.237  17.201  1.00  0.00     0.029 A 
ATOM     58  C   UNL     1      -3.447   7.266  16.424  1.00  0.00     0.049 A 
ATOM     59  H   UNL     1      -3.176   6.839  14.374  1.00  0.00     0.167 HD
ATOM     60  C   UNL     1      -4.983   5.371  15.986  1.00  0.00     0.074 A 
ATOM     61  C   UNL     1      -5.962   4.386  16.395  1.00  0.00     0.031 C 
ATOM     62  C   UNL     1      -4.427   6.287  16.816  1.00  0.00     0.037 A 
BRANCH  49  63
ATOM     63  C   UNL     1      -0.258   9.937  14.095  1.00  0.00     0.064 A 
ATOM     64  C   UNL     1      -0.486  11.219  13.574  1.00  0.00     0.173 A 
ATOM     65  C   UNL     1       0.936   9.715  14.797  1.00  0.00     0.173 A 
ATOM     66  F   UNL     1      -1.608  11.478  12.886  1.00  0.00    -0.203 F 
ATOM     67  C   UNL     1       0.456  12.232  13.727  1.00  0.00     0.198 A 
ATOM     68  C   UNL     1       1.865  10.738  14.971  1.00  0.00     0.198 A 
ATOM     69  F   UNL     1       1.198   8.508  15.322  1.00  0.00    -0.203 F 
ATOM     70  F   UNL     1       0.236  13.437  13.184  1.00  0.00    -0.200 F 
ATOM     71  C   UNL     1       1.627  11.992  14.430  1.00  0.00     0.200 A 
ATOM     72  F   UNL     1       2.991  10.508  15.660  1.00  0.00    -0.200 F 
ATOM     73  F   UNL     1       2.531  12.970  14.581  1.00  0.00    -0.200 F 
ENDBRANCH  49  63
BRANCH  50  74
ATOM     74  C   UNL     1      -6.622   2.396  12.739  1.00  0.00     0.064 A 
ATOM     75  C   UNL     1      -8.010   2.582  12.808  1.00  0.00     0.173 A 
ATOM     76  C   UNL     1      -6.147   1.101  12.489  1.00  0.00     0.173 A 
ATOM     77  F   UNL     1      -8.508   3.800  13.067  1.00  0.00    -0.203 F 
ATOM     78  C   UNL     1      -8.888   1.513  12.651  1.00  0.00     0.198 A 
ATOM     79  C   UNL     1      -7.028   0.036  12.308  1.00  0.00     0.198 A 
ATOM     80  F   UNL     1      -4.829   0.872  12.410  1.00  0.00    -0.203 F 
ATOM     81  F   UNL     1     -10.209   1.712  12.760  1.00  0.00    -0.200 F 
ATOM     82  C   UNL     1      -8.397   0.241  12.396  1.00  0.00     0.200 A 
ATOM     83  F   UNL     1      -6.550  -1.189  12.050  1.00  0.00    -0.200 F 
ATOM     84  F   UNL     1      -9.242  -0.787  12.241  1.00  0.00    -0.200 F 
ENDBRANCH  50  74
BRANCH  62  85
ATOM     85  C   UNL     1      -4.886   6.286  18.244  1.00  0.00     0.064 A 
ATOM     86  C   UNL     1      -4.476   5.293  19.145  1.00  0.00     0.173 A 
ATOM     87  C   UNL     1      -5.715   7.311  18.723  1.00  0.00     0.173 A 
ATOM     88  F   UNL     1      -3.699   4.283  18.729  1.00  0.00    -0.203 F 
ATOM     89  C   UNL     1      -4.896   5.317  20.472  1.00  0.00     0.198 A 
ATOM     90  C   UNL     1      -6.113   7.345  20.056  1.00  0.00     0.198 A 
ATOM     91  F   UNL     1      -6.131   8.285  17.900  1.00  0.00    -0.203 F 
ATOM     92  F   UNL     1      -4.526   4.336  21.308  1.00  0.00    -0.200 F 
ATOM     93  C   UNL     1      -5.708   6.345  20.928  1.00  0.00     0.200 A 
ATOM     94  F   UNL     1      -6.890   8.343  20.498  1.00  0.00    -0.200 F 
ATOM     95  F   UNL     1      -6.107   6.368  22.208  1.00  0.00    -0.200 F 
ENDBRANCH  62  85
ENDBRANCH  36  37
ENDBRANCH  28  31
ENDBRANCH  26  27
ENDBRANCH  25  26
ENDBRANCH   1  25
TORSDOF 14
