REMARK SMILES CC[C@]1(C(=O)NCCCCNC(=O)c2ccc(-c3c4nc(c(-c5c(F)c(F)c(F)c(F)c5F)c5ccc([nH]5)c(-c5c(F)c(F)c(F)c(F)c5F)c5nc(c(-c6c(F)c(F)c(F)c(F)c6F)c6ccc3[nH]6)C=C5)C=C4)cc2)CC[N@H+](Cc2ccc(CC(C)C)cc2)C1
REMARK SMILES IDX 7 1 6 2 4 3 5 4 3 6 77 7 91 8 78 9 79 10 2 12 1 13 80 14
REMARK SMILES IDX 81 15 82 16 90 17 83 18 89 19 84 20 85 21 86 22 87 23 88 24
REMARK SMILES IDX 8 25 9 26 10 27 11 28 12 29 13 31 14 32 15 33 76 34 16 35
REMARK SMILES IDX 75 36 17 37 18 38 19 39 69 40 20 41 74 42 68 43 70 44 21 45
REMARK SMILES IDX 73 46 67 47 66 48 22 50 54 51 34 52 53 53 35 54 38 55 52 56
REMARK SMILES IDX 71 57 36 58 37 59 51 61 72 62 39 63 23 64 24 65 32 66 25 67
REMARK SMILES IDX 26 68 30 69 33 70 27 71 28 72 31 73 29 74 55 75 56 76 64 77
REMARK SMILES IDX 57 78 58 79 62 80 65 81 59 82 60 83 63 84 61 85 40 86 41 87
REMARK SMILES IDX 49 88 42 89 43 90 47 91 50 92 44 93 45 94 48 95 46 96
REMARK H PARENT 6 5 79 11 11 30 70 49 38 60
REMARK Flexibility Score: inf
ROOT
ATOM      1  C   UNL     1       0.901   4.356   3.685  1.00  0.00     0.116 C 
ENDROOT
BRANCH   1   2
ATOM      2  N   UNL     1       0.373   3.037   3.971  1.00  0.00    -0.355 N 
ATOM      3  C   UNL     1       0.435   1.879   3.254  1.00  0.00     0.232 C 
ATOM      4  O   UNL     1       0.513   0.865   3.965  1.00  0.00    -0.274 OA
ATOM      5  H   UNL     1      -0.112   2.965   4.825  1.00  0.00     0.163 HD
BRANCH   3   6
ATOM      6  C   UNL     1       0.423   1.746   1.691  1.00  0.00     0.103 C 
ATOM      7  C   UNL     1      -0.403   2.829   0.958  1.00  0.00     0.084 C 
ATOM      8  C   UNL     1       1.836   1.927   1.126  1.00  0.00     0.279 C 
ATOM      9  C   UNL     1       0.601   3.636   0.121  1.00  0.00     0.263 C 
ATOM     10  N   UNL     1       1.855   3.340   0.775  1.00  0.00    -0.330 N 
ATOM     11  H   UNL     1       1.898   3.912   1.618  1.00  0.00     0.348 HD
BRANCH   6  12
ATOM     12  C   UNL     1      -0.150   0.318   1.392  1.00  0.00     0.020 C 
ATOM     13  C   UNL     1       0.034  -0.244  -0.013  1.00  0.00     0.005 C 
ENDBRANCH   6  12
BRANCH  10  14
ATOM     14  C   UNL     1       3.095   3.879   0.233  1.00  0.00     0.299 C 
BRANCH  14  15
ATOM     15  C   UNL     1       4.013   4.158   1.416  1.00  0.00     0.006 A 
ATOM     16  C   UNL     1       3.866   5.354   2.132  1.00  0.00     0.010 A 
ATOM     17  C   UNL     1       4.747   3.110   1.988  1.00  0.00     0.010 A 
ATOM     18  C   UNL     1       4.254   5.416   3.471  1.00  0.00     0.004 A 
ATOM     19  C   UNL     1       5.110   3.164   3.333  1.00  0.00     0.004 A 
ATOM     20  C   UNL     1       4.784   4.284   4.106  1.00  0.00    -0.048 A 
BRANCH  20  21
ATOM     21  C   UNL     1       4.790   4.177   5.611  1.00  0.00     0.038 C 
BRANCH  21  22
ATOM     22  C   UNL     1       5.929   4.851   6.386  1.00  0.00    -0.013 C 
ATOM     23  C   UNL     1       6.087   6.335   6.057  1.00  0.00     0.008 C 
ATOM     24  C   UNL     1       5.668   4.652   7.885  1.00  0.00     0.008 C 
ENDBRANCH  21  22
ENDBRANCH  20  21
ENDBRANCH  14  15
ENDBRANCH  10  14
ENDBRANCH   3   6
ENDBRANCH   1   2
BRANCH   1  25
ATOM     25  C   UNL     1      -0.012   5.521   4.069  1.00  0.00     0.023 C 
BRANCH  25  26
ATOM     26  C   UNL     1      -0.037   5.899   5.555  1.00  0.00     0.023 C 
BRANCH  26  27
ATOM     27  C   UNL     1       1.245   6.510   6.129  1.00  0.00     0.116 C 
BRANCH  27  28
ATOM     28  N   UNL     1       1.576   7.840   5.636  1.00  0.00    -0.352 N 
ATOM     29  C   UNL     1       2.249   8.878   6.248  1.00  0.00     0.251 C 
ATOM     30  H   UNL     1       1.271   8.029   4.719  1.00  0.00     0.163 HD
ATOM     31  O   UNL     1       2.372   9.945   5.638  1.00  0.00    -0.269 OA
BRANCH  29  32
ATOM     32  C   UNL     1       2.793   8.777   7.632  1.00  0.00     0.039 A 
ATOM     33  C   UNL     1       2.789   9.914   8.453  1.00  0.00     0.014 A 
ATOM     34  C   UNL     1       3.312   7.589   8.145  1.00  0.00     0.014 A 
ATOM     35  C   UNL     1       3.190   9.825   9.795  1.00  0.00     0.010 A 
ATOM     36  C   UNL     1       3.675   7.483   9.489  1.00  0.00     0.010 A 
ATOM     37  C   UNL     1       3.581   8.589  10.338  1.00  0.00    -0.014 A 
BRANCH  37  38
ATOM     38  C   UNL     1       3.682   8.382  11.806  1.00  0.00     0.031 A 
ATOM     39  C   UNL     1       4.973   8.034  12.489  1.00  0.00     0.074 A 
ATOM     40  C   UNL     1       2.531   8.349  12.508  1.00  0.00     0.049 A 
ATOM     41  N   UNL     1       5.202   7.839  13.765  1.00  0.00    -0.248 NA
ATOM     42  C   UNL     1       6.151   7.840  11.633  1.00  0.00     0.031 C 
ATOM     43  C   UNL     1       1.194   8.512  11.932  1.00  0.00     0.029 A 
ATOM     44  N   UNL     1       2.294   8.143  13.843  1.00  0.00    -0.354 N 
ATOM     45  C   UNL     1       6.545   7.503  13.868  1.00  0.00     0.074 A 
ATOM     46  C   UNL     1       7.068   7.467  12.517  1.00  0.00     0.031 C 
ATOM     47  C   UNL     1       0.280   8.421  12.908  1.00  0.00     0.029 A 
ATOM     48  C   UNL     1       0.963   8.190  14.176  1.00  0.00     0.049 A 
ATOM     49  H   UNL     1       3.009   7.978  14.499  1.00  0.00     0.167 HD
ATOM     50  C   UNL     1       7.273   7.268  14.988  1.00  0.00     0.037 A 
ATOM     51  C   UNL     1       0.356   8.082  15.372  1.00  0.00     0.037 A 
ATOM     52  C   UNL     1       6.740   7.312  16.329  1.00  0.00     0.049 A 
ATOM     53  C   UNL     1       1.193   7.914  16.606  1.00  0.00     0.074 A 
ATOM     54  C   UNL     1       7.416   7.212  17.534  1.00  0.00     0.029 A 
ATOM     55  N   UNL     1       5.395   7.451  16.642  1.00  0.00    -0.354 N 
ATOM     56  N   UNL     1       2.491   7.771  16.709  1.00  0.00    -0.248 NA
ATOM     57  C   UNL     1       0.483   7.921  17.892  1.00  0.00     0.031 C 
ATOM     58  C   UNL     1       6.478   7.244  18.572  1.00  0.00     0.029 A 
ATOM     59  C   UNL     1       5.220   7.415  18.017  1.00  0.00     0.049 A 
ATOM     60  H   UNL     1       4.671   7.560  15.983  1.00  0.00     0.167 HD
ATOM     61  C   UNL     1       2.759   7.700  18.068  1.00  0.00     0.074 A 
ATOM     62  C   UNL     1       1.488   7.831  18.751  1.00  0.00     0.031 C 
ATOM     63  C   UNL     1       3.952   7.543  18.690  1.00  0.00     0.037 A 
BRANCH  50  64
ATOM     64  C   UNL     1       8.739   6.971  14.830  1.00  0.00     0.064 A 
ATOM     65  C   UNL     1       9.642   7.957  14.405  1.00  0.00     0.173 A 
ATOM     66  C   UNL     1       9.262   5.718  15.188  1.00  0.00     0.173 A 
ATOM     67  F   UNL     1       9.198   9.173  14.053  1.00  0.00    -0.203 F 
ATOM     68  C   UNL     1      11.008   7.694  14.321  1.00  0.00     0.198 A 
ATOM     69  C   UNL     1      10.631   5.468  15.131  1.00  0.00     0.198 A 
ATOM     70  F   UNL     1       8.447   4.742  15.616  1.00  0.00    -0.203 F 
ATOM     71  F   UNL     1      11.845   8.643  13.879  1.00  0.00    -0.200 F 
ATOM     72  C   UNL     1      11.502   6.454  14.693  1.00  0.00     0.200 A 
ATOM     73  F   UNL     1      11.110   4.274  15.509  1.00  0.00    -0.200 F 
ATOM     74  F   UNL     1      12.818   6.208  14.628  1.00  0.00    -0.200 F 
ENDBRANCH  50  64
BRANCH  51  75
ATOM     75  C   UNL     1      -1.117   8.234  15.455  1.00  0.00     0.064 A 
ATOM     76  C   UNL     1      -1.683   9.412  15.962  1.00  0.00     0.173 A 
ATOM     77  C   UNL     1      -1.986   7.236  14.990  1.00  0.00     0.173 A 
ATOM     78  F   UNL     1      -0.889  10.388  16.426  1.00  0.00    -0.203 F 
ATOM     79  C   UNL     1      -3.063   9.581  16.016  1.00  0.00     0.198 A 
ATOM     80  C   UNL     1      -3.366   7.417  15.023  1.00  0.00     0.198 A 
ATOM     81  F   UNL     1      -1.491   6.099  14.480  1.00  0.00    -0.203 F 
ATOM     82  F   UNL     1      -3.578  10.704  16.534  1.00  0.00    -0.200 F 
ATOM     83  C   UNL     1      -3.904   8.586  15.540  1.00  0.00     0.200 A 
ATOM     84  F   UNL     1      -4.177   6.462  14.545  1.00  0.00    -0.200 F 
ATOM     85  F   UNL     1      -5.233   8.755  15.582  1.00  0.00    -0.200 F 
ENDBRANCH  51  75
BRANCH  63  86
ATOM     86  C   UNL     1       3.942   7.525  20.191  1.00  0.00     0.064 A 
ATOM     87  C   UNL     1       3.425   6.437  20.910  1.00  0.00     0.173 A 
ATOM     88  C   UNL     1       4.471   8.602  20.918  1.00  0.00     0.173 A 
ATOM     89  F   UNL     1       2.892   5.391  20.261  1.00  0.00    -0.203 F 
ATOM     90  C   UNL     1       3.410   6.442  22.302  1.00  0.00     0.198 A 
ATOM     91  C   UNL     1       4.480   8.591  22.310  1.00  0.00     0.198 A 
ATOM     92  F   UNL     1       4.981   9.665  20.278  1.00  0.00    -0.203 F 
ATOM     93  F   UNL     1       2.864   5.415  22.968  1.00  0.00    -0.200 F 
ATOM     94  C   UNL     1       3.943   7.515  23.000  1.00  0.00     0.200 A 
ATOM     95  F   UNL     1       5.004   9.624  22.983  1.00  0.00    -0.200 F 
ATOM     96  F   UNL     1       3.929   7.517  24.340  1.00  0.00    -0.200 F 
ENDBRANCH  63  86
ENDBRANCH  37  38
ENDBRANCH  29  32
ENDBRANCH  27  28
ENDBRANCH  26  27
ENDBRANCH  25  26
ENDBRANCH   1  25
TORSDOF 16
