REMARK SMILES Cc1ccc(S(=O)(=O)Nc2ccc(Cl)c(C(=O)NCCCCNC(=O)c3ccc(-c4c5nc(c(-c6c(F)c(F)c(F)c(F)c6F)c6ccc([nH]6)c(-c6c(F)c(F)c(F)c(F)c6F)c6nc(c(-c7c(F)c(F)c(F)c(F)c7F)c7ccc4[nH]7)C=C6)C=C5)cc3)c2)cc1Cl
REMARK SMILES IDX 20 1 19 2 18 3 16 4 17 5 15 7 10 8 11 9 89 10 12 11 13 12
REMARK SMILES IDX 14 13 9 14 6 16 7 17 8 18 5 19 1 20 2 21 3 22 91 23 4 24
REMARK SMILES IDX 90 25 92 26 21 27 22 28 23 29 24 30 25 32 26 33 27 34 88 35
REMARK SMILES IDX 28 36 87 37 29 38 30 39 31 40 81 41 32 42 86 43 80 44 82 45
REMARK SMILES IDX 33 46 85 47 79 48 78 49 34 51 66 52 46 53 65 54 47 55 50 56
REMARK SMILES IDX 64 57 83 58 48 59 49 60 63 62 84 63 51 64 35 65 36 66 44 67
REMARK SMILES IDX 37 68 38 69 42 70 45 71 39 72 40 73 43 74 41 75 67 76 68 77
REMARK SMILES IDX 76 78 69 79 70 80 74 81 77 82 71 83 72 84 75 85 73 86 52 87
REMARK SMILES IDX 53 88 61 89 54 90 55 91 59 92 62 93 56 94 57 95 60 96 58 97
REMARK H PARENT 18 6 9 15 23 31 82 50 50 61
REMARK Flexibility Score: inf
ROOT
ATOM      1  C   UNL     1      -2.738  -0.365  -3.913  1.00  0.00     0.023 C 
ENDROOT
BRANCH   1   2
ATOM      2  C   UNL     1      -2.505   0.687  -2.825  1.00  0.00     0.116 C 
BRANCH   2   3
ATOM      3  N   UNL     1      -3.499   1.738  -2.925  1.00  0.00    -0.352 N 
ATOM      4  C   UNL     1      -4.729   1.921  -2.342  1.00  0.00     0.252 C 
ATOM      5  O   UNL     1      -5.421   2.826  -2.802  1.00  0.00    -0.269 OA
ATOM      6  H   UNL     1      -3.240   2.467  -3.535  1.00  0.00     0.163 HD
BRANCH   4   7
ATOM      7  C   UNL     1      -5.224   1.111  -1.187  1.00  0.00     0.060 A 
ATOM      8  C   UNL     1      -5.226  -0.950   0.112  1.00  0.00     0.050 A 
ATOM      9  C   UNL     1      -6.075  -0.372   1.051  1.00  0.00     0.028 A 
ATOM     10  C   UNL     1      -4.916  -0.254  -1.057  1.00  0.00     0.042 A 
ATOM     11  C   UNL     1      -6.472   0.953   0.900  1.00  0.00     0.023 A 
ATOM     12  C   UNL     1      -6.009   1.712  -0.183  1.00  0.00     0.053 A 
ATOM     13  Cl  UNL     1      -6.401   3.396  -0.127  1.00  0.00    -0.083 Cl
BRANCH   8  14
ATOM     14  N   UNL     1      -4.646  -2.201   0.457  1.00  0.00    -0.280 N 
ATOM     15  H   UNL     1      -5.194  -2.826   0.984  1.00  0.00     0.180 HD
BRANCH  14  16
ATOM     16  S   UNL     1      -3.095  -2.696   0.034  1.00  0.00     0.261 S 
ATOM     17  O   UNL     1      -3.066  -2.847  -1.413  1.00  0.00    -0.201 OA
ATOM     18  O   UNL     1      -2.774  -3.781   0.912  1.00  0.00    -0.201 OA
BRANCH  16  19
ATOM     19  C   UNL     1      -1.944  -1.380   0.401  1.00  0.00     0.089 A 
ATOM     20  C   UNL     1       0.677   2.046   0.350  1.00  0.00     0.046 C 
ATOM     21  C   UNL     1      -0.190   0.818   0.406  1.00  0.00    -0.032 A 
ATOM     22  C   UNL     1      -1.434   0.888   1.053  1.00  0.00     0.006 A 
ATOM     23  C   UNL     1       0.208  -0.408  -0.148  1.00  0.00     0.045 A 
ATOM     24  C   UNL     1      -2.299  -0.211   1.074  1.00  0.00     0.022 A 
ATOM     25  C   UNL     1      -0.669  -1.495  -0.167  1.00  0.00     0.043 A 
ATOM     26  Cl  UNL     1       1.760  -0.612  -0.876  1.00  0.00    -0.084 Cl
ENDBRANCH  16  19
ENDBRANCH  14  16
ENDBRANCH   8  14
ENDBRANCH   4   7
ENDBRANCH   2   3
ENDBRANCH   1   2
BRANCH   1  27
ATOM     27  C   UNL     1      -2.207   0.049  -5.287  1.00  0.00     0.023 C 
BRANCH  27  28
ATOM     28  C   UNL     1      -0.687   0.077  -5.379  1.00  0.00     0.116 C 
BRANCH  28  29
ATOM     29  N   UNL     1      -0.079  -1.233  -5.198  1.00  0.00    -0.352 N 
ATOM     30  C   UNL     1       1.098  -1.693  -5.740  1.00  0.00     0.251 C 
ATOM     31  H   UNL     1      -0.566  -1.863  -4.619  1.00  0.00     0.163 HD
ATOM     32  O   UNL     1       1.461  -2.853  -5.589  1.00  0.00    -0.269 OA
BRANCH  30  33
ATOM     33  C   UNL     1       1.899  -0.763  -6.558  1.00  0.00     0.039 A 
ATOM     34  C   UNL     1       2.198  -1.110  -7.878  1.00  0.00     0.014 A 
ATOM     35  C   UNL     1       2.279   0.477  -6.040  1.00  0.00     0.014 A 
ATOM     36  C   UNL     1       2.822  -0.178  -8.708  1.00  0.00     0.010 A 
ATOM     37  C   UNL     1       2.849   1.422  -6.883  1.00  0.00     0.010 A 
ATOM     38  C   UNL     1       3.118   1.105  -8.225  1.00  0.00    -0.014 A 
BRANCH  38  39
ATOM     39  C   UNL     1       3.724   2.146  -9.089  1.00  0.00     0.031 A 
ATOM     40  C   UNL     1       5.104   2.645  -8.778  1.00  0.00     0.074 A 
ATOM     41  C   UNL     1       3.000   2.712 -10.073  1.00  0.00     0.049 A 
ATOM     42  N   UNL     1       5.743   3.677  -9.266  1.00  0.00    -0.248 NA
ATOM     43  C   UNL     1       5.852   1.901  -7.752  1.00  0.00     0.031 C 
ATOM     44  C   UNL     1       1.640   2.329 -10.453  1.00  0.00     0.029 A 
ATOM     45  N   UNL     1       3.302   3.752 -10.916  1.00  0.00    -0.354 N 
ATOM     46  C   UNL     1       6.948   3.729  -8.579  1.00  0.00     0.074 A 
ATOM     47  C   UNL     1       6.943   2.642  -7.624  1.00  0.00     0.031 C 
ATOM     48  C   UNL     1       1.226   3.121 -11.456  1.00  0.00     0.029 A 
ATOM     49  C   UNL     1       2.272   4.093 -11.759  1.00  0.00     0.049 A 
ATOM     50  H   UNL     1       4.173   4.210 -10.916  1.00  0.00     0.167 HD
ATOM     51  C   UNL     1       7.970   4.602  -8.739  1.00  0.00     0.037 A 
ATOM     52  C   UNL     1       2.180   5.090 -12.659  1.00  0.00     0.037 A 
ATOM     53  C   UNL     1       7.988   5.653  -9.721  1.00  0.00     0.049 A 
ATOM     54  C   UNL     1       3.341   6.030 -12.838  1.00  0.00     0.074 A 
ATOM     55  C   UNL     1       8.995   6.562  -9.995  1.00  0.00     0.029 A 
ATOM     56  N   UNL     1       6.950   5.926 -10.599  1.00  0.00    -0.354 N 
ATOM     57  N   UNL     1       4.486   6.057 -12.202  1.00  0.00    -0.248 NA
ATOM     58  C   UNL     1       3.197   7.078 -13.858  1.00  0.00     0.031 C 
ATOM     59  C   UNL     1       8.557   7.400 -11.026  1.00  0.00     0.029 A 
ATOM     60  C   UNL     1       7.291   6.990 -11.416  1.00  0.00     0.049 A 
ATOM     61  H   UNL     1       6.097   5.435 -10.636  1.00  0.00     0.167 HD
ATOM     62  C   UNL     1       5.211   7.098 -12.765  1.00  0.00     0.074 A 
ATOM     63  C   UNL     1       4.377   7.680 -13.795  1.00  0.00     0.031 C 
ATOM     64  C   UNL     1       6.457   7.532 -12.456  1.00  0.00     0.037 A 
BRANCH  51  65
ATOM     65  C   UNL     1       9.150   4.457  -7.828  1.00  0.00     0.064 A 
ATOM     66  C   UNL     1      10.058   3.397  -7.964  1.00  0.00     0.173 A 
ATOM     67  C   UNL     1       9.388   5.403  -6.819  1.00  0.00     0.173 A 
ATOM     68  F   UNL     1       9.863   2.459  -8.903  1.00  0.00    -0.203 F 
ATOM     69  C   UNL     1      11.147   3.273  -7.106  1.00  0.00     0.198 A 
ATOM     70  C   UNL     1      10.493   5.291  -5.980  1.00  0.00     0.198 A 
ATOM     71  F   UNL     1       8.551   6.437  -6.650  1.00  0.00    -0.203 F 
ATOM     72  F   UNL     1      11.975   2.227  -7.224  1.00  0.00    -0.200 F 
ATOM     73  C   UNL     1      11.367   4.223  -6.119  1.00  0.00     0.200 A 
ATOM     74  F   UNL     1      10.710   6.213  -5.032  1.00  0.00    -0.200 F 
ATOM     75  F   UNL     1      12.418   4.104  -5.296  1.00  0.00    -0.200 F 
ENDBRANCH  51  65
BRANCH  52  76
ATOM     76  C   UNL     1       0.948   5.240 -13.474  1.00  0.00     0.064 A 
ATOM     77  C   UNL     1       0.950   4.916 -14.838  1.00  0.00     0.173 A 
ATOM     78  C   UNL     1      -0.249   5.705 -12.913  1.00  0.00     0.173 A 
ATOM     79  F   UNL     1       2.078   4.487 -15.421  1.00  0.00    -0.203 F 
ATOM     80  C   UNL     1      -0.197   5.066 -15.614  1.00  0.00     0.198 A 
ATOM     81  C   UNL     1      -1.402   5.834 -13.686  1.00  0.00     0.198 A 
ATOM     82  F   UNL     1      -0.302   6.025 -11.612  1.00  0.00    -0.203 F 
ATOM     83  F   UNL     1      -0.158   4.785 -16.924  1.00  0.00    -0.200 F 
ATOM     84  C   UNL     1      -1.373   5.521 -15.037  1.00  0.00     0.200 A 
ATOM     85  F   UNL     1      -2.539   6.264 -13.123  1.00  0.00    -0.200 F 
ATOM     86  F   UNL     1      -2.476   5.663 -15.784  1.00  0.00    -0.200 F 
ENDBRANCH  52  76
BRANCH  64  87
ATOM     87  C   UNL     1       7.021   8.651 -13.276  1.00  0.00     0.064 A 
ATOM     88  C   UNL     1       6.625   9.980 -13.077  1.00  0.00     0.173 A 
ATOM     89  C   UNL     1       8.023   8.393 -14.224  1.00  0.00     0.173 A 
ATOM     90  F   UNL     1       5.661  10.271 -12.191  1.00  0.00    -0.203 F 
ATOM     91  C   UNL     1       7.207  11.013 -13.805  1.00  0.00     0.198 A 
ATOM     92  C   UNL     1       8.616   9.430 -14.936  1.00  0.00     0.198 A 
ATOM     93  F   UNL     1       8.436   7.136 -14.445  1.00  0.00    -0.203 F 
ATOM     94  F   UNL     1       6.798  12.275 -13.618  1.00  0.00    -0.200 F 
ATOM     95  C   UNL     1       8.207  10.739 -14.727  1.00  0.00     0.200 A 
ATOM     96  F   UNL     1       9.589   9.165 -15.819  1.00  0.00    -0.200 F 
ATOM     97  F   UNL     1       8.775  11.737 -15.418  1.00  0.00    -0.200 F 
ENDBRANCH  64  87
ENDBRANCH  38  39
ENDBRANCH  30  33
ENDBRANCH  28  29
ENDBRANCH  27  28
ENDBRANCH   1  27
TORSDOF 14
