REMARK SMILES Cc1cc(=O)n2nc(C)c(C(=O)NCCCCNC(=O)c3ccc(-c4c5nc(c(-c6c(F)c(F)c(F)c(F)c6F)c6ccc([nH]6)c(-c6c(F)c(F)c(F)c(F)c6F)c6nc(c(-c7c(F)c(F)c(F)c(F)c7F)c7ccc4[nH]7)C=C6)C=C5)cc3)c2[nH]1
REMARK SMILES IDX 16 1 15 2 14 3 13 4 11 5 12 6 10 8 1 9 2 10 3 11 85 12 4 13
REMARK SMILES IDX 84 14 5 16 6 17 7 18 8 19 9 20 17 21 18 22 19 23 20 25 21 26
REMARK SMILES IDX 22 27 83 28 23 29 82 30 24 31 25 32 26 33 76 34 27 35 81 36
REMARK SMILES IDX 75 37 77 38 28 39 80 40 74 41 73 42 29 44 61 45 41 46 60 47
REMARK SMILES IDX 42 48 45 49 59 50 78 51 43 52 44 53 58 55 79 56 46 57 30 58
REMARK SMILES IDX 31 59 39 60 32 61 33 62 37 63 40 64 34 65 35 66 38 67 36 68
REMARK SMILES IDX 62 69 63 70 71 71 64 72 65 73 69 74 72 75 66 76 67 77 70 78
REMARK SMILES IDX 68 79 47 80 48 81 56 82 49 83 50 84 54 85 57 86 51 87 52 88
REMARK SMILES IDX 55 89 53 90
REMARK H PARENT 13 7 85 15 18 24 77 43 45 54
REMARK Flexibility Score: inf
ROOT
ATOM      1  C   UNL     1      -0.189   9.371  -2.319  1.00  0.00     0.023 C 
ENDROOT
BRANCH   1   2
ATOM      2  C   UNL     1      -0.265   8.030  -3.066  1.00  0.00     0.023 C 
BRANCH   2   3
ATOM      3  C   UNL     1       1.039   7.227  -3.082  1.00  0.00     0.116 C 
BRANCH   3   4
ATOM      4  N   UNL     1       1.158   6.356  -1.941  1.00  0.00    -0.352 N 
ATOM      5  C   UNL     1       0.984   5.015  -1.738  1.00  0.00     0.256 C 
ATOM      6  O   UNL     1       1.319   4.645  -0.604  1.00  0.00    -0.269 OA
ATOM      7  H   UNL     1       1.426   6.833  -1.123  1.00  0.00     0.163 HD
BRANCH   5   8
ATOM      8  C   UNL     1       0.458   4.042  -2.703  1.00  0.00     0.105 A 
ATOM      9  C   UNL     1       1.011  -0.034   0.136  1.00  0.00     0.064 C 
ATOM     10  C   UNL     1       0.561   0.633  -1.133  1.00  0.00     0.019 A 
ATOM     11  C   UNL     1      -0.007  -0.074  -2.127  1.00  0.00     0.095 A 
ATOM     12  N   UNL     1       0.753   2.001  -1.239  1.00  0.00    -0.343 N 
ATOM     13  C   UNL     1      -0.429   0.612  -3.381  1.00  0.00     0.274 A 
ATOM     14  C   UNL     1       0.394   2.696  -2.350  1.00  0.00     0.150 A 
ATOM     15  H   UNL     1       1.162   2.485  -0.486  1.00  0.00     0.168 HD
ATOM     16  O   UNL     1      -0.948   0.037  -4.320  1.00  0.00    -0.267 OA
ATOM     17  N   UNL     1      -0.170   1.995  -3.385  1.00  0.00    -0.179 N 
ATOM     18  N   UNL     1      -0.457   2.791  -4.428  1.00  0.00    -0.168 NA
ATOM     19  C   UNL     1      -0.090   4.022  -4.035  1.00  0.00     0.075 A 
ATOM     20  C   UNL     1      -0.333   5.074  -5.055  1.00  0.00     0.070 C 
ENDBRANCH   5   8
ENDBRANCH   3   4
ENDBRANCH   2   3
ENDBRANCH   1   2
BRANCH   1  21
ATOM     21  C   UNL     1       0.776  10.379  -2.932  1.00  0.00     0.116 C 
BRANCH  21  22
ATOM     22  N   UNL     1       0.413  10.779  -4.289  1.00  0.00    -0.352 N 
ATOM     23  C   UNL     1       1.128  11.617  -5.123  1.00  0.00     0.251 C 
ATOM     24  H   UNL     1      -0.428  10.413  -4.647  1.00  0.00     0.163 HD
ATOM     25  O   UNL     1       0.597  12.196  -6.061  1.00  0.00    -0.269 OA
BRANCH  23  26
ATOM     26  C   UNL     1       2.564  11.792  -4.856  1.00  0.00     0.039 A 
ATOM     27  C   UNL     1       3.132  13.064  -4.777  1.00  0.00     0.014 A 
ATOM     28  C   UNL     1       3.319  10.644  -4.613  1.00  0.00     0.014 A 
ATOM     29  C   UNL     1       4.455  13.175  -4.364  1.00  0.00     0.010 A 
ATOM     30  C   UNL     1       4.585  10.762  -4.091  1.00  0.00     0.010 A 
ATOM     31  C   UNL     1       5.169  12.021  -3.994  1.00  0.00    -0.014 A 
BRANCH  31  32
ATOM     32  C   UNL     1       6.481  12.150  -3.363  1.00  0.00     0.031 A 
ATOM     33  C   UNL     1       6.490  13.048  -2.175  1.00  0.00     0.074 A 
ATOM     34  C   UNL     1       7.553  11.400  -3.700  1.00  0.00     0.049 A 
ATOM     35  N   UNL     1       7.057  14.204  -2.079  1.00  0.00    -0.248 NA
ATOM     36  C   UNL     1       5.664  12.699  -1.007  1.00  0.00     0.031 C 
ATOM     37  C   UNL     1       7.600  10.261  -4.625  1.00  0.00     0.029 A 
ATOM     38  N   UNL     1       8.829  11.441  -3.214  1.00  0.00    -0.354 N 
ATOM     39  C   UNL     1       6.848  14.631  -0.769  1.00  0.00     0.074 A 
ATOM     40  C   UNL     1       5.848  13.760  -0.215  1.00  0.00     0.031 C 
ATOM     41  C   UNL     1       8.754   9.579  -4.452  1.00  0.00     0.029 A 
ATOM     42  C   UNL     1       9.603  10.335  -3.552  1.00  0.00     0.049 A 
ATOM     43  H   UNL     1       9.171  12.188  -2.672  1.00  0.00     0.167 HD
ATOM     44  C   UNL     1       7.735  15.482  -0.180  1.00  0.00     0.037 A 
ATOM     45  C   UNL     1      10.859  10.064  -3.123  1.00  0.00     0.037 A 
ATOM     46  C   UNL     1       8.614  16.053  -1.168  1.00  0.00     0.049 A 
ATOM     47  C   UNL     1      11.469  11.350  -2.720  1.00  0.00     0.074 A 
ATOM     48  C   UNL     1       8.554  17.047  -2.118  1.00  0.00     0.029 A 
ATOM     49  N   UNL     1       9.652  15.228  -1.504  1.00  0.00    -0.354 N 
ATOM     50  N   UNL     1      11.739  12.311  -3.560  1.00  0.00    -0.248 NA
ATOM     51  C   UNL     1      11.479  11.725  -1.311  1.00  0.00     0.031 C 
ATOM     52  C   UNL     1       9.508  16.697  -3.123  1.00  0.00     0.029 A 
ATOM     53  C   UNL     1      10.162  15.530  -2.736  1.00  0.00     0.049 A 
ATOM     54  H   UNL     1       9.992  14.505  -0.928  1.00  0.00     0.167 HD
ATOM     55  C   UNL     1      11.517  13.462  -2.834  1.00  0.00     0.074 A 
ATOM     56  C   UNL     1      11.549  13.052  -1.436  1.00  0.00     0.031 C 
ATOM     57  C   UNL     1      10.989  14.569  -3.430  1.00  0.00     0.037 A 
BRANCH  44  58
ATOM     58  C   UNL     1       8.161  15.426   1.273  1.00  0.00     0.064 A 
ATOM     59  C   UNL     1       9.013  16.431   1.782  1.00  0.00     0.173 A 
ATOM     60  C   UNL     1       8.039  14.275   2.081  1.00  0.00     0.173 A 
ATOM     61  F   UNL     1       9.237  17.554   1.083  1.00  0.00    -0.203 F 
ATOM     62  C   UNL     1       9.722  16.269   2.978  1.00  0.00     0.198 A 
ATOM     63  C   UNL     1       8.708  14.138   3.297  1.00  0.00     0.198 A 
ATOM     64  F   UNL     1       7.367  13.191   1.676  1.00  0.00    -0.203 F 
ATOM     65  F   UNL     1      10.602  17.202   3.364  1.00  0.00    -0.200 F 
ATOM     66  C   UNL     1       9.569  15.122   3.734  1.00  0.00     0.200 A 
ATOM     67  F   UNL     1       8.572  13.004   3.999  1.00  0.00    -0.200 F 
ATOM     68  F   UNL     1      10.283  14.941   4.853  1.00  0.00    -0.200 F 
ENDBRANCH  44  58
BRANCH  45  69
ATOM     69  C   UNL     1      11.457   8.762  -2.736  1.00  0.00     0.064 A 
ATOM     70  C   UNL     1      12.841   8.654  -2.510  1.00  0.00     0.173 A 
ATOM     71  C   UNL     1      10.658   7.709  -2.252  1.00  0.00     0.173 A 
ATOM     72  F   UNL     1      13.669   9.624  -2.922  1.00  0.00    -0.203 F 
ATOM     73  C   UNL     1      13.383   7.597  -1.773  1.00  0.00     0.198 A 
ATOM     74  C   UNL     1      11.203   6.652  -1.520  1.00  0.00     0.198 A 
ATOM     75  F   UNL     1       9.324   7.742  -2.384  1.00  0.00    -0.203 F 
ATOM     76  F   UNL     1      14.695   7.580  -1.496  1.00  0.00    -0.200 F 
ATOM     77  C   UNL     1      12.561   6.609  -1.259  1.00  0.00     0.200 A 
ATOM     78  F   UNL     1      10.393   5.718  -1.001  1.00  0.00    -0.200 F 
ATOM     79  F   UNL     1      13.066   5.646  -0.476  1.00  0.00    -0.200 F 
ENDBRANCH  45  69
BRANCH  57  80
ATOM     80  C   UNL     1      11.159  14.707  -4.910  1.00  0.00     0.064 A 
ATOM     81  C   UNL     1      10.576  13.861  -5.868  1.00  0.00     0.173 A 
ATOM     82  C   UNL     1      11.908  15.794  -5.377  1.00  0.00     0.173 A 
ATOM     83  F   UNL     1       9.786  12.844  -5.503  1.00  0.00    -0.203 F 
ATOM     84  C   UNL     1      10.772  14.078  -7.232  1.00  0.00     0.198 A 
ATOM     85  C   UNL     1      12.071  16.030  -6.737  1.00  0.00     0.198 A 
ATOM     86  F   UNL     1      12.459  16.654  -4.505  1.00  0.00    -0.203 F 
ATOM     87  F   UNL     1      10.226  13.246  -8.131  1.00  0.00    -0.200 F 
ATOM     88  C   UNL     1      11.514  15.166  -7.665  1.00  0.00     0.200 A 
ATOM     89  F   UNL     1      12.755  17.107  -7.148  1.00  0.00    -0.200 F 
ATOM     90  F   UNL     1      11.676  15.393  -8.975  1.00  0.00    -0.200 F 
ENDBRANCH  57  80
ENDBRANCH  31  32
ENDBRANCH  23  26
ENDBRANCH  21  22
ENDBRANCH   1  21
TORSDOF 11
