REMARK SMILES C=CCS(=O)(=O)Nc1ccc(C)cc1C(=O)NCCCCNC(=O)c1ccc(-c2c3nc(c(-c4c(F)c(F)c(F)c(F)c4F)c4ccc([nH]4)c(-c4c(F)c(F)c(F)c(F)c4F)c4nc(c(-c5c(F)c(F)c(F)c(F)c5F)c5ccc2[nH]5)C=C4)C=C3)cc1
REMARK SMILES IDX 18 1 17 2 15 3 16 4 14 6 8 7 9 8 10 9 13 10 11 11 12 12 7 13
REMARK SMILES IDX 4 15 5 16 6 17 3 18 2 19 1 20 19 21 20 22 21 23 22 24 23 25
REMARK SMILES IDX 24 27 25 28 26 29 87 30 27 31 86 32 28 33 29 34 30 35 80 36
REMARK SMILES IDX 31 37 85 38 79 39 81 40 32 41 84 42 78 43 77 44 33 46 65 47
REMARK SMILES IDX 45 48 64 49 46 50 49 51 63 52 82 53 47 54 48 55 62 57 83 58
REMARK SMILES IDX 50 59 34 60 35 61 43 62 36 63 37 64 41 65 44 66 38 67 39 68
REMARK SMILES IDX 42 69 40 70 66 71 67 72 75 73 68 74 69 75 73 76 76 77 70 78
REMARK SMILES IDX 71 79 74 80 72 81 51 82 52 83 60 84 53 85 54 86 58 87 61 88
REMARK SMILES IDX 55 89 56 90 59 91 57 92
REMARK H PARENT 17 5 7 14 22 26 81 45 49 56
REMARK Flexibility Score: inf
ROOT
ATOM      1  C   UNL     1      -3.128   1.233   3.010  1.00  0.00     0.116 C 
ENDROOT
BRANCH   1   2
ATOM      2  N   UNL     1      -2.752   0.414   4.133  1.00  0.00    -0.352 N 
ATOM      3  C   UNL     1      -1.597  -0.292   4.359  1.00  0.00     0.253 C 
ATOM      4  O   UNL     1      -1.533  -0.895   5.436  1.00  0.00    -0.269 OA
ATOM      5  H   UNL     1      -3.425   0.352   4.848  1.00  0.00     0.163 HD
BRANCH   3   6
ATOM      6  C   UNL     1      -0.438  -0.436   3.411  1.00  0.00     0.064 A 
ATOM      7  C   UNL     1       0.179   0.547   2.609  1.00  0.00     0.061 A 
ATOM      8  C   UNL     1       1.453   0.291   2.075  1.00  0.00     0.028 A 
ATOM      9  C   UNL     1       2.054  -0.963   2.179  1.00  0.00     0.005 A 
ATOM     10  C   UNL     1       0.191  -1.705   3.495  1.00  0.00     0.019 A 
ATOM     11  C   UNL     1       1.407  -1.988   2.858  1.00  0.00    -0.050 A 
ATOM     12  C   UNL     1       2.046  -3.338   2.996  1.00  0.00     0.044 C 
BRANCH   7  13
ATOM     13  N   UNL     1      -0.348   1.866   2.400  1.00  0.00    -0.282 N 
ATOM     14  H   UNL     1      -0.544   2.443   3.174  1.00  0.00     0.180 HD
BRANCH  13  15
ATOM     15  S   UNL     1      -0.637   2.440   0.822  1.00  0.00     0.236 S 
ATOM     16  O   UNL     1       0.425   3.388   0.575  1.00  0.00    -0.206 OA
ATOM     17  O   UNL     1      -2.015   2.906   0.818  1.00  0.00    -0.206 OA
BRANCH  15  18
ATOM     18  C   UNL     1      -0.533   1.048  -0.367  1.00  0.00     0.186 C 
BRANCH  18  19
ATOM     19  C   UNL     1       0.829   0.968  -1.005  1.00  0.00    -0.017 C 
ATOM     20  C   UNL     1       1.480  -0.173  -1.272  1.00  0.00     0.005 C 
ENDBRANCH  18  19
ENDBRANCH  15  18
ENDBRANCH  13  15
ENDBRANCH   7  13
ENDBRANCH   3   6
ENDBRANCH   1   2
BRANCH   1  21
ATOM     21  C   UNL     1      -4.575   1.115   2.548  1.00  0.00     0.023 C 
BRANCH  21  22
ATOM     22  C   UNL     1      -5.661   1.556   3.514  1.00  0.00     0.023 C 
BRANCH  22  23
ATOM     23  C   UNL     1      -5.616   3.001   3.983  1.00  0.00     0.116 C 
BRANCH  23  24
ATOM     24  N   UNL     1      -5.973   4.016   3.004  1.00  0.00    -0.352 N 
ATOM     25  C   UNL     1      -6.164   5.386   3.158  1.00  0.00     0.251 C 
ATOM     26  H   UNL     1      -6.100   3.680   2.088  1.00  0.00     0.163 HD
ATOM     27  O   UNL     1      -6.545   6.046   2.208  1.00  0.00    -0.269 OA
BRANCH  25  28
ATOM     28  C   UNL     1      -5.763   6.083   4.418  1.00  0.00     0.039 A 
ATOM     29  C   UNL     1      -5.281   7.401   4.329  1.00  0.00     0.014 A 
ATOM     30  C   UNL     1      -5.648   5.411   5.624  1.00  0.00     0.014 A 
ATOM     31  C   UNL     1      -4.451   7.906   5.331  1.00  0.00     0.010 A 
ATOM     32  C   UNL     1      -4.711   5.831   6.534  1.00  0.00     0.010 A 
ATOM     33  C   UNL     1      -4.060   7.051   6.352  1.00  0.00    -0.014 A 
BRANCH  33  34
ATOM     34  C   UNL     1      -2.925   7.243   7.242  1.00  0.00     0.031 A 
ATOM     35  C   UNL     1      -3.152   7.415   8.688  1.00  0.00     0.074 A 
ATOM     36  C   UNL     1      -1.707   6.910   6.764  1.00  0.00     0.049 A 
ATOM     37  N   UNL     1      -2.226   7.634   9.555  1.00  0.00    -0.248 NA
ATOM     38  C   UNL     1      -4.485   7.377   9.275  1.00  0.00     0.031 C 
ATOM     39  C   UNL     1      -0.512   6.543   7.519  1.00  0.00     0.029 A 
ATOM     40  N   UNL     1      -1.252   7.033   5.441  1.00  0.00    -0.354 N 
ATOM     41  C   UNL     1      -2.771   7.470  10.808  1.00  0.00     0.074 A 
ATOM     42  C   UNL     1      -4.194   7.413  10.577  1.00  0.00     0.031 C 
ATOM     43  C   UNL     1       0.567   6.770   6.752  1.00  0.00     0.029 A 
ATOM     44  C   UNL     1       0.097   7.453   5.560  1.00  0.00     0.049 A 
ATOM     45  H   UNL     1      -1.759   6.865   4.614  1.00  0.00     0.167 HD
ATOM     46  C   UNL     1      -1.920   7.282  11.860  1.00  0.00     0.037 A 
ATOM     47  C   UNL     1       0.430   8.734   5.215  1.00  0.00     0.037 A 
ATOM     48  C   UNL     1      -0.537   7.580  11.456  1.00  0.00     0.049 A 
ATOM     49  C   UNL     1       0.914   9.596   6.369  1.00  0.00     0.074 A 
ATOM     50  C   UNL     1       0.587   6.832  11.146  1.00  0.00     0.029 A 
ATOM     51  N   UNL     1      -0.258   8.867  11.026  1.00  0.00    -0.354 N 
ATOM     52  N   UNL     1       0.956   9.217   7.618  1.00  0.00    -0.248 NA
ATOM     53  C   UNL     1       1.300  10.998   6.205  1.00  0.00     0.031 C 
ATOM     54  C   UNL     1       1.516   7.685  10.471  1.00  0.00     0.029 A 
ATOM     55  C   UNL     1       0.963   8.951  10.389  1.00  0.00     0.049 A 
ATOM     56  H   UNL     1      -0.861   9.633  11.160  1.00  0.00     0.167 HD
ATOM     57  C   UNL     1       1.294  10.282   8.408  1.00  0.00     0.074 A 
ATOM     58  C   UNL     1       1.503  11.376   7.478  1.00  0.00     0.031 C 
ATOM     59  C   UNL     1       1.339  10.214   9.771  1.00  0.00     0.037 A 
BRANCH  46  60
ATOM     60  C   UNL     1      -2.279   6.662  13.203  1.00  0.00     0.064 A 
ATOM     61  C   UNL     1      -1.255   6.224  14.076  1.00  0.00     0.173 A 
ATOM     62  C   UNL     1      -3.580   6.385  13.671  1.00  0.00     0.173 A 
ATOM     63  F   UNL     1       0.036   6.468  13.818  1.00  0.00    -0.203 F 
ATOM     64  C   UNL     1      -1.514   5.510  15.254  1.00  0.00     0.198 A 
ATOM     65  C   UNL     1      -3.839   5.659  14.838  1.00  0.00     0.198 A 
ATOM     66  F   UNL     1      -4.675   6.821  13.052  1.00  0.00    -0.203 F 
ATOM     67  F   UNL     1      -0.493   5.104  16.022  1.00  0.00    -0.200 F 
ATOM     68  C   UNL     1      -2.806   5.209  15.625  1.00  0.00     0.200 A 
ATOM     69  F   UNL     1      -5.109   5.402  15.187  1.00  0.00    -0.200 F 
ATOM     70  F   UNL     1      -3.056   4.508  16.738  1.00  0.00    -0.200 F 
ENDBRANCH  46  60
BRANCH  47  71
ATOM     71  C   UNL     1      -0.381   9.226   4.062  1.00  0.00     0.064 A 
ATOM     72  C   UNL     1      -0.303   8.522   2.843  1.00  0.00     0.173 A 
ATOM     73  C   UNL     1      -1.483  10.068   4.252  1.00  0.00     0.173 A 
ATOM     74  F   UNL     1       0.735   7.702   2.609  1.00  0.00    -0.203 F 
ATOM     75  C   UNL     1      -1.348   8.550   1.922  1.00  0.00     0.198 A 
ATOM     76  C   UNL     1      -2.514  10.114   3.312  1.00  0.00     0.198 A 
ATOM     77  F   UNL     1      -1.631  10.749   5.397  1.00  0.00    -0.203 F 
ATOM     78  F   UNL     1      -1.302   7.771   0.832  1.00  0.00    -0.200 F 
ATOM     79  C   UNL     1      -2.467   9.325   2.173  1.00  0.00     0.200 A 
ATOM     80  F   UNL     1      -3.609  10.847   3.566  1.00  0.00    -0.200 F 
ATOM     81  F   UNL     1      -3.518   9.281   1.342  1.00  0.00    -0.200 F 
ENDBRANCH  47  71
BRANCH  59  82
ATOM     82  C   UNL     1       1.732  11.382  10.632  1.00  0.00     0.064 A 
ATOM     83  C   UNL     1       2.867  12.161  10.355  1.00  0.00     0.173 A 
ATOM     84  C   UNL     1       1.045  11.688  11.825  1.00  0.00     0.173 A 
ATOM     85  F   UNL     1       3.622  11.912   9.275  1.00  0.00    -0.203 F 
ATOM     86  C   UNL     1       3.259  13.208  11.192  1.00  0.00     0.198 A 
ATOM     87  C   UNL     1       1.473  12.694  12.689  1.00  0.00     0.198 A 
ATOM     88  F   UNL     1      -0.078  11.043  12.173  1.00  0.00    -0.203 F 
ATOM     89  F   UNL     1       4.313  13.966  10.859  1.00  0.00    -0.200 F 
ATOM     90  C   UNL     1       2.571  13.465  12.365  1.00  0.00     0.200 A 
ATOM     91  F   UNL     1       0.807  12.916  13.832  1.00  0.00    -0.200 F 
ATOM     92  F   UNL     1       2.962  14.455  13.178  1.00  0.00    -0.200 F 
ENDBRANCH  59  82
ENDBRANCH  33  34
ENDBRANCH  25  28
ENDBRANCH  23  24
ENDBRANCH  22  23
ENDBRANCH  21  22
ENDBRANCH   1  21
TORSDOF 15
