REMARK SMILES [NH3+][C@](CCC[P@TB4](=O)([O-])[O-])(Cc1ccccc1)C(=O)NCCCCNC(=O)c1ccc(-c2c3nc(c(-c4c(F)c(F)c(F)c(F)c4F)c4ccc([nH]4)c(-c4c(F)c(F)c(F)c(F)c4F)c4nc(c(-c5c(F)c(F)c(F)c(F)c5F)c5ccc2[nH]5)C=C4)C=C3)cc1
REMARK SMILES IDX 20 1 19 2 17 3 18 4 2 6 1 7 10 11 11 12 12 13 16 14 13 15
REMARK SMILES IDX 15 16 14 17 3 18 4 19 5 20 6 21 7 22 8 23 9 24 21 25 22 26
REMARK SMILES IDX 23 27 24 28 25 29 26 31 27 32 28 33 89 34 29 35 88 36 30 37
REMARK SMILES IDX 31 38 32 39 82 40 33 41 87 42 81 43 83 44 34 45 86 46 80 47
REMARK SMILES IDX 79 48 35 50 67 51 47 52 66 53 48 54 51 55 65 56 84 57 49 58
REMARK SMILES IDX 50 59 64 61 85 62 52 63 36 64 37 65 45 66 38 67 39 68 43 69
REMARK SMILES IDX 46 70 40 71 41 72 44 73 42 74 68 75 69 76 77 77 70 78 71 79
REMARK SMILES IDX 75 80 78 81 72 82 73 83 76 84 74 85 53 86 54 87 62 88 55 89
REMARK SMILES IDX 56 90 60 91 63 92 57 93 58 94 61 95 59 96
REMARK H PARENT 19 5 1 8 1 9 1 10 24 30 83 49 51 60
REMARK Flexibility Score: inf
ROOT
ATOM      1  C   UNL     1      -0.395   1.917  -4.319  1.00  0.00       nan C 
ENDROOT
BRANCH   1   2
ATOM      2  N   UNL     1       0.441   2.480  -3.272  1.00  0.00       nan N 
ATOM      3  C   UNL     1       0.755   1.961  -2.043  1.00  0.00       nan C 
ATOM      4  O   UNL     1       1.566   2.586  -1.354  1.00  0.00       nan OA
ATOM      5  H   UNL     1       0.838   3.357  -3.475  1.00  0.00       nan HD
BRANCH   3   6
ATOM      6  C   UNL     1       0.109   0.618  -1.573  1.00  0.00       nan C 
BRANCH   6   7
ATOM      7  N   UNL     1       0.367  -0.345  -2.668  1.00  0.00       nan N 
ATOM      8  H   UNL     1      -0.098  -0.026  -3.518  1.00  0.00       nan HD
ATOM      9  H   UNL     1       0.005  -1.262  -2.406  1.00  0.00       nan HD
ATOM     10  H   UNL     1       1.371  -0.410  -2.834  1.00  0.00       nan HD
ENDBRANCH   6   7
BRANCH   6  11
ATOM     11  C   UNL     1      -1.425   0.760  -1.338  1.00  0.00       nan C 
BRANCH  11  12
ATOM     12  C   UNL     1      -1.810   1.708  -0.221  1.00  0.00       nan A 
ATOM     13  C   UNL     1      -1.718   3.095  -0.397  1.00  0.00       nan A 
ATOM     14  C   UNL     1      -2.196   1.211   1.032  1.00  0.00       nan A 
ATOM     15  C   UNL     1      -1.953   3.964   0.667  1.00  0.00       nan A 
ATOM     16  C   UNL     1      -2.433   2.083   2.096  1.00  0.00       nan A 
ATOM     17  C   UNL     1      -2.301   3.458   1.916  1.00  0.00       nan A 
ENDBRANCH  11  12
ENDBRANCH   6  11
BRANCH   6  18
ATOM     18  C   UNL     1       0.816   0.136  -0.278  1.00  0.00       nan C 
BRANCH  18  19
ATOM     19  C   UNL     1       0.530  -1.313   0.120  1.00  0.00       nan C 
BRANCH  19  20
ATOM     20  C   UNL     1       1.229  -2.357  -0.742  1.00  0.00       nan C 
BRANCH  20  21
ATOM     21  P   UNL     1       3.052  -2.229  -0.658  1.00  0.00       nan P 
ATOM     22  O   UNL     1       3.230  -3.579  -1.350  1.00  0.00       nan OA
ATOM     23  O   UNL     1       3.106  -1.103  -1.843  1.00  0.00       nan OA
ATOM     24  O   UNL     1       4.776  -2.108  -0.578  1.00  0.00       nan OA
ENDBRANCH  20  21
ENDBRANCH  19  20
ENDBRANCH  18  19
ENDBRANCH   6  18
ENDBRANCH   3   6
ENDBRANCH   1   2
BRANCH   1  25
ATOM     25  C   UNL     1      -1.698   2.685  -4.482  1.00  0.00       nan C 
BRANCH  25  26
ATOM     26  C   UNL     1      -1.512   4.072  -5.070  1.00  0.00       nan C 
BRANCH  26  27
ATOM     27  C   UNL     1      -0.724   4.084  -6.368  1.00  0.00       nan C 
BRANCH  27  28
ATOM     28  N   UNL     1      -1.269   3.184  -7.377  1.00  0.00       nan N 
ATOM     29  C   UNL     1      -1.405   3.416  -8.725  1.00  0.00       inf C 
ATOM     30  H   UNL     1      -1.577   2.306  -7.054  1.00  0.00       inf HD
ATOM     31  O   UNL     1      -1.985   2.637  -9.457  1.00  0.00    -0.269 OA
BRANCH  29  32
ATOM     32  C   UNL     1      -0.846   4.675  -9.246  1.00  0.00     0.039 A 
ATOM     33  C   UNL     1      -1.692   5.572  -9.896  1.00  0.00     0.014 A 
ATOM     34  C   UNL     1       0.482   5.004  -8.962  1.00  0.00     0.014 A 
ATOM     35  C   UNL     1      -1.215   6.843 -10.213  1.00  0.00     0.010 A 
ATOM     36  C   UNL     1       0.924   6.295  -9.198  1.00  0.00     0.010 A 
ATOM     37  C   UNL     1       0.083   7.222  -9.834  1.00  0.00    -0.014 A 
BRANCH  37  38
ATOM     38  C   UNL     1       0.611   8.574 -10.127  1.00  0.00     0.031 A 
ATOM     39  C   UNL     1       1.786   8.712 -11.052  1.00  0.00     0.074 A 
ATOM     40  C   UNL     1       0.090   9.651  -9.511  1.00  0.00     0.049 A 
ATOM     41  N   UNL     1       2.485   9.776 -11.351  1.00  0.00    -0.248 NA
ATOM     42  C   UNL     1       2.263   7.478 -11.699  1.00  0.00     0.031 C 
ATOM     43  C   UNL     1      -1.025   9.632  -8.562  1.00  0.00     0.029 A 
ATOM     44  N   UNL     1       0.441  10.975  -9.584  1.00  0.00    -0.354 N 
ATOM     45  C   UNL     1       3.491   9.335 -12.199  1.00  0.00     0.074 A 
ATOM     46  C   UNL     1       3.352   7.901 -12.321  1.00  0.00     0.031 C 
ATOM     47  C   UNL     1      -1.280  10.888  -8.158  1.00  0.00     0.029 A 
ATOM     48  C   UNL     1      -0.323  11.793  -8.788  1.00  0.00     0.049 A 
ATOM     49  H   UNL     1       1.173  11.308 -10.152  1.00  0.00     0.167 HD
ATOM     50  C   UNL     1       4.429  10.066 -12.844  1.00  0.00     0.037 A 
ATOM     51  C   UNL     1      -0.249  13.123  -8.588  1.00  0.00     0.037 A 
ATOM     52  C   UNL     1       4.537  11.496 -12.749  1.00  0.00     0.049 A 
ATOM     53  C   UNL     1       0.804  13.912  -9.320  1.00  0.00     0.074 A 
ATOM     54  C   UNL     1       5.424  12.339 -13.392  1.00  0.00     0.029 A 
ATOM     55  N   UNL     1       3.720  12.294 -11.961  1.00  0.00    -0.354 N 
ATOM     56  N   UNL     1       1.719  13.493 -10.160  1.00  0.00    -0.248 NA
ATOM     57  C   UNL     1       0.829  15.362  -9.081  1.00  0.00     0.031 C 
ATOM     58  C   UNL     1       5.164  13.647 -12.971  1.00  0.00     0.029 A 
ATOM     59  C   UNL     1       4.087  13.622 -12.099  1.00  0.00     0.049 A 
ATOM     60  H   UNL     1       2.989  11.966 -11.390  1.00  0.00     0.167 HD
ATOM     61  C   UNL     1       2.402  14.627 -10.578  1.00  0.00     0.074 A 
ATOM     62  C   UNL     1       1.791  15.754  -9.905  1.00  0.00     0.031 C 
ATOM     63  C   UNL     1       3.442  14.728 -11.441  1.00  0.00     0.037 A 
BRANCH  50  64
ATOM     64  C   UNL     1       5.398   9.330 -13.721  1.00  0.00     0.064 A 
ATOM     65  C   UNL     1       4.991   8.740 -14.928  1.00  0.00     0.173 A 
ATOM     66  C   UNL     1       6.752   9.237 -13.368  1.00  0.00     0.173 A 
ATOM     67  F   UNL     1       3.703   8.787 -15.302  1.00  0.00    -0.203 F 
ATOM     68  C   UNL     1       5.899   8.061 -15.735  1.00  0.00     0.198 A 
ATOM     69  C   UNL     1       7.663   8.583 -14.193  1.00  0.00     0.198 A 
ATOM     70  F   UNL     1       7.192   9.784 -12.225  1.00  0.00    -0.203 F 
ATOM     71  F   UNL     1       5.478   7.464 -16.858  1.00  0.00    -0.200 F 
ATOM     72  C   UNL     1       7.235   7.991 -15.372  1.00  0.00     0.200 A 
ATOM     73  F   UNL     1       8.956   8.525 -13.846  1.00  0.00    -0.200 F 
ATOM     74  F   UNL     1       8.110   7.345 -16.154  1.00  0.00    -0.200 F 
ENDBRANCH  50  64
BRANCH  51  75
ATOM     75  C   UNL     1      -1.213  13.800  -7.683  1.00  0.00     0.064 A 
ATOM     76  C   UNL     1      -2.185  14.672  -8.193  1.00  0.00     0.173 A 
ATOM     77  C   UNL     1      -1.171  13.613  -6.294  1.00  0.00     0.173 A 
ATOM     78  F   UNL     1      -2.253  14.899  -9.514  1.00  0.00    -0.203 F 
ATOM     79  C   UNL     1      -3.059  15.352  -7.348  1.00  0.00     0.198 A 
ATOM     80  C   UNL     1      -2.064  14.272  -5.451  1.00  0.00     0.198 A 
ATOM     81  F   UNL     1      -0.264  12.785  -5.754  1.00  0.00    -0.203 F 
ATOM     82  F   UNL     1      -3.943  16.220  -7.860  1.00  0.00    -0.200 F 
ATOM     83  C   UNL     1      -3.000  15.149  -5.978  1.00  0.00     0.200 A 
ATOM     84  F   UNL     1      -2.012  14.064  -4.128  1.00  0.00    -0.200 F 
ATOM     85  F   UNL     1      -3.838  15.806  -5.165  1.00  0.00    -0.200 F 
ENDBRANCH  51  75
BRANCH  63  86
ATOM     86  C   UNL     1       3.946  16.105 -11.754  1.00  0.00     0.064 A 
ATOM     87  C   UNL     1       4.694  16.845 -10.827  1.00  0.00     0.173 A 
ATOM     88  C   UNL     1       3.721  16.667 -13.020  1.00  0.00     0.173 A 
ATOM     89  F   UNL     1       4.923  16.356  -9.600  1.00  0.00    -0.203 F 
ATOM     90  C   UNL     1       5.181  18.109 -11.150  1.00  0.00     0.198 A 
ATOM     91  C   UNL     1       4.234  17.918 -13.349  1.00  0.00     0.198 A 
ATOM     92  F   UNL     1       3.018  15.994 -13.943  1.00  0.00    -0.203 F 
ATOM     93  F   UNL     1       5.858  18.817 -10.236  1.00  0.00    -0.200 F 
ATOM     94  C   UNL     1       4.958  18.640 -12.413  1.00  0.00     0.200 A 
ATOM     95  F   UNL     1       4.030  18.423 -14.573  1.00  0.00    -0.200 F 
ATOM     96  F   UNL     1       5.437  19.852 -12.725  1.00  0.00    -0.200 F 
ENDBRANCH  63  86
ENDBRANCH  37  38
ENDBRANCH  29  32
ENDBRANCH  27  28
ENDBRANCH  26  27
ENDBRANCH  25  26
ENDBRANCH   1  25
TORSDOF 18
