REMARK SMILES O=C(NCCCCNC(=O)[C@H](CO)NC(=O)[C@H](CS)NC(=O)c1ccc(F)cc1)c1ccc(-c2c3nc(c(-c4c(F)c(F)c(F)c(F)c4F)c4ccc([nH]4)c(-c4c(F)c(F)c(F)c(F)c4F)c4nc(c(-c5c(F)c(F)c(F)c(F)c5F)c5ccc2[nH]5)C=C4)C=C3)cc1
REMARK SMILES IDX 6 1 5 2 4 3 3 4 1 5 2 6 30 8 31 9 92 10 32 11 91 12 33 13
REMARK SMILES IDX 34 14 35 15 85 16 36 17 90 18 84 19 86 20 37 21 89 22 83 23
REMARK SMILES IDX 82 24 38 26 70 27 50 28 69 29 51 30 54 31 68 32 87 33 52 34
REMARK SMILES IDX 53 35 67 37 88 38 55 39 39 40 40 41 48 42 41 43 42 44 46 45
REMARK SMILES IDX 49 46 43 47 44 48 47 49 45 50 71 51 72 52 80 53 73 54 74 55
REMARK SMILES IDX 78 56 81 57 75 58 76 59 79 60 77 61 56 62 57 63 65 64 58 65
REMARK SMILES IDX 59 66 63 67 66 68 60 69 61 70 64 71 62 72 7 73 8 74 9 75
REMARK SMILES IDX 10 77 11 78 14 79 15 80 16 82 17 83 20 84 21 85 22 87 23 88
REMARK SMILES IDX 24 89 29 90 25 91 28 92 26 93 27 94 18 95 19 96 12 98 13 99
REMARK H PARENT 3 7 86 25 54 36 8 76 14 81 20 86 19 97 13 100
REMARK Flexibility Score: inf
ROOT
ATOM      1  C   UNL     1       8.079   6.032  -2.501  1.00  0.00     0.023 C 
ENDROOT
BRANCH   1   2
ATOM      2  C   UNL     1       7.629   5.106  -3.634  1.00  0.00     0.023 C 
BRANCH   2   3
ATOM      3  C   UNL     1       8.561   3.939  -3.930  1.00  0.00     0.116 C 
BRANCH   3   4
ATOM      4  N   UNL     1       8.838   3.101  -2.775  1.00  0.00    -0.352 N 
ATOM      5  O   UNL     1       9.256   1.155  -1.698  1.00  0.00    -0.269 OA
ATOM      6  C   UNL     1       9.128   1.757  -2.758  1.00  0.00     0.251 C 
ATOM      7  H   UNL     1       8.814   3.550  -1.899  1.00  0.00     0.163 HD
BRANCH   6   8
ATOM      8  C   UNL     1       9.244   1.037  -4.042  1.00  0.00     0.039 A 
ATOM      9  C   UNL     1      10.046   1.547  -5.065  1.00  0.00     0.014 A 
ATOM     10  C   UNL     1       8.514  -0.140  -4.232  1.00  0.00     0.014 A 
ATOM     11  C   UNL     1      10.017   0.953  -6.319  1.00  0.00     0.010 A 
ATOM     12  C   UNL     1       8.545  -0.779  -5.473  1.00  0.00     0.010 A 
ATOM     13  C   UNL     1       9.277  -0.222  -6.533  1.00  0.00    -0.014 A 
BRANCH  13  14
ATOM     14  C   UNL     1       9.350  -0.884  -7.857  1.00  0.00     0.031 A 
ATOM     15  C   UNL     1       8.158  -0.946  -8.766  1.00  0.00     0.074 A 
ATOM     16  C   UNL     1      10.536  -1.387  -8.251  1.00  0.00     0.049 A 
ATOM     17  N   UNL     1       8.069  -1.454  -9.970  1.00  0.00    -0.248 NA
ATOM     18  C   UNL     1       6.901  -0.367  -8.267  1.00  0.00     0.031 C 
ATOM     19  C   UNL     1      11.757  -1.381  -7.442  1.00  0.00     0.029 A 
ATOM     20  N   UNL     1      10.921  -1.969  -9.430  1.00  0.00    -0.354 N 
ATOM     21  C   UNL     1       6.752  -1.270 -10.366  1.00  0.00     0.074 A 
ATOM     22  C   UNL     1       6.067  -0.620  -9.268  1.00  0.00     0.031 C 
ATOM     23  C   UNL     1      12.768  -1.876  -8.169  1.00  0.00     0.029 A 
ATOM     24  C   UNL     1      12.255  -2.291  -9.470  1.00  0.00     0.049 A 
ATOM     25  H   UNL     1      10.301  -2.139 -10.176  1.00  0.00     0.167 HD
ATOM     26  C   UNL     1       6.175  -1.610 -11.543  1.00  0.00     0.037 A 
ATOM     27  C   UNL     1      12.984  -2.865 -10.443  1.00  0.00     0.037 A 
ATOM     28  C   UNL     1       6.869  -2.240 -12.636  1.00  0.00     0.049 A 
ATOM     29  C   UNL     1      12.310  -3.248 -11.727  1.00  0.00     0.074 A 
ATOM     30  C   UNL     1       6.375  -2.599 -13.879  1.00  0.00     0.029 A 
ATOM     31  N   UNL     1       8.208  -2.601 -12.620  1.00  0.00    -0.354 N 
ATOM     32  N   UNL     1      11.065  -3.063 -12.090  1.00  0.00    -0.248 NA
ATOM     33  C   UNL     1      13.136  -3.932 -12.730  1.00  0.00     0.031 C 
ATOM     34  C   UNL     1       7.404  -3.212 -14.600  1.00  0.00     0.029 A 
ATOM     35  C   UNL     1       8.551  -3.197 -13.823  1.00  0.00     0.049 A 
ATOM     36  H   UNL     1       8.824  -2.455 -11.866  1.00  0.00     0.167 HD
ATOM     37  C   UNL     1      10.955  -3.607 -13.361  1.00  0.00     0.074 A 
ATOM     38  C   UNL     1      12.268  -4.103 -13.718  1.00  0.00     0.031 C 
ATOM     39  C   UNL     1       9.861  -3.696 -14.155  1.00  0.00     0.037 A 
BRANCH  26  40
ATOM     40  C   UNL     1       4.715  -1.317 -11.726  1.00  0.00     0.064 A 
ATOM     41  C   UNL     1       3.779  -2.362 -11.750  1.00  0.00     0.173 A 
ATOM     42  C   UNL     1       4.256  -0.016 -11.978  1.00  0.00     0.173 A 
ATOM     43  F   UNL     1       4.169  -3.624 -11.521  1.00  0.00    -0.203 F 
ATOM     44  C   UNL     1       2.439  -2.116 -12.039  1.00  0.00     0.198 A 
ATOM     45  C   UNL     1       2.911   0.228 -12.247  1.00  0.00     0.198 A 
ATOM     46  F   UNL     1       5.111   1.017 -11.956  1.00  0.00    -0.203 F 
ATOM     47  F   UNL     1       1.568  -3.134 -12.090  1.00  0.00    -0.200 F 
ATOM     48  C   UNL     1       2.006  -0.823 -12.287  1.00  0.00     0.200 A 
ATOM     49  F   UNL     1       2.491   1.481 -12.471  1.00  0.00    -0.200 F 
ATOM     50  F   UNL     1       0.717  -0.588 -12.568  1.00  0.00    -0.200 F 
ENDBRANCH  26  40
BRANCH  27  51
ATOM     51  C   UNL     1      14.433  -3.103 -10.227  1.00  0.00     0.064 A 
ATOM     52  C   UNL     1      14.884  -4.049  -9.294  1.00  0.00     0.173 A 
ATOM     53  C   UNL     1      15.395  -2.356 -10.918  1.00  0.00     0.173 A 
ATOM     54  F   UNL     1      14.000  -4.784  -8.603  1.00  0.00    -0.203 F 
ATOM     55  C   UNL     1      16.242  -4.219  -9.042  1.00  0.00     0.198 A 
ATOM     56  C   UNL     1      16.755  -2.546 -10.686  1.00  0.00     0.198 A 
ATOM     57  F   UNL     1      15.011  -1.452 -11.832  1.00  0.00    -0.203 F 
ATOM     58  F   UNL     1      16.644  -5.099  -8.116  1.00  0.00    -0.200 F 
ATOM     59  C   UNL     1      17.177  -3.470  -9.741  1.00  0.00     0.200 A 
ATOM     60  F   UNL     1      17.656  -1.836 -11.377  1.00  0.00    -0.200 F 
ATOM     61  F   UNL     1      18.485  -3.640  -9.505  1.00  0.00    -0.200 F 
ENDBRANCH  27  51
BRANCH  39  62
ATOM     62  C   UNL     1      10.037  -4.360 -15.486  1.00  0.00     0.064 A 
ATOM     63  C   UNL     1      10.028  -3.605 -16.668  1.00  0.00     0.173 A 
ATOM     64  C   UNL     1      10.164  -5.752 -15.591  1.00  0.00     0.173 A 
ATOM     65  F   UNL     1       9.904  -2.270 -16.617  1.00  0.00    -0.203 F 
ATOM     66  C   UNL     1      10.133  -4.223 -17.910  1.00  0.00     0.198 A 
ATOM     67  C   UNL     1      10.292  -6.365 -16.834  1.00  0.00     0.198 A 
ATOM     68  F   UNL     1      10.193  -6.512 -14.486  1.00  0.00    -0.203 F 
ATOM     69  F   UNL     1      10.100  -3.486 -19.029  1.00  0.00    -0.200 F 
ATOM     70  C   UNL     1      10.269  -5.601 -17.992  1.00  0.00     0.200 A 
ATOM     71  F   UNL     1      10.448  -7.694 -16.911  1.00  0.00    -0.200 F 
ATOM     72  F   UNL     1      10.384  -6.194 -19.188  1.00  0.00    -0.200 F 
ENDBRANCH  39  62
ENDBRANCH  13  14
ENDBRANCH   6   8
ENDBRANCH   3   4
ENDBRANCH   2   3
ENDBRANCH   1   2
BRANCH   1  73
ATOM     73  C   UNL     1       9.494   6.585  -2.650  1.00  0.00     0.116 C 
BRANCH  73  74
ATOM     74  N   UNL     1       9.565   7.596  -3.685  1.00  0.00    -0.354 N 
ATOM     75  C   UNL     1       9.514   8.952  -3.658  1.00  0.00     0.244 C 
ATOM     76  H   UNL     1       9.671   7.225  -4.590  1.00  0.00     0.163 HD
ATOM     77  O   UNL     1       9.622   9.521  -4.753  1.00  0.00    -0.273 OA
BRANCH  75  78
ATOM     78  C   UNL     1       9.357   9.809  -2.379  1.00  0.00     0.197 C 
BRANCH  78  79
ATOM     79  N   UNL     1       9.249   9.136  -1.083  1.00  0.00    -0.340 N 
ATOM     80  C   UNL     1       8.204   8.750  -0.306  1.00  0.00     0.244 C 
ATOM     81  H   UNL     1      10.124   8.914  -0.690  1.00  0.00     0.164 HD
ATOM     82  O   UNL     1       8.513   8.054   0.670  1.00  0.00    -0.273 OA
BRANCH  80  83
ATOM     83  C   UNL     1       6.737   9.229  -0.474  1.00  0.00     0.181 C 
BRANCH  83  84
ATOM     84  N   UNL     1       6.378   9.768  -1.783  1.00  0.00    -0.339 N 
ATOM     85  C   UNL     1       6.064  11.057  -2.141  1.00  0.00     0.251 C 
ATOM     86  H   UNL     1       6.356   9.111  -2.516  1.00  0.00     0.164 HD
ATOM     87  O   UNL     1       5.630  11.270  -3.269  1.00  0.00    -0.269 OA
BRANCH  85  88
ATOM     88  C   UNL     1       6.226  12.189  -1.195  1.00  0.00     0.040 A 
ATOM     89  C   UNL     1       7.377  12.365  -0.415  1.00  0.00     0.017 A 
ATOM     90  C   UNL     1       5.203  13.146  -1.143  1.00  0.00     0.017 A 
ATOM     91  C   UNL     1       7.475  13.451   0.457  1.00  0.00     0.040 A 
ATOM     92  C   UNL     1       5.309  14.238  -0.279  1.00  0.00     0.040 A 
ATOM     93  C   UNL     1       6.439  14.374   0.521  1.00  0.00     0.123 A 
ATOM     94  F   UNL     1       6.536  15.415   1.357  1.00  0.00    -0.207 F 
ENDBRANCH  85  88
ENDBRANCH  83  84
BRANCH  83  95
ATOM     95  C   UNL     1       5.808   8.065  -0.057  1.00  0.00     0.101 C 
BRANCH  95  96
ATOM     96  S   UNL     1       4.028   8.422  -0.248  1.00  0.00    -0.177 SA
ATOM     97  H   UNL     1       3.685   9.460   0.561  1.00  0.00     0.102 HD
ENDBRANCH  95  96
ENDBRANCH  83  95
ENDBRANCH  80  83
ENDBRANCH  78  79
BRANCH  78  98
ATOM     98  C   UNL     1      10.533  10.811  -2.369  1.00  0.00     0.191 C 
BRANCH  98  99
ATOM     99  O   UNL     1      10.204  12.000  -3.086  1.00  0.00    -0.394 OA
ATOM    100  H   UNL     1      10.009  11.777  -4.010  1.00  0.00     0.210 HD
ENDBRANCH  98  99
ENDBRANCH  78  98
ENDBRANCH  75  78
ENDBRANCH  73  74
ENDBRANCH   1  73
TORSDOF 19
