REMARK SMILES Cn1c(Cl)cnc1C[N@H+]1CCC[C@@H]1C(=O)NCCCCNC(=O)c1ccc(-c2c3nc(c(-c4c(F)c(F)c(F)c(F)c4F)c4ccc([nH]4)c(-c4c(F)c(F)c(F)c(F)c4F)c4nc(c(-c5c(F)c(F)c(F)c(F)c5F)c5ccc2[nH]5)C=C4)C=C3)cc1
REMARK SMILES IDX 18 1 17 2 16 3 14 4 15 5 13 7 9 8 10 9 11 11 12 12 8 13 7 14
REMARK SMILES IDX 1 15 2 16 3 17 4 18 5 19 6 20 19 21 20 22 21 23 22 24 23 26
REMARK SMILES IDX 24 27 25 28 86 29 26 30 85 31 27 32 28 33 29 34 79 35 30 36
REMARK SMILES IDX 84 37 78 38 80 39 31 40 83 41 77 42 76 43 32 45 64 46 44 47
REMARK SMILES IDX 63 48 45 49 48 50 62 51 81 52 46 53 47 54 61 56 82 57 49 58
REMARK SMILES IDX 33 59 34 60 42 61 35 62 36 63 40 64 43 65 37 66 38 67 41 68
REMARK SMILES IDX 39 69 65 70 66 71 74 72 67 73 68 74 72 75 75 76 69 77 70 78
REMARK SMILES IDX 73 79 71 80 50 81 51 82 59 83 52 84 53 85 57 86 60 87 54 88
REMARK SMILES IDX 55 89 58 90 56 91
REMARK H PARENT 16 6 9 10 21 25 80 44 48 55
REMARK Flexibility Score: inf
ROOT
ATOM      1  C   UNL     1      -1.664   1.717   3.156  1.00  0.00     0.023 C 
ENDROOT
BRANCH   1   2
ATOM      2  C   UNL     1      -1.257   2.224   1.745  1.00  0.00     0.116 C 
BRANCH   2   3
ATOM      3  N   UNL     1      -1.260   1.310   0.617  1.00  0.00    -0.351 N 
ATOM      4  C   UNL     1      -0.959   1.555  -0.705  1.00  0.00     0.278 C 
ATOM      5  O   UNL     1      -0.878   0.560  -1.443  1.00  0.00    -0.268 OA
ATOM      6  H   UNL     1      -1.514   0.383   0.827  1.00  0.00     0.163 HD
BRANCH   4   7
ATOM      7  C   UNL     1      -0.677   2.960  -1.323  1.00  0.00     0.274 C 
ATOM      8  N   UNL     1       0.602   3.516  -0.897  1.00  0.00    -0.318 N 
ATOM      9  C   UNL     1       0.527   4.945  -0.700  1.00  0.00     0.263 C 
ATOM     10  H   UNL     1       0.731   3.096   0.024  1.00  0.00     0.349 HD
ATOM     11  C   UNL     1      -0.901   5.106  -0.210  1.00  0.00     0.068 C 
ATOM     12  C   UNL     1      -1.682   4.066  -1.010  1.00  0.00     0.081 C 
BRANCH   8  13
ATOM     13  C   UNL     1       1.855   2.959  -1.390  1.00  0.00     0.339 C 
BRANCH  13  14
ATOM     14  C   UNL     1       2.368   2.101  -0.279  1.00  0.00     0.165 A 
ATOM     15  C   UNL     1       2.469  -0.167  -1.367  1.00  0.00     0.152 C 
ATOM     16  N   UNL     1       2.277   0.723  -0.256  1.00  0.00    -0.317 N 
ATOM     17  C   UNL     1       1.810   0.417   0.985  1.00  0.00     0.128 A 
ATOM     18  Cl  UNL     1       1.191  -1.120   1.361  1.00  0.00    -0.063 Cl
ATOM     19  C   UNL     1       1.853   1.599   1.675  1.00  0.00     0.152 A 
ATOM     20  N   UNL     1       2.464   2.566   0.954  1.00  0.00    -0.234 NA
ENDBRANCH  13  14
ENDBRANCH   8  13
ENDBRANCH   4   7
ENDBRANCH   2   3
ENDBRANCH   1   2
BRANCH   1  21
ATOM     21  C   UNL     1      -1.172   0.459   3.916  1.00  0.00     0.023 C 
BRANCH  21  22
ATOM     22  C   UNL     1       0.232   0.213   4.518  1.00  0.00     0.116 C 
BRANCH  22  23
ATOM     23  N   UNL     1       0.788   1.129   5.514  1.00  0.00    -0.352 N 
ATOM     24  C   UNL     1       2.016   0.992   6.191  1.00  0.00     0.251 C 
ATOM     25  H   UNL     1       0.249   1.923   5.733  1.00  0.00     0.163 HD
ATOM     26  O   UNL     1       2.183   1.526   7.280  1.00  0.00    -0.269 OA
BRANCH  24  27
ATOM     27  C   UNL     1       3.154   0.252   5.567  1.00  0.00     0.039 A 
ATOM     28  C   UNL     1       4.123  -0.484   6.243  1.00  0.00     0.014 A 
ATOM     29  C   UNL     1       3.328   0.429   4.210  1.00  0.00     0.014 A 
ATOM     30  C   UNL     1       5.159  -1.099   5.508  1.00  0.00     0.010 A 
ATOM     31  C   UNL     1       4.243  -0.265   3.454  1.00  0.00     0.010 A 
ATOM     32  C   UNL     1       5.204  -1.003   4.101  1.00  0.00    -0.014 A 
BRANCH  32  33
ATOM     33  C   UNL     1       6.181  -1.727   3.288  1.00  0.00     0.031 A 
ATOM     34  C   UNL     1       6.217  -3.188   3.547  1.00  0.00     0.074 A 
ATOM     35  C   UNL     1       6.881  -1.230   2.241  1.00  0.00     0.049 A 
ATOM     36  N   UNL     1       7.147  -3.841   4.156  1.00  0.00    -0.248 NA
ATOM     37  C   UNL     1       5.044  -4.001   3.197  1.00  0.00     0.031 C 
ATOM     38  C   UNL     1       6.761   0.066   1.564  1.00  0.00     0.029 A 
ATOM     39  N   UNL     1       7.848  -1.856   1.506  1.00  0.00    -0.354 N 
ATOM     40  C   UNL     1       6.763  -5.176   4.146  1.00  0.00     0.074 A 
ATOM     41  C   UNL     1       5.402  -5.199   3.669  1.00  0.00     0.031 C 
ATOM     42  C   UNL     1       7.477   0.050   0.414  1.00  0.00     0.029 A 
ATOM     43  C   UNL     1       8.237  -1.185   0.352  1.00  0.00     0.049 A 
ATOM     44  H   UNL     1       8.241  -2.718   1.774  1.00  0.00     0.167 HD
ATOM     45  C   UNL     1       7.675  -6.165   4.359  1.00  0.00     0.037 A 
ATOM     46  C   UNL     1       9.114  -1.627  -0.586  1.00  0.00     0.037 A 
ATOM     47  C   UNL     1       8.906  -5.628   4.886  1.00  0.00     0.049 A 
ATOM     48  C   UNL     1       9.955  -2.670   0.052  1.00  0.00     0.074 A 
ATOM     49  C   UNL     1       9.249  -4.928   6.028  1.00  0.00     0.029 A 
ATOM     50  N   UNL     1       9.950  -5.439   4.013  1.00  0.00    -0.354 N 
ATOM     51  N   UNL     1      10.832  -2.428   0.984  1.00  0.00    -0.248 NA
ATOM     52  C   UNL     1       9.505  -4.050  -0.042  1.00  0.00     0.031 C 
ATOM     53  C   UNL     1      10.208  -3.965   5.595  1.00  0.00     0.029 A 
ATOM     54  C   UNL     1      10.443  -4.180   4.236  1.00  0.00     0.049 A 
ATOM     55  H   UNL     1      10.281  -6.088   3.350  1.00  0.00     0.167 HD
ATOM     56  C   UNL     1      10.702  -3.489   1.866  1.00  0.00     0.074 A 
ATOM     57  C   UNL     1       9.940  -4.500   1.137  1.00  0.00     0.031 C 
ATOM     58  C   UNL     1      10.975  -3.336   3.194  1.00  0.00     0.037 A 
BRANCH  45  59
ATOM     59  C   UNL     1       7.606  -7.555   3.784  1.00  0.00     0.064 A 
ATOM     60  C   UNL     1       8.539  -8.520   4.217  1.00  0.00     0.173 A 
ATOM     61  C   UNL     1       6.880  -7.885   2.622  1.00  0.00     0.173 A 
ATOM     62  F   UNL     1       9.290  -8.305   5.308  1.00  0.00    -0.203 F 
ATOM     63  C   UNL     1       8.792  -9.682   3.485  1.00  0.00     0.198 A 
ATOM     64  C   UNL     1       7.098  -9.072   1.924  1.00  0.00     0.198 A 
ATOM     65  F   UNL     1       6.023  -7.030   2.052  1.00  0.00    -0.203 F 
ATOM     66  F   UNL     1       9.783 -10.502   3.861  1.00  0.00    -0.200 F 
ATOM     67  C   UNL     1       8.077  -9.953   2.334  1.00  0.00     0.200 A 
ATOM     68  F   UNL     1       6.407  -9.310   0.800  1.00  0.00    -0.200 F 
ATOM     69  F   UNL     1       8.364 -11.030   1.592  1.00  0.00    -0.200 F 
ENDBRANCH  45  59
BRANCH  46  70
ATOM     70  C   UNL     1       9.097  -1.438  -2.058  1.00  0.00     0.064 A 
ATOM     71  C   UNL     1      10.226  -1.741  -2.841  1.00  0.00     0.173 A 
ATOM     72  C   UNL     1       7.884  -1.268  -2.751  1.00  0.00     0.173 A 
ATOM     73  F   UNL     1      11.414  -1.956  -2.258  1.00  0.00    -0.203 F 
ATOM     74  C   UNL     1      10.136  -1.913  -4.227  1.00  0.00     0.198 A 
ATOM     75  C   UNL     1       7.796  -1.435  -4.135  1.00  0.00     0.198 A 
ATOM     76  F   UNL     1       6.740  -1.040  -2.089  1.00  0.00    -0.203 F 
ATOM     77  F   UNL     1      11.218  -2.277  -4.929  1.00  0.00    -0.200 F 
ATOM     78  C   UNL     1       8.917  -1.775  -4.870  1.00  0.00     0.200 A 
ATOM     79  F   UNL     1       6.604  -1.336  -4.740  1.00  0.00    -0.200 F 
ATOM     80  F   UNL     1       8.813  -2.014  -6.185  1.00  0.00    -0.200 F 
ENDBRANCH  46  70
BRANCH  58  81
ATOM     81  C   UNL     1      11.688  -2.084   3.625  1.00  0.00     0.064 A 
ATOM     82  C   UNL     1      11.181  -0.783   3.460  1.00  0.00     0.173 A 
ATOM     83  C   UNL     1      12.879  -2.222   4.351  1.00  0.00     0.173 A 
ATOM     84  F   UNL     1      10.001  -0.570   2.865  1.00  0.00    -0.203 F 
ATOM     85  C   UNL     1      11.864   0.328   3.956  1.00  0.00     0.198 A 
ATOM     86  C   UNL     1      13.538  -1.116   4.878  1.00  0.00     0.198 A 
ATOM     87  F   UNL     1      13.385  -3.443   4.584  1.00  0.00    -0.203 F 
ATOM     88  F   UNL     1      11.370   1.561   3.768  1.00  0.00    -0.200 F 
ATOM     89  C   UNL     1      13.038   0.159   4.671  1.00  0.00     0.200 A 
ATOM     90  F   UNL     1      14.648  -1.290   5.609  1.00  0.00    -0.200 F 
ATOM     91  F   UNL     1      13.676   1.222   5.180  1.00  0.00    -0.200 F 
ENDBRANCH  58  81
ENDBRANCH  32  33
ENDBRANCH  24  27
ENDBRANCH  22  23
ENDBRANCH  21  22
ENDBRANCH   1  21
TORSDOF 13
