REMARK SMILES Cc1c(Cl)ccc2c1C=C(C(=O)NCCCCNC(=O)c1ccc(-c3c4nc(c(-c5c(F)c(F)c(F)c(F)c5F)c5ccc([nH]5)c(-c5c(F)c(F)c(F)c(F)c5F)c5nc(c(-c6c(F)c(F)c(F)c(F)c6F)c6ccc3[nH]6)C=C5)C=C4)cc1)[C@@H](C(F)(F)F)O2
REMARK SMILES IDX 16 1 15 2 14 3 13 4 11 5 12 6 10 8 1 9 2 10 3 11 8 12 4 13
REMARK SMILES IDX 5 14 7 15 9 16 6 17 89 18 84 19 85 20 86 21 87 22 88 23
REMARK SMILES IDX 17 24 18 25 19 26 20 28 21 29 22 30 83 31 23 32 82 33 24 34
REMARK SMILES IDX 25 35 26 36 76 37 27 38 81 39 75 40 77 41 28 42 80 43 74 44
REMARK SMILES IDX 73 45 29 47 61 48 41 49 60 50 42 51 45 52 59 53 78 54 43 55
REMARK SMILES IDX 44 56 58 58 79 59 46 60 30 61 31 62 39 63 32 64 33 65 37 66
REMARK SMILES IDX 40 67 34 68 35 69 38 70 36 71 62 72 63 73 71 74 64 75 65 76
REMARK SMILES IDX 69 77 72 78 66 79 67 80 70 81 68 82 47 83 48 84 56 85 49 86
REMARK SMILES IDX 50 87 54 88 57 89 51 90 52 91 55 92 53 93
REMARK H PARENT 13 7 18 27 77 46 45 57
REMARK Flexibility Score: inf
ROOT
ATOM      1  C   UNL     1      -4.050   5.337  -5.915  1.00  0.00     0.023 C 
ENDROOT
BRANCH   1   2
ATOM      2  C   UNL     1      -3.446   3.933  -5.830  1.00  0.00     0.023 C 
BRANCH   2   3
ATOM      3  C   UNL     1      -1.928   3.918  -5.674  1.00  0.00     0.116 C 
BRANCH   3   4
ATOM      4  N   UNL     1      -1.529   4.124  -4.294  1.00  0.00    -0.352 N 
ATOM      5  C   UNL     1      -1.045   3.369  -3.281  1.00  0.00     0.251 C 
ATOM      6  O   UNL     1      -0.856   3.979  -2.224  1.00  0.00    -0.270 OA
ATOM      7  H   UNL     1      -1.639   5.064  -4.022  1.00  0.00     0.163 HD
BRANCH   5   8
ATOM      8  C   UNL     1      -0.733   1.909  -3.357  1.00  0.00     0.067 C 
ATOM      9  C   UNL     1       0.977   0.008   0.207  1.00  0.00     0.047 C 
ATOM     10  C   UNL     1       0.584  -0.730  -1.049  1.00  0.00    -0.021 A 
ATOM     11  C   UNL     1       0.855  -2.116  -1.135  1.00  0.00     0.044 A 
ATOM     12  C   UNL     1      -0.014  -0.093  -2.163  1.00  0.00     0.022 A 
ATOM     13  Cl  UNL     1       1.601  -2.983   0.166  1.00  0.00    -0.084 Cl
ATOM     14  C   UNL     1       0.534  -2.852  -2.277  1.00  0.00     0.024 A 
ATOM     15  C   UNL     1      -0.307  -0.851  -3.308  1.00  0.00     0.128 A 
ATOM     16  C   UNL     1      -0.389   1.325  -2.194  1.00  0.00     0.026 C 
ATOM     17  C   UNL     1      -0.052  -2.219  -3.364  1.00  0.00     0.048 A 
ATOM     18  O   UNL     1      -0.894  -0.325  -4.425  1.00  0.00    -0.475 OA
ATOM     19  C   UNL     1      -0.743   1.104  -4.620  1.00  0.00     0.314 C 
BRANCH  19  20
ATOM     20  C   UNL     1       0.478   1.380  -5.516  1.00  0.00     0.429 C 
ATOM     21  F   UNL     1       0.274   0.883  -6.762  1.00  0.00    -0.167 F 
ATOM     22  F   UNL     1       0.718   2.704  -5.670  1.00  0.00    -0.167 F 
ATOM     23  F   UNL     1       1.614   0.827  -5.038  1.00  0.00    -0.167 F 
ENDBRANCH  19  20
ENDBRANCH   5   8
ENDBRANCH   3   4
ENDBRANCH   2   3
ENDBRANCH   1   2
BRANCH   1  24
ATOM     24  C   UNL     1      -3.475   6.229  -7.013  1.00  0.00     0.116 C 
BRANCH  24  25
ATOM     25  N   UNL     1      -3.482   5.607  -8.330  1.00  0.00    -0.352 N 
ATOM     26  C   UNL     1      -3.687   6.214  -9.545  1.00  0.00     0.251 C 
ATOM     27  H   UNL     1      -3.321   4.636  -8.352  1.00  0.00     0.163 HD
ATOM     28  O   UNL     1      -3.736   5.564 -10.582  1.00  0.00    -0.269 OA
BRANCH  26  29
ATOM     29  C   UNL     1      -3.885   7.671  -9.567  1.00  0.00     0.039 A 
ATOM     30  C   UNL     1      -5.098   8.177 -10.039  1.00  0.00     0.014 A 
ATOM     31  C   UNL     1      -2.905   8.516  -9.038  1.00  0.00     0.014 A 
ATOM     32  C   UNL     1      -5.356   9.541  -9.924  1.00  0.00     0.010 A 
ATOM     33  C   UNL     1      -3.182   9.868  -8.885  1.00  0.00     0.010 A 
ATOM     34  C   UNL     1      -4.410  10.387  -9.323  1.00  0.00    -0.014 A 
BRANCH  34  35
ATOM     35  C   UNL     1      -4.684  11.832  -9.164  1.00  0.00     0.031 A 
ATOM     36  C   UNL     1      -3.950  12.820 -10.018  1.00  0.00     0.074 A 
ATOM     37  C   UNL     1      -5.555  12.247  -8.226  1.00  0.00     0.049 A 
ATOM     38  N   UNL     1      -4.016  14.126 -10.011  1.00  0.00    -0.248 NA
ATOM     39  C   UNL     1      -3.002  12.267 -10.998  1.00  0.00     0.031 C 
ATOM     40  C   UNL     1      -6.303  11.373  -7.321  1.00  0.00     0.029 A 
ATOM     41  N   UNL     1      -5.956  13.511  -7.878  1.00  0.00    -0.354 N 
ATOM     42  C   UNL     1      -3.123  14.549 -10.985  1.00  0.00     0.074 A 
ATOM     43  C   UNL     1      -2.488  13.367 -11.525  1.00  0.00     0.031 C 
ATOM     44  C   UNL     1      -7.087  12.127  -6.533  1.00  0.00     0.029 A 
ATOM     45  C   UNL     1      -6.880  13.535  -6.863  1.00  0.00     0.049 A 
ATOM     46  H   UNL     1      -5.613  14.324  -8.314  1.00  0.00     0.167 HD
ATOM     47  C   UNL     1      -2.877  15.810 -11.407  1.00  0.00     0.037 A 
ATOM     48  C   UNL     1      -7.490  14.579  -6.272  1.00  0.00     0.037 A 
ATOM     49  C   UNL     1      -3.521  16.980 -10.877  1.00  0.00     0.049 A 
ATOM     50  C   UNL     1      -7.178  15.974  -6.741  1.00  0.00     0.074 A 
ATOM     51  C   UNL     1      -3.368  18.300 -11.262  1.00  0.00     0.029 A 
ATOM     52  N   UNL     1      -4.446  16.967  -9.843  1.00  0.00    -0.354 N 
ATOM     53  N   UNL     1      -6.367  16.361  -7.695  1.00  0.00    -0.248 NA
ATOM     54  C   UNL     1      -7.866  17.075  -6.053  1.00  0.00     0.031 C 
ATOM     55  C   UNL     1      -4.179  19.090 -10.440  1.00  0.00     0.029 A 
ATOM     56  C   UNL     1      -4.862  18.258  -9.566  1.00  0.00     0.049 A 
ATOM     57  H   UNL     1      -4.759  16.160  -9.375  1.00  0.00     0.167 HD
ATOM     58  C   UNL     1      -6.463  17.745  -7.738  1.00  0.00     0.074 A 
ATOM     59  C   UNL     1      -7.417  18.130  -6.719  1.00  0.00     0.031 C 
ATOM     60  C   UNL     1      -5.818  18.617  -8.550  1.00  0.00     0.037 A 
BRANCH  47  61
ATOM     61  C   UNL     1      -1.878  15.981 -12.510  1.00  0.00     0.064 A 
ATOM     62  C   UNL     1      -2.185  15.619 -13.830  1.00  0.00     0.173 A 
ATOM     63  C   UNL     1      -0.616  16.533 -12.253  1.00  0.00     0.173 A 
ATOM     64  F   UNL     1      -3.375  15.072 -14.120  1.00  0.00    -0.203 F 
ATOM     65  C   UNL     1      -1.254  15.784 -14.851  1.00  0.00     0.198 A 
ATOM     66  C   UNL     1       0.305  16.717 -13.281  1.00  0.00     0.198 A 
ATOM     67  F   UNL     1      -0.276  16.894 -11.007  1.00  0.00    -0.203 F 
ATOM     68  F   UNL     1      -1.553  15.393 -16.097  1.00  0.00    -0.200 F 
ATOM     69  C   UNL     1      -0.012  16.338 -14.577  1.00  0.00     0.200 A 
ATOM     70  F   UNL     1       1.502  17.259 -13.017  1.00  0.00    -0.200 F 
ATOM     71  F   UNL     1       0.882  16.499 -15.562  1.00  0.00    -0.200 F 
ENDBRANCH  47  61
BRANCH  48  72
ATOM     72  C   UNL     1      -8.490  14.339  -5.202  1.00  0.00     0.064 A 
ATOM     73  C   UNL     1      -9.858  14.513  -5.452  1.00  0.00     0.173 A 
ATOM     74  C   UNL     1      -8.106  13.919  -3.921  1.00  0.00     0.173 A 
ATOM     75  F   UNL     1     -10.269  14.932  -6.658  1.00  0.00    -0.203 F 
ATOM     76  C   UNL     1     -10.805  14.283  -4.457  1.00  0.00     0.198 A 
ATOM     77  C   UNL     1      -9.056  13.671  -2.932  1.00  0.00     0.198 A 
ATOM     78  F   UNL     1      -6.808  13.737  -3.635  1.00  0.00    -0.203 F 
ATOM     79  F   UNL     1     -12.105  14.481  -4.714  1.00  0.00    -0.200 F 
ATOM     80  C   UNL     1     -10.404  13.857  -3.200  1.00  0.00     0.200 A 
ATOM     81  F   UNL     1      -8.666  13.251  -1.721  1.00  0.00    -0.200 F 
ATOM     82  F   UNL     1     -11.316  13.629  -2.245  1.00  0.00    -0.200 F 
ENDBRANCH  48  72
BRANCH  60  83
ATOM     83  C   UNL     1      -6.132  20.073  -8.388  1.00  0.00     0.064 A 
ATOM     84  C   UNL     1      -5.605  20.816  -7.323  1.00  0.00     0.173 A 
ATOM     85  C   UNL     1      -6.902  20.744  -9.348  1.00  0.00     0.173 A 
ATOM     86  F   UNL     1      -4.874  20.212  -6.374  1.00  0.00    -0.203 F 
ATOM     87  C   UNL     1      -5.843  22.184  -7.223  1.00  0.00     0.198 A 
ATOM     88  C   UNL     1      -7.120  22.116  -9.256  1.00  0.00     0.198 A 
ATOM     89  F   UNL     1      -7.422  20.074 -10.387  1.00  0.00    -0.203 F 
ATOM     90  F   UNL     1      -5.350  22.873  -6.185  1.00  0.00    -0.200 F 
ATOM     91  C   UNL     1      -6.593  22.833  -8.193  1.00  0.00     0.200 A 
ATOM     92  F   UNL     1      -7.835  22.744 -10.200  1.00  0.00    -0.200 F 
ATOM     93  F   UNL     1      -6.808  24.153  -8.102  1.00  0.00    -0.200 F 
ENDBRANCH  60  83
ENDBRANCH  34  35
ENDBRANCH  26  29
ENDBRANCH  24  25
ENDBRANCH   1  24
TORSDOF 12
