REMARK SMILES CCCN1CCC[C@@]2(CCN(c3ccc(C(=O)NCCCCNC(=O)c4ccc(-c5c6nc(c(-c7c(F)c(F)c(F)c(F)c7F)c7ccc([nH]7)c(-c7c(F)c(F)c(F)c(F)c7F)c7nc(c(-c8c(F)c(F)c(F)c(F)c8F)c8ccc5[nH]8)C=C7)C=C6)cc4)cn3)C2)C1=O
REMARK SMILES IDX 20 1 19 2 18 3 16 4 17 5 15 7 12 8 13 9 90 10 14 11 89 12
REMARK SMILES IDX 11 13 4 14 5 15 92 16 6 17 8 18 93 19 7 20 9 21 91 22 10 23
REMARK SMILES IDX 3 24 2 25 1 26 21 27 22 28 23 29 24 30 25 32 26 33 27 34
REMARK SMILES IDX 88 35 28 36 87 37 29 38 30 39 31 40 81 41 32 42 86 43 80 44
REMARK SMILES IDX 82 45 33 46 85 47 79 48 78 49 34 51 66 52 46 53 65 54 47 55
REMARK SMILES IDX 50 56 64 57 83 58 48 59 49 60 63 62 84 63 51 64 35 65 36 66
REMARK SMILES IDX 44 67 37 68 38 69 42 70 45 71 39 72 40 73 43 74 41 75 67 76
REMARK SMILES IDX 68 77 76 78 69 79 70 80 74 81 77 82 71 83 72 84 75 85 73 86
REMARK SMILES IDX 52 87 53 88 61 89 54 90 55 91 59 92 62 93 56 94 57 95 60 96
REMARK SMILES IDX 58 97
REMARK H PARENT 18 6 23 31 82 50 50 61
REMARK Flexibility Score: inf
ROOT
ATOM      1  C   UNL     1      10.048  -0.969  -6.678  1.00  0.00     0.023 C 
ENDROOT
BRANCH   1   2
ATOM      2  C   UNL     1       9.800   0.068  -5.578  1.00  0.00     0.116 C 
BRANCH   2   3
ATOM      3  N   UNL     1       9.576   1.383  -6.143  1.00  0.00    -0.352 N 
ATOM      4  C   UNL     1       8.432   2.042  -6.523  1.00  0.00     0.252 C 
ATOM      5  O   UNL     1       8.560   3.195  -6.936  1.00  0.00    -0.269 OA
ATOM      6  H   UNL     1      10.400   1.904  -6.281  1.00  0.00     0.163 HD
BRANCH   4   7
ATOM      7  C   UNL     1       7.069   1.456  -6.439  1.00  0.00     0.058 A 
ATOM      8  C   UNL     1       4.417   0.625  -6.266  1.00  0.00     0.128 A 
ATOM      9  C   UNL     1       5.444  -0.305  -6.205  1.00  0.00     0.048 A 
ATOM     10  N   UNL     1       4.674   1.933  -6.446  1.00  0.00    -0.239 NA
ATOM     11  C   UNL     1       6.766   0.106  -6.331  1.00  0.00     0.019 A 
ATOM     12  C   UNL     1       5.979   2.320  -6.509  1.00  0.00     0.127 A 
BRANCH   8  13
ATOM     13  N   UNL     1       3.128   0.166  -6.158  1.00  0.00    -0.356 N 
ATOM     14  N   UNL     1       0.387   0.333  -2.778  1.00  0.00    -0.342 N 
ATOM     15  C   UNL     1      -0.185  -0.967  -2.466  1.00  0.00     0.119 C 
ATOM     16  C   UNL     1       0.535   0.677  -4.122  1.00  0.00     0.230 C 
ATOM     17  C   UNL     1       0.644  -2.058  -3.119  1.00  0.00     0.023 C 
ATOM     18  C   UNL     1       1.130  -0.427  -5.005  1.00  0.00     0.069 C 
ATOM     19  O   UNL     1       0.374   1.828  -4.525  1.00  0.00    -0.274 OA
ATOM     20  C   UNL     1       0.636  -1.834  -4.628  1.00  0.00     0.021 C 
ATOM     21  C   UNL     1       0.883  -0.132  -6.501  1.00  0.00     0.040 C 
ATOM     22  C   UNL     1       2.670  -0.311  -4.857  1.00  0.00     0.135 C 
ATOM     23  C   UNL     1       2.045   0.780  -6.896  1.00  0.00     0.119 C 
BRANCH  14  24
ATOM     24  C   UNL     1       0.560   1.402  -1.795  1.00  0.00     0.119 C 
BRANCH  24  25
ATOM     25  C   UNL     1       0.254   1.123  -0.326  1.00  0.00     0.018 C 
ATOM     26  C   UNL     1       1.274   0.229   0.366  1.00  0.00     0.006 C 
ENDBRANCH  24  25
ENDBRANCH  14  24
ENDBRANCH   8  13
ENDBRANCH   4   7
ENDBRANCH   2   3
ENDBRANCH   1   2
BRANCH   1  27
ATOM     27  C   UNL     1      11.484  -1.000  -7.202  1.00  0.00     0.023 C 
BRANCH  27  28
ATOM     28  C   UNL     1      12.533  -1.389  -6.168  1.00  0.00     0.116 C 
BRANCH  28  29
ATOM     29  N   UNL     1      12.292  -2.687  -5.556  1.00  0.00    -0.352 N 
ATOM     30  C   UNL     1      13.213  -3.568  -5.044  1.00  0.00     0.251 C 
ATOM     31  H   UNL     1      11.351  -2.970  -5.502  1.00  0.00     0.163 HD
ATOM     32  O   UNL     1      12.867  -4.674  -4.641  1.00  0.00    -0.269 OA
BRANCH  30  33
ATOM     33  C   UNL     1      14.638  -3.184  -5.029  1.00  0.00     0.039 A 
ATOM     34  C   UNL     1      15.575  -4.059  -5.584  1.00  0.00     0.014 A 
ATOM     35  C   UNL     1      15.037  -1.947  -4.517  1.00  0.00     0.014 A 
ATOM     36  C   UNL     1      16.908  -3.661  -5.689  1.00  0.00     0.010 A 
ATOM     37  C   UNL     1      16.351  -1.525  -4.685  1.00  0.00     0.010 A 
ATOM     38  C   UNL     1      17.298  -2.377  -5.275  1.00  0.00    -0.014 A 
BRANCH  38  39
ATOM     39  C   UNL     1      18.691  -1.902  -5.455  1.00  0.00     0.031 A 
ATOM     40  C   UNL     1      19.543  -1.597  -4.257  1.00  0.00     0.074 A 
ATOM     41  C   UNL     1      19.160  -1.677  -6.697  1.00  0.00     0.049 A 
ATOM     42  N   UNL     1      20.754  -1.104  -4.206  1.00  0.00    -0.248 NA
ATOM     43  C   UNL     1      18.942  -1.853  -2.938  1.00  0.00     0.031 C 
ATOM     44  C   UNL     1      18.409  -1.884  -7.936  1.00  0.00     0.029 A 
ATOM     45  N   UNL     1      20.379  -1.210  -7.122  1.00  0.00    -0.354 N 
ATOM     46  C   UNL     1      21.052  -0.976  -2.856  1.00  0.00     0.074 A 
ATOM     47  C   UNL     1      19.877  -1.393  -2.121  1.00  0.00     0.031 C 
ATOM     48  C   UNL     1      19.189  -1.566  -8.982  1.00  0.00     0.029 A 
ATOM     49  C   UNL     1      20.481  -1.101  -8.487  1.00  0.00     0.049 A 
ATOM     50  H   UNL     1      21.111  -0.977  -6.506  1.00  0.00     0.167 HD
ATOM     51  C   UNL     1      22.209  -0.571  -2.282  1.00  0.00     0.037 A 
ATOM     52  C   UNL     1      21.502  -0.669  -9.252  1.00  0.00     0.037 A 
ATOM     53  C   UNL     1      23.384  -0.184  -3.018  1.00  0.00     0.049 A 
ATOM     54  C   UNL     1      22.779  -0.230  -8.589  1.00  0.00     0.074 A 
ATOM     55  C   UNL     1      24.627   0.180  -2.530  1.00  0.00     0.029 A 
ATOM     56  N   UNL     1      23.459  -0.112  -4.401  1.00  0.00    -0.354 N 
ATOM     57  N   UNL     1      23.076  -0.182  -7.313  1.00  0.00    -0.248 NA
ATOM     58  C   UNL     1      23.867   0.208  -9.474  1.00  0.00     0.031 C 
ATOM     59  C   UNL     1      25.442   0.513  -3.617  1.00  0.00     0.029 A 
ATOM     60  C   UNL     1      24.723   0.310  -4.784  1.00  0.00     0.049 A 
ATOM     61  H   UNL     1      22.724  -0.328  -5.019  1.00  0.00     0.167 HD
ATOM     62  C   UNL     1      24.388   0.263  -7.242  1.00  0.00     0.074 A 
ATOM     63  C   UNL     1      24.837   0.458  -8.605  1.00  0.00     0.031 C 
ATOM     64  C   UNL     1      25.154   0.490  -6.147  1.00  0.00     0.037 A 
BRANCH  51  65
ATOM     65  C   UNL     1      22.262  -0.531  -0.783  1.00  0.00     0.064 A 
ATOM     66  C   UNL     1      22.268  -1.707  -0.017  1.00  0.00     0.173 A 
ATOM     67  C   UNL     1      22.339   0.694  -0.104  1.00  0.00     0.173 A 
ATOM     68  F   UNL     1      22.183  -2.904  -0.617  1.00  0.00    -0.203 F 
ATOM     69  C   UNL     1      22.318  -1.657   1.373  1.00  0.00     0.198 A 
ATOM     70  C   UNL     1      22.419   0.740   1.285  1.00  0.00     0.198 A 
ATOM     71  F   UNL     1      22.341   1.848  -0.788  1.00  0.00    -0.203 F 
ATOM     72  F   UNL     1      22.271  -2.792   2.085  1.00  0.00    -0.200 F 
ATOM     73  C   UNL     1      22.401  -0.435   2.023  1.00  0.00     0.200 A 
ATOM     74  F   UNL     1      22.510   1.921   1.911  1.00  0.00    -0.200 F 
ATOM     75  F   UNL     1      22.455  -0.388   3.361  1.00  0.00    -0.200 F 
ENDBRANCH  51  65
BRANCH  52  76
ATOM     76  C   UNL     1      21.369  -0.659 -10.731  1.00  0.00     0.064 A 
ATOM     77  C   UNL     1      22.090  -1.563 -11.523  1.00  0.00     0.173 A 
ATOM     78  C   UNL     1      20.524   0.251 -11.383  1.00  0.00     0.173 A 
ATOM     79  F   UNL     1      22.926  -2.438 -10.945  1.00  0.00    -0.203 F 
ATOM     80  C   UNL     1      21.988  -1.544 -12.912  1.00  0.00     0.198 A 
ATOM     81  C   UNL     1      20.402   0.250 -12.771  1.00  0.00     0.198 A 
ATOM     82  F   UNL     1      19.807   1.132 -10.671  1.00  0.00    -0.203 F 
ATOM     83  F   UNL     1      22.723  -2.390 -13.647  1.00  0.00    -0.200 F 
ATOM     84  C   UNL     1      21.140  -0.642 -13.535  1.00  0.00     0.200 A 
ATOM     85  F   UNL     1      19.571   1.115 -13.369  1.00  0.00    -0.200 F 
ATOM     86  F   UNL     1      21.039  -0.626 -14.871  1.00  0.00    -0.200 F 
ENDBRANCH  52  76
BRANCH  64  87
ATOM     87  C   UNL     1      26.566   0.942  -6.377  1.00  0.00     0.064 A 
ATOM     88  C   UNL     1      26.860   2.238  -6.822  1.00  0.00     0.173 A 
ATOM     89  C   UNL     1      27.639   0.078  -6.108  1.00  0.00     0.173 A 
ATOM     90  F   UNL     1      25.868   3.095  -7.108  1.00  0.00    -0.203 F 
ATOM     91  C   UNL     1      28.177   2.647  -7.012  1.00  0.00     0.198 A 
ATOM     92  C   UNL     1      28.955   0.500  -6.271  1.00  0.00     0.198 A 
ATOM     93  F   UNL     1      27.410  -1.170  -5.674  1.00  0.00    -0.203 F 
ATOM     94  F   UNL     1      28.434   3.876  -7.481  1.00  0.00    -0.200 F 
ATOM     95  C   UNL     1      29.223   1.781  -6.729  1.00  0.00     0.200 A 
ATOM     96  F   UNL     1      29.964  -0.334  -5.985  1.00  0.00    -0.200 F 
ATOM     97  F   UNL     1      30.491   2.179  -6.905  1.00  0.00    -0.200 F 
ENDBRANCH  64  87
ENDBRANCH  38  39
ENDBRANCH  30  33
ENDBRANCH  28  29
ENDBRANCH  27  28
ENDBRANCH   1  27
TORSDOF 14
