REMARK SMILES O=C(Nc1ccccc1)N[C@H]1C[C@@H](C(=O)NCCCCNC(=O)c2ccc(-c3c4nc(c(-c5c(F)c(F)c(F)c(F)c5F)c5ccc([nH]5)c(-c5c(F)c(F)c(F)c(F)c5F)c5nc(c(-c6c(F)c(F)c(F)c(F)c6F)c6ccc3[nH]6)C=C5)C=C4)cc2)Nc2cc(Cl)cc(Cl)c21
REMARK SMILES IDX 18 1 17 2 16 3 14 4 15 5 13 7 11 8 12 9 95 10 88 11 93 12
REMARK SMILES IDX 87 13 89 14 92 15 94 16 90 18 91 19 10 20 1 21 2 22 3 23
REMARK SMILES IDX 4 26 5 27 9 28 6 29 8 30 7 31 19 32 20 33 21 34 22 35 23 37
REMARK SMILES IDX 24 38 25 39 86 40 26 41 85 42 27 43 28 44 29 45 79 46 30 47
REMARK SMILES IDX 84 48 78 49 80 50 31 51 83 52 77 53 76 54 32 56 64 57 44 58
REMARK SMILES IDX 63 59 45 60 48 61 62 62 81 63 46 64 47 65 61 67 82 68 49 69
REMARK SMILES IDX 33 70 34 71 42 72 35 73 36 74 40 75 43 76 37 77 38 78 41 79
REMARK SMILES IDX 39 80 65 81 66 82 74 83 67 84 68 85 72 86 75 87 69 88 70 89
REMARK SMILES IDX 73 90 71 91 50 92 51 93 59 94 52 95 53 96 57 97 60 98 54 99
REMARK SMILES IDX 55 100 58 101 56 102
REMARK H PARENT 16 6 87 17 3 24 10 25 21 36 80 55 48 66
REMARK Flexibility Score: inf
ROOT
ATOM      1  C   UNL     1       3.357  -5.449   0.878  1.00  0.00     0.023 C 
ENDROOT
BRANCH   1   2
ATOM      2  C   UNL     1       2.951  -6.104   2.202  1.00  0.00     0.116 C 
BRANCH   2   3
ATOM      3  N   UNL     1       3.974  -5.920   3.200  1.00  0.00    -0.354 N 
ATOM      4  C   UNL     1       4.282  -4.852   3.972  1.00  0.00     0.242 C 
ATOM      5  O   UNL     1       5.338  -4.957   4.618  1.00  0.00    -0.273 OA
ATOM      6  H   UNL     1       4.548  -6.707   3.346  1.00  0.00     0.163 HD
BRANCH   4   7
ATOM      7  C   UNL     1       3.394  -3.586   4.177  1.00  0.00     0.171 C 
ATOM      8  C   UNL     1       2.214  -1.650   2.883  1.00  0.00     0.120 C 
ATOM      9  C   UNL     1       2.307  -3.153   3.189  1.00  0.00     0.065 C 
ATOM     10  C   UNL     1       2.654  -0.795   4.046  1.00  0.00     0.016 A 
ATOM     11  C   UNL     1       3.739  -1.264   4.803  1.00  0.00     0.043 A 
ATOM     12  C   UNL     1       2.088   0.449   4.358  1.00  0.00     0.049 A 
ATOM     13  N   UNL     1       4.312  -2.478   4.476  1.00  0.00    -0.373 N 
ATOM     14  C   UNL     1       4.192  -0.537   5.902  1.00  0.00     0.046 A 
ATOM     15  C   UNL     1       2.541   1.171   5.462  1.00  0.00     0.041 A 
ATOM     16  Cl  UNL     1       0.827   1.151   3.410  1.00  0.00    -0.084 Cl
ATOM     17  H   UNL     1       5.289  -2.595   4.444  1.00  0.00     0.161 HD
ATOM     18  C   UNL     1       3.577   0.664   6.238  1.00  0.00     0.044 A 
ATOM     19  Cl  UNL     1       4.094   1.522   7.637  1.00  0.00    -0.084 Cl
BRANCH   8  20
ATOM     20  N   UNL     1       2.961  -1.274   1.685  1.00  0.00    -0.331 N 
ATOM     21  O   UNL     1       1.114  -0.966   0.387  1.00  0.00    -0.248 OA
ATOM     22  C   UNL     1       2.319  -0.812   0.574  1.00  0.00     0.319 C 
ATOM     23  N   UNL     1       3.021   0.009  -0.254  1.00  0.00    -0.308 N 
ATOM     24  H   UNL     1       2.457   0.604  -0.798  1.00  0.00     0.171 HD
ATOM     25  H   UNL     1       3.942  -1.355   1.680  1.00  0.00     0.166 HD
BRANCH  23  26
ATOM     26  C   UNL     1       4.395   0.167  -0.477  1.00  0.00     0.042 A 
ATOM     27  C   UNL     1       4.834   1.418  -0.928  1.00  0.00     0.026 A 
ATOM     28  C   UNL     1       5.308  -0.883  -0.368  1.00  0.00     0.026 A 
ATOM     29  C   UNL     1       6.180   1.630  -1.229  1.00  0.00     0.002 A 
ATOM     30  C   UNL     1       6.651  -0.677  -0.702  1.00  0.00     0.002 A 
ATOM     31  C   UNL     1       7.088   0.580  -1.123  1.00  0.00     0.000 A 
ENDBRANCH  23  26
ENDBRANCH   8  20
ENDBRANCH   4   7
ENDBRANCH   2   3
ENDBRANCH   1   2
BRANCH   1  32
ATOM     32  C   UNL     1       4.495  -6.140   0.136  1.00  0.00     0.023 C 
BRANCH  32  33
ATOM     33  C   UNL     1       4.276  -7.614  -0.153  1.00  0.00     0.116 C 
BRANCH  33  34
ATOM     34  N   UNL     1       2.989  -7.894  -0.769  1.00  0.00    -0.352 N 
ATOM     35  C   UNL     1       2.688  -8.773  -1.781  1.00  0.00     0.251 C 
ATOM     36  H   UNL     1       2.227  -7.382  -0.412  1.00  0.00     0.163 HD
ATOM     37  O   UNL     1       1.562  -8.825  -2.248  1.00  0.00    -0.269 OA
BRANCH  35  38
ATOM     38  C   UNL     1       3.763  -9.624  -2.326  1.00  0.00     0.039 A 
ATOM     39  C   UNL     1       3.951  -9.655  -3.709  1.00  0.00     0.014 A 
ATOM     40  C   UNL     1       4.608 -10.338  -1.473  1.00  0.00     0.014 A 
ATOM     41  C   UNL     1       5.040 -10.349  -4.236  1.00  0.00     0.010 A 
ATOM     42  C   UNL     1       5.733 -10.965  -1.993  1.00  0.00     0.010 A 
ATOM     43  C   UNL     1       5.959 -10.974  -3.377  1.00  0.00    -0.014 A 
BRANCH  43  44
ATOM     44  C   UNL     1       7.175 -11.632  -3.909  1.00  0.00     0.031 A 
ATOM     45  C   UNL     1       7.356 -13.113  -3.752  1.00  0.00     0.074 A 
ATOM     46  C   UNL     1       8.150 -10.880  -4.453  1.00  0.00     0.049 A 
ATOM     47  N   UNL     1       8.378 -13.861  -4.080  1.00  0.00    -0.248 NA
ATOM     48  C   UNL     1       6.255 -13.847  -3.109  1.00  0.00     0.031 C 
ATOM     49  C   UNL     1       8.113  -9.423  -4.596  1.00  0.00     0.029 A 
ATOM     50  N   UNL     1       9.369 -11.235  -4.971  1.00  0.00    -0.354 N 
ATOM     51  C   UNL     1       8.052 -15.145  -3.667  1.00  0.00     0.074 A 
ATOM     52  C   UNL     1       6.761 -15.068  -3.020  1.00  0.00     0.031 C 
ATOM     53  C   UNL     1       9.253  -9.010  -5.173  1.00  0.00     0.029 A 
ATOM     54  C   UNL     1      10.110 -10.166  -5.413  1.00  0.00     0.049 A 
ATOM     55  H   UNL     1       9.683 -12.166  -5.021  1.00  0.00     0.167 HD
ATOM     56  C   UNL     1       8.759 -16.287  -3.833  1.00  0.00     0.037 A 
ATOM     57  C   UNL     1      11.347 -10.126  -5.943  1.00  0.00     0.037 A 
ATOM     58  C   UNL     1      10.028 -16.359  -4.508  1.00  0.00     0.049 A 
ATOM     59  C   UNL     1      12.100 -11.411  -6.143  1.00  0.00     0.074 A 
ATOM     60  C   UNL     1      10.780 -17.479  -4.814  1.00  0.00     0.029 A 
ATOM     61  N   UNL     1      10.733 -15.261  -4.979  1.00  0.00    -0.354 N 
ATOM     62  N   UNL     1      11.743 -12.634  -5.833  1.00  0.00    -0.248 NA
ATOM     63  C   UNL     1      13.423 -11.313  -6.775  1.00  0.00     0.031 C 
ATOM     64  C   UNL     1      11.964 -17.055  -5.428  1.00  0.00     0.029 A 
ATOM     65  C   UNL     1      11.927 -15.675  -5.548  1.00  0.00     0.049 A 
ATOM     66  H   UNL     1      10.431 -14.326  -4.918  1.00  0.00     0.167 HD
ATOM     67  C   UNL     1      12.786 -13.452  -6.245  1.00  0.00     0.074 A 
ATOM     68  C   UNL     1      13.781 -12.588  -6.845  1.00  0.00     0.031 C 
ATOM     69  C   UNL     1      12.908 -14.798  -6.135  1.00  0.00     0.037 A 
BRANCH  56  70
ATOM     70  C   UNL     1       8.173 -17.551  -3.276  1.00  0.00     0.064 A 
ATOM     71  C   UNL     1       7.032 -18.145  -3.838  1.00  0.00     0.173 A 
ATOM     72  C   UNL     1       8.772 -18.188  -2.180  1.00  0.00     0.173 A 
ATOM     73  F   UNL     1       6.414 -17.568  -4.879  1.00  0.00    -0.203 F 
ATOM     74  C   UNL     1       6.495 -19.312  -3.302  1.00  0.00     0.198 A 
ATOM     75  C   UNL     1       8.249 -19.372  -1.665  1.00  0.00     0.198 A 
ATOM     76  F   UNL     1       9.866 -17.664  -1.607  1.00  0.00    -0.203 F 
ATOM     77  F   UNL     1       5.374 -19.832  -3.822  1.00  0.00    -0.200 F 
ATOM     78  C   UNL     1       7.107 -19.928  -2.221  1.00  0.00     0.200 A 
ATOM     79  F   UNL     1       8.848 -19.972  -0.627  1.00  0.00    -0.200 F 
ATOM     80  F   UNL     1       6.590 -21.053  -1.708  1.00  0.00    -0.200 F 
ENDBRANCH  56  70
BRANCH  57  81
ATOM     81  C   UNL     1      11.934  -8.821  -6.340  1.00  0.00     0.064 A 
ATOM     82  C   UNL     1      12.087  -8.480  -7.690  1.00  0.00     0.173 A 
ATOM     83  C   UNL     1      12.335  -7.881  -5.379  1.00  0.00     0.173 A 
ATOM     84  F   UNL     1      11.734  -9.354  -8.645  1.00  0.00    -0.203 F 
ATOM     85  C   UNL     1      12.632  -7.254  -8.066  1.00  0.00     0.198 A 
ATOM     86  C   UNL     1      12.856  -6.645  -5.755  1.00  0.00     0.198 A 
ATOM     87  F   UNL     1      12.202  -8.157  -4.073  1.00  0.00    -0.203 F 
ATOM     88  F   UNL     1      12.800  -6.968  -9.364  1.00  0.00    -0.200 F 
ATOM     89  C   UNL     1      13.010  -6.335  -7.098  1.00  0.00     0.200 A 
ATOM     90  F   UNL     1      13.206  -5.754  -4.818  1.00  0.00    -0.200 F 
ATOM     91  F   UNL     1      13.525  -5.153  -7.460  1.00  0.00    -0.200 F 
ENDBRANCH  57  81
BRANCH  69  92
ATOM     92  C   UNL     1      14.157 -15.419  -6.686  1.00  0.00     0.064 A 
ATOM     93  C   UNL     1      15.393 -15.278  -6.037  1.00  0.00     0.173 A 
ATOM     94  C   UNL     1      14.110 -16.199  -7.851  1.00  0.00     0.173 A 
ATOM     95  F   UNL     1      15.492 -14.529  -4.929  1.00  0.00    -0.203 F 
ATOM     96  C   UNL     1      16.540 -15.879  -6.548  1.00  0.00     0.198 A 
ATOM     97  C   UNL     1      15.253 -16.821  -8.343  1.00  0.00     0.198 A 
ATOM     98  F   UNL     1      12.951 -16.368  -8.505  1.00  0.00    -0.203 F 
ATOM     99  F   UNL     1      17.718 -15.697  -5.936  1.00  0.00    -0.200 F 
ATOM    100  C   UNL     1      16.468 -16.656  -7.695  1.00  0.00     0.200 A 
ATOM    101  F   UNL     1      15.180 -17.581  -9.444  1.00  0.00    -0.200 F 
ATOM    102  F   UNL     1      17.572 -17.240  -8.180  1.00  0.00    -0.200 F 
ENDBRANCH  69  92
ENDBRANCH  43  44
ENDBRANCH  35  38
ENDBRANCH  33  34
ENDBRANCH  32  33
ENDBRANCH   1  32
TORSDOF 13
