REMARK SMILES CN(CC(C)(C)O)C(=O)NC[C@@H](C(=O)NCCCCNC(=O)c1ccc(-c2c3nc(c(-c4c(F)c(F)c(F)c(F)c4F)c4ccc([nH]4)c(-c4c(F)c(F)c(F)c(F)c4F)c4nc(c(-c5c(F)c(F)c(F)c(F)c5F)c5ccc2[nH]5)C=C4)C=C3)cc1)c1ccccc1
REMARK SMILES IDX 13 1 14 2 15 3 12 5 11 6 10 7 8 8 9 9 2 11 1 12 3 13 4 14
REMARK SMILES IDX 5 15 6 16 7 17 86 19 87 20 91 21 88 22 90 23 89 24 16 25
REMARK SMILES IDX 17 26 18 27 19 28 20 29 21 30 22 32 23 33 24 34 85 35 25 36
REMARK SMILES IDX 84 37 26 38 27 39 28 40 78 41 29 42 83 43 77 44 79 45 30 46
REMARK SMILES IDX 82 47 76 48 75 49 31 51 63 52 43 53 62 54 44 55 47 56 61 57
REMARK SMILES IDX 80 58 45 59 46 60 60 62 81 63 48 64 32 65 33 66 41 67 34 68
REMARK SMILES IDX 35 69 39 70 42 71 36 72 37 73 40 74 38 75 64 76 65 77 73 78
REMARK SMILES IDX 66 79 67 80 71 81 74 82 68 83 69 84 72 85 70 86 49 87 50 88
REMARK SMILES IDX 58 89 51 90 52 91 56 92 59 93 53 94 54 95 57 96 55 97
REMARK H PARENT 15 4 10 10 7 18 20 31 79 50 47 61
REMARK Flexibility Score: inf
ROOT
ATOM      1  C   UNL     1      -0.710  -6.006   2.414  1.00  0.00     0.229 C 
ATOM      2  O   UNL     1      -0.471  -6.864   3.267  1.00  0.00    -0.274 OA
ATOM      3  N   UNL     1      -0.554  -6.388   1.109  1.00  0.00    -0.356 N 
ATOM      4  H   UNL     1      -0.727  -7.338   0.915  1.00  0.00     0.163 HD
ENDROOT
BRANCH   1   5
ATOM      5  C   UNL     1      -1.187  -4.580   2.757  1.00  0.00     0.128 C 
BRANCH   5   6
ATOM      6  C   UNL     1       0.031  -3.701   3.168  1.00  0.00     0.136 C 
BRANCH   6   7
ATOM      7  N   UNL     1       0.925  -3.293   2.084  1.00  0.00    -0.337 N 
ATOM      8  C   UNL     1       1.163  -2.313   1.205  1.00  0.00     0.317 C 
ATOM      9  O   UNL     1       2.054  -2.599   0.394  1.00  0.00    -0.249 OA
ATOM     10  H   UNL     1       1.601  -3.998   1.955  1.00  0.00     0.165 HD
BRANCH   8  11
ATOM     11  N   UNL     1       0.530  -1.112   1.148  1.00  0.00    -0.325 N 
ATOM     12  C   UNL     1       0.954  -0.224   0.061  1.00  0.00     0.148 C 
BRANCH  11  13
ATOM     13  C   UNL     1      -0.472  -0.533   2.044  1.00  0.00     0.155 C 
BRANCH  13  14
ATOM     14  C   UNL     1      -1.882  -0.313   1.423  1.00  0.00     0.077 C 
ATOM     15  C   UNL     1      -2.444  -1.586   0.797  1.00  0.00     0.043 C 
ATOM     16  C   UNL     1      -2.826   0.231   2.503  1.00  0.00     0.043 C 
BRANCH  14  17
ATOM     17  O   UNL     1      -1.820   0.683   0.393  1.00  0.00    -0.389 OA
ATOM     18  H   UNL     1      -1.230   0.380  -0.315  1.00  0.00     0.211 HD
ENDBRANCH  14  17
ENDBRANCH  13  14
ENDBRANCH  11  13
ENDBRANCH   8  11
ENDBRANCH   6   7
ENDBRANCH   5   6
BRANCH   5  19
ATOM     19  C   UNL     1      -2.283  -4.526   3.849  1.00  0.00    -0.034 A 
ATOM     20  C   UNL     1      -2.749  -3.273   4.289  1.00  0.00     0.004 A 
ATOM     21  C   UNL     1      -2.875  -5.654   4.438  1.00  0.00     0.004 A 
ATOM     22  C   UNL     1      -3.696  -3.140   5.307  1.00  0.00     0.000 A 
ATOM     23  C   UNL     1      -3.822  -5.529   5.465  1.00  0.00     0.000 A 
ATOM     24  C   UNL     1      -4.224  -4.273   5.907  1.00  0.00     0.000 A 
ENDBRANCH   5  19
ENDBRANCH   1   5
BRANCH   3  25
ATOM     25  C   UNL     1      -0.166  -5.569  -0.024  1.00  0.00     0.116 C 
BRANCH  25  26
ATOM     26  C   UNL     1       1.355  -5.610  -0.198  1.00  0.00     0.023 C 
BRANCH  26  27
ATOM     27  C   UNL     1       1.918  -6.933  -0.701  1.00  0.00     0.023 C 
BRANCH  27  28
ATOM     28  C   UNL     1       1.488  -7.294  -2.109  1.00  0.00     0.116 C 
BRANCH  28  29
ATOM     29  N   UNL     1       1.933  -6.333  -3.109  1.00  0.00    -0.352 N 
ATOM     30  C   UNL     1       2.582  -6.568  -4.300  1.00  0.00     0.251 C 
ATOM     31  H   UNL     1       1.744  -5.389  -2.906  1.00  0.00     0.163 HD
ATOM     32  O   UNL     1       2.994  -5.648  -4.990  1.00  0.00    -0.269 OA
BRANCH  30  33
ATOM     33  C   UNL     1       2.816  -7.968  -4.710  1.00  0.00     0.039 A 
ATOM     34  C   UNL     1       4.106  -8.361  -5.068  1.00  0.00     0.014 A 
ATOM     35  C   UNL     1       1.778  -8.900  -4.644  1.00  0.00     0.014 A 
ATOM     36  C   UNL     1       4.376  -9.714  -5.273  1.00  0.00     0.010 A 
ATOM     37  C   UNL     1       2.071 -10.253  -4.746  1.00  0.00     0.010 A 
ATOM     38  C   UNL     1       3.372 -10.674  -5.062  1.00  0.00    -0.014 A 
BRANCH  38  39
ATOM     39  C   UNL     1       3.653 -12.127  -5.168  1.00  0.00     0.031 A 
ATOM     40  C   UNL     1       2.926 -12.953  -6.191  1.00  0.00     0.074 A 
ATOM     41  C   UNL     1       4.493 -12.712  -4.292  1.00  0.00     0.049 A 
ATOM     42  N   UNL     1       2.951 -14.248  -6.380  1.00  0.00    -0.248 NA
ATOM     43  C   UNL     1       2.018 -12.233  -7.097  1.00  0.00     0.031 C 
ATOM     44  C   UNL     1       5.210 -12.027  -3.215  1.00  0.00     0.029 A 
ATOM     45  N   UNL     1       4.877 -14.024  -4.162  1.00  0.00    -0.354 N 
ATOM     46  C   UNL     1       2.050 -14.495  -7.406  1.00  0.00     0.074 A 
ATOM     47  C   UNL     1       1.448 -13.228  -7.758  1.00  0.00     0.031 C 
ATOM     48  C   UNL     1       5.966 -12.917  -2.553  1.00  0.00     0.029 A 
ATOM     49  C   UNL     1       5.760 -14.240  -3.131  1.00  0.00     0.049 A 
ATOM     50  H   UNL     1       4.551 -14.742  -4.751  1.00  0.00     0.167 HD
ATOM     51  C   UNL     1       1.770 -15.668  -8.020  1.00  0.00     0.037 A 
ATOM     52  C   UNL     1       6.332 -15.381  -2.701  1.00  0.00     0.037 A 
ATOM     53  C   UNL     1       2.402 -16.918  -7.693  1.00  0.00     0.049 A 
ATOM     54  C   UNL     1       6.019 -16.669  -3.413  1.00  0.00     0.074 A 
ATOM     55  C   UNL     1       2.244 -18.150  -8.301  1.00  0.00     0.029 A 
ATOM     56  N   UNL     1       3.319 -17.091  -6.667  1.00  0.00    -0.354 N 
ATOM     57  N   UNL     1       5.219 -16.879  -4.430  1.00  0.00    -0.248 NA
ATOM     58  C   UNL     1       6.693 -17.878  -2.920  1.00  0.00     0.031 C 
ATOM     59  C   UNL     1       3.034 -19.079  -7.616  1.00  0.00     0.029 A 
ATOM     60  C   UNL     1       3.721 -18.416  -6.612  1.00  0.00     0.049 A 
ATOM     61  H   UNL     1       3.636 -16.379  -6.066  1.00  0.00     0.167 HD
ATOM     62  C   UNL     1       5.314 -18.234  -4.717  1.00  0.00     0.074 A 
ATOM     63  C   UNL     1       6.261 -18.794  -3.776  1.00  0.00     0.031 C 
ATOM     64  C   UNL     1       4.674 -18.950  -5.674  1.00  0.00     0.037 A 
BRANCH  51  65
ATOM     65  C   UNL     1       0.745 -15.649  -9.116  1.00  0.00     0.064 A 
ATOM     66  C   UNL     1       0.996 -15.023 -10.347  1.00  0.00     0.173 A 
ATOM     67  C   UNL     1      -0.493 -16.286  -8.945  1.00  0.00     0.173 A 
ATOM     68  F   UNL     1       2.158 -14.387 -10.557  1.00  0.00    -0.203 F 
ATOM     69  C   UNL     1       0.033 -15.008 -11.353  1.00  0.00     0.198 A 
ATOM     70  C   UNL     1      -1.441 -16.296  -9.965  1.00  0.00     0.198 A 
ATOM     71  F   UNL     1      -0.783 -16.902  -7.789  1.00  0.00    -0.203 F 
ATOM     72  F   UNL     1       0.275 -14.357 -12.499  1.00  0.00    -0.200 F 
ATOM     73  C   UNL     1      -1.181 -15.650 -11.164  1.00  0.00     0.200 A 
ATOM     74  F   UNL     1      -2.609 -16.928  -9.785  1.00  0.00    -0.200 F 
ATOM     75  F   UNL     1      -2.104 -15.640 -12.135  1.00  0.00    -0.200 F 
ENDBRANCH  51  65
BRANCH  52  76
ATOM     76  C   UNL     1       7.285 -15.351  -1.561  1.00  0.00     0.064 A 
ATOM     77  C   UNL     1       8.653 -15.582  -1.762  1.00  0.00     0.173 A 
ATOM     78  C   UNL     1       6.853 -15.098  -0.251  1.00  0.00     0.173 A 
ATOM     79  F   UNL     1       9.112 -15.850  -2.994  1.00  0.00    -0.203 F 
ATOM     80  C   UNL     1       9.549 -15.582  -0.696  1.00  0.00     0.198 A 
ATOM     81  C   UNL     1       7.754 -15.070   0.811  1.00  0.00     0.198 A 
ATOM     82  F   UNL     1       5.555 -14.866  -0.005  1.00  0.00    -0.203 F 
ATOM     83  F   UNL     1      10.844 -15.852  -0.911  1.00  0.00    -0.200 F 
ATOM     84  C   UNL     1       9.100 -15.320   0.590  1.00  0.00     0.200 A 
ATOM     85  F   UNL     1       7.318 -14.803   2.050  1.00  0.00    -0.200 F 
ATOM     86  F   UNL     1       9.962 -15.317   1.615  1.00  0.00    -0.200 F 
ENDBRANCH  52  76
BRANCH  64  87
ATOM     87  C   UNL     1       5.004 -20.410  -5.775  1.00  0.00     0.064 A 
ATOM     88  C   UNL     1       4.560 -21.333  -4.817  1.00  0.00     0.173 A 
ATOM     89  C   UNL     1       5.736 -20.897  -6.868  1.00  0.00     0.173 A 
ATOM     90  F   UNL     1       3.869 -20.914  -3.745  1.00  0.00    -0.203 F 
ATOM     91  C   UNL     1       4.857 -22.687  -4.938  1.00  0.00     0.198 A 
ATOM     92  C   UNL     1       6.006 -22.255  -7.002  1.00  0.00     0.198 A 
ATOM     93  F   UNL     1       6.177 -20.055  -7.816  1.00  0.00    -0.203 F 
ATOM     94  F   UNL     1       4.462 -23.546  -3.988  1.00  0.00    -0.200 F 
ATOM     95  C   UNL     1       5.573 -23.148  -6.034  1.00  0.00     0.200 A 
ATOM     96  F   UNL     1       6.685 -22.701  -8.068  1.00  0.00    -0.200 F 
ATOM     97  F   UNL     1       5.850 -24.454  -6.153  1.00  0.00    -0.200 F 
ENDBRANCH  64  87
ENDBRANCH  38  39
ENDBRANCH  30  33
ENDBRANCH  28  29
ENDBRANCH  27  28
ENDBRANCH  26  27
ENDBRANCH  25  26
ENDBRANCH   3  25
TORSDOF 18
