REMARK SMILES C[C@H]1[C@H](C(=O)NCCCCNC(=O)c2ccc(-c3c4nc(c(-c5c(F)c(F)c(F)c(F)c5F)c5ccc([nH]5)c(-c5c(F)c(F)c(F)c(F)c5F)c5nc(c(-c6c(F)c(F)c(F)c(F)c6F)c6ccc3[nH]6)C=C5)C=C4)cc2)CC[N@@H+]1CC(=O)N1CCCC1
REMARK SMILES IDX 8 1 7 2 6 3 4 4 5 5 3 7 1 8 2 9 79 10 77 11 78 12 80 14
REMARK SMILES IDX 81 15 82 16 83 17 84 18 87 19 85 20 86 21 9 22 10 23 11 24
REMARK SMILES IDX 12 25 13 27 14 28 15 29 76 30 16 31 75 32 17 33 18 34 19 35
REMARK SMILES IDX 69 36 20 37 74 38 68 39 70 40 21 41 73 42 67 43 66 44 22 46
REMARK SMILES IDX 54 47 34 48 53 49 35 50 38 51 52 52 71 53 36 54 37 55 51 57
REMARK SMILES IDX 72 58 39 59 23 60 24 61 32 62 25 63 26 64 30 65 33 66 27 67
REMARK SMILES IDX 28 68 31 69 29 70 55 71 56 72 64 73 57 74 58 75 62 76 65 77
REMARK SMILES IDX 59 78 60 79 63 80 61 81 40 82 41 83 49 84 42 85 43 86 47 87
REMARK SMILES IDX 50 88 44 89 45 90 48 91 46 92
REMARK H PARENT 6 6 79 13 11 26 70 45 38 56
REMARK Flexibility Score: inf
ROOT
ATOM      1  C   UNL     1      -1.547  -0.121   4.212  1.00  0.00     0.023 C 
ENDROOT
BRANCH   1   2
ATOM      2  C   UNL     1      -2.277   0.536   3.000  1.00  0.00     0.116 C 
BRANCH   2   3
ATOM      3  N   UNL     1      -1.647   1.657   2.275  1.00  0.00    -0.356 N 
ATOM      4  C   UNL     1      -1.259   1.984   1.007  1.00  0.00     0.229 C 
ATOM      5  O   UNL     1      -0.953   3.189   0.903  1.00  0.00    -0.275 OA
ATOM      6  H   UNL     1      -1.446   2.394   2.895  1.00  0.00     0.163 HD
BRANCH   4   7
ATOM      7  C   UNL     1      -1.059   1.130  -0.279  1.00  0.00     0.142 C 
ATOM      8  C   UNL     1       1.074   0.980  -1.852  1.00  0.00     0.076 C 
ATOM      9  C   UNL     1       0.389   0.664  -0.521  1.00  0.00     0.194 C 
ATOM     10  N   UNL     1       0.404  -0.804  -0.478  1.00  0.00    -0.324 N 
ATOM     11  C   UNL     1      -1.915  -0.089  -0.502  1.00  0.00     0.081 C 
ATOM     12  C   UNL     1      -0.981  -1.288  -0.378  1.00  0.00     0.263 C 
ATOM     13  H   UNL     1       0.774  -1.197  -1.343  1.00  0.00     0.348 HD
BRANCH  10  14
ATOM     14  C   UNL     1       1.355  -1.310   0.542  1.00  0.00     0.364 C 
BRANCH  14  15
ATOM     15  C   UNL     1       1.042  -0.670   1.880  1.00  0.00     0.277 C 
ATOM     16  O   UNL     1       0.031  -1.126   2.405  1.00  0.00    -0.268 OA
ATOM     17  N   UNL     1       1.762   0.438   2.315  1.00  0.00    -0.338 N 
ATOM     18  C   UNL     1       3.100   0.801   1.903  1.00  0.00     0.119 C 
ATOM     19  C   UNL     1       1.233   1.535   3.106  1.00  0.00     0.119 C 
ATOM     20  C   UNL     1       3.550   1.903   2.875  1.00  0.00     0.023 C 
ATOM     21  C   UNL     1       2.409   2.090   3.864  1.00  0.00     0.023 C 
ENDBRANCH  14  15
ENDBRANCH  10  14
ENDBRANCH   4   7
ENDBRANCH   2   3
ENDBRANCH   1   2
BRANCH   1  22
ATOM     22  C   UNL     1      -1.302   0.586   5.529  1.00  0.00     0.023 C 
BRANCH  22  23
ATOM     23  C   UNL     1      -2.526   0.706   6.372  1.00  0.00     0.116 C 
BRANCH  23  24
ATOM     24  N   UNL     1      -3.103  -0.598   6.700  1.00  0.00    -0.352 N 
ATOM     25  C   UNL     1      -3.378  -1.104   7.946  1.00  0.00     0.251 C 
ATOM     26  H   UNL     1      -3.320  -1.181   5.937  1.00  0.00     0.163 HD
ATOM     27  O   UNL     1      -3.655  -2.287   8.120  1.00  0.00    -0.269 OA
BRANCH  25  28
ATOM     28  C   UNL     1      -3.309  -0.165   9.074  1.00  0.00     0.039 A 
ATOM     29  C   UNL     1      -2.601  -0.497  10.227  1.00  0.00     0.014 A 
ATOM     30  C   UNL     1      -3.827   1.118   8.884  1.00  0.00     0.014 A 
ATOM     31  C   UNL     1      -2.379   0.494  11.179  1.00  0.00     0.010 A 
ATOM     32  C   UNL     1      -3.425   2.133   9.722  1.00  0.00     0.010 A 
ATOM     33  C   UNL     1      -2.769   1.819  10.916  1.00  0.00    -0.014 A 
BRANCH  33  34
ATOM     34  C   UNL     1      -2.638   2.890  11.923  1.00  0.00     0.031 A 
ATOM     35  C   UNL     1      -3.891   3.591  12.384  1.00  0.00     0.074 A 
ATOM     36  C   UNL     1      -1.423   3.261  12.363  1.00  0.00     0.049 A 
ATOM     37  N   UNL     1      -4.022   4.610  13.192  1.00  0.00    -0.248 NA
ATOM     38  C   UNL     1      -5.169   3.123  11.813  1.00  0.00     0.031 C 
ATOM     39  C   UNL     1      -0.147   2.696  11.919  1.00  0.00     0.029 A 
ATOM     40  N   UNL     1      -1.066   4.205  13.288  1.00  0.00    -0.354 N 
ATOM     41  C   UNL     1      -5.378   4.911  13.190  1.00  0.00     0.074 A 
ATOM     42  C   UNL     1      -6.014   4.051  12.225  1.00  0.00     0.031 C 
ATOM     43  C   UNL     1       0.850   3.269  12.614  1.00  0.00     0.029 A 
ATOM     44  C   UNL     1       0.285   4.265  13.518  1.00  0.00     0.049 A 
ATOM     45  H   UNL     1      -1.717   4.786  13.745  1.00  0.00     0.167 HD
ATOM     46  C   UNL     1      -6.046   5.787  13.971  1.00  0.00     0.037 A 
ATOM     47  C   UNL     1       0.977   5.037  14.376  1.00  0.00     0.037 A 
ATOM     48  C   UNL     1      -5.405   6.586  14.975  1.00  0.00     0.049 A 
ATOM     49  C   UNL     1       0.209   5.990  15.255  1.00  0.00     0.074 A 
ATOM     50  C   UNL     1      -5.976   7.457  15.881  1.00  0.00     0.029 A 
ATOM     51  N   UNL     1      -4.036   6.596  15.206  1.00  0.00    -0.354 N 
ATOM     52  N   UNL     1      -1.083   6.211  15.308  1.00  0.00    -0.248 NA
ATOM     53  C   UNL     1       0.994   6.792  16.201  1.00  0.00     0.031 C 
ATOM     54  C   UNL     1      -4.945   8.035  16.628  1.00  0.00     0.029 A 
ATOM     55  C   UNL     1      -3.739   7.478  16.228  1.00  0.00     0.049 A 
ATOM     56  H   UNL     1      -3.375   6.055  14.715  1.00  0.00     0.167 HD
ATOM     57  C   UNL     1      -1.270   7.154  16.309  1.00  0.00     0.074 A 
ATOM     58  C   UNL     1       0.042   7.447  16.850  1.00  0.00     0.031 C 
ATOM     59  C   UNL     1      -2.418   7.732  16.744  1.00  0.00     0.037 A 
BRANCH  46  60
ATOM     60  C   UNL     1      -7.531   5.900  13.778  1.00  0.00     0.064 A 
ATOM     61  C   UNL     1      -8.402   4.840  14.083  1.00  0.00     0.173 A 
ATOM     62  C   UNL     1      -8.093   7.083  13.277  1.00  0.00     0.173 A 
ATOM     63  F   UNL     1      -7.916   3.677  14.543  1.00  0.00    -0.203 F 
ATOM     64  C   UNL     1      -9.771   4.948  13.859  1.00  0.00     0.198 A 
ATOM     65  C   UNL     1      -9.468   7.201  13.090  1.00  0.00     0.198 A 
ATOM     66  F   UNL     1      -7.309   8.125  12.963  1.00  0.00    -0.203 F 
ATOM     67  F   UNL     1     -10.572   3.899  14.093  1.00  0.00    -0.200 F 
ATOM     68  C   UNL     1     -10.304   6.131  13.371  1.00  0.00     0.200 A 
ATOM     69  F   UNL     1      -9.983   8.348  12.628  1.00  0.00    -0.200 F 
ATOM     70  F   UNL     1     -11.624   6.236  13.161  1.00  0.00    -0.200 F 
ENDBRANCH  46  60
BRANCH  47  71
ATOM     71  C   UNL     1       2.454   4.908  14.476  1.00  0.00     0.064 A 
ATOM     72  C   UNL     1       3.056   4.385  15.629  1.00  0.00     0.173 A 
ATOM     73  C   UNL     1       3.296   5.300  13.425  1.00  0.00     0.173 A 
ATOM     74  F   UNL     1       2.297   4.007  16.668  1.00  0.00    -0.203 F 
ATOM     75  C   UNL     1       4.442   4.286  15.739  1.00  0.00     0.198 A 
ATOM     76  C   UNL     1       4.680   5.171  13.523  1.00  0.00     0.198 A 
ATOM     77  F   UNL     1       2.772   5.795  12.293  1.00  0.00    -0.203 F 
ATOM     78  F   UNL     1       4.991   3.829  16.873  1.00  0.00    -0.200 F 
ATOM     79  C   UNL     1       5.253   4.675  14.684  1.00  0.00     0.200 A 
ATOM     80  F   UNL     1       5.459   5.530  12.493  1.00  0.00    -0.200 F 
ATOM     81  F   UNL     1       6.585   4.576  14.787  1.00  0.00    -0.200 F 
ENDBRANCH  47  71
BRANCH  59  82
ATOM     82  C   UNL     1      -2.305   8.709  17.877  1.00  0.00     0.064 A 
ATOM     83  C   UNL     1      -1.728   9.974  17.701  1.00  0.00     0.173 A 
ATOM     84  C   UNL     1      -2.833   8.391  19.137  1.00  0.00     0.173 A 
ATOM     85  F   UNL     1      -1.200  10.318  16.517  1.00  0.00    -0.203 F 
ATOM     86  C   UNL     1      -1.655  10.876  18.758  1.00  0.00     0.198 A 
ATOM     87  C   UNL     1      -2.792   9.310  20.180  1.00  0.00     0.198 A 
ATOM     88  F   UNL     1      -3.408   7.198  19.350  1.00  0.00    -0.203 F 
ATOM     89  F   UNL     1      -1.052  12.060  18.584  1.00  0.00    -0.200 F 
ATOM     90  C   UNL     1      -2.196  10.547  19.993  1.00  0.00     0.200 A 
ATOM     91  F   UNL     1      -3.333   8.998  21.366  1.00  0.00    -0.200 F 
ATOM     92  F   UNL     1      -2.136  11.423  21.005  1.00  0.00    -0.200 F 
ENDBRANCH  59  82
ENDBRANCH  33  34
ENDBRANCH  25  28
ENDBRANCH  23  24
ENDBRANCH  22  23
ENDBRANCH   1  22
TORSDOF 13
