REMARK SMILES O=C(NCCCCNC(=O)[C@@H]1CC=CC[C@@H]1C(=O)Nc1sc2c(c1C(=O)N1CCCCC1)CCCC2)c1ccc(-c2c3nc(c(-c4c(F)c(F)c(F)c(F)c4F)c4ccc([nH]4)c(-c4c(F)c(F)c(F)c(F)c4F)c4nc(c(-c5c(F)c(F)c(F)c(F)c5F)c5ccc2[nH]5)C=C4)C=C3)cc1
REMARK SMILES IDX 6 1 5 2 4 3 3 4 1 5 2 6 37 8 38 9 99 10 39 11 98 12 40 13
REMARK SMILES IDX 41 14 42 15 92 16 43 17 97 18 91 19 93 20 44 21 96 22 90 23
REMARK SMILES IDX 89 24 45 26 77 27 57 28 76 29 58 30 61 31 75 32 94 33 59 34
REMARK SMILES IDX 60 35 74 37 95 38 62 39 46 40 47 41 55 42 48 43 49 44 53 45
REMARK SMILES IDX 56 46 50 47 51 48 54 49 52 50 78 51 79 52 87 53 80 54 81 55
REMARK SMILES IDX 85 56 88 57 82 58 83 59 86 60 84 61 63 62 64 63 72 64 65 65
REMARK SMILES IDX 66 66 70 67 73 68 67 69 68 70 71 71 69 72 7 73 8 74 9 75
REMARK SMILES IDX 10 77 11 78 12 79 16 80 13 81 15 82 14 83 17 84 18 85 19 86
REMARK SMILES IDX 20 88 21 89 24 90 22 91 23 92 36 93 33 94 35 95 34 96 25 97
REMARK SMILES IDX 26 98 27 99 28 100 32 101 29 102 31 103 30 104
REMARK H PARENT 3 7 93 25 61 36 8 76 19 87
REMARK Flexibility Score: inf
ROOT
ATOM      1  C   UNL     1       4.157   9.197  -2.627  1.00  0.00     0.023 C 
ENDROOT
BRANCH   1   2
ATOM      2  C   UNL     1       2.654   9.309  -2.392  1.00  0.00     0.023 C 
BRANCH   2   3
ATOM      3  C   UNL     1       2.257   9.932  -1.062  1.00  0.00     0.116 C 
BRANCH   3   4
ATOM      4  N   UNL     1       2.916  11.198  -0.766  1.00  0.00    -0.352 N 
ATOM      5  O   UNL     1       3.093  13.234   0.225  1.00  0.00    -0.269 OA
ATOM      6  C   UNL     1       2.489  12.175   0.103  1.00  0.00     0.251 C 
ATOM      7  H   UNL     1       3.760  11.374  -1.241  1.00  0.00     0.163 HD
BRANCH   6   8
ATOM      8  C   UNL     1       1.246  11.931   0.856  1.00  0.00     0.039 A 
ATOM      9  C   UNL     1       1.103  10.750   1.585  1.00  0.00     0.014 A 
ATOM     10  C   UNL     1       0.189  12.838   0.747  1.00  0.00     0.014 A 
ATOM     11  C   UNL     1      -0.145  10.401   2.074  1.00  0.00     0.010 A 
ATOM     12  C   UNL     1      -1.043  12.528   1.326  1.00  0.00     0.010 A 
ATOM     13  C   UNL     1      -1.226  11.292   1.965  1.00  0.00    -0.014 A 
BRANCH  13  14
ATOM     14  C   UNL     1      -2.511  10.924   2.605  1.00  0.00     0.031 A 
ATOM     15  C   UNL     1      -3.749  10.669   1.796  1.00  0.00     0.074 A 
ATOM     16  C   UNL     1      -2.520  10.762   3.942  1.00  0.00     0.049 A 
ATOM     17  N   UNL     1      -4.935  10.293   2.206  1.00  0.00    -0.248 NA
ATOM     18  C   UNL     1      -3.654  10.864   0.341  1.00  0.00     0.031 C 
ATOM     19  C   UNL     1      -1.372  11.001   4.822  1.00  0.00     0.029 A 
ATOM     20  N   UNL     1      -3.505  10.333   4.791  1.00  0.00    -0.354 N 
ATOM     21  C   UNL     1      -5.729  10.222   1.069  1.00  0.00     0.074 A 
ATOM     22  C   UNL     1      -4.898  10.613  -0.050  1.00  0.00     0.031 C 
ATOM     23  C   UNL     1      -1.698  10.655   6.074  1.00  0.00     0.029 A 
ATOM     24  C   UNL     1      -3.095  10.241   6.098  1.00  0.00     0.049 A 
ATOM     25  H   UNL     1      -4.417  10.111   4.494  1.00  0.00     0.167 HD
ATOM     26  C   UNL     1      -7.031   9.857   0.976  1.00  0.00     0.037 A 
ATOM     27  C   UNL     1      -3.774   9.878   7.200  1.00  0.00     0.037 A 
ATOM     28  C   UNL     1      -7.844   9.459   2.098  1.00  0.00     0.049 A 
ATOM     29  C   UNL     1      -5.213   9.481   7.060  1.00  0.00     0.074 A 
ATOM     30  C   UNL     1      -9.170   9.062   2.108  1.00  0.00     0.029 A 
ATOM     31  N   UNL     1      -7.403   9.404   3.413  1.00  0.00    -0.354 N 
ATOM     32  N   UNL     1      -5.947   9.407   5.977  1.00  0.00    -0.248 NA
ATOM     33  C   UNL     1      -5.919   9.121   8.295  1.00  0.00     0.031 C 
ATOM     34  C   UNL     1      -9.542   8.802   3.431  1.00  0.00     0.029 A 
ATOM     35  C   UNL     1      -8.436   8.993   4.243  1.00  0.00     0.049 A 
ATOM     36  H   UNL     1      -6.492   9.625   3.713  1.00  0.00     0.167 HD
ATOM     37  C   UNL     1      -7.202   8.995   6.397  1.00  0.00     0.074 A 
ATOM     38  C   UNL     1      -7.116   8.795   7.830  1.00  0.00     0.031 C 
ATOM     39  C   UNL     1      -8.329   8.813   5.667  1.00  0.00     0.037 A 
BRANCH  26  40
ATOM     40  C   UNL     1      -7.671   9.876  -0.382  1.00  0.00     0.064 A 
ATOM     41  C   UNL     1      -7.382   8.898  -1.344  1.00  0.00     0.173 A 
ATOM     42  C   UNL     1      -8.645  10.838  -0.696  1.00  0.00     0.173 A 
ATOM     43  F   UNL     1      -6.453   7.962  -1.097  1.00  0.00    -0.203 F 
ATOM     44  C   UNL     1      -8.037   8.886  -2.574  1.00  0.00     0.198 A 
ATOM     45  C   UNL     1      -9.314  10.809  -1.917  1.00  0.00     0.198 A 
ATOM     46  F   UNL     1      -8.963  11.792   0.191  1.00  0.00    -0.203 F 
ATOM     47  F   UNL     1      -7.727   7.955  -3.487  1.00  0.00    -0.200 F 
ATOM     48  C   UNL     1      -9.008   9.835  -2.856  1.00  0.00     0.200 A 
ATOM     49  F   UNL     1     -10.261  11.719  -2.183  1.00  0.00    -0.200 F 
ATOM     50  F   UNL     1      -9.649   9.812  -4.032  1.00  0.00    -0.200 F 
ENDBRANCH  26  40
BRANCH  27  51
ATOM     51  C   UNL     1      -3.098   9.895   8.522  1.00  0.00     0.064 A 
ATOM     52  C   UNL     1      -2.839   8.708   9.220  1.00  0.00     0.173 A 
ATOM     53  C   UNL     1      -2.686  11.101   9.109  1.00  0.00     0.173 A 
ATOM     54  F   UNL     1      -3.228   7.531   8.707  1.00  0.00    -0.203 F 
ATOM     55  C   UNL     1      -2.210   8.729  10.462  1.00  0.00     0.198 A 
ATOM     56  C   UNL     1      -2.027  11.118  10.335  1.00  0.00     0.198 A 
ATOM     57  F   UNL     1      -2.904  12.264   8.477  1.00  0.00    -0.203 F 
ATOM     58  F   UNL     1      -2.014   7.583  11.130  1.00  0.00    -0.200 F 
ATOM     59  C   UNL     1      -1.798   9.932  11.015  1.00  0.00     0.200 A 
ATOM     60  F   UNL     1      -1.613  12.281  10.854  1.00  0.00    -0.200 F 
ATOM     61  F   UNL     1      -1.186   9.950  12.207  1.00  0.00    -0.200 F 
ENDBRANCH  27  51
BRANCH  39  62
ATOM     62  C   UNL     1      -9.549   8.370   6.419  1.00  0.00     0.064 A 
ATOM     63  C   UNL     1     -10.236   9.245   7.273  1.00  0.00     0.173 A 
ATOM     64  C   UNL     1     -10.030   7.060   6.288  1.00  0.00     0.173 A 
ATOM     65  F   UNL     1      -9.801  10.503   7.444  1.00  0.00    -0.203 F 
ATOM     66  C   UNL     1     -11.342   8.812   7.998  1.00  0.00     0.198 A 
ATOM     67  C   UNL     1     -11.154   6.639   6.993  1.00  0.00     0.198 A 
ATOM     68  F   UNL     1      -9.409   6.188   5.480  1.00  0.00    -0.203 F 
ATOM     69  F   UNL     1     -11.948   9.647   8.854  1.00  0.00    -0.200 F 
ATOM     70  C   UNL     1     -11.802   7.512   7.854  1.00  0.00     0.200 A 
ATOM     71  F   UNL     1     -11.603   5.385   6.847  1.00  0.00    -0.200 F 
ATOM     72  F   UNL     1     -12.864   7.095   8.558  1.00  0.00    -0.200 F 
ENDBRANCH  39  62
ENDBRANCH  13  14
ENDBRANCH   6   8
ENDBRANCH   3   4
ENDBRANCH   2   3
ENDBRANCH   1   2
BRANCH   1  73
ATOM     73  C   UNL     1       4.932   8.471  -1.536  1.00  0.00     0.116 C 
BRANCH  73  74
ATOM     74  N   UNL     1       4.958   7.032  -1.695  1.00  0.00    -0.356 N 
ATOM     75  C   UNL     1       6.058   6.280  -1.980  1.00  0.00     0.224 C 
ATOM     76  H   UNL     1       4.104   6.554  -1.589  1.00  0.00     0.163 HD
ATOM     77  O   UNL     1       6.250   5.292  -1.263  1.00  0.00    -0.275 OA
BRANCH  75  78
ATOM     78  C   UNL     1       6.980   6.556  -3.167  1.00  0.00     0.095 C 
ATOM     79  C   UNL     1       7.487   7.992  -3.276  1.00  0.00     0.041 C 
ATOM     80  C   UNL     1       6.524   5.946  -4.519  1.00  0.00     0.095 C 
ATOM     81  C   UNL     1       8.501   8.159  -4.357  1.00  0.00    -0.030 C 
ATOM     82  C   UNL     1       7.575   6.216  -5.641  1.00  0.00     0.041 C 
ATOM     83  C   UNL     1       8.536   7.352  -5.422  1.00  0.00    -0.030 C 
BRANCH  80  84
ATOM     84  C   UNL     1       5.139   6.377  -5.023  1.00  0.00     0.229 C 
ATOM     85  O   UNL     1       5.014   7.503  -5.528  1.00  0.00    -0.274 OA
ATOM     86  N   UNL     1       4.026   5.574  -5.059  1.00  0.00    -0.317 N 
ATOM     87  H   UNL     1       3.330   5.921  -5.663  1.00  0.00     0.170 HD
BRANCH  86  88
ATOM     88  C   UNL     1       3.652   4.384  -4.443  1.00  0.00     0.108 A 
ATOM     89  S   UNL     1       4.655   3.677  -3.293  1.00  0.00    -0.122 S 
ATOM     90  C   UNL     1       2.465   3.648  -4.626  1.00  0.00     0.078 A 
ATOM     91  C   UNL     1       3.507   2.567  -2.811  1.00  0.00     0.011 A 
ATOM     92  C   UNL     1       2.388   2.576  -3.620  1.00  0.00    -0.019 A 
ATOM     93  C   UNL     1       3.754   1.689  -1.629  1.00  0.00     0.047 C 
ATOM     94  C   UNL     1       1.319   1.544  -3.392  1.00  0.00     0.037 C 
ATOM     95  C   UNL     1       2.941   0.405  -1.763  1.00  0.00     0.006 C 
ATOM     96  C   UNL     1       1.485   0.731  -2.094  1.00  0.00     0.005 C 
BRANCH  90  97
ATOM     97  C   UNL     1       1.532   3.984  -5.735  1.00  0.00     0.257 C 
ATOM     98  O   UNL     1       1.717   4.974  -6.446  1.00  0.00    -0.269 OA
ATOM     99  N   UNL     1       0.539   3.064  -6.056  1.00  0.00    -0.339 N 
ATOM    100  C   UNL     1       0.528   2.489  -7.397  1.00  0.00     0.120 C 
ATOM    101  C   UNL     1      -0.713   3.010  -5.310  1.00  0.00     0.120 C 
ATOM    102  C   UNL     1      -0.687   2.909  -8.224  1.00  0.00     0.022 C 
ATOM    103  C   UNL     1      -1.922   3.453  -6.129  1.00  0.00     0.022 C 
ATOM    104  C   UNL     1      -1.983   2.691  -7.449  1.00  0.00     0.004 C 
ENDBRANCH  90  97
ENDBRANCH  86  88
ENDBRANCH  80  84
ENDBRANCH  75  78
ENDBRANCH  73  74
ENDBRANCH   1  73
TORSDOF 14
