REMARK SMILES CCCCCCNC(=O)Oc1cccc(-c2ccc([C@@H](C)C(=O)NCCCCNC(=O)c3ccc(-c4c5nc(c(-c6c(F)c(F)c(F)c(F)c6F)c6ccc([nH]6)c(-c6c(F)c(F)c(F)c(F)c6F)c6nc(c(-c7c(F)c(F)c(F)c(F)c7F)c7ccc4[nH]7)C=C6)C=C5)cc3)cc2C)c1
REMARK SMILES IDX 20 1 21 2 19 3 16 4 17 5 96 6 18 7 95 8 97 9 15 10 11 11
REMARK SMILES IDX 12 12 98 13 13 14 14 15 10 16 8 17 7 18 9 20 6 21 5 22 4 23
REMARK SMILES IDX 3 24 2 25 1 26 22 27 23 28 24 29 25 31 26 32 27 33 28 34
REMARK SMILES IDX 29 35 30 36 31 38 32 39 33 40 94 41 34 42 93 43 35 44 36 45
REMARK SMILES IDX 37 46 87 47 38 48 92 49 86 50 88 51 39 52 91 53 85 54 84 55
REMARK SMILES IDX 40 57 72 58 52 59 71 60 53 61 56 62 70 63 89 64 54 65 55 66
REMARK SMILES IDX 69 68 90 69 57 70 41 71 42 72 50 73 43 74 44 75 48 76 51 77
REMARK SMILES IDX 45 78 46 79 49 80 47 81 73 82 74 83 82 84 75 85 76 86 80 87
REMARK SMILES IDX 83 88 77 89 78 90 81 91 79 92 58 93 59 94 67 95 60 96 61 97
REMARK SMILES IDX 65 98 68 99 62 100 63 101 66 102 64 103
REMARK H PARENT 7 19 24 30 29 37 88 56 56 67
REMARK Flexibility Score: inf
ROOT
ATOM      1  C   UNL     1      -4.960  12.997   3.868  1.00  0.00     0.105 C 
ATOM      2  C   UNL     1      -6.186  13.880   4.095  1.00  0.00     0.023 C 
ENDROOT
BRANCH   1   3
ATOM      3  C   UNL     1      -5.185  11.503   4.045  1.00  0.00    -0.036 A 
ATOM      4  C   UNL     1      -5.342   8.665   4.413  1.00  0.00    -0.015 A 
ATOM      5  C   UNL     1      -5.862   9.575   5.353  1.00  0.00     0.009 A 
ATOM      6  C   UNL     1      -4.838   9.209   3.211  1.00  0.00    -0.043 A 
ATOM      7  C   UNL     1      -5.839  10.957   5.145  1.00  0.00     0.005 A 
ATOM      8  C   UNL     1      -4.709  10.610   3.074  1.00  0.00     0.008 A 
ATOM      9  C   UNL     1      -4.439   8.382   2.016  1.00  0.00     0.045 C 
BRANCH   4  10
ATOM     10  C   UNL     1      -5.356   7.217   4.736  1.00  0.00    -0.014 A 
ATOM     11  C   UNL     1      -4.296   5.027   4.775  1.00  0.00     0.133 A 
ATOM     12  C   UNL     1      -5.429   4.451   5.341  1.00  0.00     0.047 A 
ATOM     13  C   UNL     1      -4.241   6.394   4.496  1.00  0.00     0.056 A 
ATOM     14  C   UNL     1      -6.525   5.254   5.631  1.00  0.00     0.004 A 
ATOM     15  C   UNL     1      -6.493   6.617   5.316  1.00  0.00     0.009 A 
BRANCH  11  16
ATOM     16  O   UNL     1      -3.299   4.135   4.338  1.00  0.00    -0.410 OA
BRANCH  16  17
ATOM     17  C   UNL     1      -1.955   4.414   4.531  1.00  0.00     0.412 C 
ATOM     18  N   UNL     1      -1.134   3.545   3.863  1.00  0.00    -0.321 N 
ATOM     19  H   UNL     1      -0.165   3.664   3.994  1.00  0.00     0.167 HD
ATOM     20  O   UNL     1      -1.500   5.317   5.220  1.00  0.00    -0.224 OA
BRANCH  18  21
ATOM     21  C   UNL     1      -1.545   2.468   2.983  1.00  0.00     0.119 C 
BRANCH  21  22
ATOM     22  C   UNL     1      -0.959   2.619   1.578  1.00  0.00     0.021 C 
BRANCH  22  23
ATOM     23  C   UNL     1       0.569   2.515   1.502  1.00  0.00     0.002 C 
BRANCH  23  24
ATOM     24  C   UNL     1       1.169   1.207   2.029  1.00  0.00    -0.000 C 
BRANCH  24  25
ATOM     25  C   UNL     1       0.679  -0.067   1.336  1.00  0.00    -0.003 C 
ATOM     26  C   UNL     1       1.040  -0.127  -0.140  1.00  0.00     0.004 C 
ENDBRANCH  24  25
ENDBRANCH  23  24
ENDBRANCH  22  23
ENDBRANCH  21  22
ENDBRANCH  18  21
ENDBRANCH  16  17
ENDBRANCH  11  16
ENDBRANCH   4  10
ENDBRANCH   1   3
BRANCH   1  27
ATOM     27  C   UNL     1      -3.675  13.522   4.532  1.00  0.00     0.227 C 
ATOM     28  O   UNL     1      -2.700  13.825   3.833  1.00  0.00    -0.274 OA
ATOM     29  N   UNL     1      -3.530  13.710   5.873  1.00  0.00    -0.356 N 
ATOM     30  H   UNL     1      -2.682  14.136   6.132  1.00  0.00     0.163 HD
BRANCH  29  31
ATOM     31  C   UNL     1      -4.400  13.395   6.985  1.00  0.00     0.116 C 
BRANCH  31  32
ATOM     32  C   UNL     1      -4.067  12.037   7.605  1.00  0.00     0.023 C 
BRANCH  32  33
ATOM     33  C   UNL     1      -3.006  12.066   8.700  1.00  0.00     0.023 C 
BRANCH  33  34
ATOM     34  C   UNL     1      -3.365  12.898   9.923  1.00  0.00     0.116 C 
BRANCH  34  35
ATOM     35  N   UNL     1      -4.607  12.503  10.573  1.00  0.00    -0.352 N 
ATOM     36  C   UNL     1      -4.933  12.601  11.906  1.00  0.00     0.251 C 
ATOM     37  H   UNL     1      -5.299  12.120   9.986  1.00  0.00     0.163 HD
ATOM     38  O   UNL     1      -5.997  12.162  12.329  1.00  0.00    -0.269 OA
BRANCH  36  39
ATOM     39  C   UNL     1      -3.954  13.201  12.835  1.00  0.00     0.039 A 
ATOM     40  C   UNL     1      -3.595  12.497  13.986  1.00  0.00     0.014 A 
ATOM     41  C   UNL     1      -3.341  14.418  12.527  1.00  0.00     0.014 A 
ATOM     42  C   UNL     1      -2.564  12.980  14.793  1.00  0.00     0.010 A 
ATOM     43  C   UNL     1      -2.259  14.851  13.282  1.00  0.00     0.010 A 
ATOM     44  C   UNL     1      -1.862  14.140  14.424  1.00  0.00    -0.014 A 
BRANCH  44  45
ATOM     45  C   UNL     1      -0.718  14.638  15.227  1.00  0.00     0.031 A 
ATOM     46  C   UNL     1      -0.805  15.982  15.894  1.00  0.00     0.074 A 
ATOM     47  C   UNL     1       0.419  13.919  15.294  1.00  0.00     0.049 A 
ATOM     48  N   UNL     1       0.106  16.632  16.573  1.00  0.00    -0.248 NA
ATOM     49  C   UNL     1      -2.076  16.709  15.748  1.00  0.00     0.031 C 
ATOM     50  C   UNL     1       0.645  12.629  14.641  1.00  0.00     0.029 A 
ATOM     51  N   UNL     1       1.603  14.177  15.938  1.00  0.00    -0.354 N 
ATOM     52  C   UNL     1      -0.475  17.845  16.915  1.00  0.00     0.074 A 
ATOM     53  C   UNL     1      -1.792  17.870  16.318  1.00  0.00     0.031 C 
ATOM     54  C   UNL     1       1.881  12.195  14.941  1.00  0.00     0.029 A 
ATOM     55  C   UNL     1       2.543  13.190  15.779  1.00  0.00     0.049 A 
ATOM     56  H   UNL     1       1.762  14.994  16.464  1.00  0.00     0.167 HD
ATOM     57  C   UNL     1       0.033  18.838  17.684  1.00  0.00     0.037 A 
ATOM     58  C   UNL     1       3.799  13.100  16.258  1.00  0.00     0.037 A 
ATOM     59  C   UNL     1       1.329  18.794  18.305  1.00  0.00     0.049 A 
ATOM     60  C   UNL     1       4.333  14.208  17.124  1.00  0.00     0.074 A 
ATOM     61  C   UNL     1       1.916  19.721  19.148  1.00  0.00     0.029 A 
ATOM     62  N   UNL     1       2.241  17.759  18.150  1.00  0.00    -0.354 N 
ATOM     63  N   UNL     1       3.750  15.321  17.498  1.00  0.00    -0.248 NA
ATOM     64  C   UNL     1       5.697  14.042  17.644  1.00  0.00     0.031 C 
ATOM     65  C   UNL     1       3.197  19.264  19.476  1.00  0.00     0.029 A 
ATOM     66  C   UNL     1       3.390  18.030  18.874  1.00  0.00     0.049 A 
ATOM     67  H   UNL     1       2.092  16.952  17.607  1.00  0.00     0.167 HD
ATOM     68  C   UNL     1       4.659  15.971  18.322  1.00  0.00     0.074 A 
ATOM     69  C   UNL     1       5.830  15.121  18.402  1.00  0.00     0.031 C 
ATOM     70  C   UNL     1       4.537  17.163  18.955  1.00  0.00     0.037 A 
BRANCH  57  71
ATOM     71  C   UNL     1      -0.828  20.048  17.903  1.00  0.00     0.064 A 
ATOM     72  C   UNL     1      -1.996  19.988  18.680  1.00  0.00     0.173 A 
ATOM     73  C   UNL     1      -0.476  21.285  17.345  1.00  0.00     0.173 A 
ATOM     74  F   UNL     1      -2.385  18.825  19.224  1.00  0.00    -0.203 F 
ATOM     75  C   UNL     1      -2.796  21.112  18.860  1.00  0.00     0.198 A 
ATOM     76  C   UNL     1      -1.262  22.416  17.553  1.00  0.00     0.198 A 
ATOM     77  F   UNL     1       0.632  21.400  16.597  1.00  0.00    -0.203 F 
ATOM     78  F   UNL     1      -3.937  21.016  19.557  1.00  0.00    -0.200 F 
ATOM     79  C   UNL     1      -2.426  22.326  18.302  1.00  0.00     0.200 A 
ATOM     80  F   UNL     1      -0.897  23.591  17.023  1.00  0.00    -0.200 F 
ATOM     81  F   UNL     1      -3.196  23.409  18.478  1.00  0.00    -0.200 F 
ENDBRANCH  57  71
BRANCH  58  82
ATOM     82  C   UNL     1       4.622  11.897  15.968  1.00  0.00     0.064 A 
ATOM     83  C   UNL     1       4.923  10.975  16.981  1.00  0.00     0.173 A 
ATOM     84  C   UNL     1       5.128  11.646  14.685  1.00  0.00     0.173 A 
ATOM     85  F   UNL     1       4.479  11.183  18.229  1.00  0.00    -0.203 F 
ATOM     86  C   UNL     1       5.719   9.860  16.726  1.00  0.00     0.198 A 
ATOM     87  C   UNL     1       5.902  10.516  14.426  1.00  0.00     0.198 A 
ATOM     88  F   UNL     1       4.864  12.494  13.681  1.00  0.00    -0.203 F 
ATOM     89  F   UNL     1       6.030   9.021  17.723  1.00  0.00    -0.200 F 
ATOM     90  C   UNL     1       6.204   9.629  15.448  1.00  0.00     0.200 A 
ATOM     91  F   UNL     1       6.359  10.289  13.187  1.00  0.00    -0.200 F 
ATOM     92  F   UNL     1       6.968   8.556  15.204  1.00  0.00    -0.200 F 
ENDBRANCH  58  82
BRANCH  70  93
ATOM     93  C   UNL     1       5.678  17.597  19.827  1.00  0.00     0.064 A 
ATOM     94  C   UNL     1       6.896  18.034  19.286  1.00  0.00     0.173 A 
ATOM     95  C   UNL     1       5.534  17.613  21.223  1.00  0.00     0.173 A 
ATOM     96  F   UNL     1       7.087  18.023  17.958  1.00  0.00    -0.203 F 
ATOM     97  C   UNL     1       7.938  18.445  20.112  1.00  0.00     0.198 A 
ATOM     98  C   UNL     1       6.568  18.052  22.044  1.00  0.00     0.198 A 
ATOM     99  F   UNL     1       4.386  17.212  21.789  1.00  0.00    -0.203 F 
ATOM    100  F   UNL     1       9.110  18.813  19.576  1.00  0.00    -0.200 F 
ATOM    101  C   UNL     1       7.771  18.461  21.489  1.00  0.00     0.200 A 
ATOM    102  F   UNL     1       6.400  18.080  23.373  1.00  0.00    -0.200 F 
ATOM    103  F   UNL     1       8.774  18.863  22.282  1.00  0.00    -0.200 F 
ENDBRANCH  70  93
ENDBRANCH  44  45
ENDBRANCH  36  39
ENDBRANCH  34  35
ENDBRANCH  33  34
ENDBRANCH  32  33
ENDBRANCH  31  32
ENDBRANCH  29  31
ENDBRANCH   1  27
TORSDOF 20
