REMARK SMILES CC(=O)N[C@@H](C(=O)N(CC(=O)NCCCCNC(=O)c1ccc(-c2c3nc(c(-c4c(F)c(F)c(F)c(F)c4F)c4ccc([nH]4)c(-c4c(F)c(F)c(F)c(F)c4F)c4nc(c(-c5c(F)c(F)c(F)c(F)c5F)c5ccc2[nH]5)C=C4)C=C3)cc1)C(C)(C)C)C(C)C
REMARK SMILES IDX 13 1 12 2 10 3 11 4 9 6 8 7 6 8 7 9 5 10 4 11 1 12 2 13 3 14
REMARK SMILES IDX 87 16 88 17 89 18 83 19 84 20 85 21 86 22 14 23 15 24 16 25
REMARK SMILES IDX 17 26 18 27 19 29 20 30 21 31 82 32 22 33 81 34 23 35 24 36
REMARK SMILES IDX 25 37 75 38 26 39 80 40 74 41 76 42 27 43 79 44 73 45 72 46
REMARK SMILES IDX 28 48 60 49 40 50 59 51 41 52 44 53 58 54 77 55 42 56 43 57
REMARK SMILES IDX 57 59 78 60 45 61 29 62 30 63 38 64 31 65 32 66 36 67 39 68
REMARK SMILES IDX 33 69 34 70 37 71 35 72 61 73 62 74 70 75 63 76 64 77 68 78
REMARK SMILES IDX 71 79 65 80 66 81 69 82 67 83 46 84 47 85 55 86 48 87 49 88
REMARK SMILES IDX 53 89 56 90 50 91 51 92 54 93 52 94
REMARK H PARENT 12 5 4 15 17 28 76 47 44 58
REMARK Flexibility Score: inf
ROOT
ATOM      1  C   UNL     1       1.745   4.574   0.412  1.00  0.00     0.116 C 
ENDROOT
BRANCH   1   2
ATOM      2  N   UNL     1       2.716   4.389  -0.636  1.00  0.00    -0.355 N 
ATOM      3  C   UNL     1       3.496   3.292  -0.872  1.00  0.00     0.239 C 
ATOM      4  O   UNL     1       3.975   3.170  -2.004  1.00  0.00    -0.273 OA
ATOM      5  H   UNL     1       2.832   5.144  -1.257  1.00  0.00     0.163 HD
BRANCH   3   6
ATOM      6  C   UNL     1       3.673   2.163   0.171  1.00  0.00     0.220 C 
BRANCH   6   7
ATOM      7  N   UNL     1       3.976   2.551   1.560  1.00  0.00    -0.327 N 
BRANCH   7   8
ATOM      8  C   UNL     1       3.056   2.380   2.617  1.00  0.00     0.246 C 
ATOM      9  O   UNL     1       3.191   3.029   3.660  1.00  0.00    -0.272 OA
BRANCH   8  10
ATOM     10  C   UNL     1       1.855   1.334   2.523  1.00  0.00     0.174 C 
BRANCH  10  11
ATOM     11  N   UNL     1       0.846   1.714   1.523  1.00  0.00    -0.344 N 
ATOM     12  C   UNL     1       0.761  -0.406   0.254  1.00  0.00     0.114 C 
ATOM     13  C   UNL     1       0.304   1.005   0.495  1.00  0.00     0.217 C 
ATOM     14  O   UNL     1      -0.548   1.546  -0.207  1.00  0.00    -0.275 OA
ATOM     15  H   UNL     1       0.506   2.634   1.611  1.00  0.00     0.164 HD
ENDBRANCH  10  11
BRANCH  10  16
ATOM     16  C   UNL     1       1.124   1.230   3.906  1.00  0.00     0.015 C 
ATOM     17  C   UNL     1      -0.224   0.494   3.836  1.00  0.00     0.010 C 
ATOM     18  C   UNL     1       1.989   0.549   4.970  1.00  0.00     0.010 C 
ENDBRANCH  10  16
ENDBRANCH   8  10
ENDBRANCH   7   8
BRANCH   7  19
ATOM     19  C   UNL     1       5.301   3.254   1.826  1.00  0.00     0.035 C 
ATOM     20  C   UNL     1       5.115   4.742   2.179  1.00  0.00     0.034 C 
ATOM     21  C   UNL     1       6.054   2.542   2.973  1.00  0.00     0.034 C 
ATOM     22  C   UNL     1       6.283   3.235   0.620  1.00  0.00     0.034 C 
ENDBRANCH   7  19
ENDBRANCH   6   7
ENDBRANCH   3   6
ENDBRANCH   1   2
BRANCH   1  23
ATOM     23  C   UNL     1       1.813   5.902   1.146  1.00  0.00     0.023 C 
BRANCH  23  24
ATOM     24  C   UNL     1       1.383   7.101   0.324  1.00  0.00     0.023 C 
BRANCH  24  25
ATOM     25  C   UNL     1      -0.023   6.990  -0.244  1.00  0.00     0.116 C 
BRANCH  25  26
ATOM     26  N   UNL     1      -1.044   6.827   0.785  1.00  0.00    -0.352 N 
ATOM     27  C   UNL     1      -2.143   7.610   1.042  1.00  0.00     0.251 C 
ATOM     28  H   UNL     1      -0.929   6.049   1.377  1.00  0.00     0.163 HD
ATOM     29  O   UNL     1      -2.835   7.424   2.037  1.00  0.00    -0.269 OA
BRANCH  27  30
ATOM     30  C   UNL     1      -2.454   8.712   0.114  1.00  0.00     0.039 A 
ATOM     31  C   UNL     1      -2.637   9.999   0.622  1.00  0.00     0.014 A 
ATOM     32  C   UNL     1      -2.466   8.479  -1.263  1.00  0.00     0.014 A 
ATOM     33  C   UNL     1      -2.736  11.073  -0.262  1.00  0.00     0.010 A 
ATOM     34  C   UNL     1      -2.465   9.557  -2.136  1.00  0.00     0.010 A 
ATOM     35  C   UNL     1      -2.597  10.865  -1.644  1.00  0.00    -0.014 A 
BRANCH  35  36
ATOM     36  C   UNL     1      -2.585  11.996  -2.602  1.00  0.00     0.031 A 
ATOM     37  C   UNL     1      -3.647  12.086  -3.660  1.00  0.00     0.074 A 
ATOM     38  C   UNL     1      -1.571  12.883  -2.578  1.00  0.00     0.049 A 
ATOM     39  N   UNL     1      -3.756  12.927  -4.656  1.00  0.00    -0.248 NA
ATOM     40  C   UNL     1      -4.711  11.069  -3.614  1.00  0.00     0.031 C 
ATOM     41  C   UNL     1      -0.448  12.863  -1.638  1.00  0.00     0.029 A 
ATOM     42  N   UNL     1      -1.312  13.967  -3.379  1.00  0.00    -0.354 N 
ATOM     43  C   UNL     1      -4.880  12.527  -5.364  1.00  0.00     0.074 A 
ATOM     44  C   UNL     1      -5.389  11.336  -4.720  1.00  0.00     0.031 C 
ATOM     45  C   UNL     1       0.367  13.897  -1.903  1.00  0.00     0.029 A 
ATOM     46  C   UNL     1      -0.154  14.630  -3.053  1.00  0.00     0.049 A 
ATOM     47  H   UNL     1      -1.902  14.244  -4.117  1.00  0.00     0.167 HD
ATOM     48  C   UNL     1      -5.452  13.116  -6.440  1.00  0.00     0.037 A 
ATOM     49  C   UNL     1       0.424  15.703  -3.625  1.00  0.00     0.037 A 
ATOM     50  C   UNL     1      -4.966  14.322  -7.052  1.00  0.00     0.049 A 
ATOM     51  C   UNL     1      -0.243  16.349  -4.808  1.00  0.00     0.074 A 
ATOM     52  C   UNL     1      -5.517  15.043  -8.096  1.00  0.00     0.029 A 
ATOM     53  N   UNL     1      -3.810  14.987  -6.670  1.00  0.00    -0.354 N 
ATOM     54  N   UNL     1      -1.349  16.007  -5.423  1.00  0.00    -0.248 NA
ATOM     55  C   UNL     1       0.416  17.535  -5.374  1.00  0.00     0.031 C 
ATOM     56  C   UNL     1      -4.673  16.123  -8.373  1.00  0.00     0.029 A 
ATOM     57  C   UNL     1      -3.620  16.100  -7.473  1.00  0.00     0.049 A 
ATOM     58  H   UNL     1      -3.213  14.710  -5.938  1.00  0.00     0.167 HD
ATOM     59  C   UNL     1      -1.532  16.945  -6.430  1.00  0.00     0.074 A 
ATOM     60  C   UNL     1      -0.431  17.882  -6.333  1.00  0.00     0.031 C 
ATOM     61  C   UNL     1      -2.521  17.023  -7.354  1.00  0.00     0.037 A 
BRANCH  48  62
ATOM     62  C   UNL     1      -6.676  12.467  -7.016  1.00  0.00     0.064 A 
ATOM     63  C   UNL     1      -7.902  12.475  -6.333  1.00  0.00     0.173 A 
ATOM     64  C   UNL     1      -6.632  11.858  -8.279  1.00  0.00     0.173 A 
ATOM     65  F   UNL     1      -7.994  13.031  -5.116  1.00  0.00    -0.203 F 
ATOM     66  C   UNL     1      -9.031  11.872  -6.882  1.00  0.00     0.198 A 
ATOM     67  C   UNL     1      -7.770  11.283  -8.837  1.00  0.00     0.198 A 
ATOM     68  F   UNL     1      -5.485  11.825  -8.974  1.00  0.00    -0.203 F 
ATOM     69  F   UNL     1     -10.179  11.850  -6.190  1.00  0.00    -0.200 F 
ATOM     70  C   UNL     1      -8.966  11.284  -8.136  1.00  0.00     0.200 A 
ATOM     71  F   UNL     1      -7.709  10.725 -10.054  1.00  0.00    -0.200 F 
ATOM     72  F   UNL     1     -10.056  10.712  -8.666  1.00  0.00    -0.200 F 
ENDBRANCH  48  62
BRANCH  49  73
ATOM     73  C   UNL     1       1.692  16.249  -3.073  1.00  0.00     0.064 A 
ATOM     74  C   UNL     1       1.714  17.485  -2.412  1.00  0.00     0.173 A 
ATOM     75  C   UNL     1       2.903  15.555  -3.199  1.00  0.00     0.173 A 
ATOM     76  F   UNL     1       0.584  18.196  -2.285  1.00  0.00    -0.203 F 
ATOM     77  C   UNL     1       2.903  18.017  -1.919  1.00  0.00     0.198 A 
ATOM     78  C   UNL     1       4.088  16.075  -2.682  1.00  0.00     0.198 A 
ATOM     79  F   UNL     1       2.935  14.366  -3.818  1.00  0.00    -0.203 F 
ATOM     80  F   UNL     1       2.904  19.222  -1.333  1.00  0.00    -0.200 F 
ATOM     81  C   UNL     1       4.089  17.309  -2.049  1.00  0.00     0.200 A 
ATOM     82  F   UNL     1       5.229  15.382  -2.798  1.00  0.00    -0.200 F 
ATOM     83  F   UNL     1       5.232  17.820  -1.573  1.00  0.00    -0.200 F 
ENDBRANCH  49  73
BRANCH  61  84
ATOM     84  C   UNL     1      -2.473  18.175  -8.313  1.00  0.00     0.064 A 
ATOM     85  C   UNL     1      -1.532  18.227  -9.351  1.00  0.00     0.173 A 
ATOM     86  C   UNL     1      -3.408  19.217  -8.218  1.00  0.00     0.173 A 
ATOM     87  F   UNL     1      -0.608  17.263  -9.474  1.00  0.00    -0.203 F 
ATOM     88  C   UNL     1      -1.514  19.294 -10.246  1.00  0.00     0.198 A 
ATOM     89  C   UNL     1      -3.406  20.266  -9.132  1.00  0.00     0.198 A 
ATOM     90  F   UNL     1      -4.333  19.209  -7.246  1.00  0.00    -0.203 F 
ATOM     91  F   UNL     1      -0.578  19.346 -11.204  1.00  0.00    -0.200 F 
ATOM     92  C   UNL     1      -2.455  20.307 -10.141  1.00  0.00     0.200 A 
ATOM     93  F   UNL     1      -4.324  21.238  -9.037  1.00  0.00    -0.200 F 
ATOM     94  F   UNL     1      -2.441  21.329 -11.008  1.00  0.00    -0.200 F 
ENDBRANCH  61  84
ENDBRANCH  35  36
ENDBRANCH  27  30
ENDBRANCH  25  26
ENDBRANCH  24  25
ENDBRANCH  23  24
ENDBRANCH   1  23
TORSDOF 17
