REMARK SMILES C[C@]12CCC[C@](C)(C(=O)NCCCCNC(=O)c3ccc(-c4c5nc(c(-c6c(F)c(F)c(F)c(F)c6F)c6ccc([nH]6)c(-c6c(F)c(F)c(F)c(F)c6F)c6nc(c(-c7c(F)c(F)c(F)c(F)c7F)c7ccc4[nH]7)C=C6)C=C5)cc3)[C@@H]1CC[C@]13C=C(CO)[C@H](CC[C@H]12)C3
REMARK SMILES IDX 12 1 11 2 10 3 8 4 9 5 6 7 1 8 2 9 3 10 81 11 92 12 4 13
REMARK SMILES IDX 82 14 84 15 91 16 5 17 7 18 83 19 85 20 93 21 90 22 86 23
REMARK SMILES IDX 89 24 87 25 88 26 13 28 14 29 15 30 16 31 17 33 18 34 19 35
REMARK SMILES IDX 80 36 20 37 79 38 21 39 22 40 23 41 73 42 24 43 78 44 72 45
REMARK SMILES IDX 74 46 25 47 77 48 71 49 70 50 26 52 58 53 38 54 57 55 39 56
REMARK SMILES IDX 42 57 56 58 75 59 40 60 41 61 55 63 76 64 43 65 27 66 28 67
REMARK SMILES IDX 36 68 29 69 30 70 34 71 37 72 31 73 32 74 35 75 33 76 59 77
REMARK SMILES IDX 60 78 68 79 61 80 62 81 66 82 69 83 63 84 64 85 67 86 65 87
REMARK SMILES IDX 44 88 45 89 53 90 46 91 47 92 51 93 54 94 48 95 49 96 52 97
REMARK SMILES IDX 50 98
REMARK H PARENT 10 6 88 27 15 32 74 51 42 62
REMARK Flexibility Score: inf
ROOT
ATOM      1  C   UNL     1       4.863  -1.093   2.562  1.00  0.00     0.023 C 
ENDROOT
BRANCH   1   2
ATOM      2  C   UNL     1       3.748  -2.066   2.216  1.00  0.00     0.116 C 
BRANCH   2   3
ATOM      3  N   UNL     1       2.331  -1.777   2.449  1.00  0.00    -0.356 N 
ATOM      4  C   UNL     1       1.236  -2.220   1.687  1.00  0.00     0.226 C 
ATOM      5  O   UNL     1       0.164  -2.372   2.270  1.00  0.00    -0.274 OA
ATOM      6  H   UNL     1       2.123  -1.209   3.226  1.00  0.00     0.163 HD
BRANCH   4   7
ATOM      7  C   UNL     1       1.419  -2.411   0.134  1.00  0.00     0.050 C 
ATOM      8  C   UNL     1      -0.890  -0.540   0.224  1.00  0.00     0.012 C 
ATOM      9  C   UNL     1       0.165  -0.331  -0.937  1.00  0.00    -0.025 C 
ATOM     10  C   UNL     1      -0.282  -1.152  -2.146  1.00  0.00     0.007 C 
ATOM     11  C   UNL     1       1.585  -0.872  -0.476  1.00  0.00     0.010 C 
ATOM     12  C   UNL     1       0.042   1.185  -1.296  1.00  0.00     0.005 C 
ATOM     13  C   UNL     1      -0.645  -2.549  -1.726  1.00  0.00     0.002 C 
ATOM     14  C   UNL     1       2.239   0.239   0.418  1.00  0.00     0.006 C 
ATOM     15  C   UNL     1       0.769   2.201  -0.350  1.00  0.00    -0.008 C 
ATOM     16  C   UNL     1      -0.054   1.807  -2.690  1.00  0.00     0.006 C 
ATOM     17  C   UNL     1       0.377  -3.189  -0.797  1.00  0.00     0.017 C 
ATOM     18  C   UNL     1       2.483  -3.585   0.127  1.00  0.00     0.022 C 
ATOM     19  C   UNL     1       2.176   1.704  -0.062  1.00  0.00     0.012 C 
ATOM     20  C   UNL     1      -0.229   2.463   0.746  1.00  0.00    -0.018 C 
ATOM     21  C   UNL     1       0.736   3.662  -0.896  1.00  0.00     0.019 C 
ATOM     22  C   UNL     1      -1.025   3.039  -2.491  1.00  0.00     0.008 C 
ATOM     23  C   UNL     1      -1.225   3.208   0.213  1.00  0.00    -0.045 C 
ATOM     24  C   UNL     1      -0.774   3.810  -1.139  1.00  0.00     0.018 C 
BRANCH  23  25
ATOM     25  C   UNL     1      -2.566   3.385   0.842  1.00  0.00     0.187 C 
BRANCH  25  26
ATOM     26  O   UNL     1      -3.137   2.112   1.135  1.00  0.00    -0.392 OA
ATOM     27  H   UNL     1      -3.236   1.605   0.314  1.00  0.00     0.211 HD
ENDBRANCH  25  26
ENDBRANCH  23  25
ENDBRANCH   4   7
ENDBRANCH   2   3
ENDBRANCH   1   2
BRANCH   1  28
ATOM     28  C   UNL     1       4.872  -0.450   3.924  1.00  0.00     0.023 C 
BRANCH  28  29
ATOM     29  C   UNL     1       4.502  -1.353   5.080  1.00  0.00     0.116 C 
BRANCH  29  30
ATOM     30  N   UNL     1       5.296  -2.567   5.178  1.00  0.00    -0.352 N 
ATOM     31  C   UNL     1       5.968  -3.091   6.262  1.00  0.00     0.251 C 
ATOM     32  H   UNL     1       5.364  -3.092   4.349  1.00  0.00     0.163 HD
ATOM     33  O   UNL     1       6.621  -4.108   6.152  1.00  0.00    -0.269 OA
BRANCH  31  34
ATOM     34  C   UNL     1       5.927  -2.362   7.550  1.00  0.00     0.039 A 
ATOM     35  C   UNL     1       7.125  -2.159   8.234  1.00  0.00     0.014 A 
ATOM     36  C   UNL     1       4.731  -1.840   8.047  1.00  0.00     0.014 A 
ATOM     37  C   UNL     1       7.131  -1.369   9.384  1.00  0.00     0.010 A 
ATOM     38  C   UNL     1       4.759  -0.958   9.118  1.00  0.00     0.010 A 
ATOM     39  C   UNL     1       5.955  -0.732   9.813  1.00  0.00    -0.014 A 
BRANCH  39  40
ATOM     40  C   UNL     1       5.956   0.137  11.014  1.00  0.00     0.031 A 
ATOM     41  C   UNL     1       5.121  -0.237  12.208  1.00  0.00     0.074 A 
ATOM     42  C   UNL     1       6.679   1.273  11.019  1.00  0.00     0.049 A 
ATOM     43  N   UNL     1       4.988   0.384  13.353  1.00  0.00    -0.248 NA
ATOM     44  C   UNL     1       4.300  -1.454  12.091  1.00  0.00     0.031 C 
ATOM     45  C   UNL     1       7.474   1.776   9.897  1.00  0.00     0.029 A 
ATOM     46  N   UNL     1       6.865   2.210  12.004  1.00  0.00    -0.354 N 
ATOM     47  C   UNL     1       4.066  -0.360  14.079  1.00  0.00     0.074 A 
ATOM     48  C   UNL     1       3.615  -1.432  13.222  1.00  0.00     0.031 C 
ATOM     49  C   UNL     1       8.095   2.907  10.271  1.00  0.00     0.029 A 
ATOM     50  C   UNL     1       7.717   3.225  11.644  1.00  0.00     0.049 A 
ATOM     51  H   UNL     1       6.429   2.159  12.885  1.00  0.00     0.167 HD
ATOM     52  C   UNL     1       3.660  -0.187  15.358  1.00  0.00     0.037 A 
ATOM     53  C   UNL     1       8.149   4.287  12.350  1.00  0.00     0.037 A 
ATOM     54  C   UNL     1       4.133   0.867  16.216  1.00  0.00     0.049 A 
ATOM     55  C   UNL     1       7.692   4.450  13.775  1.00  0.00     0.074 A 
ATOM     56  C   UNL     1       3.828   1.101  17.544  1.00  0.00     0.029 A 
ATOM     57  N   UNL     1       5.013   1.865  15.823  1.00  0.00    -0.354 N 
ATOM     58  N   UNL     1       6.885   3.694  14.479  1.00  0.00    -0.248 NA
ATOM     59  C   UNL     1       8.222   5.607  14.508  1.00  0.00     0.031 C 
ATOM     60  C   UNL     1       4.485   2.270  17.942  1.00  0.00     0.029 A 
ATOM     61  C   UNL     1       5.247   2.730  16.880  1.00  0.00     0.049 A 
ATOM     62  H   UNL     1       5.411   1.947  14.927  1.00  0.00     0.167 HD
ATOM     63  C   UNL     1       6.835   4.263  15.745  1.00  0.00     0.074 A 
ATOM     64  C   UNL     1       7.711   5.417  15.716  1.00  0.00     0.031 C 
ATOM     65  C   UNL     1       6.128   3.869  16.833  1.00  0.00     0.037 A 
BRANCH  52  66
ATOM     66  C   UNL     1       2.660  -1.166  15.905  1.00  0.00     0.064 A 
ATOM     67  C   UNL     1       2.994  -2.510  16.133  1.00  0.00     0.173 A 
ATOM     68  C   UNL     1       1.358  -0.752  16.224  1.00  0.00     0.173 A 
ATOM     69  F   UNL     1       4.220  -2.963  15.831  1.00  0.00    -0.203 F 
ATOM     70  C   UNL     1       2.053  -3.410  16.628  1.00  0.00     0.198 A 
ATOM     71  C   UNL     1       0.430  -1.646  16.752  1.00  0.00     0.198 A 
ATOM     72  F   UNL     1       0.986   0.522  16.029  1.00  0.00    -0.203 F 
ATOM     73  F   UNL     1       2.379  -4.701  16.782  1.00  0.00    -0.200 F 
ATOM     74  C   UNL     1       0.775  -2.976  16.944  1.00  0.00     0.200 A 
ATOM     75  F   UNL     1      -0.800  -1.222  17.070  1.00  0.00    -0.200 F 
ATOM     76  F   UNL     1      -0.127  -3.841  17.427  1.00  0.00    -0.200 F 
ENDBRANCH  52  66
BRANCH  53  77
ATOM     77  C   UNL     1       9.097   5.255  11.737  1.00  0.00     0.064 A 
ATOM     78  C   UNL     1      10.421   5.355  12.189  1.00  0.00     0.173 A 
ATOM     79  C   UNL     1       8.699   6.109  10.698  1.00  0.00     0.173 A 
ATOM     80  F   UNL     1      10.845   4.572  13.193  1.00  0.00    -0.203 F 
ATOM     81  C   UNL     1      11.300   6.289  11.646  1.00  0.00     0.198 A 
ATOM     82  C   UNL     1       9.588   7.021  10.134  1.00  0.00     0.198 A 
ATOM     83  F   UNL     1       7.446   6.050  10.222  1.00  0.00    -0.203 F 
ATOM     84  F   UNL     1      12.543   6.398  12.135  1.00  0.00    -0.200 F 
ATOM     85  C   UNL     1      10.885   7.118  10.616  1.00  0.00     0.200 A 
ATOM     86  F   UNL     1       9.188   7.810   9.127  1.00  0.00    -0.200 F 
ATOM     87  F   UNL     1      11.731   8.016  10.093  1.00  0.00    -0.200 F 
ENDBRANCH  53  77
BRANCH  65  88
ATOM     88  C   UNL     1       6.308   4.668  18.092  1.00  0.00     0.064 A 
ATOM     89  C   UNL     1       5.822   5.979  18.214  1.00  0.00     0.173 A 
ATOM     90  C   UNL     1       6.961   4.105  19.200  1.00  0.00     0.173 A 
ATOM     91  F   UNL     1       5.202   6.568  17.180  1.00  0.00    -0.203 F 
ATOM     92  C   UNL     1       6.020   6.710  19.382  1.00  0.00     0.198 A 
ATOM     93  C   UNL     1       7.124   4.826  20.379  1.00  0.00     0.198 A 
ATOM     94  F   UNL     1       7.436   2.852  19.141  1.00  0.00    -0.203 F 
ATOM     95  F   UNL     1       5.605   7.982  19.451  1.00  0.00    -0.200 F 
ATOM     96  C   UNL     1       6.665   6.132  20.465  1.00  0.00     0.200 A 
ATOM     97  F   UNL     1       7.733   4.260  21.430  1.00  0.00    -0.200 F 
ATOM     98  F   UNL     1       6.854   6.837  21.589  1.00  0.00    -0.200 F 
ENDBRANCH  65  88
ENDBRANCH  39  40
ENDBRANCH  31  34
ENDBRANCH  29  30
ENDBRANCH  28  29
ENDBRANCH   1  28
TORSDOF 13
