REMARK SMILES C#CCN(CC(=O)NCCCCNC(=O)c1ccc(-c2c3nc(c(-c4c(F)c(F)c(F)c(F)c4F)c4ccc([nH]4)c(-c4c(F)c(F)c(F)c(F)c4F)c4nc(c(-c5c(F)c(F)c(F)c(F)c5F)c5ccc2[nH]5)C=C4)C=C3)cc1)C(=O)c1c[nH]c(=O)[nH]1
REMARK SMILES IDX 10 1 9 2 8 3 6 4 7 5 5 7 4 8 3 9 2 10 1 11 79 12 80 13 81 14
REMARK SMILES IDX 82 15 86 16 83 17 84 18 85 21 11 22 12 23 13 24 14 25 15 27
REMARK SMILES IDX 16 28 17 29 78 30 18 31 77 32 19 33 20 34 21 35 71 36 22 37
REMARK SMILES IDX 76 38 70 39 72 40 23 41 75 42 69 43 68 44 24 46 56 47 36 48
REMARK SMILES IDX 55 49 37 50 40 51 54 52 73 53 38 54 39 55 53 57 74 58 41 59
REMARK SMILES IDX 25 60 26 61 34 62 27 63 28 64 32 65 35 66 29 67 30 68 33 69
REMARK SMILES IDX 31 70 57 71 58 72 66 73 59 74 60 75 64 76 67 77 61 78 62 79
REMARK SMILES IDX 65 80 63 81 42 82 43 83 51 84 44 85 45 86 49 87 52 88 46 89
REMARK SMILES IDX 47 90 50 91 48 92
REMARK H PARENT 8 6 86 19 83 20 13 26 72 45 40 56
REMARK Flexibility Score: inf
ROOT
ATOM      1  C   UNL     1      -4.780   0.358  -1.542  1.00  0.00     0.023 C 
ENDROOT
BRANCH   1   2
ATOM      2  C   UNL     1      -5.038   0.154  -0.050  1.00  0.00     0.116 C 
BRANCH   2   3
ATOM      3  N   UNL     1      -5.340  -1.215   0.299  1.00  0.00    -0.355 N 
ATOM      4  C   UNL     1      -4.554  -2.156   0.896  1.00  0.00     0.239 C 
ATOM      5  O   UNL     1      -5.130  -3.134   1.381  1.00  0.00    -0.273 OA
ATOM      6  H   UNL     1      -6.250  -1.514   0.071  1.00  0.00     0.163 HD
BRANCH   4   7
ATOM      7  C   UNL     1      -3.034  -1.979   1.074  1.00  0.00     0.220 C 
BRANCH   7   8
ATOM      8  N   UNL     1      -2.317  -1.414  -0.073  1.00  0.00    -0.317 N 
BRANCH   8   9
ATOM      9  C   UNL     1      -1.774  -0.062   0.061  1.00  0.00     0.210 C 
BRANCH   9  10
ATOM     10  C   UNL     1      -0.254  -0.062   0.061  1.00  0.00    -0.085 C 
ATOM     11  C   UNL     1       1.050  -0.062   0.061  1.00  0.00     0.006 C 
ENDBRANCH   9  10
ENDBRANCH   8   9
BRANCH   8  12
ATOM     12  C   UNL     1      -2.039  -2.116  -1.242  1.00  0.00     0.273 C 
ATOM     13  O   UNL     1      -1.431  -1.620  -2.191  1.00  0.00    -0.267 OA
BRANCH  12  14
ATOM     14  C   UNL     1      -2.449  -3.540  -1.347  1.00  0.00     0.125 A 
ATOM     15  C   UNL     1      -3.679  -4.072  -1.417  1.00  0.00     0.119 A 
ATOM     16  N   UNL     1      -1.531  -4.552  -1.521  1.00  0.00    -0.302 N 
ATOM     17  N   UNL     1      -3.560  -5.430  -1.586  1.00  0.00    -0.312 N 
ATOM     18  C   UNL     1      -2.204  -5.768  -1.667  1.00  0.00     0.323 A 
ATOM     19  H   UNL     1      -0.553  -4.437  -1.538  1.00  0.00     0.172 HD
ATOM     20  H   UNL     1      -4.310  -6.065  -1.640  1.00  0.00     0.171 HD
ATOM     21  O   UNL     1      -1.724  -6.873  -1.840  1.00  0.00    -0.248 OA
ENDBRANCH  12  14
ENDBRANCH   8  12
ENDBRANCH   7   8
ENDBRANCH   4   7
ENDBRANCH   2   3
ENDBRANCH   1   2
BRANCH   1  22
ATOM     22  C   UNL     1      -6.011   0.224  -2.434  1.00  0.00     0.023 C 
BRANCH  22  23
ATOM     23  C   UNL     1      -7.197   1.083  -2.026  1.00  0.00     0.116 C 
BRANCH  23  24
ATOM     24  N   UNL     1      -6.884   2.502  -1.949  1.00  0.00    -0.352 N 
ATOM     25  C   UNL     1      -7.656   3.570  -2.341  1.00  0.00     0.251 C 
ATOM     26  H   UNL     1      -6.005   2.727  -1.567  1.00  0.00     0.163 HD
ATOM     27  O   UNL     1      -7.205   4.709  -2.315  1.00  0.00    -0.269 OA
BRANCH  25  28
ATOM     28  C   UNL     1      -9.025   3.321  -2.833  1.00  0.00     0.039 A 
ATOM     29  C   UNL     1      -9.427   3.902  -4.037  1.00  0.00     0.014 A 
ATOM     30  C   UNL     1      -9.886   2.470  -2.134  1.00  0.00     0.014 A 
ATOM     31  C   UNL     1     -10.669   3.571  -4.578  1.00  0.00     0.010 A 
ATOM     32  C   UNL     1     -11.082   2.073  -2.718  1.00  0.00     0.010 A 
ATOM     33  C   UNL     1     -11.488   2.621  -3.944  1.00  0.00    -0.014 A 
BRANCH  33  34
ATOM     34  C   UNL     1     -12.774   2.187  -4.544  1.00  0.00     0.031 A 
ATOM     35  C   UNL     1     -14.066   2.439  -3.819  1.00  0.00     0.074 A 
ATOM     36  C   UNL     1     -12.774   1.506  -5.705  1.00  0.00     0.049 A 
ATOM     37  N   UNL     1     -15.283   2.081  -4.142  1.00  0.00    -0.248 NA
ATOM     38  C   UNL     1     -13.973   3.165  -2.543  1.00  0.00     0.031 C 
ATOM     39  C   UNL     1     -11.583   1.161  -6.483  1.00  0.00     0.029 A 
ATOM     40  N   UNL     1     -13.810   0.974  -6.431  1.00  0.00    -0.354 N 
ATOM     41  C   UNL     1     -16.094   2.528  -3.108  1.00  0.00     0.074 A 
ATOM     42  C   UNL     1     -15.224   3.119  -2.114  1.00  0.00     0.031 C 
ATOM     43  C   UNL     1     -11.958   0.507  -7.593  1.00  0.00     0.029 A 
ATOM     44  C   UNL     1     -13.409   0.344  -7.583  1.00  0.00     0.049 A 
ATOM     45  H   UNL     1     -14.752   1.039  -6.153  1.00  0.00     0.167 HD
ATOM     46  C   UNL     1     -17.444   2.476  -3.008  1.00  0.00     0.037 A 
ATOM     47  C   UNL     1     -14.129  -0.299  -8.522  1.00  0.00     0.037 A 
ATOM     48  C   UNL     1     -18.304   1.892  -4.004  1.00  0.00     0.049 A 
ATOM     49  C   UNL     1     -15.624  -0.381  -8.370  1.00  0.00     0.074 A 
ATOM     50  C   UNL     1     -19.686   1.830  -4.023  1.00  0.00     0.029 A 
ATOM     51  N   UNL     1     -17.860   1.255  -5.155  1.00  0.00    -0.354 N 
ATOM     52  N   UNL     1     -16.390   0.106  -7.423  1.00  0.00    -0.248 NA
ATOM     53  C   UNL     1     -16.356  -1.100  -9.422  1.00  0.00     0.031 C 
ATOM     54  C   UNL     1     -20.075   1.100  -5.151  1.00  0.00     0.029 A 
ATOM     55  C   UNL     1     -18.940   0.768  -5.874  1.00  0.00     0.049 A 
ATOM     56  H   UNL     1     -16.916   1.162  -5.421  1.00  0.00     0.167 HD
ATOM     57  C   UNL     1     -17.692  -0.215  -7.781  1.00  0.00     0.074 A 
ATOM     58  C   UNL     1     -17.614  -0.931  -9.038  1.00  0.00     0.031 C 
ATOM     59  C   UNL     1     -18.849   0.061  -7.128  1.00  0.00     0.037 A 
BRANCH  46  60
ATOM     60  C   UNL     1     -18.066   3.059  -1.769  1.00  0.00     0.064 A 
ATOM     61  C   UNL     1     -18.011   4.435  -1.491  1.00  0.00     0.173 A 
ATOM     62  C   UNL     1     -18.726   2.234  -0.847  1.00  0.00     0.173 A 
ATOM     63  F   UNL     1     -17.383   5.270  -2.333  1.00  0.00    -0.203 F 
ATOM     64  C   UNL     1     -18.547   4.953  -0.315  1.00  0.00     0.198 A 
ATOM     65  C   UNL     1     -19.297   2.761   0.309  1.00  0.00     0.198 A 
ATOM     66  F   UNL     1     -18.817   0.913  -1.063  1.00  0.00    -0.203 F 
ATOM     67  F   UNL     1     -18.414   6.257  -0.037  1.00  0.00    -0.200 F 
ATOM     68  C   UNL     1     -19.194   4.117   0.582  1.00  0.00     0.200 A 
ATOM     69  F   UNL     1     -19.936   1.953   1.167  1.00  0.00    -0.200 F 
ATOM     70  F   UNL     1     -19.709   4.615   1.714  1.00  0.00    -0.200 F 
ENDBRANCH  46  60
BRANCH  47  71
ATOM     71  C   UNL     1     -13.447  -0.885  -9.705  1.00  0.00     0.064 A 
ATOM     72  C   UNL     1     -13.630  -0.336 -10.982  1.00  0.00     0.173 A 
ATOM     73  C   UNL     1     -12.594  -1.992  -9.588  1.00  0.00     0.173 A 
ATOM     74  F   UNL     1     -14.451   0.711 -11.149  1.00  0.00    -0.203 F 
ATOM     75  C   UNL     1     -12.998  -0.882 -12.098  1.00  0.00     0.198 A 
ATOM     76  C   UNL     1     -11.939  -2.518 -10.700  1.00  0.00     0.198 A 
ATOM     77  F   UNL     1     -12.380  -2.551  -8.387  1.00  0.00    -0.203 F 
ATOM     78  F   UNL     1     -13.224  -0.363 -13.313  1.00  0.00    -0.200 F 
ATOM     79  C   UNL     1     -12.148  -1.967 -11.955  1.00  0.00     0.200 A 
ATOM     80  F   UNL     1     -11.105  -3.556 -10.554  1.00  0.00    -0.200 F 
ATOM     81  F   UNL     1     -11.533  -2.486 -13.027  1.00  0.00    -0.200 F 
ENDBRANCH  47  71
BRANCH  59  82
ATOM     82  C   UNL     1     -20.132  -0.373  -7.780  1.00  0.00     0.064 A 
ATOM     83  C   UNL     1     -20.494  -1.724  -7.880  1.00  0.00     0.173 A 
ATOM     84  C   UNL     1     -21.033   0.585  -8.274  1.00  0.00     0.173 A 
ATOM     85  F   UNL     1     -19.663  -2.681  -7.437  1.00  0.00    -0.203 F 
ATOM     86  C   UNL     1     -21.696  -2.102  -8.473  1.00  0.00     0.198 A 
ATOM     87  C   UNL     1     -22.249   0.205  -8.833  1.00  0.00     0.198 A 
ATOM     88  F   UNL     1     -20.740   1.892  -8.197  1.00  0.00    -0.203 F 
ATOM     89  F   UNL     1     -21.997  -3.401  -8.605  1.00  0.00    -0.200 F 
ATOM     90  C   UNL     1     -22.576  -1.137  -8.941  1.00  0.00     0.200 A 
ATOM     91  F   UNL     1     -23.106   1.141  -9.267  1.00  0.00    -0.200 F 
ATOM     92  F   UNL     1     -23.738  -1.502  -9.501  1.00  0.00    -0.200 F 
ENDBRANCH  59  82
ENDBRANCH  33  34
ENDBRANCH  25  28
ENDBRANCH  23  24
ENDBRANCH  22  23
ENDBRANCH   1  22
TORSDOF 16
