REMARK SMILES CCC[C@H](C)NC(=O)C[NH+]1CC(n2cc(C(=O)NCCCCNC(=O)c3ccc(-c4c5nc(c(-c6c(F)c(F)c(F)c(F)c6F)c6ccc([nH]6)c(-c6c(F)c(F)c(F)c(F)c6F)c6nc(c(-c7c(F)c(F)c(F)c(F)c7F)c7ccc4[nH]7)C=C6)C=C5)cc3)nn2)C1
REMARK SMILES IDX 16 1 17 2 18 3 15 5 13 6 14 7 90 8 89 9 12 10 10 11 11 12
REMARK SMILES IDX 91 13 9 15 7 16 6 17 8 19 4 20 5 21 3 22 2 23 1 24 19 25
REMARK SMILES IDX 20 26 21 27 22 28 23 29 24 30 25 32 26 33 27 34 88 35 28 36
REMARK SMILES IDX 87 37 29 38 30 39 31 40 81 41 32 42 86 43 80 44 82 45 33 46
REMARK SMILES IDX 85 47 79 48 78 49 34 51 66 52 46 53 65 54 47 55 50 56 64 57
REMARK SMILES IDX 83 58 48 59 49 60 63 62 84 63 51 64 35 65 36 66 44 67 37 68
REMARK SMILES IDX 38 69 42 70 45 71 39 72 40 73 43 74 41 75 67 76 68 77 76 78
REMARK SMILES IDX 69 79 70 80 74 81 77 82 71 83 72 84 75 85 73 86 52 87 53 88
REMARK SMILES IDX 61 89 54 90 55 91 59 92 62 93 56 94 57 95 60 96 58 97
REMARK H PARENT 18 4 10 14 6 18 23 31 82 50 50 61
REMARK Flexibility Score: inf
ROOT
ATOM      1  C   UNL     1       1.321  -4.029   0.252  1.00  0.00     0.273 C 
ATOM      2  O   UNL     1       0.504  -4.362   1.111  1.00  0.00    -0.267 OA
ATOM      3  N   UNL     1       1.848  -5.036  -0.534  1.00  0.00    -0.351 N 
ATOM      4  H   UNL     1       1.623  -5.948  -0.240  1.00  0.00     0.163 HD
ENDROOT
BRANCH   1   5
ATOM      5  C   UNL     1       1.712  -2.636   0.049  1.00  0.00     0.170 A 
ATOM      6  N   UNL     1       2.650  -0.759  -0.529  1.00  0.00    -0.237 N 
ATOM      7  C   UNL     1       2.834  -2.108  -0.552  1.00  0.00     0.145 A 
ATOM      8  N   UNL     1       1.503  -0.443   0.090  1.00  0.00    -0.066 NA
ATOM      9  N   UNL     1       0.936  -1.579   0.484  1.00  0.00    -0.125 NA
BRANCH   6  10
ATOM     10  C   UNL     1       3.520   0.131  -1.235  1.00  0.00     0.218 C 
ATOM     11  N   UNL     1       3.264   1.869  -2.415  1.00  0.00    -0.323 N 
ATOM     12  C   UNL     1       3.336   1.624  -0.960  1.00  0.00     0.296 C 
ATOM     13  C   UNL     1       2.937   0.443  -2.632  1.00  0.00     0.296 C 
ATOM     14  H   UNL     1       4.047   2.338  -2.870  1.00  0.00     0.348 HD
BRANCH  11  15
ATOM     15  C   UNL     1       2.115   2.699  -2.839  1.00  0.00     0.363 C 
BRANCH  15  16
ATOM     16  C   UNL     1       1.930   3.962  -2.003  1.00  0.00     0.275 C 
ATOM     17  N   UNL     1       0.966   3.986  -1.027  1.00  0.00    -0.349 N 
ATOM     18  H   UNL     1       0.832   4.863  -0.602  1.00  0.00     0.163 HD
ATOM     19  O   UNL     1       2.603   4.977  -2.188  1.00  0.00    -0.268 OA
BRANCH  17  20
ATOM     20  C   UNL     1       0.106   2.918  -0.517  1.00  0.00     0.079 C 
ATOM     21  C   UNL     1       0.303   2.800   0.999  1.00  0.00     0.031 C 
BRANCH  20  22
ATOM     22  C   UNL     1      -1.390   3.066  -0.862  1.00  0.00     0.024 C 
BRANCH  22  23
ATOM     23  C   UNL     1      -1.879   4.440  -1.318  1.00  0.00    -0.001 C 
ATOM     24  C   UNL     1      -1.601   4.710  -2.790  1.00  0.00     0.004 C 
ENDBRANCH  22  23
ENDBRANCH  20  22
ENDBRANCH  17  20
ENDBRANCH  15  16
ENDBRANCH  11  15
ENDBRANCH   6  10
ENDBRANCH   1   5
BRANCH   3  25
ATOM     25  C   UNL     1       2.679  -4.966  -1.721  1.00  0.00     0.116 C 
BRANCH  25  26
ATOM     26  C   UNL     1       4.176  -5.071  -1.403  1.00  0.00     0.023 C 
BRANCH  26  27
ATOM     27  C   UNL     1       4.729  -6.489  -1.226  1.00  0.00     0.023 C 
BRANCH  27  28
ATOM     28  C   UNL     1       4.707  -7.349  -2.482  1.00  0.00     0.116 C 
BRANCH  28  29
ATOM     29  N   UNL     1       5.505  -6.805  -3.587  1.00  0.00    -0.352 N 
ATOM     30  C   UNL     1       5.499  -7.212  -4.918  1.00  0.00     0.251 C 
ATOM     31  H   UNL     1       6.116  -6.067  -3.361  1.00  0.00     0.163 HD
ATOM     32  O   UNL     1       6.430  -6.996  -5.667  1.00  0.00    -0.269 OA
BRANCH  30  33
ATOM     33  C   UNL     1       4.280  -7.879  -5.404  1.00  0.00     0.039 A 
ATOM     34  C   UNL     1       4.293  -9.052  -6.164  1.00  0.00     0.014 A 
ATOM     35  C   UNL     1       3.091  -7.319  -4.960  1.00  0.00     0.014 A 
ATOM     36  C   UNL     1       3.078  -9.691  -6.409  1.00  0.00     0.010 A 
ATOM     37  C   UNL     1       1.965  -8.081  -4.972  1.00  0.00     0.010 A 
ATOM     38  C   UNL     1       1.918  -9.196  -5.795  1.00  0.00    -0.014 A 
BRANCH  38  39
ATOM     39  C   UNL     1       0.617  -9.836  -5.920  1.00  0.00     0.031 A 
ATOM     40  C   UNL     1       0.583 -11.252  -5.473  1.00  0.00     0.074 A 
ATOM     41  C   UNL     1      -0.496  -9.105  -6.166  1.00  0.00     0.049 A 
ATOM     42  N   UNL     1       0.397 -12.307  -6.194  1.00  0.00    -0.248 NA
ATOM     43  C   UNL     1       0.944 -11.549  -4.075  1.00  0.00     0.031 C 
ATOM     44  C   UNL     1      -0.622  -7.640  -6.287  1.00  0.00     0.029 A 
ATOM     45  N   UNL     1      -1.790  -9.510  -6.256  1.00  0.00    -0.354 N 
ATOM     46  C   UNL     1       0.398 -13.382  -5.308  1.00  0.00     0.074 A 
ATOM     47  C   UNL     1       0.932 -12.884  -4.070  1.00  0.00     0.031 C 
ATOM     48  C   UNL     1      -1.918  -7.276  -6.188  1.00  0.00     0.029 A 
ATOM     49  C   UNL     1      -2.723  -8.478  -6.208  1.00  0.00     0.049 A 
ATOM     50  H   UNL     1      -2.047 -10.456  -6.347  1.00  0.00     0.167 HD
ATOM     51  C   UNL     1      -0.311 -14.511  -5.589  1.00  0.00     0.037 A 
ATOM     52  C   UNL     1      -4.070  -8.611  -6.187  1.00  0.00     0.037 A 
ATOM     53  C   UNL     1      -0.697 -14.530  -6.979  1.00  0.00     0.049 A 
ATOM     54  C   UNL     1      -4.365  -9.964  -6.710  1.00  0.00     0.074 A 
ATOM     55  C   UNL     1      -0.049 -14.642  -8.190  1.00  0.00     0.029 A 
ATOM     56  N   UNL     1      -1.932 -13.997  -7.242  1.00  0.00    -0.354 N 
ATOM     57  N   UNL     1      -4.100 -10.342  -7.931  1.00  0.00    -0.248 NA
ATOM     58  C   UNL     1      -4.561 -11.039  -5.752  1.00  0.00     0.031 C 
ATOM     59  C   UNL     1      -0.793 -13.823  -9.095  1.00  0.00     0.029 A 
ATOM     60  C   UNL     1      -1.898 -13.301  -8.418  1.00  0.00     0.049 A 
ATOM     61  H   UNL     1      -2.726 -14.100  -6.668  1.00  0.00     0.167 HD
ATOM     62  C   UNL     1      -3.685 -11.659  -7.812  1.00  0.00     0.074 A 
ATOM     63  C   UNL     1      -4.122 -12.069  -6.480  1.00  0.00     0.031 C 
ATOM     64  C   UNL     1      -2.775 -12.180  -8.688  1.00  0.00     0.037 A 
BRANCH  51  65
ATOM     65  C   UNL     1      -1.067 -15.334  -4.561  1.00  0.00     0.064 A 
ATOM     66  C   UNL     1      -1.710 -16.519  -4.979  1.00  0.00     0.173 A 
ATOM     67  C   UNL     1      -1.457 -14.854  -3.292  1.00  0.00     0.173 A 
ATOM     68  F   UNL     1      -1.436 -17.059  -6.176  1.00  0.00    -0.203 F 
ATOM     69  C   UNL     1      -2.720 -17.123  -4.222  1.00  0.00     0.198 A 
ATOM     70  C   UNL     1      -2.428 -15.489  -2.517  1.00  0.00     0.198 A 
ATOM     71  F   UNL     1      -1.011 -13.696  -2.794  1.00  0.00    -0.203 F 
ATOM     72  F   UNL     1      -3.390 -18.171  -4.720  1.00  0.00    -0.200 F 
ATOM     73  C   UNL     1      -3.083 -16.602  -2.994  1.00  0.00     0.200 A 
ATOM     74  F   UNL     1      -2.782 -14.953  -1.339  1.00  0.00    -0.200 F 
ATOM     75  F   UNL     1      -4.093 -17.138  -2.296  1.00  0.00    -0.200 F 
ENDBRANCH  51  65
BRANCH  52  76
ATOM     76  C   UNL     1      -5.049  -7.824  -5.399  1.00  0.00     0.064 A 
ATOM     77  C   UNL     1      -6.417  -7.837  -5.715  1.00  0.00     0.173 A 
ATOM     78  C   UNL     1      -4.700  -7.290  -4.143  1.00  0.00     0.173 A 
ATOM     79  F   UNL     1      -6.833  -8.373  -6.872  1.00  0.00    -0.203 F 
ATOM     80  C   UNL     1      -7.382  -7.370  -4.815  1.00  0.00     0.198 A 
ATOM     81  C   UNL     1      -5.664  -6.826  -3.245  1.00  0.00     0.198 A 
ATOM     82  F   UNL     1      -3.426  -7.305  -3.723  1.00  0.00    -0.203 F 
ATOM     83  F   UNL     1      -8.683  -7.457  -5.125  1.00  0.00    -0.200 F 
ATOM     84  C   UNL     1      -7.005  -6.878  -3.576  1.00  0.00     0.200 A 
ATOM     85  F   UNL     1      -5.289  -6.393  -2.033  1.00  0.00    -0.200 F 
ATOM     86  F   UNL     1      -7.933  -6.495  -2.687  1.00  0.00    -0.200 F 
ENDBRANCH  52  76
BRANCH  64  87
ATOM     87  C   UNL     1      -2.538 -11.426  -9.970  1.00  0.00     0.064 A 
ATOM     88  C   UNL     1      -1.924 -10.165 -10.057  1.00  0.00     0.173 A 
ATOM     89  C   UNL     1      -2.842 -12.075 -11.173  1.00  0.00     0.173 A 
ATOM     90  F   UNL     1      -1.527  -9.513  -8.960  1.00  0.00    -0.203 F 
ATOM     91  C   UNL     1      -1.659  -9.571 -11.292  1.00  0.00     0.198 A 
ATOM     92  C   UNL     1      -2.546 -11.498 -12.404  1.00  0.00     0.198 A 
ATOM     93  F   UNL     1      -3.387 -13.302 -11.153  1.00  0.00    -0.203 F 
ATOM     94  F   UNL     1      -1.079  -8.363 -11.348  1.00  0.00    -0.200 F 
ATOM     95  C   UNL     1      -1.962 -10.243 -12.464  1.00  0.00     0.200 A 
ATOM     96  F   UNL     1      -2.801 -12.172 -13.533  1.00  0.00    -0.200 F 
ATOM     97  F   UNL     1      -1.671  -9.693 -13.652  1.00  0.00    -0.200 F 
ENDBRANCH  64  87
ENDBRANCH  38  39
ENDBRANCH  30  33
ENDBRANCH  28  29
ENDBRANCH  27  28
ENDBRANCH  26  27
ENDBRANCH  25  26
ENDBRANCH   3  25
TORSDOF 17
