REMARK SMILES O=C(NCCCCNC(=O)c1ccccc1C(=O)c1cccc(S(=O)(=O)N2CCOCC2)c1)c1ccc(-c2c3nc(c(-c4c(F)c(F)c(F)c(F)c4F)c4ccc([nH]4)c(-c4c(F)c(F)c(F)c(F)c4F)c4nc(c(-c5c(F)c(F)c(F)c(F)c5F)c5ccc2[nH]5)C=C4)C=C3)cc1
REMARK SMILES IDX 6 1 5 2 4 3 3 4 1 5 2 6 34 8 35 9 96 10 36 11 95 12 37 13
REMARK SMILES IDX 38 14 39 15 89 16 40 17 94 18 88 19 90 20 41 21 93 22 87 23
REMARK SMILES IDX 86 24 42 26 74 27 54 28 73 29 55 30 58 31 72 32 91 33 56 34
REMARK SMILES IDX 57 35 71 37 92 38 59 39 43 40 44 41 52 42 45 43 46 44 50 45
REMARK SMILES IDX 53 46 47 47 48 48 51 49 49 50 75 51 76 52 84 53 77 54 78 55
REMARK SMILES IDX 82 56 85 57 79 58 80 59 83 60 81 61 60 62 61 63 69 64 62 65
REMARK SMILES IDX 63 66 67 67 70 68 64 69 65 70 68 71 66 72 7 73 8 74 9 75
REMARK SMILES IDX 10 77 11 78 12 79 16 80 13 81 15 82 14 83 17 84 18 85 19 86
REMARK SMILES IDX 20 87 33 88 21 89 23 90 22 91 24 92 25 93 26 94 27 95 28 96
REMARK SMILES IDX 32 97 29 98 31 99 30 100
REMARK H PARENT 3 7 90 25 58 36 8 76
REMARK Flexibility Score: inf
ROOT
ATOM      1  C   UNL     1       3.977  -2.892   2.903  1.00  0.00     0.023 C 
ENDROOT
BRANCH   1   2
ATOM      2  C   UNL     1       4.484  -1.477   2.608  1.00  0.00     0.023 C 
BRANCH   2   3
ATOM      3  C   UNL     1       4.261  -0.974   1.189  1.00  0.00     0.116 C 
BRANCH   3   4
ATOM      4  N   UNL     1       2.858  -0.878   0.821  1.00  0.00    -0.352 N 
ATOM      5  O   UNL     1       0.960   0.145   0.142  1.00  0.00    -0.269 OA
ATOM      6  C   UNL     1       2.171   0.203   0.324  1.00  0.00     0.251 C 
ATOM      7  H   UNL     1       2.329  -1.700   0.945  1.00  0.00     0.163 HD
BRANCH   6   8
ATOM      8  C   UNL     1       2.900   1.455   0.041  1.00  0.00     0.039 A 
ATOM      9  C   UNL     1       4.036   1.447  -0.769  1.00  0.00     0.014 A 
ATOM     10  C   UNL     1       2.454   2.645   0.619  1.00  0.00     0.014 A 
ATOM     11  C   UNL     1       4.803   2.599  -0.899  1.00  0.00     0.010 A 
ATOM     12  C   UNL     1       3.186   3.819   0.428  1.00  0.00     0.010 A 
ATOM     13  C   UNL     1       4.383   3.800  -0.307  1.00  0.00    -0.014 A 
BRANCH  13  14
ATOM     14  C   UNL     1       5.183   5.037  -0.492  1.00  0.00     0.031 A 
ATOM     15  C   UNL     1       5.834   5.718   0.679  1.00  0.00     0.074 A 
ATOM     16  C   UNL     1       5.318   5.548  -1.731  1.00  0.00     0.049 A 
ATOM     17  N   UNL     1       6.517   6.835   0.712  1.00  0.00    -0.248 NA
ATOM     18  C   UNL     1       5.693   5.064   1.989  1.00  0.00     0.031 C 
ATOM     19  C   UNL     1       4.736   4.974  -2.946  1.00  0.00     0.029 A 
ATOM     20  N   UNL     1       5.983   6.662  -2.175  1.00  0.00    -0.354 N 
ATOM     21  C   UNL     1       6.869   7.029   2.042  1.00  0.00     0.074 A 
ATOM     22  C   UNL     1       6.299   5.929   2.791  1.00  0.00     0.031 C 
ATOM     23  C   UNL     1       5.090   5.724  -3.999  1.00  0.00     0.029 A 
ATOM     24  C   UNL     1       5.864   6.867  -3.528  1.00  0.00     0.049 A 
ATOM     25  H   UNL     1       6.497   7.257  -1.582  1.00  0.00     0.167 HD
ATOM     26  C   UNL     1       7.606   8.029   2.582  1.00  0.00     0.037 A 
ATOM     27  C   UNL     1       6.300   7.879  -4.300  1.00  0.00     0.037 A 
ATOM     28  C   UNL     1       8.177   9.116   1.826  1.00  0.00     0.049 A 
ATOM     29  C   UNL     1       7.070   9.002  -3.664  1.00  0.00     0.074 A 
ATOM     30  C   UNL     1       8.967  10.160   2.276  1.00  0.00     0.029 A 
ATOM     31  N   UNL     1       8.013   9.303   0.460  1.00  0.00    -0.354 N 
ATOM     32  N   UNL     1       7.421   9.160  -2.412  1.00  0.00    -0.248 NA
ATOM     33  C   UNL     1       7.502  10.090  -4.551  1.00  0.00     0.031 C 
ATOM     34  C   UNL     1       9.228  11.011   1.197  1.00  0.00     0.029 A 
ATOM     35  C   UNL     1       8.661  10.462   0.059  1.00  0.00     0.049 A 
ATOM     36  H   UNL     1       7.511   8.701  -0.136  1.00  0.00     0.167 HD
ATOM     37  C   UNL     1       8.138  10.348  -2.364  1.00  0.00     0.074 A 
ATOM     38  C   UNL     1       8.186  10.860  -3.717  1.00  0.00     0.031 C 
ATOM     39  C   UNL     1       8.704  10.959  -1.294  1.00  0.00     0.037 A 
BRANCH  26  40
ATOM     40  C   UNL     1       7.820   8.016   4.071  1.00  0.00     0.064 A 
ATOM     41  C   UNL     1       8.632   7.057   4.695  1.00  0.00     0.173 A 
ATOM     42  C   UNL     1       7.242   9.008   4.879  1.00  0.00     0.173 A 
ATOM     43  F   UNL     1       9.202   6.081   3.973  1.00  0.00    -0.203 F 
ATOM     44  C   UNL     1       8.832   7.074   6.074  1.00  0.00     0.198 A 
ATOM     45  C   UNL     1       7.472   9.042   6.252  1.00  0.00     0.198 A 
ATOM     46  F   UNL     1       6.464   9.956   4.335  1.00  0.00    -0.203 F 
ATOM     47  F   UNL     1       9.571   6.118   6.654  1.00  0.00    -0.200 F 
ATOM     48  C   UNL     1       8.259   8.071   6.850  1.00  0.00     0.200 A 
ATOM     49  F   UNL     1       6.930  10.016   6.997  1.00  0.00    -0.200 F 
ATOM     50  F   UNL     1       8.461   8.091   8.175  1.00  0.00    -0.200 F 
ENDBRANCH  26  40
BRANCH  27  51
ATOM     51  C   UNL     1       6.003   7.878  -5.756  1.00  0.00     0.064 A 
ATOM     52  C   UNL     1       7.028   7.736  -6.701  1.00  0.00     0.173 A 
ATOM     53  C   UNL     1       4.691   8.018  -6.232  1.00  0.00     0.173 A 
ATOM     54  F   UNL     1       8.301   7.619  -6.296  1.00  0.00    -0.203 F 
ATOM     55  C   UNL     1       6.754   7.755  -8.067  1.00  0.00     0.198 A 
ATOM     56  C   UNL     1       4.414   8.001  -7.597  1.00  0.00     0.198 A 
ATOM     57  F   UNL     1       3.673   8.152  -5.369  1.00  0.00    -0.203 F 
ATOM     58  F   UNL     1       7.757   7.668  -8.950  1.00  0.00    -0.200 F 
ATOM     59  C   UNL     1       5.447   7.880  -8.514  1.00  0.00     0.200 A 
ATOM     60  F   UNL     1       3.147   8.104  -8.022  1.00  0.00    -0.200 F 
ATOM     61  F   UNL     1       5.183   7.891  -9.827  1.00  0.00    -0.200 F 
ENDBRANCH  27  51
BRANCH  39  62
ATOM     62  C   UNL     1       9.462  12.230  -1.552  1.00  0.00     0.064 A 
ATOM     63  C   UNL     1       8.811  13.421  -1.908  1.00  0.00     0.173 A 
ATOM     64  C   UNL     1      10.858  12.263  -1.412  1.00  0.00     0.173 A 
ATOM     65  F   UNL     1       7.480  13.440  -2.072  1.00  0.00    -0.203 F 
ATOM     66  C   UNL     1       9.533  14.588  -2.145  1.00  0.00     0.198 A 
ATOM     67  C   UNL     1      11.573  13.440  -1.615  1.00  0.00     0.198 A 
ATOM     68  F   UNL     1      11.530  11.154  -1.067  1.00  0.00    -0.203 F 
ATOM     69  F   UNL     1       8.896  15.699  -2.540  1.00  0.00    -0.200 F 
ATOM     70  C   UNL     1      10.911  14.599  -1.990  1.00  0.00     0.200 A 
ATOM     71  F   UNL     1      12.903  13.452  -1.448  1.00  0.00    -0.200 F 
ATOM     72  F   UNL     1      11.603  15.725  -2.211  1.00  0.00    -0.200 F 
ENDBRANCH  39  62
ENDBRANCH  13  14
ENDBRANCH   6   8
ENDBRANCH   3   4
ENDBRANCH   2   3
ENDBRANCH   1   2
BRANCH   1  73
ATOM     73  C   UNL     1       4.363  -3.964   1.886  1.00  0.00     0.116 C 
BRANCH  73  74
ATOM     74  N   UNL     1       5.793  -4.000   1.665  1.00  0.00    -0.352 N 
ATOM     75  C   UNL     1       6.600  -5.071   1.429  1.00  0.00     0.252 C 
ATOM     76  H   UNL     1       6.247  -3.127   1.688  1.00  0.00     0.163 HD
ATOM     77  O   UNL     1       7.817  -4.936   1.499  1.00  0.00    -0.269 OA
BRANCH  75  78
ATOM     78  C   UNL     1       6.048  -6.400   1.135  1.00  0.00     0.050 A 
ATOM     79  C   UNL     1       6.464  -7.414   2.022  1.00  0.00     0.014 A 
ATOM     80  C   UNL     1       5.228  -6.711   0.040  1.00  0.00     0.035 A 
ATOM     81  C   UNL     1       6.019  -8.724   1.865  1.00  0.00     0.001 A 
ATOM     82  C   UNL     1       4.771  -8.038  -0.085  1.00  0.00     0.013 A 
ATOM     83  C   UNL     1       5.160  -9.033   0.819  1.00  0.00     0.001 A 
BRANCH  80  84
ATOM     84  C   UNL     1       4.723  -5.760  -0.992  1.00  0.00     0.193 C 
ATOM     85  O   UNL     1       3.590  -5.947  -1.437  1.00  0.00    -0.289 OA
BRANCH  84  86
ATOM     86  C   UNL     1       5.465  -4.582  -1.505  1.00  0.00     0.024 A 
ATOM     87  C   UNL     1       4.729  -3.417  -1.757  1.00  0.00     0.012 A 
ATOM     88  C   UNL     1       6.835  -4.596  -1.767  1.00  0.00     0.034 A 
ATOM     89  C   UNL     1       5.371  -2.248  -2.160  1.00  0.00     0.002 A 
ATOM     90  C   UNL     1       7.485  -3.413  -2.129  1.00  0.00     0.083 A 
ATOM     91  C   UNL     1       6.754  -2.231  -2.305  1.00  0.00     0.022 A 
BRANCH  90  92
ATOM     92  S   UNL     1       9.249  -3.304  -2.370  1.00  0.00     0.243 S 
ATOM     93  O   UNL     1       9.434  -3.111  -3.794  1.00  0.00    -0.207 OA
ATOM     94  O   UNL     1       9.715  -2.330  -1.408  1.00  0.00    -0.207 OA
BRANCH  92  95
ATOM     95  N   UNL     1       9.874  -4.788  -1.953  1.00  0.00    -0.193 NA
ATOM     96  C   UNL     1      10.307  -5.782  -2.947  1.00  0.00     0.131 C 
ATOM     97  C   UNL     1      10.098  -5.198  -0.554  1.00  0.00     0.131 C 
ATOM     98  C   UNL     1       9.638  -7.123  -2.637  1.00  0.00     0.177 C 
ATOM     99  C   UNL     1       9.499  -6.596  -0.322  1.00  0.00     0.177 C 
ATOM    100  O   UNL     1       9.938  -7.554  -1.300  1.00  0.00    -0.379 OA
ENDBRANCH  92  95
ENDBRANCH  90  92
ENDBRANCH  84  86
ENDBRANCH  80  84
ENDBRANCH  75  78
ENDBRANCH  73  74
ENDBRANCH   1  73
TORSDOF 15
