REMARK SMILES COc1ccc(N2CCN(c3ccc(NS(=O)(=O)c4cccs4)cc3C(=O)NCCCCNC(=O)c3ccc(-c4c5nc(c(-c6c(F)c(F)c(F)c(F)c6F)c6ccc([nH]6)c(-c6c(F)c(F)c(F)c(F)c6F)c6nc(c(-c7c(F)c(F)c(F)c(F)c7F)c7ccc4[nH]7)C=C6)C=C5)cc3)CC2)cc1
REMARK SMILES IDX 30 1 29 2 28 3 26 4 27 5 25 7 11 8 12 9 13 10 24 11 14 12
REMARK SMILES IDX 10 13 7 14 8 15 100 16 9 17 99 18 6 19 3 20 4 21 102 22 5 23
REMARK SMILES IDX 101 24 2 25 1 26 15 27 16 29 17 30 18 31 19 32 20 33 23 34
REMARK SMILES IDX 21 35 22 36 31 37 32 38 33 39 34 40 35 42 36 43 37 44 98 45
REMARK SMILES IDX 38 46 97 47 39 48 40 49 41 50 91 51 42 52 96 53 90 54 92 55
REMARK SMILES IDX 43 56 95 57 89 58 88 59 44 61 76 62 56 63 75 64 57 65 60 66
REMARK SMILES IDX 74 67 93 68 58 69 59 70 73 72 94 73 61 74 45 75 46 76 54 77
REMARK SMILES IDX 47 78 48 79 52 80 55 81 49 82 50 83 53 84 51 85 77 86 78 87
REMARK SMILES IDX 86 88 79 89 80 90 84 91 87 92 81 93 82 94 85 95 83 96 62 97
REMARK SMILES IDX 63 98 71 99 64 100 65 101 69 102 72 103 66 104 67 105 70 106
REMARK SMILES IDX 68 107
REMARK H PARENT 28 6 15 28 33 41 92 60 60 71
REMARK Flexibility Score: inf
ROOT
ATOM      1  C   UNL     1       2.593   6.592   4.178  1.00  0.00     0.023 C 
ENDROOT
BRANCH   1   2
ATOM      2  C   UNL     1       3.955   7.147   4.606  1.00  0.00     0.116 C 
BRANCH   2   3
ATOM      3  N   UNL     1       3.737   8.207   5.573  1.00  0.00    -0.352 N 
ATOM      4  C   UNL     1       3.511   8.242   6.924  1.00  0.00     0.253 C 
ATOM      5  O   UNL     1       2.879   9.235   7.309  1.00  0.00    -0.269 OA
ATOM      6  H   UNL     1       3.754   9.104   5.167  1.00  0.00     0.163 HD
BRANCH   4   7
ATOM      7  C   UNL     1       4.104   7.343   7.968  1.00  0.00     0.065 A 
ATOM      8  C   UNL     1       4.361   5.959   7.943  1.00  0.00     0.050 A 
ATOM      9  C   UNL     1       5.110   5.417   9.012  1.00  0.00     0.029 A 
ATOM     10  C   UNL     1       5.421   6.150  10.157  1.00  0.00     0.029 A 
ATOM     11  C   UNL     1       4.362   8.039   9.181  1.00  0.00     0.042 A 
ATOM     12  C   UNL     1       4.938   7.436  10.299  1.00  0.00     0.050 A 
BRANCH   8  13
ATOM     13  N   UNL     1       3.746   5.058   7.062  1.00  0.00    -0.367 N 
ATOM     14  N   UNL     1       2.413   3.005   5.535  1.00  0.00    -0.368 N 
ATOM     15  C   UNL     1       1.629   3.863   6.456  1.00  0.00     0.138 C 
ATOM     16  C   UNL     1       3.857   3.317   5.334  1.00  0.00     0.138 C 
ATOM     17  C   UNL     1       2.454   4.530   7.576  1.00  0.00     0.138 C 
ATOM     18  C   UNL     1       4.564   3.947   6.536  1.00  0.00     0.138 C 
BRANCH  14  19
ATOM     19  C   UNL     1       1.752   2.432   4.437  1.00  0.00     0.037 A 
ATOM     20  C   UNL     1       0.589   1.364   2.053  1.00  0.00     0.119 A 
ATOM     21  C   UNL     1       0.036   2.474   2.683  1.00  0.00     0.048 A 
ATOM     22  C   UNL     1       1.703   0.764   2.628  1.00  0.00     0.048 A 
ATOM     23  C   UNL     1       0.597   2.988   3.862  1.00  0.00     0.030 A 
ATOM     24  C   UNL     1       2.270   1.294   3.801  1.00  0.00     0.030 A 
BRANCH  20  25
ATOM     25  O   UNL     1      -0.023   0.993   0.889  1.00  0.00    -0.497 OA
ATOM     26  C   UNL     1       0.403  -0.229   0.298  1.00  0.00     0.278 C 
ENDBRANCH  20  25
ENDBRANCH  14  19
ENDBRANCH   8  13
BRANCH  12  27
ATOM     27  N   UNL     1       4.688   8.062  11.560  1.00  0.00    -0.279 N 
ATOM     28  H   UNL     1       4.054   8.815  11.572  1.00  0.00     0.180 HD
BRANCH  27  29
ATOM     29  S   UNL     1       5.384   7.622  13.018  1.00  0.00     0.271 S 
ATOM     30  O   UNL     1       6.816   7.787  12.888  1.00  0.00    -0.200 OA
ATOM     31  O   UNL     1       4.647   8.306  14.059  1.00  0.00    -0.200 OA
BRANCH  29  32
ATOM     32  C   UNL     1       5.172   5.888  13.361  1.00  0.00     0.140 A 
ATOM     33  C   UNL     1       6.060   4.952  13.860  1.00  0.00     0.034 A 
ATOM     34  S   UNL     1       3.665   5.173  12.973  1.00  0.00    -0.131 S 
ATOM     35  C   UNL     1       5.560   3.623  13.758  1.00  0.00     0.013 A 
ATOM     36  C   UNL     1       4.282   3.596  13.243  1.00  0.00     0.066 A 
ENDBRANCH  29  32
ENDBRANCH  27  29
ENDBRANCH  12  27
ENDBRANCH   4   7
ENDBRANCH   2   3
ENDBRANCH   1   2
BRANCH   1  37
ATOM     37  C   UNL     1       2.315   6.362   2.694  1.00  0.00     0.023 C 
BRANCH  37  38
ATOM     38  C   UNL     1       3.360   5.657   1.845  1.00  0.00     0.116 C 
BRANCH  38  39
ATOM     39  N   UNL     1       3.565   4.250   2.141  1.00  0.00    -0.352 N 
ATOM     40  C   UNL     1       4.146   3.278   1.360  1.00  0.00     0.251 C 
ATOM     41  H   UNL     1       3.244   3.951   3.022  1.00  0.00     0.163 HD
ATOM     42  O   UNL     1       4.554   2.214   1.806  1.00  0.00    -0.269 OA
BRANCH  40  43
ATOM     43  C   UNL     1       4.044   3.482  -0.087  1.00  0.00     0.039 A 
ATOM     44  C   UNL     1       3.060   2.731  -0.742  1.00  0.00     0.014 A 
ATOM     45  C   UNL     1       4.648   4.585  -0.680  1.00  0.00     0.014 A 
ATOM     46  C   UNL     1       2.582   3.158  -1.971  1.00  0.00     0.010 A 
ATOM     47  C   UNL     1       4.115   5.052  -1.869  1.00  0.00     0.010 A 
ATOM     48  C   UNL     1       3.065   4.357  -2.503  1.00  0.00    -0.014 A 
BRANCH  48  49
ATOM     49  C   UNL     1       2.535   4.914  -3.762  1.00  0.00     0.031 A 
ATOM     50  C   UNL     1       3.476   5.006  -4.918  1.00  0.00     0.074 A 
ATOM     51  C   UNL     1       1.296   5.436  -3.809  1.00  0.00     0.049 A 
ATOM     52  N   UNL     1       3.381   5.710  -6.011  1.00  0.00    -0.248 NA
ATOM     53  C   UNL     1       4.727   4.239  -4.791  1.00  0.00     0.031 C 
ATOM     54  C   UNL     1       0.306   5.386  -2.730  1.00  0.00     0.029 A 
ATOM     55  N   UNL     1       0.670   6.146  -4.801  1.00  0.00    -0.354 N 
ATOM     56  C   UNL     1       4.580   5.509  -6.678  1.00  0.00     0.074 A 
ATOM     57  C   UNL     1       5.401   4.654  -5.850  1.00  0.00     0.031 C 
ATOM     58  C   UNL     1      -0.800   6.043  -3.118  1.00  0.00     0.029 A 
ATOM     59  C   UNL     1      -0.574   6.609  -4.444  1.00  0.00     0.049 A 
ATOM     60  H   UNL     1       1.073   6.309  -5.684  1.00  0.00     0.167 HD
ATOM     61  C   UNL     1       4.950   5.994  -7.884  1.00  0.00     0.037 A 
ATOM     62  C   UNL     1      -1.410   7.430  -5.108  1.00  0.00     0.037 A 
ATOM     63  C   UNL     1       4.094   6.811  -8.698  1.00  0.00     0.049 A 
ATOM     64  C   UNL     1      -0.968   7.970  -6.444  1.00  0.00     0.074 A 
ATOM     65  C   UNL     1       4.330   7.319  -9.960  1.00  0.00     0.029 A 
ATOM     66  N   UNL     1       2.825   7.231  -8.321  1.00  0.00    -0.354 N 
ATOM     67  N   UNL     1       0.157   7.763  -7.089  1.00  0.00    -0.248 NA
ATOM     68  C   UNL     1      -1.900   8.868  -7.138  1.00  0.00     0.031 C 
ATOM     69  C   UNL     1       3.217   8.079 -10.333  1.00  0.00     0.029 A 
ATOM     70  C   UNL     1       2.271   8.010  -9.320  1.00  0.00     0.049 A 
ATOM     71  H   UNL     1       2.385   7.008  -7.469  1.00  0.00     0.167 HD
ATOM     72  C   UNL     1       0.061   8.486  -8.270  1.00  0.00     0.074 A 
ATOM     73  C   UNL     1      -1.240   9.125  -8.260  1.00  0.00     0.031 C 
ATOM     74  C   UNL     1       0.965   8.618  -9.272  1.00  0.00     0.037 A 
BRANCH  61  75
ATOM     75  C   UNL     1       6.329   5.660  -8.365  1.00  0.00     0.064 A 
ATOM     76  C   UNL     1       6.690   4.352  -8.722  1.00  0.00     0.173 A 
ATOM     77  C   UNL     1       7.310   6.659  -8.454  1.00  0.00     0.173 A 
ATOM     78  F   UNL     1       5.796   3.356  -8.630  1.00  0.00    -0.203 F 
ATOM     79  C   UNL     1       7.991   4.050  -9.115  1.00  0.00     0.198 A 
ATOM     80  C   UNL     1       8.601   6.359  -8.880  1.00  0.00     0.198 A 
ATOM     81  F   UNL     1       7.019   7.925  -8.119  1.00  0.00    -0.203 F 
ATOM     82  F   UNL     1       8.329   2.781  -9.386  1.00  0.00    -0.200 F 
ATOM     83  C   UNL     1       8.943   5.054  -9.200  1.00  0.00     0.200 A 
ATOM     84  F   UNL     1       9.519   7.332  -8.968  1.00  0.00    -0.200 F 
ATOM     85  F   UNL     1      10.195   4.761  -9.578  1.00  0.00    -0.200 F 
ENDBRANCH  61  75
BRANCH  62  86
ATOM     86  C   UNL     1      -2.728   7.798  -4.526  1.00  0.00     0.064 A 
ATOM     87  C   UNL     1      -3.921   7.345  -5.107  1.00  0.00     0.173 A 
ATOM     88  C   UNL     1      -2.830   8.612  -3.387  1.00  0.00     0.173 A 
ATOM     89  F   UNL     1      -3.878   6.583  -6.210  1.00  0.00    -0.203 F 
ATOM     90  C   UNL     1      -5.162   7.704  -4.585  1.00  0.00     0.198 A 
ATOM     91  C   UNL     1      -4.072   8.949  -2.849  1.00  0.00     0.198 A 
ATOM     92  F   UNL     1      -1.722   9.075  -2.789  1.00  0.00    -0.203 F 
ATOM     93  F   UNL     1      -6.285   7.292  -5.189  1.00  0.00    -0.200 F 
ATOM     94  C   UNL     1      -5.237   8.501  -3.453  1.00  0.00     0.200 A 
ATOM     95  F   UNL     1      -4.140   9.710  -1.748  1.00  0.00    -0.200 F 
ATOM     96  F   UNL     1      -6.431   8.844  -2.950  1.00  0.00    -0.200 F 
ENDBRANCH  62  86
BRANCH  74  97
ATOM     97  C   UNL     1       0.568   9.463 -10.444  1.00  0.00     0.064 A 
ATOM     98  C   UNL     1       0.542  10.861 -10.360  1.00  0.00     0.173 A 
ATOM     99  C   UNL     1       0.289   8.867 -11.683  1.00  0.00     0.173 A 
ATOM    100  F   UNL     1       0.787  11.472  -9.191  1.00  0.00    -0.203 F 
ATOM    101  C   UNL     1       0.242  11.636 -11.476  1.00  0.00     0.198 A 
ATOM    102  C   UNL     1       0.018   9.646 -12.803  1.00  0.00     0.198 A 
ATOM    103  F   UNL     1       0.310   7.532 -11.812  1.00  0.00    -0.203 F 
ATOM    104  F   UNL     1       0.192  12.970 -11.369  1.00  0.00    -0.200 F 
ATOM    105  C   UNL     1      -0.009  11.028 -12.698  1.00  0.00     0.200 A 
ATOM    106  F   UNL     1      -0.208   9.058 -13.986  1.00  0.00    -0.200 F 
ATOM    107  F   UNL     1      -0.279  11.777 -13.777  1.00  0.00    -0.200 F 
ENDBRANCH  74  97
ENDBRANCH  48  49
ENDBRANCH  40  43
ENDBRANCH  38  39
ENDBRANCH  37  38
ENDBRANCH   1  37
TORSDOF 17
