REMARK SMILES C[C@@H](CCC(=O)NCCCCNC(=O)c1ccc(-c2c3nc(c(-c4c(F)c(F)c(F)c(F)c4F)c4ccc([nH]4)c(-c4c(F)c(F)c(F)c(F)c4F)c4nc(c(-c5c(F)c(F)c(F)c(F)c5F)c5ccc2[nH]5)C=C4)C=C3)cc1)[C@H]1CC[C@@H]2[C@H]3CC[C@@H]4CC(=O)CC[C@]4(C)[C@@H]3CC(=O)[C@]21C
REMARK SMILES IDX 9 1 8 2 7 3 5 4 6 5 4 7 3 8 2 9 1 10 78 11 79 12 97 13 80 14
REMARK SMILES IDX 81 15 95 16 98 17 82 18 94 19 96 20 83 21 93 22 84 23 91 24
REMARK SMILES IDX 85 25 90 26 92 27 86 28 89 29 87 30 88 31 10 32 11 33 12 34
REMARK SMILES IDX 13 35 14 37 15 38 16 39 77 40 17 41 76 42 18 43 19 44 20 45
REMARK SMILES IDX 70 46 21 47 75 48 69 49 71 50 22 51 74 52 68 53 67 54 23 56
REMARK SMILES IDX 55 57 35 58 54 59 36 60 39 61 53 62 72 63 37 64 38 65 52 67
REMARK SMILES IDX 73 68 40 69 24 70 25 71 33 72 26 73 27 74 31 75 34 76 28 77
REMARK SMILES IDX 29 78 32 79 30 80 56 81 57 82 65 83 58 84 59 85 63 86 66 87
REMARK SMILES IDX 60 88 61 89 64 90 62 91 41 92 42 93 50 94 43 95 44 96 48 97
REMARK SMILES IDX 51 98 45 99 46 100 49 101 47 102
REMARK H PARENT 7 6 12 36 71 55 39 66
REMARK Flexibility Score: inf
ROOT
ATOM      1  C   UNL     1      -2.948   0.880  -0.064  1.00  0.00     0.023 C 
ENDROOT
BRANCH   1   2
ATOM      2  C   UNL     1      -2.086   1.102  -1.635  1.00  0.00     0.116 C 
BRANCH   2   3
ATOM      3  N   UNL     1      -0.781   1.864  -2.026  1.00  0.00    -0.356 N 
ATOM      4  C   UNL     1       0.572   1.683  -2.220  1.00  0.00     0.220 C 
ATOM      5  O   UNL     1       1.244   2.661  -2.575  1.00  0.00    -0.275 OA
ATOM      6  H   UNL     1      -1.002   2.809  -2.194  1.00  0.00     0.163 HD
BRANCH   4   7
ATOM      7  C   UNL     1       1.306   0.387  -1.955  1.00  0.00     0.100 C 
BRANCH   7   8
ATOM      8  C   UNL     1       1.211  -0.058  -0.502  1.00  0.00     0.013 C 
BRANCH   8   9
ATOM      9  C   UNL     1      -0.226   0.128   0.042  1.00  0.00    -0.010 C 
ATOM     10  C   UNL     1      -0.921  -1.071  -0.791  1.00  0.00     0.008 C 
BRANCH   9  11
ATOM     11  C   UNL     1      -0.572   1.899   0.431  1.00  0.00     0.005 C 
ATOM     12  C   UNL     1       0.777   2.550   0.837  1.00  0.00     0.005 C 
ATOM     13  C   UNL     1      -1.735   3.334   0.130  1.00  0.00     0.032 C 
ATOM     14  C   UNL     1       0.475   3.973   1.223  1.00  0.00     0.005 C 
ATOM     15  C   UNL     1      -0.594   4.433   0.235  1.00  0.00     0.006 C 
ATOM     16  C   UNL     1      -2.496   4.064  -1.101  1.00  0.00     0.139 C 
ATOM     17  C   UNL     1      -3.142   3.431   0.877  1.00  0.00     0.020 C 
ATOM     18  C   UNL     1      -0.891   5.949   0.324  1.00  0.00    -0.003 C 
ATOM     19  C   UNL     1      -3.123   5.454  -0.792  1.00  0.00     0.080 C 
ATOM     20  O   UNL     1      -2.746   3.611  -2.212  1.00  0.00    -0.299 OA
ATOM     21  C   UNL     1       0.377   6.751  -0.088  1.00  0.00     0.004 C 
ATOM     22  C   UNL     1      -1.985   6.407  -0.652  1.00  0.00     0.006 C 
ATOM     23  C   UNL     1       0.173   8.237  -0.432  1.00  0.00     0.005 C 
ATOM     24  C   UNL     1      -2.368   7.910  -0.482  1.00  0.00    -0.025 C 
ATOM     25  C   UNL     1      -1.159   8.613  -1.135  1.00  0.00     0.002 C 
ATOM     26  C   UNL     1      -2.578   8.423   0.974  1.00  0.00     0.015 C 
ATOM     27  C   UNL     1      -3.699   8.213  -1.225  1.00  0.00     0.012 C 
ATOM     28  C   UNL     1      -1.370  10.113  -1.217  1.00  0.00     0.079 C 
ATOM     29  C   UNL     1      -2.045   9.826   1.292  1.00  0.00     0.076 C 
ATOM     30  C   UNL     1      -1.610  10.734   0.143  1.00  0.00     0.133 C 
ATOM     31  O   UNL     1      -1.435  11.905   0.318  1.00  0.00    -0.300 OA
ENDBRANCH   9  11
ENDBRANCH   8   9
ENDBRANCH   7   8
ENDBRANCH   4   7
ENDBRANCH   2   3
ENDBRANCH   1   2
BRANCH   1  32
ATOM     32  C   UNL     1      -2.764   0.814   1.713  1.00  0.00     0.023 C 
BRANCH  32  33
ATOM     33  C   UNL     1      -2.254   1.813   3.083  1.00  0.00     0.116 C 
BRANCH  33  34
ATOM     34  N   UNL     1      -2.281   3.307   3.319  1.00  0.00    -0.352 N 
ATOM     35  C   UNL     1      -3.368   4.078   3.750  1.00  0.00     0.251 C 
ATOM     36  H   UNL     1      -1.440   3.791   3.151  1.00  0.00     0.163 HD
ATOM     37  O   UNL     1      -4.525   3.674   3.677  1.00  0.00    -0.269 OA
BRANCH  35  38
ATOM     38  C   UNL     1      -3.110   5.432   4.397  1.00  0.00     0.039 A 
ATOM     39  C   UNL     1      -4.202   6.063   5.031  1.00  0.00     0.014 A 
ATOM     40  C   UNL     1      -1.826   5.928   4.645  1.00  0.00     0.014 A 
ATOM     41  C   UNL     1      -3.999   6.941   6.101  1.00  0.00     0.010 A 
ATOM     42  C   UNL     1      -1.617   6.779   5.734  1.00  0.00     0.010 A 
ATOM     43  C   UNL     1      -2.694   7.182   6.537  1.00  0.00    -0.014 A 
BRANCH  43  44
ATOM     44  C   UNL     1      -2.409   7.603   7.932  1.00  0.00     0.031 A 
ATOM     45  C   UNL     1      -1.767   8.924   8.204  1.00  0.00     0.074 A 
ATOM     46  C   UNL     1      -2.561   6.676   8.904  1.00  0.00     0.049 A 
ATOM     47  N   UNL     1      -1.273   9.393   9.318  1.00  0.00    -0.248 NA
ATOM     48  C   UNL     1      -1.618   9.820   7.048  1.00  0.00     0.031 C 
ATOM     49  C   UNL     1      -3.096   5.324   8.698  1.00  0.00     0.029 A 
ATOM     50  N   UNL     1      -2.251   6.696  10.240  1.00  0.00    -0.354 N 
ATOM     51  C   UNL     1      -0.736  10.632   8.996  1.00  0.00     0.074 A 
ATOM     52  C   UNL     1      -0.920  10.817   7.572  1.00  0.00     0.031 C 
ATOM     53  C   UNL     1      -3.078   4.651   9.857  1.00  0.00     0.029 A 
ATOM     54  C   UNL     1      -2.507   5.506  10.886  1.00  0.00     0.049 A 
ATOM     55  H   UNL     1      -1.881   7.487  10.695  1.00  0.00     0.167 HD
ATOM     56  C   UNL     1      -0.155  11.530   9.828  1.00  0.00     0.037 A 
ATOM     57  C   UNL     1      -2.296   5.153  12.168  1.00  0.00     0.037 A 
ATOM     58  C   UNL     1       0.004  11.299  11.241  1.00  0.00     0.049 A 
ATOM     59  C   UNL     1      -1.697   6.187  13.080  1.00  0.00     0.074 A 
ATOM     60  C   UNL     1       0.512  12.144  12.210  1.00  0.00     0.029 A 
ATOM     61  N   UNL     1      -0.348  10.116  11.884  1.00  0.00    -0.354 N 
ATOM     62  N   UNL     1      -1.274   7.394  12.787  1.00  0.00    -0.248 NA
ATOM     63  C   UNL     1      -1.559   5.825  14.495  1.00  0.00     0.031 C 
ATOM     64  C   UNL     1       0.500  11.458  13.431  1.00  0.00     0.029 A 
ATOM     65  C   UNL     1      -0.060  10.204  13.235  1.00  0.00     0.049 A 
ATOM     66  H   UNL     1      -0.746   9.331  11.442  1.00  0.00     0.167 HD
ATOM     67  C   UNL     1      -0.848   7.952  13.981  1.00  0.00     0.074 A 
ATOM     68  C   UNL     1      -1.079   6.951  15.007  1.00  0.00     0.031 C 
ATOM     69  C   UNL     1      -0.314   9.176  14.216  1.00  0.00     0.037 A 
BRANCH  56  70
ATOM     70  C   UNL     1       0.337  12.817   9.227  1.00  0.00     0.064 A 
ATOM     71  C   UNL     1      -0.550  13.762   8.684  1.00  0.00     0.173 A 
ATOM     72  C   UNL     1       1.708  13.113   9.181  1.00  0.00     0.173 A 
ATOM     73  F   UNL     1      -1.871  13.527   8.688  1.00  0.00    -0.203 F 
ATOM     74  C   UNL     1      -0.083  14.928   8.082  1.00  0.00     0.198 A 
ATOM     75  C   UNL     1       2.170  14.296   8.607  1.00  0.00     0.198 A 
ATOM     76  F   UNL     1       2.604  12.251   9.685  1.00  0.00    -0.203 F 
ATOM     77  F   UNL     1      -0.948  15.779   7.513  1.00  0.00    -0.200 F 
ATOM     78  C   UNL     1       1.276  15.197   8.048  1.00  0.00     0.200 A 
ATOM     79  F   UNL     1       3.484  14.559   8.584  1.00  0.00    -0.200 F 
ATOM     80  F   UNL     1       1.726  16.318   7.466  1.00  0.00    -0.200 F 
ENDBRANCH  56  70
BRANCH  57  81
ATOM     81  C   UNL     1      -2.712   3.810  12.661  1.00  0.00     0.064 A 
ATOM     82  C   UNL     1      -3.802   3.676  13.533  1.00  0.00     0.173 A 
ATOM     83  C   UNL     1      -2.064   2.634  12.253  1.00  0.00     0.173 A 
ATOM     84  F   UNL     1      -4.452   4.768  13.963  1.00  0.00    -0.203 F 
ATOM     85  C   UNL     1      -4.217   2.425  13.990  1.00  0.00     0.198 A 
ATOM     86  C   UNL     1      -2.496   1.381  12.690  1.00  0.00     0.198 A 
ATOM     87  F   UNL     1      -1.023   2.698  11.409  1.00  0.00    -0.203 F 
ATOM     88  F   UNL     1      -5.241   2.334  14.849  1.00  0.00    -0.200 F 
ATOM     89  C   UNL     1      -3.568   1.278  13.563  1.00  0.00     0.200 A 
ATOM     90  F   UNL     1      -1.877   0.272  12.261  1.00  0.00    -0.200 F 
ATOM     91  F   UNL     1      -3.973   0.075  13.995  1.00  0.00    -0.200 F 
ENDBRANCH  57  81
BRANCH  69  92
ATOM     92  C   UNL     1       0.021   9.496  15.640  1.00  0.00     0.064 A 
ATOM     93  C   UNL     1       1.118   8.908  16.285  1.00  0.00     0.173 A 
ATOM     94  C   UNL     1      -0.745  10.431  16.351  1.00  0.00     0.173 A 
ATOM     95  F   UNL     1       1.866   7.995  15.648  1.00  0.00    -0.203 F 
ATOM     96  C   UNL     1       1.423   9.229  17.603  1.00  0.00     0.198 A 
ATOM     97  C   UNL     1      -0.416  10.774  17.658  1.00  0.00     0.198 A 
ATOM     98  F   UNL     1      -1.801  11.022  15.772  1.00  0.00    -0.203 F 
ATOM     99  F   UNL     1       2.446   8.620  18.218  1.00  0.00    -0.200 F 
ATOM    100  C   UNL     1       0.662  10.168  18.285  1.00  0.00     0.200 A 
ATOM    101  F   UNL     1      -1.144  11.691  18.311  1.00  0.00    -0.200 F 
ATOM    102  F   UNL     1       0.964  10.482  19.552  1.00  0.00    -0.200 F 
ENDBRANCH  69  92
ENDBRANCH  43  44
ENDBRANCH  35  38
ENDBRANCH  33  34
ENDBRANCH  32  33
ENDBRANCH   1  32
TORSDOF 14
