REMARK SMILES CC[NH2+][C@H](CC(=O)Nc1cc(C)cc(C)c1)C(=O)NCCCCNC(=O)c1ccc(-c2c3nc(c(-c4c(F)c(F)c(F)c(F)c4F)c4ccc([nH]4)c(-c4c(F)c(F)c(F)c(F)c4F)c4nc(c(-c5c(F)c(F)c(F)c(F)c5F)c5ccc2[nH]5)C=C4)C=C3)cc1
REMARK SMILES IDX 21 1 20 2 19 3 17 4 18 5 4 7 3 8 2 11 1 12 5 13 6 14 7 15
REMARK SMILES IDX 8 16 9 18 10 19 16 20 11 21 14 22 12 23 13 24 15 25 22 26
REMARK SMILES IDX 23 27 24 28 25 29 26 31 27 32 28 33 89 34 29 35 88 36 30 37
REMARK SMILES IDX 31 38 32 39 82 40 33 41 87 42 81 43 83 44 34 45 86 46 80 47
REMARK SMILES IDX 79 48 35 50 67 51 47 52 66 53 48 54 51 55 65 56 84 57 49 58
REMARK SMILES IDX 50 59 64 61 85 62 52 63 36 64 37 65 45 66 38 67 39 68 43 69
REMARK SMILES IDX 46 70 40 71 41 72 44 73 42 74 68 75 69 76 77 77 70 78 71 79
REMARK SMILES IDX 75 80 78 81 72 82 73 83 76 84 74 85 53 86 54 87 62 88 55 89
REMARK SMILES IDX 56 90 60 91 63 92 57 93 58 94 61 95 59 96
REMARK H PARENT 19 6 3 9 3 10 8 17 24 30 83 49 51 60
REMARK Flexibility Score: inf
ROOT
ATOM      1  C   UNL     1       4.580  -3.435  -2.014  1.00  0.00     0.023 C 
ENDROOT
BRANCH   1   2
ATOM      2  C   UNL     1       3.681  -2.601  -2.914  1.00  0.00     0.116 C 
BRANCH   2   3
ATOM      3  N   UNL     1       2.651  -3.365  -3.575  1.00  0.00    -0.351 N 
ATOM      4  C   UNL     1       1.413  -2.935  -3.947  1.00  0.00     0.278 C 
ATOM      5  O   UNL     1       0.700  -3.704  -4.600  1.00  0.00    -0.268 OA
ATOM      6  H   UNL     1       2.867  -4.303  -3.780  1.00  0.00     0.163 HD
BRANCH   4   7
ATOM      7  C   UNL     1       0.905  -1.537  -3.543  1.00  0.00     0.281 C 
BRANCH   7   8
ATOM      8  N   UNL     1       1.600  -0.485  -4.328  1.00  0.00    -0.336 N 
ATOM      9  H   UNL     1       2.254  -0.959  -4.951  1.00  0.00     0.346 HD
ATOM     10  H   UNL     1       0.843   0.031  -4.776  1.00  0.00     0.346 HD
BRANCH   8  11
ATOM     11  C   UNL     1       2.349   0.533  -3.615  1.00  0.00     0.257 C 
ATOM     12  C   UNL     1       2.840   1.563  -4.626  1.00  0.00     0.071 C 
ENDBRANCH   8  11
ENDBRANCH   7   8
BRANCH   7  13
ATOM     13  C   UNL     1       0.637  -1.371  -2.043  1.00  0.00     0.175 C 
BRANCH  13  14
ATOM     14  C   UNL     1       0.270  -2.654  -1.290  1.00  0.00     0.230 C 
ATOM     15  O   UNL     1       1.150  -3.350  -0.777  1.00  0.00    -0.274 OA
ATOM     16  N   UNL     1      -1.045  -2.958  -1.035  1.00  0.00    -0.326 N 
ATOM     17  H   UNL     1      -1.208  -3.666  -0.371  1.00  0.00     0.169 HD
BRANCH  16  18
ATOM     18  C   UNL     1      -2.179  -2.379  -1.611  1.00  0.00     0.041 A 
ATOM     19  C   UNL     1      -2.275  -2.221  -2.990  1.00  0.00     0.029 A 
ATOM     20  C   UNL     1      -3.217  -1.940  -0.794  1.00  0.00     0.029 A 
ATOM     21  C   UNL     1      -3.274  -1.433  -3.557  1.00  0.00    -0.049 A 
ATOM     22  C   UNL     1      -4.270  -1.198  -1.349  1.00  0.00    -0.049 A 
ATOM     23  C   UNL     1      -3.245  -1.116  -5.022  1.00  0.00     0.044 C 
ATOM     24  C   UNL     1      -4.269  -0.916  -2.724  1.00  0.00     0.007 A 
ATOM     25  C   UNL     1      -5.367  -0.654  -0.483  1.00  0.00     0.044 C 
ENDBRANCH  16  18
ENDBRANCH  13  14
ENDBRANCH   7  13
ENDBRANCH   4   7
ENDBRANCH   2   3
ENDBRANCH   1   2
BRANCH   1  26
ATOM     26  C   UNL     1       5.359  -4.540  -2.718  1.00  0.00     0.023 C 
BRANCH  26  27
ATOM     27  C   UNL     1       6.051  -4.123  -4.010  1.00  0.00     0.116 C 
BRANCH  27  28
ATOM     28  N   UNL     1       6.988  -3.020  -3.832  1.00  0.00    -0.352 N 
ATOM     29  C   UNL     1       8.349  -2.983  -4.005  1.00  0.00     0.251 C 
ATOM     30  H   UNL     1       6.582  -2.171  -3.544  1.00  0.00     0.163 HD
ATOM     31  O   UNL     1       8.992  -1.984  -3.693  1.00  0.00    -0.269 OA
BRANCH  29  32
ATOM     32  C   UNL     1       9.046  -4.175  -4.524  1.00  0.00     0.039 A 
ATOM     33  C   UNL     1      10.148  -4.669  -3.823  1.00  0.00     0.014 A 
ATOM     34  C   UNL     1       8.572  -4.839  -5.657  1.00  0.00     0.014 A 
ATOM     35  C   UNL     1      10.705  -5.894  -4.193  1.00  0.00     0.010 A 
ATOM     36  C   UNL     1       9.069  -6.099  -5.969  1.00  0.00     0.010 A 
ATOM     37  C   UNL     1      10.128  -6.647  -5.229  1.00  0.00    -0.014 A 
BRANCH  37  38
ATOM     38  C   UNL     1      10.584  -8.029  -5.522  1.00  0.00     0.031 A 
ATOM     39  C   UNL     1      11.166  -8.365  -6.865  1.00  0.00     0.074 A 
ATOM     40  C   UNL     1      10.388  -8.999  -4.606  1.00  0.00     0.049 A 
ATOM     41  N   UNL     1      11.536  -9.529  -7.338  1.00  0.00    -0.248 NA
ATOM     42  C   UNL     1      11.328  -7.253  -7.815  1.00  0.00     0.031 C 
ATOM     43  C   UNL     1       9.771  -8.810  -3.291  1.00  0.00     0.029 A 
ATOM     44  N   UNL     1      10.671 -10.341  -4.647  1.00  0.00    -0.354 N 
ATOM     45  C   UNL     1      11.954  -9.291  -8.640  1.00  0.00     0.074 A 
ATOM     46  C   UNL     1      11.750  -7.883  -8.902  1.00  0.00     0.031 C 
ATOM     47  C   UNL     1       9.741  -9.986  -2.644  1.00  0.00     0.029 A 
ATOM     48  C   UNL     1      10.298 -11.019  -3.511  1.00  0.00     0.049 A 
ATOM     49  H   UNL     1      11.102 -10.778  -5.417  1.00  0.00     0.167 HD
ATOM     50  C   UNL     1      12.481 -10.166  -9.528  1.00  0.00     0.037 A 
ATOM     51  C   UNL     1      10.384 -12.328  -3.208  1.00  0.00     0.037 A 
ATOM     52  C   UNL     1      12.717 -11.559  -9.252  1.00  0.00     0.049 A 
ATOM     53  C   UNL     1      10.984 -13.274  -4.213  1.00  0.00     0.074 A 
ATOM     54  C   UNL     1      13.325 -12.505 -10.056  1.00  0.00     0.029 A 
ATOM     55  N   UNL     1      12.352 -12.203  -8.079  1.00  0.00    -0.354 N 
ATOM     56  N   UNL     1      11.456 -13.021  -5.409  1.00  0.00    -0.248 NA
ATOM     57  C   UNL     1      11.067 -14.689  -3.823  1.00  0.00     0.031 C 
ATOM     58  C   UNL     1      13.290 -13.734  -9.389  1.00  0.00     0.029 A 
ATOM     59  C   UNL     1      12.700 -13.542  -8.150  1.00  0.00     0.049 A 
ATOM     60  H   UNL     1      11.911 -11.773  -7.311  1.00  0.00     0.167 HD
ATOM     61  C   UNL     1      11.910 -14.235  -5.905  1.00  0.00     0.074 A 
ATOM     62  C   UNL     1      11.677 -15.222  -4.872  1.00  0.00     0.031 C 
ATOM     63  C   UNL     1      12.466 -14.509  -7.110  1.00  0.00     0.037 A 
BRANCH  50  64
ATOM     64  C   UNL     1      12.857  -9.645 -10.883  1.00  0.00     0.064 A 
ATOM     65  C   UNL     1      13.966  -8.806 -11.064  1.00  0.00     0.173 A 
ATOM     66  C   UNL     1      12.138 -10.039 -12.021  1.00  0.00     0.173 A 
ATOM     67  F   UNL     1      14.679  -8.392 -10.006  1.00  0.00    -0.203 F 
ATOM     68  C   UNL     1      14.332  -8.367 -12.334  1.00  0.00     0.198 A 
ATOM     69  C   UNL     1      12.523  -9.620 -13.292  1.00  0.00     0.198 A 
ATOM     70  F   UNL     1      11.071 -10.844 -11.903  1.00  0.00    -0.203 F 
ATOM     71  F   UNL     1      15.375  -7.538 -12.479  1.00  0.00    -0.200 F 
ATOM     72  C   UNL     1      13.616  -8.782 -13.447  1.00  0.00     0.200 A 
ATOM     73  F   UNL     1      11.838 -10.032 -14.368  1.00  0.00    -0.200 F 
ATOM     74  F   UNL     1      13.979  -8.371 -14.670  1.00  0.00    -0.200 F 
ENDBRANCH  50  64
BRANCH  51  75
ATOM     75  C   UNL     1       9.901 -12.826  -1.893  1.00  0.00     0.064 A 
ATOM     76  C   UNL     1      10.802 -13.305  -0.931  1.00  0.00     0.173 A 
ATOM     77  C   UNL     1       8.535 -12.859  -1.581  1.00  0.00     0.173 A 
ATOM     78  F   UNL     1      12.117 -13.315  -1.192  1.00  0.00    -0.203 F 
ATOM     79  C   UNL     1      10.352 -13.823   0.282  1.00  0.00     0.198 A 
ATOM     80  C   UNL     1       8.088 -13.350  -0.356  1.00  0.00     0.198 A 
ATOM     81  F   UNL     1       7.632 -12.410  -2.466  1.00  0.00    -0.203 F 
ATOM     82  F   UNL     1      11.230 -14.324   1.161  1.00  0.00    -0.200 F 
ATOM     83  C   UNL     1       8.995 -13.841   0.570  1.00  0.00     0.200 A 
ATOM     84  F   UNL     1       6.777 -13.354  -0.076  1.00  0.00    -0.200 F 
ATOM     85  F   UNL     1       8.563 -14.342   1.735  1.00  0.00    -0.200 F 
ENDBRANCH  51  75
BRANCH  63  86
ATOM     86  C   UNL     1      12.882 -15.928  -7.366  1.00  0.00     0.064 A 
ATOM     87  C   UNL     1      11.938 -16.939  -7.590  1.00  0.00     0.173 A 
ATOM     88  C   UNL     1      14.241 -16.270  -7.424  1.00  0.00     0.173 A 
ATOM     89  F   UNL     1      10.626 -16.664  -7.529  1.00  0.00    -0.203 F 
ATOM     90  C   UNL     1      12.339 -18.249  -7.840  1.00  0.00     0.198 A 
ATOM     91  C   UNL     1      14.639 -17.574  -7.703  1.00  0.00     0.198 A 
ATOM     92  F   UNL     1      15.184 -15.337  -7.222  1.00  0.00    -0.203 F 
ATOM     93  F   UNL     1      11.419 -19.209  -8.006  1.00  0.00    -0.200 F 
ATOM     94  C   UNL     1      13.688 -18.563  -7.904  1.00  0.00     0.200 A 
ATOM     95  F   UNL     1      15.943 -17.874  -7.777  1.00  0.00    -0.200 F 
ATOM     96  F   UNL     1      14.072 -19.823  -8.151  1.00  0.00    -0.200 F 
ENDBRANCH  63  86
ENDBRANCH  37  38
ENDBRANCH  29  32
ENDBRANCH  27  28
ENDBRANCH  26  27
ENDBRANCH   1  26
TORSDOF 16
