REMARK SMILES CC[C@@H](C)N(CC)c1cc(C(=O)NCCCCNC(=O)c2ccc(-c3c4nc(c(-c5c(F)c(F)c(F)c(F)c5F)c5ccc([nH]5)c(-c5c(F)c(F)c(F)c(F)c5F)c5nc(c(-c6c(F)c(F)c(F)c(F)c6F)c6ccc3[nH]6)C=C5)C=C4)cc2)c2ccccc2n1
REMARK SMILES IDX 15 1 14 2 13 3 11 4 12 5 10 7 8 8 9 9 90 10 89 11 84 12
REMARK SMILES IDX 88 13 85 14 87 15 86 16 5 17 3 18 4 19 2 20 1 21 6 22 7 23
REMARK SMILES IDX 16 24 17 25 18 26 19 27 20 29 21 30 22 31 83 32 23 33 82 34
REMARK SMILES IDX 24 35 25 36 26 37 76 38 27 39 81 40 75 41 77 42 28 43 80 44
REMARK SMILES IDX 74 45 73 46 29 48 61 49 41 50 60 51 42 52 45 53 59 54 78 55
REMARK SMILES IDX 43 56 44 57 58 59 79 60 46 61 30 62 31 63 39 64 32 65 33 66
REMARK SMILES IDX 37 67 40 68 34 69 35 70 38 71 36 72 62 73 63 74 71 75 64 76
REMARK SMILES IDX 65 77 69 78 72 79 66 80 67 81 70 82 68 83 47 84 48 85 56 86
REMARK SMILES IDX 49 87 50 88 54 89 57 90 51 91 52 92 55 93 53 94
REMARK H PARENT 13 6 18 28 77 47 45 58
REMARK Flexibility Score: inf
ROOT
ATOM      1  C   UNL     1      -6.463   6.995   0.897  1.00  0.00     0.023 C 
ENDROOT
BRANCH   1   2
ATOM      2  C   UNL     1      -5.699   6.610  -0.376  1.00  0.00     0.116 C 
BRANCH   2   3
ATOM      3  N   UNL     1      -4.388   7.217  -0.319  1.00  0.00    -0.352 N 
ATOM      4  C   UNL     1      -3.181   6.796   0.171  1.00  0.00     0.252 C 
ATOM      5  O   UNL     1      -2.337   7.684   0.333  1.00  0.00    -0.269 OA
ATOM      6  H   UNL     1      -4.358   8.118  -0.713  1.00  0.00     0.163 HD
BRANCH   4   7
ATOM      7  C   UNL     1      -2.759   5.376   0.375  1.00  0.00     0.052 A 
ATOM      8  C   UNL     1      -0.834   3.927   0.079  1.00  0.00     0.130 A 
ATOM      9  C   UNL     1      -1.430   5.167  -0.027  1.00  0.00     0.061 A 
ATOM     10  N   UNL     1      -1.586   2.873   0.415  1.00  0.00    -0.231 NA
ATOM     11  C   UNL     1      -2.839   3.033   0.848  1.00  0.00     0.073 A 
ATOM     12  C   UNL     1      -3.467   4.287   0.937  1.00  0.00     0.013 A 
ATOM     13  C   UNL     1      -3.502   1.887   1.271  1.00  0.00     0.029 A 
ATOM     14  C   UNL     1      -4.699   4.321   1.629  1.00  0.00     0.011 A 
ATOM     15  C   UNL     1      -4.774   1.935   1.834  1.00  0.00     0.002 A 
ATOM     16  C   UNL     1      -5.369   3.165   2.037  1.00  0.00     0.001 A 
BRANCH   8  17
ATOM     17  N   UNL     1       0.526   3.753  -0.136  1.00  0.00    -0.354 N 
BRANCH  17  18
ATOM     18  C   UNL     1       1.050   2.450  -0.605  1.00  0.00     0.080 C 
ATOM     19  C   UNL     1       0.496   2.139  -1.997  1.00  0.00     0.031 C 
BRANCH  18  20
ATOM     20  C   UNL     1       0.857   1.307   0.414  1.00  0.00     0.021 C 
ATOM     21  C   UNL     1       1.604   0.031   0.051  1.00  0.00     0.006 C 
ENDBRANCH  18  20
ENDBRANCH  17  18
BRANCH  17  22
ATOM     22  C   UNL     1       1.452   4.634   0.593  1.00  0.00     0.115 C 
ATOM     23  C   UNL     1       1.818   5.880  -0.202  1.00  0.00     0.027 C 
ENDBRANCH  17  22
ENDBRANCH   8  17
ENDBRANCH   4   7
ENDBRANCH   2   3
ENDBRANCH   1   2
BRANCH   1  24
ATOM     24  C   UNL     1      -7.337   8.235   0.785  1.00  0.00     0.023 C 
BRANCH  24  25
ATOM     25  C   UNL     1      -8.555   8.059  -0.105  1.00  0.00     0.116 C 
BRANCH  25  26
ATOM     26  N   UNL     1      -9.392   6.919   0.257  1.00  0.00    -0.352 N 
ATOM     27  C   UNL     1     -10.762   6.817   0.212  1.00  0.00     0.251 C 
ATOM     28  H   UNL     1      -8.913   6.120   0.574  1.00  0.00     0.163 HD
ATOM     29  O   UNL     1     -11.336   5.812   0.615  1.00  0.00    -0.269 OA
BRANCH  27  30
ATOM     30  C   UNL     1     -11.529   7.974  -0.279  1.00  0.00     0.039 A 
ATOM     31  C   UNL     1     -12.516   8.522   0.541  1.00  0.00     0.014 A 
ATOM     32  C   UNL     1     -11.172   8.586  -1.482  1.00  0.00     0.014 A 
ATOM     33  C   UNL     1     -13.077   9.751   0.201  1.00  0.00     0.010 A 
ATOM     34  C   UNL     1     -11.666   9.849  -1.773  1.00  0.00     0.010 A 
ATOM     35  C   UNL     1     -12.611  10.448  -0.926  1.00  0.00    -0.014 A 
BRANCH  35  36
ATOM     36  C   UNL     1     -13.072  11.824  -1.224  1.00  0.00     0.031 A 
ATOM     37  C   UNL     1     -13.817  12.102  -2.496  1.00  0.00     0.074 A 
ATOM     38  C   UNL     1     -12.733  12.831  -0.395  1.00  0.00     0.049 A 
ATOM     39  N   UNL     1     -14.221  13.247  -2.984  1.00  0.00    -0.248 NA
ATOM     40  C   UNL     1     -14.117  10.944  -3.355  1.00  0.00     0.031 C 
ATOM     41  C   UNL     1     -11.945  12.691   0.832  1.00  0.00     0.029 A 
ATOM     42  N   UNL     1     -12.994  14.176  -0.467  1.00  0.00    -0.354 N 
ATOM     43  C   UNL     1     -14.799  12.950  -4.209  1.00  0.00     0.074 A 
ATOM     44  C   UNL     1     -14.651  11.526  -4.418  1.00  0.00     0.031 C 
ATOM     45  C   UNL     1     -11.804  13.896   1.407  1.00  0.00     0.029 A 
ATOM     46  C   UNL     1     -12.463  14.897   0.574  1.00  0.00     0.049 A 
ATOM     47  H   UNL     1     -13.513  14.585  -1.196  1.00  0.00     0.167 HD
ATOM     48  C   UNL     1     -15.421  13.788  -5.070  1.00  0.00     0.037 A 
ATOM     49  C   UNL     1     -12.500  16.220   0.823  1.00  0.00     0.037 A 
ATOM     50  C   UNL     1     -15.607  15.194  -4.834  1.00  0.00     0.049 A 
ATOM     51  C   UNL     1     -13.229  17.122  -0.136  1.00  0.00     0.074 A 
ATOM     52  C   UNL     1     -16.305  16.111  -5.599  1.00  0.00     0.029 A 
ATOM     53  N   UNL     1     -15.093  15.884  -3.747  1.00  0.00    -0.354 N 
ATOM     54  N   UNL     1     -13.849  16.816  -1.249  1.00  0.00    -0.248 NA
ATOM     55  C   UNL     1     -13.267  18.552   0.200  1.00  0.00     0.031 C 
ATOM     56  C   UNL     1     -16.184  17.365  -4.992  1.00  0.00     0.029 A 
ATOM     57  C   UNL     1     -15.443  17.221  -3.830  1.00  0.00     0.049 A 
ATOM     58  H   UNL     1     -14.560  15.482  -3.023  1.00  0.00     0.167 HD
ATOM     59  C   UNL     1     -14.368  18.007  -1.736  1.00  0.00     0.074 A 
ATOM     60  C   UNL     1     -14.006  19.039  -0.787  1.00  0.00     0.031 C 
ATOM     61  C   UNL     1     -15.076  18.229  -2.870  1.00  0.00     0.037 A 
BRANCH  48  62
ATOM     62  C   UNL     1     -15.963  13.204  -6.339  1.00  0.00     0.064 A 
ATOM     63  C   UNL     1     -17.097  12.377  -6.339  1.00  0.00     0.173 A 
ATOM     64  C   UNL     1     -15.372  13.510  -7.573  1.00  0.00     0.173 A 
ATOM     65  F   UNL     1     -17.688  12.043  -5.182  1.00  0.00    -0.203 F 
ATOM     66  C   UNL     1     -17.607  11.863  -7.527  1.00  0.00     0.198 A 
ATOM     67  C   UNL     1     -15.900  13.015  -8.762  1.00  0.00     0.198 A 
ATOM     68  F   UNL     1     -14.286  14.296  -7.627  1.00  0.00    -0.203 F 
ATOM     69  F   UNL     1     -18.668  11.044  -7.500  1.00  0.00    -0.200 F 
ATOM     70  C   UNL     1     -17.014  12.189  -8.738  1.00  0.00     0.200 A 
ATOM     71  F   UNL     1     -15.332  13.337  -9.932  1.00  0.00    -0.200 F 
ATOM     72  F   UNL     1     -17.514  11.701  -9.882  1.00  0.00    -0.200 F 
ENDBRANCH  48  62
BRANCH  49  73
ATOM     73  C   UNL     1     -11.848  16.771   2.038  1.00  0.00     0.064 A 
ATOM     74  C   UNL     1     -12.615  17.274   3.099  1.00  0.00     0.173 A 
ATOM     75  C   UNL     1     -10.453  16.824   2.160  1.00  0.00     0.173 A 
ATOM     76  F   UNL     1     -13.954  17.263   3.020  1.00  0.00    -0.203 F 
ATOM     77  C   UNL     1     -12.011  17.832   4.223  1.00  0.00     0.198 A 
ATOM     78  C   UNL     1      -9.849  17.359   3.296  1.00  0.00     0.198 A 
ATOM     79  F   UNL     1      -9.674  16.351   1.175  1.00  0.00    -0.203 F 
ATOM     80  F   UNL     1     -12.768  18.350   5.200  1.00  0.00    -0.200 F 
ATOM     81  C   UNL     1     -10.628  17.871   4.323  1.00  0.00     0.200 A 
ATOM     82  F   UNL     1      -8.513  17.384   3.394  1.00  0.00    -0.200 F 
ATOM     83  F   UNL     1     -10.047  18.410   5.403  1.00  0.00    -0.200 F 
ENDBRANCH  49  73
BRANCH  61  84
ATOM     84  C   UNL     1     -15.521  19.635  -3.133  1.00  0.00     0.064 A 
ATOM     85  C   UNL     1     -14.617  20.621  -3.551  1.00  0.00     0.173 A 
ATOM     86  C   UNL     1     -16.873  19.988  -3.007  1.00  0.00     0.173 A 
ATOM     87  F   UNL     1     -13.312  20.334  -3.670  1.00  0.00    -0.203 F 
ATOM     88  C   UNL     1     -15.047  21.918  -3.814  1.00  0.00     0.198 A 
ATOM     89  C   UNL     1     -17.304  21.279  -3.297  1.00  0.00     0.198 A 
ATOM     90  F   UNL     1     -17.776  19.077  -2.616  1.00  0.00    -0.203 F 
ATOM     91  F   UNL     1     -14.160  22.857  -4.173  1.00  0.00    -0.200 F 
ATOM     92  C   UNL     1     -16.390  22.244  -3.694  1.00  0.00     0.200 A 
ATOM     93  F   UNL     1     -18.603  21.590  -3.191  1.00  0.00    -0.200 F 
ATOM     94  F   UNL     1     -16.804  23.492  -3.955  1.00  0.00    -0.200 F 
ENDBRANCH  61  84
ENDBRANCH  35  36
ENDBRANCH  27  30
ENDBRANCH  25  26
ENDBRANCH  24  25
ENDBRANCH   1  24
TORSDOF 15
