REMARK SMILES O=C(NCCCCNC(=O)c1ccc(-c2c3nc(c(-c4c(F)c(F)c(F)c(F)c4F)c4ccc([nH]4)c(-c4c(F)c(F)c(F)c(F)c4F)c4nc(c(-c5c(F)c(F)c(F)c(F)c5F)c5ccc2[nH]5)C=C4)C=C3)cc1)c1ccc(CNC(=O)c2ccccc2I)cc1
REMARK SMILES IDX 5 1 4 2 3 3 1 4 2 5 74 7 75 8 90 9 76 10 89 11 77 12 78 13
REMARK SMILES IDX 79 14 80 15 81 17 82 18 83 19 87 20 84 21 86 22 88 23 85 24
REMARK SMILES IDX 6 25 7 26 8 27 9 28 10 30 11 31 12 32 73 33 13 34 72 35
REMARK SMILES IDX 14 36 15 37 16 38 66 39 17 40 71 41 65 42 67 43 18 44 70 45
REMARK SMILES IDX 64 46 63 47 19 49 51 50 31 51 50 52 32 53 35 54 49 55 68 56
REMARK SMILES IDX 33 57 34 58 48 60 69 61 36 62 20 63 21 64 29 65 22 66 23 67
REMARK SMILES IDX 27 68 30 69 24 70 25 71 28 72 26 73 52 74 53 75 61 76 54 77
REMARK SMILES IDX 55 78 59 79 62 80 56 81 57 82 60 83 58 84 37 85 38 86 46 87
REMARK SMILES IDX 39 88 40 89 44 90 47 91 41 92 42 93 45 94 43 95
REMARK H PARENT 3 6 79 16 8 29 67 48 35 59
REMARK Flexibility Score: inf
ROOT
ATOM      1  C   UNL     1       4.970   1.389  -2.110  1.00  0.00     0.023 C 
ENDROOT
BRANCH   1   2
ATOM      2  C   UNL     1       4.626   1.055  -0.662  1.00  0.00     0.116 C 
BRANCH   2   3
ATOM      3  N   UNL     1       3.193   1.016  -0.423  1.00  0.00    -0.352 N 
ATOM      4  O   UNL     1       1.204   0.046   0.047  1.00  0.00    -0.269 OA
ATOM      5  C   UNL     1       2.427  -0.038   0.011  1.00  0.00     0.251 C 
ATOM      6  H   UNL     1       2.707   1.855  -0.595  1.00  0.00     0.163 HD
BRANCH   5   7
ATOM      7  C   UNL     1       3.094  -1.291   0.409  1.00  0.00     0.039 A 
ATOM      8  C   UNL     1       4.041  -1.293   1.438  1.00  0.00     0.014 A 
ATOM      9  C   UNL     1       2.786  -2.464  -0.280  1.00  0.00     0.014 A 
ATOM     10  C   UNL     1       4.737  -2.464   1.727  1.00  0.00     0.006 A 
ATOM     11  C   UNL     1       3.479  -3.637   0.019  1.00  0.00     0.006 A 
ATOM     12  C   UNL     1       4.470  -3.643   1.014  1.00  0.00    -0.029 A 
BRANCH  12  13
ATOM     13  C   UNL     1       5.229  -4.902   1.335  1.00  0.00     0.152 C 
BRANCH  13  14
ATOM     14  N   UNL     1       6.611  -4.814   0.908  1.00  0.00    -0.348 N 
ATOM     15  C   UNL     1       7.758  -4.955   1.646  1.00  0.00     0.252 C 
ATOM     16  H   UNL     1       6.746  -4.627  -0.049  1.00  0.00     0.164 HD
ATOM     17  O   UNL     1       8.860  -4.819   1.123  1.00  0.00    -0.269 OA
BRANCH  15  18
ATOM     18  C   UNL     1       7.672  -5.168   3.103  1.00  0.00     0.053 A 
ATOM     19  C   UNL     1       8.113  -4.102   3.904  1.00  0.00     0.015 A 
ATOM     20  C   UNL     1       7.212  -6.347   3.702  1.00  0.00     0.026 A 
ATOM     21  C   UNL     1       8.037  -4.187   5.293  1.00  0.00     0.001 A 
ATOM     22  C   UNL     1       7.112  -6.414   5.098  1.00  0.00     0.015 A 
ATOM     23  I   UNL     1       6.724  -8.081   2.629  1.00  0.00    -0.043 I 
ATOM     24  C   UNL     1       7.517  -5.334   5.888  1.00  0.00     0.001 A 
ENDBRANCH  15  18
ENDBRANCH  13  14
ENDBRANCH  12  13
ENDBRANCH   5   7
ENDBRANCH   2   3
ENDBRANCH   1   2
BRANCH   1  25
ATOM     25  C   UNL     1       4.505   2.761  -2.592  1.00  0.00     0.023 C 
BRANCH  25  26
ATOM     26  C   UNL     1       4.875   3.937  -1.694  1.00  0.00     0.116 C 
BRANCH  26  27
ATOM     27  N   UNL     1       6.306   4.060  -1.461  1.00  0.00    -0.352 N 
ATOM     28  C   UNL     1       7.115   5.167  -1.555  1.00  0.00     0.251 C 
ATOM     29  H   UNL     1       6.761   3.228  -1.196  1.00  0.00     0.163 HD
ATOM     30  O   UNL     1       8.328   5.059  -1.404  1.00  0.00    -0.269 OA
BRANCH  28  31
ATOM     31  C   UNL     1       6.530   6.483  -1.884  1.00  0.00     0.039 A 
ATOM     32  C   UNL     1       7.123   7.245  -2.895  1.00  0.00     0.014 A 
ATOM     33  C   UNL     1       5.388   6.951  -1.229  1.00  0.00     0.014 A 
ATOM     34  C   UNL     1       6.518   8.431  -3.313  1.00  0.00     0.010 A 
ATOM     35  C   UNL     1       4.748   8.097  -1.692  1.00  0.00     0.010 A 
ATOM     36  C   UNL     1       5.299   8.839  -2.748  1.00  0.00    -0.014 A 
BRANCH  36  37
ATOM     37  C   UNL     1       4.561  10.011  -3.279  1.00  0.00     0.031 A 
ATOM     38  C   UNL     1       4.343  11.225  -2.425  1.00  0.00     0.074 A 
ATOM     39  C   UNL     1       4.007   9.942  -4.505  1.00  0.00     0.049 A 
ATOM     40  N   UNL     1       3.652  12.306  -2.685  1.00  0.00    -0.248 NA
ATOM     41  C   UNL     1       4.958  11.209  -1.090  1.00  0.00     0.031 C 
ATOM     42  C   UNL     1       4.092   8.792  -5.407  1.00  0.00     0.029 A 
ATOM     43  N   UNL     1       3.244  10.850  -5.196  1.00  0.00    -0.354 N 
ATOM     44  C   UNL     1       3.736  13.090  -1.543  1.00  0.00     0.074 A 
ATOM     45  C   UNL     1       4.505  12.341  -0.572  1.00  0.00     0.031 C 
ATOM     46  C   UNL     1       3.418   9.067  -6.534  1.00  0.00     0.029 A 
ATOM     47  C   UNL     1       2.828  10.397  -6.423  1.00  0.00     0.049 A 
ATOM     48  H   UNL     1       3.017  11.741  -4.844  1.00  0.00     0.167 HD
ATOM     49  C   UNL     1       3.233  14.330  -1.332  1.00  0.00     0.037 A 
ATOM     50  C   UNL     1       2.049  10.983  -7.351  1.00  0.00     0.037 A 
ATOM     51  C   UNL     1       2.491  15.084  -2.308  1.00  0.00     0.049 A 
ATOM     52  C   UNL     1       1.513  12.364  -7.100  1.00  0.00     0.074 A 
ATOM     53  C   UNL     1       2.018  16.381  -2.220  1.00  0.00     0.029 A 
ATOM     54  N   UNL     1       2.107  14.601  -3.551  1.00  0.00    -0.354 N 
ATOM     55  N   UNL     1       1.666  13.129  -6.048  1.00  0.00    -0.248 NA
ATOM     56  C   UNL     1       0.700  12.963  -8.167  1.00  0.00     0.031 C 
ATOM     57  C   UNL     1       1.314  16.671  -3.395  1.00  0.00     0.029 A 
ATOM     58  C   UNL     1       1.380  15.567  -4.230  1.00  0.00     0.049 A 
ATOM     59  H   UNL     1       2.320  13.706  -3.899  1.00  0.00     0.167 HD
ATOM     60  C   UNL     1       0.978  14.301  -6.325  1.00  0.00     0.074 A 
ATOM     61  C   UNL     1       0.422  14.155  -7.655  1.00  0.00     0.031 C 
ATOM     62  C   UNL     1       0.820  15.399  -5.546  1.00  0.00     0.037 A 
BRANCH  49  63
ATOM     63  C   UNL     1       3.476  14.948   0.013  1.00  0.00     0.064 A 
ATOM     64  C   UNL     1       4.752  15.386   0.400  1.00  0.00     0.173 A 
ATOM     65  C   UNL     1       2.420  15.117   0.921  1.00  0.00     0.173 A 
ATOM     66  F   UNL     1       5.797  15.235  -0.427  1.00  0.00    -0.203 F 
ATOM     67  C   UNL     1       4.968  15.938   1.660  1.00  0.00     0.198 A 
ATOM     68  C   UNL     1       2.635  15.695   2.169  1.00  0.00     0.198 A 
ATOM     69  F   UNL     1       1.180  14.720   0.598  1.00  0.00    -0.203 F 
ATOM     70  F   UNL     1       6.205  16.299   2.027  1.00  0.00    -0.200 F 
ATOM     71  C   UNL     1       3.909  16.096   2.541  1.00  0.00     0.200 A 
ATOM     72  F   UNL     1       1.609  15.856   3.017  1.00  0.00    -0.200 F 
ATOM     73  F   UNL     1       4.119  16.626   3.754  1.00  0.00    -0.200 F 
ENDBRANCH  49  63
BRANCH  50  74
ATOM     74  C   UNL     1       1.751  10.263  -8.614  1.00  0.00     0.064 A 
ATOM     75  C   UNL     1       2.364  10.638  -9.816  1.00  0.00     0.173 A 
ATOM     76  C   UNL     1       0.876   9.167  -8.637  1.00  0.00     0.173 A 
ATOM     77  F   UNL     1       3.193  11.692  -9.844  1.00  0.00    -0.203 F 
ATOM     78  C   UNL     1       2.110   9.947 -10.998  1.00  0.00     0.198 A 
ATOM     79  C   UNL     1       0.639   8.463  -9.816  1.00  0.00     0.198 A 
ATOM     80  F   UNL     1       0.270   8.768  -7.510  1.00  0.00    -0.203 F 
ATOM     81  F   UNL     1       2.689  10.341 -12.140  1.00  0.00    -0.200 F 
ATOM     82  C   UNL     1       1.253   8.855 -10.995  1.00  0.00     0.200 A 
ATOM     83  F   UNL     1      -0.179   7.402  -9.807  1.00  0.00    -0.200 F 
ATOM     84  F   UNL     1       1.019   8.183 -12.131  1.00  0.00    -0.200 F 
ENDBRANCH  50  74
BRANCH  62  85
ATOM     85  C   UNL     1       0.011  16.527  -6.113  1.00  0.00     0.064 A 
ATOM     86  C   UNL     1      -1.386  16.448  -6.206  1.00  0.00     0.173 A 
ATOM     87  C   UNL     1       0.633  17.712  -6.534  1.00  0.00     0.173 A 
ATOM     88  F   UNL     1      -2.025  15.328  -5.833  1.00  0.00    -0.203 F 
ATOM     89  C   UNL     1      -2.130  17.508  -6.717  1.00  0.00     0.198 A 
ATOM     90  C   UNL     1      -0.116  18.779  -7.022  1.00  0.00     0.198 A 
ATOM     91  F   UNL     1       1.967  17.837  -6.462  1.00  0.00    -0.203 F 
ATOM     92  F   UNL     1      -3.461  17.396  -6.833  1.00  0.00    -0.200 F 
ATOM     93  C   UNL     1      -1.495  18.674  -7.118  1.00  0.00     0.200 A 
ATOM     94  F   UNL     1       0.498  19.908  -7.401  1.00  0.00    -0.200 F 
ATOM     95  F   UNL     1      -2.213  19.695  -7.604  1.00  0.00    -0.200 F 
ENDBRANCH  62  85
ENDBRANCH  36  37
ENDBRANCH  28  31
ENDBRANCH  26  27
ENDBRANCH  25  26
ENDBRANCH   1  25
TORSDOF 14
