REMARK SMILES O=C(NCCCCNC(=O)c1ccccc1/C=C1\SC(=S)N(Cc2ccccc2)C1=O)c1ccc(-c2c3nc(c(-c4c(F)c(F)c(F)c(F)c4F)c4ccc([nH]4)c(-c4c(F)c(F)c(F)c(F)c4F)c4nc(c(-c5c(F)c(F)c(F)c(F)c5F)c5ccc2[nH]5)C=C4)C=C3)cc1
REMARK SMILES IDX 6 1 5 2 4 3 3 4 1 5 2 6 32 8 33 9 94 10 34 11 93 12 35 13
REMARK SMILES IDX 36 14 37 15 87 16 38 17 92 18 86 19 88 20 39 21 91 22 85 23
REMARK SMILES IDX 84 24 40 26 72 27 52 28 71 29 53 30 56 31 70 32 89 33 54 34
REMARK SMILES IDX 55 35 69 37 90 38 57 39 41 40 42 41 50 42 43 43 44 44 48 45
REMARK SMILES IDX 51 46 45 47 46 48 49 49 47 50 73 51 74 52 82 53 75 54 76 55
REMARK SMILES IDX 80 56 83 57 77 58 78 59 81 60 79 61 58 62 59 63 67 64 60 65
REMARK SMILES IDX 61 66 65 67 68 68 62 69 63 70 66 71 64 72 7 73 8 74 9 75
REMARK SMILES IDX 10 77 11 78 12 79 16 80 13 81 15 82 14 83 17 84 18 85 19 86
REMARK SMILES IDX 30 87 20 88 22 89 31 90 21 91 23 92 24 93 25 94 29 95 26 96
REMARK SMILES IDX 28 97 27 98
REMARK H PARENT 3 7 88 25 56 36 8 76
REMARK Flexibility Score: inf
ROOT
ATOM      1  C   UNL     1       4.323   1.480  -3.677  1.00  0.00     0.023 C 
ENDROOT
BRANCH   1   2
ATOM      2  C   UNL     1       4.788   0.455  -2.647  1.00  0.00     0.023 C 
BRANCH   2   3
ATOM      3  C   UNL     1       4.483   0.799  -1.196  1.00  0.00     0.116 C 
BRANCH   3   4
ATOM      4  N   UNL     1       3.059   0.790  -0.888  1.00  0.00    -0.352 N 
ATOM      5  O   UNL     1       1.131   0.034   0.021  1.00  0.00    -0.269 OA
ATOM      6  C   UNL     1       2.357  -0.007  -0.012  1.00  0.00     0.251 C 
ATOM      7  H   UNL     1       2.519   1.450  -1.379  1.00  0.00     0.163 HD
BRANCH   6   8
ATOM      8  C   UNL     1       3.085  -0.940   0.875  1.00  0.00     0.039 A 
ATOM      9  C   UNL     1       4.229  -0.519   1.551  1.00  0.00     0.014 A 
ATOM     10  C   UNL     1       2.632  -2.256   1.019  1.00  0.00     0.014 A 
ATOM     11  C   UNL     1       5.022  -1.452   2.205  1.00  0.00     0.010 A 
ATOM     12  C   UNL     1       3.375  -3.170   1.776  1.00  0.00     0.010 A 
ATOM     13  C   UNL     1       4.599  -2.786   2.341  1.00  0.00    -0.014 A 
BRANCH  13  14
ATOM     14  C   UNL     1       5.443  -3.717   3.136  1.00  0.00     0.031 A 
ATOM     15  C   UNL     1       6.098  -4.919   2.515  1.00  0.00     0.074 A 
ATOM     16  C   UNL     1       5.678  -3.412   4.428  1.00  0.00     0.049 A 
ATOM     17  N   UNL     1       6.933  -5.772   3.058  1.00  0.00    -0.248 NA
ATOM     18  C   UNL     1       5.775  -5.213   1.111  1.00  0.00     0.031 C 
ATOM     19  C   UNL     1       5.075  -2.285   5.146  1.00  0.00     0.029 A 
ATOM     20  N   UNL     1       6.509  -3.986   5.354  1.00  0.00    -0.354 N 
ATOM     21  C   UNL     1       7.226  -6.704   2.070  1.00  0.00     0.074 A 
ATOM     22  C   UNL     1       6.456  -6.333   0.902  1.00  0.00     0.031 C 
ATOM     23  C   UNL     1       5.607  -2.208   6.372  1.00  0.00     0.029 A 
ATOM     24  C   UNL     1       6.536  -3.317   6.553  1.00  0.00     0.049 A 
ATOM     25  H   UNL     1       7.035  -4.800   5.178  1.00  0.00     0.167 HD
ATOM     26  C   UNL     1       8.067  -7.765   2.133  1.00  0.00     0.037 A 
ATOM     27  C   UNL     1       7.225  -3.569   7.681  1.00  0.00     0.037 A 
ATOM     28  C   UNL     1       8.840  -8.124   3.296  1.00  0.00     0.049 A 
ATOM     29  C   UNL     1       8.156  -4.745   7.714  1.00  0.00     0.074 A 
ATOM     30  C   UNL     1       9.726  -9.177   3.455  1.00  0.00     0.029 A 
ATOM     31  N   UNL     1       8.822  -7.437   4.501  1.00  0.00    -0.354 N 
ATOM     32  N   UNL     1       8.433  -5.606   6.766  1.00  0.00    -0.248 NA
ATOM     33  C   UNL     1       8.868  -4.986   8.975  1.00  0.00     0.031 C 
ATOM     34  C   UNL     1      10.216  -9.147   4.765  1.00  0.00     0.029 A 
ATOM     35  C   UNL     1       9.671  -8.050   5.410  1.00  0.00     0.049 A 
ATOM     36  H   UNL     1       8.286  -6.632   4.684  1.00  0.00     0.167 HD
ATOM     37  C   UNL     1       9.349  -6.491   7.313  1.00  0.00     0.074 A 
ATOM     38  C   UNL     1       9.613  -6.037   8.663  1.00  0.00     0.031 C 
ATOM     39  C   UNL     1       9.911  -7.591   6.754  1.00  0.00     0.037 A 
BRANCH  26  40
ATOM     40  C   UNL     1       8.202  -8.627   0.910  1.00  0.00     0.064 A 
ATOM     41  C   UNL     1       8.900  -8.187  -0.224  1.00  0.00     0.173 A 
ATOM     42  C   UNL     1       7.693  -9.935   0.899  1.00  0.00     0.173 A 
ATOM     43  F   UNL     1       9.399  -6.942  -0.269  1.00  0.00    -0.203 F 
ATOM     44  C   UNL     1       9.072  -9.019  -1.328  1.00  0.00     0.198 A 
ATOM     45  C   UNL     1       7.887 -10.772  -0.197  1.00  0.00     0.198 A 
ATOM     46  F   UNL     1       7.023 -10.409   1.961  1.00  0.00    -0.203 F 
ATOM     47  F   UNL     1       9.717  -8.567  -2.413  1.00  0.00    -0.200 F 
ATOM     48  C   UNL     1       8.573 -10.313  -1.310  1.00  0.00     0.200 A 
ATOM     49  F   UNL     1       7.416 -12.027  -0.172  1.00  0.00    -0.200 F 
ATOM     50  F   UNL     1       8.752 -11.117  -2.368  1.00  0.00    -0.200 F 
ENDBRANCH  26  40
BRANCH  27  51
ATOM     51  C   UNL     1       7.044  -2.694   8.867  1.00  0.00     0.064 A 
ATOM     52  C   UNL     1       8.079  -1.870   9.328  1.00  0.00     0.173 A 
ATOM     53  C   UNL     1       5.824  -2.658   9.558  1.00  0.00     0.173 A 
ATOM     54  F   UNL     1       9.270  -1.881   8.711  1.00  0.00    -0.203 F 
ATOM     55  C   UNL     1       7.907  -1.058  10.447  1.00  0.00     0.198 A 
ATOM     56  C   UNL     1       5.641  -1.821  10.655  1.00  0.00     0.198 A 
ATOM     57  F   UNL     1       4.799  -3.422   9.152  1.00  0.00    -0.203 F 
ATOM     58  F   UNL     1       8.927  -0.314  10.896  1.00  0.00    -0.200 F 
ATOM     59  C   UNL     1       6.686  -1.028  11.105  1.00  0.00     0.200 A 
ATOM     60  F   UNL     1       4.454  -1.781  11.274  1.00  0.00    -0.200 F 
ATOM     61  F   UNL     1       6.518  -0.240  12.175  1.00  0.00    -0.200 F 
ENDBRANCH  27  51
BRANCH  39  62
ATOM     62  C   UNL     1      10.865  -8.368   7.611  1.00  0.00     0.064 A 
ATOM     63  C   UNL     1      10.414  -9.134   8.697  1.00  0.00     0.173 A 
ATOM     64  C   UNL     1      12.242  -8.344   7.349  1.00  0.00     0.173 A 
ATOM     65  F   UNL     1       9.107  -9.173   8.998  1.00  0.00    -0.203 F 
ATOM     66  C   UNL     1      11.311  -9.818   9.511  1.00  0.00     0.198 A 
ATOM     67  C   UNL     1      13.134  -9.053   8.149  1.00  0.00     0.198 A 
ATOM     68  F   UNL     1      12.723  -7.631   6.320  1.00  0.00    -0.203 F 
ATOM     69  F   UNL     1      10.863 -10.494  10.579  1.00  0.00    -0.200 F 
ATOM     70  C   UNL     1      12.670  -9.780   9.235  1.00  0.00     0.200 A 
ATOM     71  F   UNL     1      14.446  -9.024   7.875  1.00  0.00    -0.200 F 
ATOM     72  F   UNL     1      13.533 -10.434  10.024  1.00  0.00    -0.200 F 
ENDBRANCH  39  62
ENDBRANCH  13  14
ENDBRANCH   6   8
ENDBRANCH   3   4
ENDBRANCH   2   3
ENDBRANCH   1   2
BRANCH   1  73
ATOM     73  C   UNL     1       4.751   2.917  -3.401  1.00  0.00     0.116 C 
BRANCH  73  74
ATOM     74  N   UNL     1       6.190   3.076  -3.279  1.00  0.00    -0.352 N 
ATOM     75  C   UNL     1       6.993   4.073  -3.778  1.00  0.00     0.251 C 
ATOM     76  H   UNL     1       6.654   2.374  -2.768  1.00  0.00     0.163 HD
ATOM     77  O   UNL     1       8.208   4.023  -3.613  1.00  0.00    -0.269 OA
BRANCH  75  78
ATOM     78  C   UNL     1       6.400   5.185  -4.554  1.00  0.00     0.047 A 
ATOM     79  C   UNL     1       6.785   5.279  -5.898  1.00  0.00     0.014 A 
ATOM     80  C   UNL     1       5.475   6.095  -4.006  1.00  0.00    -0.012 A 
ATOM     81  C   UNL     1       6.202   6.240  -6.720  1.00  0.00     0.001 A 
ATOM     82  C   UNL     1       4.891   7.049  -4.848  1.00  0.00     0.009 A 
ATOM     83  C   UNL     1       5.249   7.116  -6.198  1.00  0.00     0.001 A 
BRANCH  80  84
ATOM     84  C   UNL     1       5.006   5.993  -2.620  1.00  0.00     0.030 C 
ATOM     85  C   UNL     1       5.722   6.184  -1.506  1.00  0.00     0.081 C 
ATOM     86  S   UNL     1       7.279   6.859  -1.312  1.00  0.00    -0.054 SA
ATOM     87  C   UNL     1       5.202   5.706  -0.203  1.00  0.00     0.266 C 
ATOM     88  C   UNL     1       7.224   6.695   0.446  1.00  0.00     0.148 C 
ATOM     89  N   UNL     1       6.051   6.074   0.822  1.00  0.00    -0.288 N 
ATOM     90  O   UNL     1       4.205   5.000  -0.108  1.00  0.00    -0.268 OA
ATOM     91  S   UNL     1       8.468   7.230   1.420  1.00  0.00    -0.052 S 
BRANCH  89  92
ATOM     92  C   UNL     1       5.683   5.716   2.191  1.00  0.00     0.163 C 
BRANCH  92  93
ATOM     93  C   UNL     1       4.656   6.663   2.773  1.00  0.00    -0.028 A 
ATOM     94  C   UNL     1       5.045   7.740   3.580  1.00  0.00     0.005 A 
ATOM     95  C   UNL     1       3.290   6.491   2.494  1.00  0.00     0.005 A 
ATOM     96  C   UNL     1       4.089   8.622   4.091  1.00  0.00     0.000 A 
ATOM     97  C   UNL     1       2.339   7.380   2.992  1.00  0.00     0.000 A 
ATOM     98  C   UNL     1       2.739   8.446   3.792  1.00  0.00     0.000 A 
ENDBRANCH  92  93
ENDBRANCH  89  92
ENDBRANCH  80  84
ENDBRANCH  75  78
ENDBRANCH  73  74
ENDBRANCH   1  73
TORSDOF 14
