REMARK SMILES O=C(COc1ccc(Cl)c2ccccc12)N[C@@H](Cc1c[nH]c2ccccc12)C(=O)NCCCCNC(=O)c1ccc(-c2c3nc(c(-c4c(F)c(F)c(F)c(F)c4F)c4ccc([nH]4)c(-c4c(F)c(F)c(F)c(F)c4F)c4nc(c(-c5c(F)c(F)c(F)c(F)c5F)c5ccc2[nH]5)C=C4)C=C3)cc1
REMARK SMILES IDX 31 1 30 2 28 3 29 4 17 6 16 7 1 8 2 9 3 11 4 12 5 13 6 14
REMARK SMILES IDX 15 15 7 16 10 17 14 18 8 19 11 20 13 21 9 22 12 23 18 24
REMARK SMILES IDX 19 25 20 26 27 27 21 28 22 29 26 30 23 32 25 33 24 34 32 35
REMARK SMILES IDX 33 36 34 37 35 38 36 39 37 41 38 42 39 43 100 44 40 45 99 46
REMARK SMILES IDX 41 47 42 48 43 49 93 50 44 51 98 52 92 53 94 54 45 55 97 56
REMARK SMILES IDX 91 57 90 58 46 60 78 61 58 62 77 63 59 64 62 65 76 66 95 67
REMARK SMILES IDX 60 68 61 69 75 71 96 72 63 73 47 74 48 75 56 76 49 77 50 78
REMARK SMILES IDX 54 79 57 80 51 81 52 82 55 83 53 84 79 85 80 86 88 87 81 88
REMARK SMILES IDX 82 89 86 90 89 91 83 92 84 93 87 94 85 95 64 96 65 97 73 98
REMARK SMILES IDX 66 99 67 100 71 101 74 102 68 103 69 104 72 105 70 106
REMARK H PARENT 30 5 16 10 21 31 35 40 94 59 62 70
REMARK Flexibility Score: inf
ROOT
ATOM      1  C   UNL     1       5.338   1.483   2.497  1.00  0.00     0.116 C 
ENDROOT
BRANCH   1   2
ATOM      2  N   UNL     1       4.058   2.151   2.614  1.00  0.00    -0.354 N 
ATOM      3  C   UNL     1       2.820   1.618   2.856  1.00  0.00     0.242 C 
ATOM      4  O   UNL     1       2.007   2.356   3.424  1.00  0.00    -0.273 OA
ATOM      5  H   UNL     1       4.081   3.129   2.502  1.00  0.00     0.163 HD
BRANCH   3   6
ATOM      6  C   UNL     1       2.447   0.151   2.520  1.00  0.00     0.175 C 
BRANCH   6   7
ATOM      7  N   UNL     1       2.980  -0.260   1.214  1.00  0.00    -0.341 N 
ATOM      8  O   UNL     1       0.962  -0.297   0.117  1.00  0.00    -0.271 OA
ATOM      9  C   UNL     1       2.187  -0.228   0.083  1.00  0.00     0.258 C 
ATOM     10  H   UNL     1       3.914  -0.563   1.145  1.00  0.00     0.164 HD
BRANCH   9  11
ATOM     11  C   UNL     1       2.954  -0.030  -1.228  1.00  0.00     0.329 C 
BRANCH  11  12
ATOM     12  O   UNL     1       3.853   1.085  -1.216  1.00  0.00    -0.483 OA
BRANCH  12  13
ATOM     13  C   UNL     1       3.253   2.285  -1.539  1.00  0.00     0.128 A 
ATOM     14  C   UNL     1       2.259   2.817  -0.715  1.00  0.00     0.048 A 
ATOM     15  C   UNL     1       3.741   3.026  -2.645  1.00  0.00     0.025 A 
ATOM     16  C   UNL     1       1.710   4.064  -0.991  1.00  0.00     0.025 A 
ATOM     17  C   UNL     1       3.186   4.305  -2.928  1.00  0.00     0.004 A 
ATOM     18  C   UNL     1       4.764   2.534  -3.486  1.00  0.00     0.012 A 
ATOM     19  C   UNL     1       2.164   4.801  -2.083  1.00  0.00     0.049 A 
ATOM     20  C   UNL     1       3.685   5.028  -4.039  1.00  0.00     0.010 A 
ATOM     21  C   UNL     1       5.234   3.268  -4.577  1.00  0.00     0.001 A 
ATOM     22  Cl  UNL     1       1.425   6.351  -2.329  1.00  0.00    -0.084 Cl
ATOM     23  C   UNL     1       4.695   4.516  -4.853  1.00  0.00     0.001 A 
ENDBRANCH  12  13
ENDBRANCH  11  12
ENDBRANCH   9  11
ENDBRANCH   6   7
BRANCH   6  24
ATOM     24  C   UNL     1       2.623  -0.844   3.680  1.00  0.00     0.072 C 
BRANCH  24  25
ATOM     25  C   UNL     1       3.992  -0.986   4.274  1.00  0.00    -0.020 A 
ATOM     26  C   UNL     1       4.582  -0.118   5.176  1.00  0.00     0.087 A 
ATOM     27  C   UNL     1       4.906  -2.077   4.108  1.00  0.00     0.003 A 
ATOM     28  N   UNL     1       5.856  -0.553   5.427  1.00  0.00    -0.361 N 
ATOM     29  C   UNL     1       6.081  -1.745   4.784  1.00  0.00     0.046 A 
ATOM     30  C   UNL     1       4.845  -3.322   3.450  1.00  0.00     0.010 A 
ATOM     31  H   UNL     1       6.513  -0.081   5.987  1.00  0.00     0.166 HD
ATOM     32  C   UNL     1       7.222  -2.556   4.773  1.00  0.00     0.026 A 
ATOM     33  C   UNL     1       5.957  -4.172   3.477  1.00  0.00     0.001 A 
ATOM     34  C   UNL     1       7.134  -3.783   4.112  1.00  0.00     0.002 A 
ENDBRANCH  24  25
ENDBRANCH   6  24
ENDBRANCH   3   6
ENDBRANCH   1   2
BRANCH   1  35
ATOM     35  C   UNL     1       6.331   2.192   1.589  1.00  0.00     0.023 C 
BRANCH  35  36
ATOM     36  C   UNL     1       7.028   3.398   2.225  1.00  0.00     0.023 C 
BRANCH  36  37
ATOM     37  C   UNL     1       7.664   3.172   3.598  1.00  0.00     0.116 C 
BRANCH  37  38
ATOM     38  N   UNL     1       8.565   2.031   3.661  1.00  0.00    -0.352 N 
ATOM     39  C   UNL     1       9.780   1.921   4.301  1.00  0.00     0.251 C 
ATOM     40  H   UNL     1       8.265   1.226   3.180  1.00  0.00     0.163 HD
ATOM     41  O   UNL     1      10.439   0.898   4.211  1.00  0.00    -0.269 OA
BRANCH  39  42
ATOM     42  C   UNL     1      10.297   3.067   5.082  1.00  0.00     0.039 A 
ATOM     43  C   UNL     1      11.605   3.502   4.853  1.00  0.00     0.014 A 
ATOM     44  C   UNL     1       9.493   3.715   6.023  1.00  0.00     0.014 A 
ATOM     45  C   UNL     1      12.086   4.628   5.524  1.00  0.00     0.010 A 
ATOM     46  C   UNL     1       9.951   4.877   6.639  1.00  0.00     0.010 A 
ATOM     47  C   UNL     1      11.254   5.342   6.402  1.00  0.00    -0.014 A 
BRANCH  47  48
ATOM     48  C   UNL     1      11.739   6.564   7.092  1.00  0.00     0.031 A 
ATOM     49  C   UNL     1      11.884   6.580   8.588  1.00  0.00     0.074 A 
ATOM     50  C   UNL     1      11.997   7.679   6.381  1.00  0.00     0.049 A 
ATOM     51  N   UNL     1      12.262   7.556   9.375  1.00  0.00    -0.248 NA
ATOM     52  C   UNL     1      11.528   5.341   9.296  1.00  0.00     0.031 C 
ATOM     53  C   UNL     1      11.833   7.816   4.933  1.00  0.00     0.029 A 
ATOM     54  N   UNL     1      12.443   8.913   6.784  1.00  0.00    -0.354 N 
ATOM     55  C   UNL     1      12.179   7.052  10.666  1.00  0.00     0.074 A 
ATOM     56  C   UNL     1      11.653   5.708  10.562  1.00  0.00     0.031 C 
ATOM     57  C   UNL     1      12.193   9.056   4.566  1.00  0.00     0.029 A 
ATOM     58  C   UNL     1      12.592   9.808   5.753  1.00  0.00     0.049 A 
ATOM     59  H   UNL     1      12.638   9.135   7.723  1.00  0.00     0.167 HD
ATOM     60  C   UNL     1      12.537   7.642  11.832  1.00  0.00     0.037 A 
ATOM     61  C   UNL     1      13.009  11.088   5.764  1.00  0.00     0.037 A 
ATOM     62  C   UNL     1      13.077   8.973  11.934  1.00  0.00     0.049 A 
ATOM     63  C   UNL     1      13.433  11.714   7.066  1.00  0.00     0.074 A 
ATOM     64  C   UNL     1      13.505   9.649  13.063  1.00  0.00     0.029 A 
ATOM     65  N   UNL     1      13.263   9.831  10.860  1.00  0.00    -0.354 N 
ATOM     66  N   UNL     1      13.417  11.205   8.273  1.00  0.00    -0.248 NA
ATOM     67  C   UNL     1      13.953  13.087   7.001  1.00  0.00     0.031 C 
ATOM     68  C   UNL     1      13.920  10.929  12.677  1.00  0.00     0.029 A 
ATOM     69  C   UNL     1      13.796  11.033  11.301  1.00  0.00     0.049 A 
ATOM     70  H   UNL     1      13.049   9.618   9.923  1.00  0.00     0.167 HD
ATOM     71  C   UNL     1      13.953  12.178   9.106  1.00  0.00     0.074 A 
ATOM     72  C   UNL     1      14.296  13.304   8.263  1.00  0.00     0.031 C 
ATOM     73  C   UNL     1      14.145  12.140  10.448  1.00  0.00     0.037 A 
BRANCH  60  74
ATOM     74  C   UNL     1      12.361   6.839  13.089  1.00  0.00     0.064 A 
ATOM     75  C   UNL     1      13.154   5.711  13.354  1.00  0.00     0.173 A 
ATOM     76  C   UNL     1      11.395   7.199  14.040  1.00  0.00     0.173 A 
ATOM     77  F   UNL     1      14.082   5.315  12.471  1.00  0.00    -0.203 F 
ATOM     78  C   UNL     1      12.958   4.950  14.504  1.00  0.00     0.198 A 
ATOM     79  C   UNL     1      11.225   6.455  15.205  1.00  0.00     0.198 A 
ATOM     80  F   UNL     1      10.614   8.271  13.840  1.00  0.00    -0.203 F 
ATOM     81  F   UNL     1      13.683   3.841  14.702  1.00  0.00    -0.200 F 
ATOM     82  C   UNL     1      11.997   5.325  15.430  1.00  0.00     0.200 A 
ATOM     83  F   UNL     1      10.303   6.825  16.105  1.00  0.00    -0.200 F 
ATOM     84  F   UNL     1      11.808   4.591  16.535  1.00  0.00    -0.200 F 
ENDBRANCH  60  74
BRANCH  61  85
ATOM     85  C   UNL     1      13.096  11.846   4.490  1.00  0.00     0.064 A 
ATOM     86  C   UNL     1      14.339  12.159   3.922  1.00  0.00     0.173 A 
ATOM     87  C   UNL     1      11.944  12.265   3.810  1.00  0.00     0.173 A 
ATOM     88  F   UNL     1      15.470  11.796   4.545  1.00  0.00    -0.203 F 
ATOM     89  C   UNL     1      14.427  12.879   2.732  1.00  0.00     0.198 A 
ATOM     90  C   UNL     1      12.032  12.962   2.607  1.00  0.00     0.198 A 
ATOM     91  F   UNL     1      10.731  11.983   4.309  1.00  0.00    -0.203 F 
ATOM     92  F   UNL     1      15.628  13.200   2.233  1.00  0.00    -0.200 F 
ATOM     93  C   UNL     1      13.273  13.275   2.073  1.00  0.00     0.200 A 
ATOM     94  F   UNL     1      10.915  13.330   1.965  1.00  0.00    -0.200 F 
ATOM     95  F   UNL     1      13.357  13.961   0.925  1.00  0.00    -0.200 F 
ENDBRANCH  61  85
BRANCH  73  96
ATOM     96  C   UNL     1      14.799  13.334  11.082  1.00  0.00     0.064 A 
ATOM     97  C   UNL     1      14.131  14.559  11.218  1.00  0.00     0.173 A 
ATOM     98  C   UNL     1      16.106  13.239  11.584  1.00  0.00     0.173 A 
ATOM     99  F   UNL     1      12.885  14.706  10.742  1.00  0.00    -0.203 F 
ATOM    100  C   UNL     1      14.759  15.655  11.805  1.00  0.00     0.198 A 
ATOM    101  C   UNL     1      16.720  14.328  12.197  1.00  0.00     0.198 A 
ATOM    102  F   UNL     1      16.787  12.087  11.486  1.00  0.00    -0.203 F 
ATOM    103  F   UNL     1      14.120  16.832  11.876  1.00  0.00    -0.200 F 
ATOM    104  C   UNL     1      16.050  15.537  12.298  1.00  0.00     0.200 A 
ATOM    105  F   UNL     1      17.962  14.208  12.684  1.00  0.00    -0.200 F 
ATOM    106  F   UNL     1      16.651  16.593  12.864  1.00  0.00    -0.200 F 
ENDBRANCH  73  96
ENDBRANCH  47  48
ENDBRANCH  39  42
ENDBRANCH  37  38
ENDBRANCH  36  37
ENDBRANCH  35  36
ENDBRANCH   1  35
TORSDOF 17
