REMARK SMILES O=C(CC1CC1)NCc1ccc(C(=O)NCCCCNC(=O)c2ccc(-c3c4nc(c(-c5c(F)c(F)c(F)c(F)c5F)c5ccc([nH]5)c(-c5c(F)c(F)c(F)c(F)c5F)c5nc(c(-c6c(F)c(F)c(F)c(F)c6F)c6ccc3[nH]6)C=C5)C=C4)cc2)o1
REMARK SMILES IDX 16 1 15 2 13 3 14 4 12 6 9 7 10 8 86 9 11 10 8 11 7 12 1 13
REMARK SMILES IDX 2 14 3 16 4 17 5 18 6 19 17 20 18 21 19 22 20 23 21 24 22 26
REMARK SMILES IDX 23 27 24 28 85 29 25 30 84 31 26 32 27 33 28 34 78 35 29 36
REMARK SMILES IDX 83 37 77 38 79 39 30 40 82 41 76 42 75 43 31 45 63 46 43 47
REMARK SMILES IDX 62 48 44 49 47 50 61 51 80 52 45 53 46 54 60 56 81 57 48 58
REMARK SMILES IDX 32 59 33 60 41 61 34 62 35 63 39 64 42 65 36 66 37 67 40 68
REMARK SMILES IDX 38 69 64 70 65 71 73 72 66 73 67 74 71 75 74 76 68 77 69 78
REMARK SMILES IDX 72 79 70 80 49 81 50 82 58 83 51 84 52 85 56 86 59 87 53 88
REMARK SMILES IDX 54 89 57 90 55 91
REMARK H PARENT 15 5 7 15 20 25 79 44 47 55
REMARK Flexibility Score: inf
ROOT
ATOM      1  C   UNL     1       3.132   7.385  -3.136  1.00  0.00     0.116 C 
ENDROOT
BRANCH   1   2
ATOM      2  N   UNL     1       4.227   6.507  -3.483  1.00  0.00    -0.349 N 
ATOM      3  C   UNL     1       4.366   5.144  -3.356  1.00  0.00     0.286 C 
ATOM      4  O   UNL     1       5.411   4.675  -3.815  1.00  0.00    -0.266 OA
ATOM      5  H   UNL     1       5.006   6.962  -3.877  1.00  0.00     0.163 HD
BRANCH   3   6
ATOM      6  C   UNL     1       3.340   4.323  -2.737  1.00  0.00     0.191 A 
ATOM      7  C   UNL     1       2.392   2.361  -2.332  1.00  0.00     0.124 A 
ATOM      8  C   UNL     1       1.632   3.297  -1.670  1.00  0.00     0.048 A 
ATOM      9  O   UNL     1       3.424   2.970  -2.974  1.00  0.00    -0.454 OA
ATOM     10  C   UNL     1       2.254   4.548  -1.905  1.00  0.00     0.056 A 
BRANCH   7  11
ATOM     11  C   UNL     1       2.317   0.887  -2.441  1.00  0.00     0.191 C 
BRANCH  11  12
ATOM     12  N   UNL     1       2.888   0.320  -1.244  1.00  0.00    -0.349 N 
ATOM     13  O   UNL     1       0.890   0.034  -0.164  1.00  0.00    -0.275 OA
ATOM     14  C   UNL     1       2.112  -0.088  -0.187  1.00  0.00     0.220 C 
ATOM     15  H   UNL     1       3.866   0.221  -1.182  1.00  0.00     0.163 HD
BRANCH  14  16
ATOM     16  C   UNL     1       2.885  -0.646   0.994  1.00  0.00     0.103 C 
BRANCH  16  17
ATOM     17  C   UNL     1       3.949  -1.652   0.640  1.00  0.00    -0.002 C 
ATOM     18  C   UNL     1       3.811  -3.083   1.103  1.00  0.00     0.004 C 
ATOM     19  C   UNL     1       3.692  -2.758  -0.357  1.00  0.00     0.004 C 
ENDBRANCH  16  17
ENDBRANCH  14  16
ENDBRANCH  11  12
ENDBRANCH   7  11
ENDBRANCH   3   6
ENDBRANCH   1   2
BRANCH   1  20
ATOM     20  C   UNL     1       3.368   8.056  -1.783  1.00  0.00     0.023 C 
BRANCH  20  21
ATOM     21  C   UNL     1       4.359   9.225  -1.829  1.00  0.00     0.023 C 
BRANCH  21  22
ATOM     22  C   UNL     1       3.946  10.392  -2.724  1.00  0.00     0.116 C 
BRANCH  22  23
ATOM     23  N   UNL     1       2.656  10.964  -2.373  1.00  0.00    -0.352 N 
ATOM     24  C   UNL     1       2.235  12.268  -2.499  1.00  0.00     0.251 C 
ATOM     25  H   UNL     1       1.997  10.336  -1.997  1.00  0.00     0.163 HD
ATOM     26  O   UNL     1       1.144  12.615  -2.069  1.00  0.00    -0.269 OA
BRANCH  24  27
ATOM     27  C   UNL     1       3.137  13.258  -3.123  1.00  0.00     0.039 A 
ATOM     28  C   UNL     1       3.390  14.456  -2.451  1.00  0.00     0.014 A 
ATOM     29  C   UNL     1       3.752  12.989  -4.348  1.00  0.00     0.014 A 
ATOM     30  C   UNL     1       4.318  15.358  -2.974  1.00  0.00     0.010 A 
ATOM     31  C   UNL     1       4.722  13.858  -4.836  1.00  0.00     0.010 A 
ATOM     32  C   UNL     1       5.017  15.048  -4.152  1.00  0.00    -0.014 A 
BRANCH  32  33
ATOM     33  C   UNL     1       6.061  15.952  -4.695  1.00  0.00     0.031 A 
ATOM     34  C   UNL     1       5.856  16.611  -6.029  1.00  0.00     0.074 A 
ATOM     35  C   UNL     1       7.222  16.109  -4.031  1.00  0.00     0.049 A 
ATOM     36  N   UNL     1       6.691  17.330  -6.736  1.00  0.00    -0.248 NA
ATOM     37  C   UNL     1       4.546  16.409  -6.668  1.00  0.00     0.031 C 
ATOM     38  C   UNL     1       7.554  15.491  -2.747  1.00  0.00     0.029 A 
ATOM     39  N   UNL     1       8.348  16.825  -4.356  1.00  0.00    -0.354 N 
ATOM     40  C   UNL     1       6.018  17.644  -7.908  1.00  0.00     0.074 A 
ATOM     41  C   UNL     1       4.723  17.002  -7.840  1.00  0.00     0.031 C 
ATOM     42  C   UNL     1       8.794  15.862  -2.388  1.00  0.00     0.029 A 
ATOM     43  C   UNL     1       9.357  16.712  -3.432  1.00  0.00     0.049 A 
ATOM     44  H   UNL     1       8.424  17.367  -5.175  1.00  0.00     0.167 HD
ATOM     45  C   UNL     1       6.435  18.415  -8.940  1.00  0.00     0.037 A 
ATOM     46  C   UNL     1      10.601  17.229  -3.435  1.00  0.00     0.037 A 
ATOM     47  C   UNL     1       7.710  19.080  -8.988  1.00  0.00     0.049 A 
ATOM     48  C   UNL     1      11.038  18.088  -4.591  1.00  0.00     0.074 A 
ATOM     49  C   UNL     1       8.205  19.928  -9.963  1.00  0.00     0.029 A 
ATOM     50  N   UNL     1       8.691  18.974  -8.014  1.00  0.00    -0.354 N 
ATOM     51  N   UNL     1      10.373  18.423  -5.670  1.00  0.00    -0.248 NA
ATOM     52  C   UNL     1      12.397  18.645  -4.528  1.00  0.00     0.031 C 
ATOM     53  C   UNL     1       9.500  20.308  -9.596  1.00  0.00     0.029 A 
ATOM     54  C   UNL     1       9.794  19.733  -8.370  1.00  0.00     0.049 A 
ATOM     55  H   UNL     1       8.615  18.440  -7.190  1.00  0.00     0.167 HD
ATOM     56  C   UNL     1      11.215  19.256  -6.394  1.00  0.00     0.074 A 
ATOM     57  C   UNL     1      12.439  19.380  -5.630  1.00  0.00     0.031 C 
ATOM     58  C   UNL     1      10.994  19.863  -7.585  1.00  0.00     0.037 A 
BRANCH  45  59
ATOM     59  C   UNL     1       5.499  18.587 -10.100  1.00  0.00     0.064 A 
ATOM     60  C   UNL     1       4.326  19.348  -9.991  1.00  0.00     0.173 A 
ATOM     61  C   UNL     1       5.796  18.014 -11.346  1.00  0.00     0.173 A 
ATOM     62  F   UNL     1       3.990  19.906  -8.818  1.00  0.00    -0.203 F 
ATOM     63  C   UNL     1       3.470  19.506 -11.077  1.00  0.00     0.198 A 
ATOM     64  C   UNL     1       4.953  18.198 -12.438  1.00  0.00     0.198 A 
ATOM     65  F   UNL     1       6.909  17.281 -11.506  1.00  0.00    -0.203 F 
ATOM     66  F   UNL     1       2.330  20.197 -10.935  1.00  0.00    -0.200 F 
ATOM     67  C   UNL     1       3.788  18.937 -12.301  1.00  0.00     0.200 A 
ATOM     68  F   UNL     1       5.267  17.658 -13.624  1.00  0.00    -0.200 F 
ATOM     69  F   UNL     1       2.966  19.095 -13.348  1.00  0.00    -0.200 F 
ENDBRANCH  45  59
BRANCH  46  70
ATOM     70  C   UNL     1      11.517  16.968  -2.294  1.00  0.00     0.064 A 
ATOM     71  C   UNL     1      11.862  17.994  -1.403  1.00  0.00     0.173 A 
ATOM     72  C   UNL     1      12.072  15.700  -2.075  1.00  0.00     0.173 A 
ATOM     73  F   UNL     1      11.372  19.230  -1.584  1.00  0.00    -0.203 F 
ATOM     74  C   UNL     1      12.743  17.767  -0.349  1.00  0.00     0.198 A 
ATOM     75  C   UNL     1      12.933  15.466  -1.004  1.00  0.00     0.198 A 
ATOM     76  F   UNL     1      11.770  14.683  -2.896  1.00  0.00    -0.203 F 
ATOM     77  F   UNL     1      13.091  18.776   0.460  1.00  0.00    -0.200 F 
ATOM     78  C   UNL     1      13.275  16.502  -0.147  1.00  0.00     0.200 A 
ATOM     79  F   UNL     1      13.434  14.240  -0.805  1.00  0.00    -0.200 F 
ATOM     80  F   UNL     1      14.122  16.283   0.867  1.00  0.00    -0.200 F 
ENDBRANCH  46  70
BRANCH  58  81
ATOM     81  C   UNL     1      12.073  20.761  -8.114  1.00  0.00     0.064 A 
ATOM     82  C   UNL     1      13.260  20.247  -8.654  1.00  0.00     0.173 A 
ATOM     83  C   UNL     1      11.887  22.152  -8.131  1.00  0.00     0.173 A 
ATOM     84  F   UNL     1      13.488  18.925  -8.646  1.00  0.00    -0.203 F 
ATOM     85  C   UNL     1      14.231  21.096  -9.178  1.00  0.00     0.198 A 
ATOM     86  C   UNL     1      12.849  22.995  -8.680  1.00  0.00     0.198 A 
ATOM     87  F   UNL     1      10.765  22.691  -7.631  1.00  0.00    -0.203 F 
ATOM     88  F   UNL     1      15.375  20.587  -9.656  1.00  0.00    -0.200 F 
ATOM     89  C   UNL     1      14.021  22.467  -9.199  1.00  0.00     0.200 A 
ATOM     90  F   UNL     1      12.639  24.318  -8.710  1.00  0.00    -0.200 F 
ATOM     91  F   UNL     1      14.953  23.281  -9.714  1.00  0.00    -0.200 F 
ENDBRANCH  58  81
ENDBRANCH  32  33
ENDBRANCH  24  27
ENDBRANCH  22  23
ENDBRANCH  21  22
ENDBRANCH  20  21
ENDBRANCH   1  20
TORSDOF 15
