REMARK SMILES C[C@@H](C(=O)NCCCCNC(=O)c1ccc(-c2c3nc(c(-c4c(F)c(F)c(F)c(F)c4F)c4ccc([nH]4)c(-c4c(F)c(F)c(F)c(F)c4F)c4nc(c(-c5c(F)c(F)c(F)c(F)c5F)c5ccc2[nH]5)C=C4)C=C3)cc1)N1C(=O)/C(=C/c2nc3ccccc3[nH]2)SC1=S
REMARK SMILES IDX 7 1 6 2 5 3 3 4 4 5 2 7 1 8 76 9 77 10 91 11 78 12 79 13
REMARK SMILES IDX 90 14 92 15 80 16 81 17 82 18 89 19 83 20 88 21 84 23 87 24
REMARK SMILES IDX 85 25 86 26 8 27 9 28 10 29 11 30 12 32 13 33 14 34 75 35
REMARK SMILES IDX 15 36 74 37 16 38 17 39 18 40 68 41 19 42 73 43 67 44 69 45
REMARK SMILES IDX 20 46 72 47 66 48 65 49 21 51 53 52 33 53 52 54 34 55 37 56
REMARK SMILES IDX 51 57 70 58 35 59 36 60 50 62 71 63 38 64 22 65 23 66 31 67
REMARK SMILES IDX 24 68 25 69 29 70 32 71 26 72 27 73 30 74 28 75 54 76 55 77
REMARK SMILES IDX 63 78 56 79 57 80 61 81 64 82 58 83 59 84 62 85 60 86 39 87
REMARK SMILES IDX 40 88 48 89 41 90 42 91 46 92 49 93 43 94 44 95 47 96 45 97
REMARK H PARENT 5 6 89 22 10 31 69 50 37 61
REMARK Flexibility Score: inf
ROOT
ATOM      1  C   UNL     1       4.179  -1.195   0.121  1.00  0.00     0.023 C 
ENDROOT
BRANCH   1   2
ATOM      2  C   UNL     1       3.193  -1.732  -0.923  1.00  0.00     0.116 C 
BRANCH   2   3
ATOM      3  N   UNL     1       2.132  -2.518  -0.310  1.00  0.00    -0.354 N 
ATOM      4  C   UNL     1       0.836  -2.162  -0.021  1.00  0.00     0.242 C 
ATOM      5  O   UNL     1       0.208  -2.865   0.773  1.00  0.00    -0.273 OA
ATOM      6  H   UNL     1       2.378  -3.440  -0.068  1.00  0.00     0.163 HD
BRANCH   4   7
ATOM      7  C   UNL     1       0.280  -0.832  -0.585  1.00  0.00     0.178 C 
ATOM      8  C   UNL     1       0.760   0.220   0.437  1.00  0.00     0.042 C 
BRANCH   7   9
ATOM      9  N   UNL     1      -1.192  -0.772  -0.759  1.00  0.00    -0.281 N 
ATOM     10  C   UNL     1      -1.923  -1.912  -1.079  1.00  0.00     0.267 C 
ATOM     11  C   UNL     1      -1.886   0.396  -1.016  1.00  0.00     0.149 C 
ATOM     12  O   UNL     1      -1.477  -2.993  -1.436  1.00  0.00    -0.268 OA
ATOM     13  C   UNL     1      -3.382  -1.603  -1.107  1.00  0.00     0.084 C 
ATOM     14  S   UNL     1      -3.600   0.093  -0.902  1.00  0.00    -0.054 SA
ATOM     15  S   UNL     1      -1.324   1.907  -1.451  1.00  0.00    -0.052 S 
ATOM     16  C   UNL     1      -4.343  -2.522  -1.295  1.00  0.00     0.068 C 
BRANCH  16  17
ATOM     17  C   UNL     1      -5.690  -2.115  -1.470  1.00  0.00     0.132 A 
ATOM     18  N   UNL     1      -6.164  -1.142  -2.220  1.00  0.00    -0.229 NA
ATOM     19  N   UNL     1      -6.697  -2.689  -0.730  1.00  0.00    -0.338 N 
ATOM     20  C   UNL     1      -7.462  -0.968  -1.833  1.00  0.00     0.089 A 
ATOM     21  C   UNL     1      -7.832  -1.929  -0.900  1.00  0.00     0.066 A 
ATOM     22  H   UNL     1      -6.620  -3.500  -0.177  1.00  0.00     0.168 HD
ATOM     23  C   UNL     1      -8.374   0.022  -2.218  1.00  0.00     0.030 A 
ATOM     24  C   UNL     1      -9.104  -1.970  -0.323  1.00  0.00     0.028 A 
ATOM     25  C   UNL     1      -9.647   0.017  -1.639  1.00  0.00     0.002 A 
ATOM     26  C   UNL     1     -10.003  -0.966  -0.712  1.00  0.00     0.002 A 
ENDBRANCH  16  17
ENDBRANCH   7   9
ENDBRANCH   4   7
ENDBRANCH   2   3
ENDBRANCH   1   2
BRANCH   1  27
ATOM     27  C   UNL     1       5.016  -2.263   0.828  1.00  0.00     0.023 C 
BRANCH  27  28
ATOM     28  C   UNL     1       5.984  -3.021  -0.073  1.00  0.00     0.116 C 
BRANCH  28  29
ATOM     29  N   UNL     1       6.966  -2.152  -0.701  1.00  0.00    -0.352 N 
ATOM     30  C   UNL     1       8.316  -2.332  -0.866  1.00  0.00     0.251 C 
ATOM     31  H   UNL     1       6.609  -1.309  -1.062  1.00  0.00     0.163 HD
ATOM     32  O   UNL     1       9.003  -1.418  -1.313  1.00  0.00    -0.269 OA
BRANCH  30  33
ATOM     33  C   UNL     1       8.955  -3.608  -0.478  1.00  0.00     0.039 A 
ATOM     34  C   UNL     1      10.174  -3.562   0.205  1.00  0.00     0.014 A 
ATOM     35  C   UNL     1       8.372  -4.840  -0.787  1.00  0.00     0.014 A 
ATOM     36  C   UNL     1      10.774  -4.746   0.635  1.00  0.00     0.010 A 
ATOM     37  C   UNL     1       8.938  -6.018  -0.302  1.00  0.00     0.010 A 
ATOM     38  C   UNL     1      10.143  -5.981   0.415  1.00  0.00    -0.014 A 
BRANCH  38  39
ATOM     39  C   UNL     1      10.727  -7.238   0.942  1.00  0.00     0.031 A 
ATOM     40  C   UNL     1      11.241  -8.291   0.002  1.00  0.00     0.074 A 
ATOM     41  C   UNL     1      10.744  -7.451   2.272  1.00  0.00     0.049 A 
ATOM     42  N   UNL     1      11.745  -9.468   0.276  1.00  0.00    -0.248 NA
ATOM     43  C   UNL     1      11.157  -7.993  -1.436  1.00  0.00     0.031 C 
ATOM     44  C   UNL     1      10.222  -6.530   3.283  1.00  0.00     0.029 A 
ATOM     45  N   UNL     1      11.211  -8.515   3.002  1.00  0.00    -0.354 N 
ATOM     46  C   UNL     1      12.029 -10.052  -0.951  1.00  0.00     0.074 A 
ATOM     47  C   UNL     1      11.598  -9.122  -1.973  1.00  0.00     0.031 C 
ATOM     48  C   UNL     1      10.415  -7.059   4.502  1.00  0.00     0.029 A 
ATOM     49  C   UNL     1      11.050  -8.366   4.357  1.00  0.00     0.049 A 
ATOM     50  H   UNL     1      11.622  -9.311   2.592  1.00  0.00     0.167 HD
ATOM     51  C   UNL     1      12.616 -11.246  -1.202  1.00  0.00     0.037 A 
ATOM     52  C   UNL     1      11.378  -9.191   5.369  1.00  0.00     0.037 A 
ATOM     53  C   UNL     1      13.068 -12.160  -0.186  1.00  0.00     0.049 A 
ATOM     54  C   UNL     1      12.051 -10.499   5.061  1.00  0.00     0.074 A 
ATOM     55  C   UNL     1      13.719 -13.372  -0.341  1.00  0.00     0.029 A 
ATOM     56  N   UNL     1      12.920 -11.958   1.177  1.00  0.00    -0.354 N 
ATOM     57  N   UNL     1      12.369 -11.013   3.898  1.00  0.00    -0.248 NA
ATOM     58  C   UNL     1      12.421 -11.339   6.210  1.00  0.00     0.031 C 
ATOM     59  C   UNL     1      13.939 -13.916   0.929  1.00  0.00     0.029 A 
ATOM     60  C   UNL     1      13.458 -13.027   1.875  1.00  0.00     0.049 A 
ATOM     61  H   UNL     1      12.495 -11.171   1.589  1.00  0.00     0.167 HD
ATOM     62  C   UNL     1      12.992 -12.222   4.173  1.00  0.00     0.074 A 
ATOM     63  C   UNL     1      13.026 -12.357   5.614  1.00  0.00     0.031 C 
ATOM     64  C   UNL     1      13.486 -13.141   3.309  1.00  0.00     0.037 A 
BRANCH  51  65
ATOM     65  C   UNL     1      12.822 -11.629  -2.637  1.00  0.00     0.064 A 
ATOM     66  C   UNL     1      13.802 -11.007  -3.424  1.00  0.00     0.173 A 
ATOM     67  C   UNL     1      12.068 -12.660  -3.217  1.00  0.00     0.173 A 
ATOM     68  F   UNL     1      14.540 -10.007  -2.918  1.00  0.00    -0.203 F 
ATOM     69  C   UNL     1      14.009 -11.391  -4.746  1.00  0.00     0.198 A 
ATOM     70  C   UNL     1      12.294 -13.058  -4.532  1.00  0.00     0.198 A 
ATOM     71  F   UNL     1      11.120 -13.288  -2.506  1.00  0.00    -0.203 F 
ATOM     72  F   UNL     1      14.927 -10.759  -5.491  1.00  0.00    -0.200 F 
ATOM     73  C   UNL     1      13.260 -12.421  -5.297  1.00  0.00     0.200 A 
ATOM     74  F   UNL     1      11.576 -14.059  -5.061  1.00  0.00    -0.200 F 
ATOM     75  F   UNL     1      13.467 -12.796  -6.567  1.00  0.00    -0.200 F 
ENDBRANCH  51  65
BRANCH  52  76
ATOM     76  C   UNL     1      11.101  -8.792   6.772  1.00  0.00     0.064 A 
ATOM     77  C   UNL     1      12.146  -8.444   7.639  1.00  0.00     0.173 A 
ATOM     78  C   UNL     1       9.794  -8.765   7.277  1.00  0.00     0.173 A 
ATOM     79  F   UNL     1      13.414  -8.477   7.205  1.00  0.00    -0.203 F 
ATOM     80  C   UNL     1      11.896  -8.106   8.967  1.00  0.00     0.198 A 
ATOM     81  C   UNL     1       9.543  -8.402   8.599  1.00  0.00     0.198 A 
ATOM     82  F   UNL     1       8.761  -9.085   6.485  1.00  0.00    -0.203 F 
ATOM     83  F   UNL     1      12.916  -7.823   9.788  1.00  0.00    -0.200 F 
ATOM     84  C   UNL     1      10.594  -8.082   9.445  1.00  0.00     0.200 A 
ATOM     85  F   UNL     1       8.283  -8.369   9.054  1.00  0.00    -0.200 F 
ATOM     86  F   UNL     1      10.354  -7.758  10.723  1.00  0.00    -0.200 F 
ENDBRANCH  52  76
BRANCH  64  87
ATOM     87  C   UNL     1      14.125 -14.360   3.905  1.00  0.00     0.064 A 
ATOM     88  C   UNL     1      13.356 -15.374   4.494  1.00  0.00     0.173 A 
ATOM     89  C   UNL     1      15.517 -14.524   3.867  1.00  0.00     0.173 A 
ATOM     90  F   UNL     1      12.022 -15.253   4.569  1.00  0.00    -0.203 F 
ATOM     91  C   UNL     1      13.962 -16.498   5.048  1.00  0.00     0.198 A 
ATOM     92  C   UNL     1      16.117 -15.661   4.400  1.00  0.00     0.198 A 
ATOM     93  F   UNL     1      16.294 -13.584   3.309  1.00  0.00    -0.203 F 
ATOM     94  F   UNL     1      13.212 -17.433   5.649  1.00  0.00    -0.200 F 
ATOM     95  C   UNL     1      15.340 -16.643   4.997  1.00  0.00     0.200 A 
ATOM     96  F   UNL     1      17.448 -15.804   4.342  1.00  0.00    -0.200 F 
ATOM     97  F   UNL     1      15.922 -17.726   5.531  1.00  0.00    -0.200 F 
ENDBRANCH  64  87
ENDBRANCH  38  39
ENDBRANCH  30  33
ENDBRANCH  28  29
ENDBRANCH  27  28
ENDBRANCH   1  27
TORSDOF 13
