REMARK SMILES O=C(NCCCCNC(=O)c1ccc(-c2c3nc(c(-c4c(F)c(F)c(F)c(F)c4F)c4ccc([nH]4)c(-c4c(F)c(F)c(F)c(F)c4F)c4nc(c(-c5c(F)c(F)c(F)c(F)c5F)c5ccc2[nH]5)C=C4)C=C3)cc1)C1=Cc2cc(S(F)(F)(F)(F)F)ccc2O[C@H]1C(F)(F)F
REMARK SMILES IDX 6 1 5 2 4 3 3 4 1 5 2 6 74 8 75 9 89 10 76 11 88 12 77 13
REMARK SMILES IDX 87 14 78 15 86 16 85 17 90 18 91 19 92 20 93 21 79 22 80 23
REMARK SMILES IDX 81 24 82 25 83 26 84 27 7 28 8 29 9 30 10 32 11 33 12 34
REMARK SMILES IDX 73 35 13 36 72 37 14 38 15 39 16 40 66 41 17 42 71 43 65 44
REMARK SMILES IDX 67 45 18 46 70 47 64 48 63 49 19 51 51 52 31 53 50 54 32 55
REMARK SMILES IDX 35 56 49 57 68 58 33 59 34 60 48 62 69 63 36 64 20 65 21 66
REMARK SMILES IDX 29 67 22 68 23 69 27 70 30 71 24 72 25 73 28 74 26 75 52 76
REMARK SMILES IDX 53 77 61 78 54 79 55 80 59 81 62 82 56 83 57 84 60 85 58 86
REMARK SMILES IDX 37 87 38 88 46 89 39 90 40 91 44 92 47 93 41 94 42 95 45 96
REMARK SMILES IDX 43 97
REMARK H PARENT 3 7 8 31 67 50 35 61
REMARK Flexibility Score: inf
ROOT
ATOM      1  C   UNL     1       4.457  -3.044   1.814  1.00  0.00     0.023 C 
ENDROOT
BRANCH   1   2
ATOM      2  C   UNL     1       4.964  -1.635   1.549  1.00  0.00     0.023 C 
BRANCH   2   3
ATOM      3  C   UNL     1       4.457  -1.161   0.197  1.00  0.00     0.116 C 
BRANCH   3   4
ATOM      4  N   UNL     1       2.987  -1.161   0.197  1.00  0.00    -0.352 N 
ATOM      5  O   UNL     1       0.981   0.090  -0.039  1.00  0.00    -0.270 OA
ATOM      6  C   UNL     1       2.252   0.090  -0.039  1.00  0.00     0.251 C 
ATOM      7  H   UNL     1       2.495  -1.999   0.354  1.00  0.00     0.163 HD
BRANCH   6   8
ATOM      8  C   UNL     1       3.012   1.384  -0.283  1.00  0.00     0.067 C 
ATOM      9  C   UNL     1       4.372   1.384  -0.283  1.00  0.00     0.025 C 
ATOM     10  C   UNL     1       2.252   2.677  -0.526  1.00  0.00     0.314 C 
ATOM     11  C   UNL     1       5.133   0.090  -0.039  1.00  0.00     0.019 A 
ATOM     12  O   UNL     1       3.554  -1.041  -1.409  1.00  0.00    -0.475 OA
ATOM     13  C   UNL     1       6.215   0.103   0.826  1.00  0.00     0.036 A 
ATOM     14  C   UNL     1       4.759  -1.024  -0.657  1.00  0.00     0.128 A 
ATOM     15  C   UNL     1       7.023  -1.056   0.750  1.00  0.00     0.107 A 
ATOM     16  C   UNL     1       5.527  -2.160  -0.577  1.00  0.00     0.048 A 
ATOM     17  C   UNL     1       6.643  -2.200   0.212  1.00  0.00     0.028 A 
BRANCH  10  18
ATOM     18  C   UNL     1       0.758   2.404  -0.475  1.00  0.00     0.429 C 
ATOM     19  F   UNL     1       0.242   3.038  -1.524  1.00  0.00    -0.167 F 
ATOM     20  F   UNL     1       0.421   1.119  -0.524  1.00  0.00    -0.167 F 
ATOM     21  F   UNL     1       0.285   2.944   0.645  1.00  0.00    -0.167 F 
ENDBRANCH  10  18
BRANCH  15  22
ATOM     22  S   UNL     1       8.694  -0.963   1.440  1.00  0.00     0.310 S 
ATOM     23  F   UNL     1       8.147  -0.978   2.928  1.00  0.00    -0.094 F 
ATOM     24  F   UNL     1       8.560   0.607   1.479  1.00  0.00    -0.094 F 
ATOM     25  F   UNL     1      10.129  -0.883   2.032  1.00  0.00    -0.094 F 
ATOM     26  F   UNL     1       8.756  -2.539   1.523  1.00  0.00    -0.094 F 
ATOM     27  F   UNL     1       7.196  -1.062   0.944  1.00  0.00    -0.094 F 
ENDBRANCH  15  22
ENDBRANCH   6   8
ENDBRANCH   3   4
ENDBRANCH   2   3
ENDBRANCH   1   2
BRANCH   1  28
ATOM     28  C   UNL     1       4.964  -3.978   0.727  1.00  0.00     0.116 C 
BRANCH  28  29
ATOM     29  N   UNL     1       6.434  -3.978   0.727  1.00  0.00    -0.352 N 
ATOM     30  C   UNL     1       7.169  -5.229   0.963  1.00  0.00     0.251 C 
ATOM     31  H   UNL     1       6.926  -3.140   0.570  1.00  0.00     0.163 HD
ATOM     32  O   UNL     1       8.440  -5.229   0.963  1.00  0.00    -0.269 OA
BRANCH  30  33
ATOM     33  C   UNL     1       6.409  -6.522   1.207  1.00  0.00     0.039 A 
ATOM     34  C   UNL     1       6.803  -7.373   2.226  1.00  0.00     0.014 A 
ATOM     35  C   UNL     1       5.376  -6.815   0.425  1.00  0.00     0.014 A 
ATOM     36  C   UNL     1       6.218  -8.660   2.157  1.00  0.00     0.010 A 
ATOM     37  C   UNL     1       4.765  -8.043   0.505  1.00  0.00     0.010 A 
ATOM     38  C   UNL     1       5.143  -8.957   1.450  1.00  0.00    -0.014 A 
BRANCH  38  39
ATOM     39  C   UNL     1       4.367 -10.244   1.674  1.00  0.00     0.031 A 
ATOM     40  C   UNL     1       4.260 -11.119   0.591  1.00  0.00     0.074 A 
ATOM     41  C   UNL     1       3.819 -10.487   2.922  1.00  0.00     0.049 A 
ATOM     42  N   UNL     1       3.668 -12.314   0.566  1.00  0.00    -0.248 NA
ATOM     43  C   UNL     1       4.811 -10.848  -0.745  1.00  0.00     0.031 C 
ATOM     44  C   UNL     1       3.930  -9.614   4.022  1.00  0.00     0.029 A 
ATOM     45  N   UNL     1       3.087 -11.582   3.325  1.00  0.00    -0.354 N 
ATOM     46  C   UNL     1       3.788 -12.862  -0.645  1.00  0.00     0.074 A 
ATOM     47  C   UNL     1       4.519 -11.925  -1.507  1.00  0.00     0.031 C 
ATOM     48  C   UNL     1       3.265 -10.168   5.069  1.00  0.00     0.029 A 
ATOM     49  C   UNL     1       2.728 -11.398   4.642  1.00  0.00     0.049 A 
ATOM     50  H   UNL     1       2.860 -12.361   2.768  1.00  0.00     0.167 HD
ATOM     51  C   UNL     1       3.317 -14.108  -1.063  1.00  0.00     0.037 A 
ATOM     52  C   UNL     1       1.973 -12.241   5.442  1.00  0.00     0.037 A 
ATOM     53  C   UNL     1       2.599 -14.971  -0.250  1.00  0.00     0.049 A 
ATOM     54  C   UNL     1       1.452 -13.462   5.006  1.00  0.00     0.074 A 
ATOM     55  C   UNL     1       2.124 -16.233  -0.654  1.00  0.00     0.029 A 
ATOM     56  N   UNL     1       2.219 -14.776   1.059  1.00  0.00    -0.354 N 
ATOM     57  N   UNL     1       1.606 -14.027   3.808  1.00  0.00    -0.248 NA
ATOM     58  C   UNL     1       0.624 -14.348   5.834  1.00  0.00     0.031 C 
ATOM     59  C   UNL     1       1.459 -16.788   0.394  1.00  0.00     0.029 A 
ATOM     60  C   UNL     1       1.506 -15.880   1.469  1.00  0.00     0.049 A 
ATOM     61  H   UNL     1       2.421 -13.983   1.607  1.00  0.00     0.167 HD
ATOM     62  C   UNL     1       0.977 -15.204   3.771  1.00  0.00     0.074 A 
ATOM     63  C   UNL     1       0.331 -15.424   5.071  1.00  0.00     0.031 C 
ATOM     64  C   UNL     1       0.920 -16.105   2.706  1.00  0.00     0.037 A 
BRANCH  51  65
ATOM     65  C   UNL     1       3.608 -14.543  -2.490  1.00  0.00     0.064 A 
ATOM     66  C   UNL     1       4.932 -14.749  -2.843  1.00  0.00     0.173 A 
ATOM     67  C   UNL     1       2.620 -14.809  -3.337  1.00  0.00     0.173 A 
ATOM     68  F   UNL     1       5.927 -14.741  -1.962  1.00  0.00    -0.203 F 
ATOM     69  C   UNL     1       5.128 -14.969  -4.227  1.00  0.00     0.198 A 
ATOM     70  C   UNL     1       2.889 -15.150  -4.640  1.00  0.00     0.198 A 
ATOM     71  F   UNL     1       1.359 -14.743  -2.919  1.00  0.00    -0.203 F 
ATOM     72  F   UNL     1       6.359 -14.819  -4.709  1.00  0.00    -0.200 F 
ATOM     73  C   UNL     1       4.175 -15.314  -5.074  1.00  0.00     0.200 A 
ATOM     74  F   UNL     1       1.883 -15.324  -5.492  1.00  0.00    -0.200 F 
ATOM     75  F   UNL     1       4.451 -15.795  -6.282  1.00  0.00    -0.200 F 
ENDBRANCH  51  65
BRANCH  52  76
ATOM     76  C   UNL     1       1.696 -11.813   6.874  1.00  0.00     0.064 A 
ATOM     77  C   UNL     1       2.036 -12.662   7.915  1.00  0.00     0.173 A 
ATOM     78  C   UNL     1       1.042 -10.679   7.095  1.00  0.00     0.173 A 
ATOM     79  F   UNL     1       2.898 -13.666   7.781  1.00  0.00    -0.203 F 
ATOM     80  C   UNL     1       1.383 -12.363   9.134  1.00  0.00     0.198 A 
ATOM     81  C   UNL     1       0.548 -10.389   8.344  1.00  0.00     0.198 A 
ATOM     82  F   UNL     1       0.863  -9.817   6.099  1.00  0.00    -0.203 F 
ATOM     83  F   UNL     1       1.359 -13.307  10.070  1.00  0.00    -0.200 F 
ATOM     84  C   UNL     1       0.796 -11.212   9.407  1.00  0.00     0.200 A 
ATOM     85  F   UNL     1      -0.180  -9.290   8.521  1.00  0.00    -0.200 F 
ATOM     86  F   UNL     1       0.463 -10.873  10.649  1.00  0.00    -0.200 F 
ENDBRANCH  52  76
BRANCH  64  87
ATOM     87  C   UNL     1       0.171 -17.410   2.914  1.00  0.00     0.064 A 
ATOM     88  C   UNL     1      -1.175 -17.384   3.242  1.00  0.00     0.173 A 
ATOM     89  C   UNL     1       0.825 -18.558   2.782  1.00  0.00     0.173 A 
ATOM     90  F   UNL     1      -1.925 -16.290   3.139  1.00  0.00    -0.203 F 
ATOM     91  C   UNL     1      -1.679 -18.625   3.696  1.00  0.00     0.198 A 
ATOM     92  C   UNL     1       0.224 -19.748   3.115  1.00  0.00     0.198 A 
ATOM     93  F   UNL     1       2.073 -18.556   2.321  1.00  0.00    -0.203 F 
ATOM     94  F   UNL     1      -2.830 -18.619   4.361  1.00  0.00    -0.200 F 
ATOM     95  C   UNL     1      -1.086 -19.790   3.504  1.00  0.00     0.200 A 
ATOM     96  F   UNL     1       0.927 -20.875   3.060  1.00  0.00    -0.200 F 
ATOM     97  F   UNL     1      -1.729 -20.941   3.680  1.00  0.00    -0.200 F 
ENDBRANCH  64  87
ENDBRANCH  38  39
ENDBRANCH  30  33
ENDBRANCH  28  29
ENDBRANCH   1  28
TORSDOF 13
