REMARK SMILES Cc1c(CC(=O)N[C@H](CO)C(=O)NCCCCNC(=O)c2ccc(-c3c4nc(c(-c5c(F)c(F)c(F)c(F)c5F)c5ccc([nH]5)c(-c5c(F)c(F)c(F)c(F)c5F)c5nc(c(-c6c(F)c(F)c(F)c(F)c6F)c6ccc3[nH]6)C=C5)C=C4)cc2)cc(-c2ccc(S(C)(=O)=O)cc2)n1-c1cccc(F)c1
REMARK SMILES IDX 14 1 13 2 11 3 12 4 8 6 7 7 5 8 6 9 4 11 3 12 1 13 2 14
REMARK SMILES IDX 96 15 84 16 85 17 97 18 98 19 103 20 99 21 101 22 100 23
REMARK SMILES IDX 102 24 86 25 87 26 95 27 88 28 94 29 89 30 90 31 91 32 92 33
REMARK SMILES IDX 93 34 9 35 10 36 15 38 16 39 17 40 18 41 19 42 20 44 21 45
REMARK SMILES IDX 22 46 83 47 23 48 82 49 24 50 25 51 26 52 76 53 27 54 81 55
REMARK SMILES IDX 75 56 77 57 28 58 80 59 74 60 73 61 29 63 61 64 41 65 60 66
REMARK SMILES IDX 42 67 45 68 59 69 78 70 43 71 44 72 58 74 79 75 46 76 30 77
REMARK SMILES IDX 31 78 39 79 32 80 33 81 37 82 40 83 34 84 35 85 38 86 36 87
REMARK SMILES IDX 62 88 63 89 71 90 64 91 65 92 69 93 72 94 66 95 67 96 70 97
REMARK SMILES IDX 68 98 47 99 48 100 56 101 49 102 50 103 54 104 57 105 51 106
REMARK SMILES IDX 52 107 55 108 53 109
REMARK H PARENT 13 5 7 10 10 37 18 43 77 62 45 73
REMARK Flexibility Score: inf
ROOT
ATOM      1  C   UNL     1      -4.767  -0.464   0.229  1.00  0.00     0.116 C 
ENDROOT
BRANCH   1   2
ATOM      2  N   UNL     1      -4.375  -1.559   1.133  1.00  0.00    -0.354 N 
ATOM      3  C   UNL     1      -3.438  -1.562   2.149  1.00  0.00     0.244 C 
ATOM      4  O   UNL     1      -3.192  -2.616   2.743  1.00  0.00    -0.273 OA
ATOM      5  H   UNL     1      -4.849  -2.410   0.994  1.00  0.00     0.163 HD
BRANCH   3   6
ATOM      6  C   UNL     1      -2.575  -0.331   2.422  1.00  0.00     0.197 C 
BRANCH   6   7
ATOM      7  N   UNL     1      -3.387   0.879   2.369  1.00  0.00    -0.342 N 
ATOM      8  C   UNL     1      -4.524   1.180   3.072  1.00  0.00     0.225 C 
ATOM      9  O   UNL     1      -5.104   2.229   2.768  1.00  0.00    -0.275 OA
ATOM     10  H   UNL     1      -3.076   1.574   1.744  1.00  0.00     0.164 HD
BRANCH   8  11
ATOM     11  C   UNL     1      -5.065   0.277   4.200  1.00  0.00     0.137 C 
BRANCH  11  12
ATOM     12  C   UNL     1      -5.882  -0.968   3.844  1.00  0.00    -0.017 A 
ATOM     13  C   UNL     1      -7.659   0.226   2.670  1.00  0.00     0.065 C 
ATOM     14  C   UNL     1      -7.039  -1.077   3.071  1.00  0.00     0.024 A 
ATOM     15  N   UNL     1      -7.371  -2.486   2.880  1.00  0.00    -0.313 N 
ATOM     16  C   UNL     1      -5.694  -2.240   4.397  1.00  0.00     0.033 A 
ATOM     17  C   UNL     1      -6.485  -3.149   3.726  1.00  0.00     0.053 A 
BRANCH  15  18
ATOM     18  C   UNL     1      -8.312  -3.282   2.023  1.00  0.00     0.049 A 
ATOM     19  C   UNL     1      -9.387  -3.988   2.589  1.00  0.00     0.027 A 
ATOM     20  C   UNL     1      -7.949  -3.794   0.754  1.00  0.00     0.065 A 
ATOM     21  C   UNL     1     -10.178  -4.912   1.836  1.00  0.00     0.005 A 
ATOM     22  C   UNL     1      -8.781  -4.610  -0.036  1.00  0.00     0.125 A 
ATOM     23  C   UNL     1      -9.918  -5.168   0.493  1.00  0.00     0.039 A 
ATOM     24  F   UNL     1      -8.422  -4.906  -1.295  1.00  0.00    -0.207 F 
ENDBRANCH  15  18
BRANCH  17  25
ATOM     25  C   UNL     1      -6.313  -4.585   3.806  1.00  0.00    -0.001 A 
ATOM     26  C   UNL     1      -5.742  -5.274   2.728  1.00  0.00     0.011 A 
ATOM     27  C   UNL     1      -6.567  -5.235   5.014  1.00  0.00     0.011 A 
ATOM     28  C   UNL     1      -5.455  -6.624   2.843  1.00  0.00     0.021 A 
ATOM     29  C   UNL     1      -6.265  -6.583   5.144  1.00  0.00     0.021 A 
ATOM     30  C   UNL     1      -5.726  -7.267   4.050  1.00  0.00     0.067 A 
BRANCH  30  31
ATOM     31  S   UNL     1      -5.399  -8.999   4.184  1.00  0.00     0.175 S 
ATOM     32  C   UNL     1      -6.588  -9.690   3.061  1.00  0.00     0.163 C 
ATOM     33  O   UNL     1      -4.061  -9.222   3.632  1.00  0.00    -0.224 OA
ATOM     34  O   UNL     1      -5.738  -9.418   5.514  1.00  0.00    -0.224 OA
ENDBRANCH  30  31
ENDBRANCH  17  25
ENDBRANCH  11  12
ENDBRANCH   8  11
ENDBRANCH   6   7
BRANCH   6  35
ATOM     35  C   UNL     1      -1.462  -0.413   1.347  1.00  0.00     0.191 C 
BRANCH  35  36
ATOM     36  O   UNL     1      -1.388   0.775   0.558  1.00  0.00    -0.394 OA
ATOM     37  H   UNL     1      -2.227   0.906   0.090  1.00  0.00     0.210 HD
ENDBRANCH  35  36
ENDBRANCH   6  35
ENDBRANCH   3   6
ENDBRANCH   1   2
BRANCH   1  38
ATOM     38  C   UNL     1      -5.713  -0.816  -0.949  1.00  0.00     0.023 C 
BRANCH  38  39
ATOM     39  C   UNL     1      -7.142  -1.329  -0.621  1.00  0.00     0.023 C 
BRANCH  39  40
ATOM     40  C   UNL     1      -8.321  -0.501  -0.014  1.00  0.00     0.116 C 
BRANCH  40  41
ATOM     41  N   UNL     1      -9.763  -0.825  -0.088  1.00  0.00    -0.352 N 
ATOM     42  C   UNL     1     -10.866  -0.748   0.830  1.00  0.00     0.251 C 
ATOM     43  H   UNL     1     -10.028  -1.174  -0.970  1.00  0.00     0.163 HD
ATOM     44  O   UNL     1     -11.967  -0.972   0.302  1.00  0.00    -0.269 OA
BRANCH  42  45
ATOM     45  C   UNL     1     -10.933  -0.529   2.399  1.00  0.00     0.039 A 
ATOM     46  C   UNL     1     -11.450  -1.557   3.195  1.00  0.00     0.014 A 
ATOM     47  C   UNL     1     -10.854   0.680   3.140  1.00  0.00     0.014 A 
ATOM     48  C   UNL     1     -11.714  -1.432   4.634  1.00  0.00     0.010 A 
ATOM     49  C   UNL     1     -11.161   0.824   4.612  1.00  0.00     0.010 A 
ATOM     50  C   UNL     1     -11.598  -0.237   5.438  1.00  0.00    -0.014 A 
BRANCH  50  51
ATOM     51  C   UNL     1     -12.499  -0.158   6.867  1.00  0.00     0.031 A 
ATOM     52  C   UNL     1     -13.794  -0.723   6.389  1.00  0.00     0.074 A 
ATOM     53  C   UNL     1     -12.561   0.277   8.219  1.00  0.00     0.049 A 
ATOM     54  N   UNL     1     -14.395  -0.180   5.365  1.00  0.00    -0.248 NA
ATOM     55  C   UNL     1     -14.250  -2.073   6.723  1.00  0.00     0.031 C 
ATOM     56  C   UNL     1     -11.541   1.008   9.002  1.00  0.00     0.029 A 
ATOM     57  N   UNL     1     -13.582   0.174   9.263  1.00  0.00    -0.354 N 
ATOM     58  C   UNL     1     -15.492  -0.959   5.109  1.00  0.00     0.074 A 
ATOM     59  C   UNL     1     -15.219  -2.209   5.810  1.00  0.00     0.031 C 
ATOM     60  C   UNL     1     -11.885   1.156  10.323  1.00  0.00     0.029 A 
ATOM     61  C   UNL     1     -13.217   0.617  10.611  1.00  0.00     0.049 A 
ATOM     62  H   UNL     1     -14.479  -0.181   9.067  1.00  0.00     0.167 HD
ATOM     63  C   UNL     1     -16.668  -0.273   5.029  1.00  0.00     0.037 A 
ATOM     64  C   UNL     1     -13.921   0.652  11.836  1.00  0.00     0.037 A 
ATOM     65  C   UNL     1     -17.412  -0.340   6.255  1.00  0.00     0.049 A 
ATOM     66  C   UNL     1     -15.349   0.690  11.504  1.00  0.00     0.074 A 
ATOM     67  C   UNL     1     -17.680  -1.372   7.132  1.00  0.00     0.029 A 
ATOM     68  N   UNL     1     -17.573   0.833   6.961  1.00  0.00    -0.354 N 
ATOM     69  N   UNL     1     -15.924   1.788  11.117  1.00  0.00    -0.248 NA
ATOM     70  C   UNL     1     -16.247  -0.438  11.735  1.00  0.00     0.031 C 
ATOM     71  C   UNL     1     -17.421  -0.818   8.401  1.00  0.00     0.029 A 
ATOM     72  C   UNL     1     -17.426   0.568   8.300  1.00  0.00     0.049 A 
ATOM     73  H   UNL     1     -17.763   1.716   6.569  1.00  0.00     0.167 HD
ATOM     74  C   UNL     1     -17.047   1.327  10.516  1.00  0.00     0.074 A 
ATOM     75  C   UNL     1     -17.348   0.066  11.170  1.00  0.00     0.031 C 
ATOM     76  C   UNL     1     -17.153   1.650   9.205  1.00  0.00     0.037 A 
BRANCH  63  77
ATOM     77  C   UNL     1     -16.600   0.957   4.171  1.00  0.00     0.064 A 
ATOM     78  C   UNL     1     -17.291   0.971   2.958  1.00  0.00     0.173 A 
ATOM     79  C   UNL     1     -15.803   2.081   4.479  1.00  0.00     0.173 A 
ATOM     80  F   UNL     1     -18.125  -0.034   2.648  1.00  0.00    -0.203 F 
ATOM     81  C   UNL     1     -17.141   2.029   2.063  1.00  0.00     0.198 A 
ATOM     82  C   UNL     1     -15.600   3.098   3.556  1.00  0.00     0.198 A 
ATOM     83  F   UNL     1     -15.247   2.221   5.694  1.00  0.00    -0.203 F 
ATOM     84  F   UNL     1     -17.845   2.042   0.923  1.00  0.00    -0.200 F 
ATOM     85  C   UNL     1     -16.268   3.071   2.345  1.00  0.00     0.200 A 
ATOM     86  F   UNL     1     -14.773   4.112   3.851  1.00  0.00    -0.200 F 
ATOM     87  F   UNL     1     -16.097   4.067   1.465  1.00  0.00    -0.200 F 
ENDBRANCH  63  77
BRANCH  64  88
ATOM     88  C   UNL     1     -13.827   0.863  13.406  1.00  0.00     0.064 A 
ATOM     89  C   UNL     1     -14.919   1.439  14.165  1.00  0.00     0.173 A 
ATOM     90  C   UNL     1     -12.938   0.140  14.215  1.00  0.00     0.173 A 
ATOM     91  F   UNL     1     -15.854   2.201  13.581  1.00  0.00    -0.203 F 
ATOM     92  C   UNL     1     -15.153   1.207  15.537  1.00  0.00     0.198 A 
ATOM     93  C   UNL     1     -13.156  -0.060  15.611  1.00  0.00     0.198 A 
ATOM     94  F   UNL     1     -11.883  -0.471  13.661  1.00  0.00    -0.203 F 
ATOM     95  F   UNL     1     -16.268   1.674  16.125  1.00  0.00    -0.200 F 
ATOM     96  C   UNL     1     -14.277   0.438  16.259  1.00  0.00     0.200 A 
ATOM     97  F   UNL     1     -12.299  -0.811  16.320  1.00  0.00    -0.200 F 
ATOM     98  F   UNL     1     -14.524   0.154  17.549  1.00  0.00    -0.200 F 
ENDBRANCH  64  88
BRANCH  76  99
ATOM     99  C   UNL     1     -16.772   3.075   8.835  1.00  0.00     0.064 A 
ATOM    100  C   UNL     1     -15.555   3.734   9.141  1.00  0.00     0.173 A 
ATOM    101  C   UNL     1     -17.761   3.866   8.240  1.00  0.00     0.173 A 
ATOM    102  F   UNL     1     -14.486   3.075   9.607  1.00  0.00    -0.203 F 
ATOM    103  C   UNL     1     -15.393   5.111   8.963  1.00  0.00     0.198 A 
ATOM    104  C   UNL     1     -17.579   5.231   8.014  1.00  0.00     0.198 A 
ATOM    105  F   UNL     1     -18.922   3.308   7.864  1.00  0.00    -0.203 F 
ATOM    106  F   UNL     1     -14.254   5.711   9.342  1.00  0.00    -0.200 F 
ATOM    107  C   UNL     1     -16.409   5.859   8.402  1.00  0.00     0.200 A 
ATOM    108  F   UNL     1     -18.551   5.937   7.421  1.00  0.00    -0.200 F 
ATOM    109  F   UNL     1     -16.257   7.179   8.222  1.00  0.00    -0.200 F 
ENDBRANCH  76  99
ENDBRANCH  50  51
ENDBRANCH  42  45
ENDBRANCH  40  41
ENDBRANCH  39  40
ENDBRANCH  38  39
ENDBRANCH   1  38
TORSDOF 19
