REMARK SMILES Cc1cc(N2CC[NH+]([C@@H](C(=O)NCCCCNC(=O)c3ccc(-c4c5nc(c(-c6c(F)c(F)c(F)c(F)c6F)c6ccc([nH]6)c(-c6c(F)c(F)c(F)c(F)c6F)c6nc(c(-c7c(F)c(F)c(F)c(F)c7F)c7ccc4[nH]7)C=C6)C=C5)cc3)c3c[nH]c4ccccc34)CC2)nc2ccccc12
REMARK SMILES IDX 14 1 13 2 12 3 10 4 11 5 9 7 8 8 5 9 6 10 93 11 7 12 92 13
REMARK SMILES IDX 4 15 1 16 2 17 3 18 100 19 95 20 99 21 94 22 96 23 98 24
REMARK SMILES IDX 97 25 83 26 84 27 91 28 85 29 86 30 90 31 87 33 89 34 88 35
REMARK SMILES IDX 15 36 16 37 17 38 18 39 19 41 20 42 21 43 82 44 22 45 81 46
REMARK SMILES IDX 23 47 24 48 25 49 75 50 26 51 80 52 74 53 76 54 27 55 79 56
REMARK SMILES IDX 73 57 72 58 28 60 60 61 40 62 59 63 41 64 44 65 58 66 77 67
REMARK SMILES IDX 42 68 43 69 57 71 78 72 45 73 29 74 30 75 38 76 31 77 32 78
REMARK SMILES IDX 36 79 39 80 33 81 34 82 37 83 35 84 61 85 62 86 70 87 63 88
REMARK SMILES IDX 64 89 68 90 71 91 65 92 66 93 69 94 67 95 46 96 47 97 55 98
REMARK SMILES IDX 48 99 49 100 53 101 56 102 50 103 51 104 54 105 52 106
REMARK H PARENT 12 6 8 14 85 32 17 40 76 59 44 70
REMARK Flexibility Score: inf
ROOT
ATOM      1  C   UNL     1      -4.488  -2.464  -3.115  1.00  0.00     0.023 C 
ENDROOT
BRANCH   1   2
ATOM      2  C   UNL     1      -4.534  -3.995  -2.829  1.00  0.00     0.116 C 
BRANCH   2   3
ATOM      3  N   UNL     1      -3.465  -4.565  -1.992  1.00  0.00    -0.351 N 
ATOM      4  C   UNL     1      -3.308  -5.099  -0.725  1.00  0.00     0.283 C 
ATOM      5  O   UNL     1      -2.193  -5.609  -0.548  1.00  0.00    -0.268 OA
ATOM      6  H   UNL     1      -2.608  -4.566  -2.477  1.00  0.00     0.163 HD
BRANCH   4   7
ATOM      7  C   UNL     1      -4.420  -5.155   0.375  1.00  0.00     0.307 C 
BRANCH   7   8
ATOM      8  N   UNL     1      -4.879  -3.870   1.034  1.00  0.00    -0.318 N 
ATOM      9  N   UNL     1      -2.895  -1.712   1.149  1.00  0.00    -0.345 N 
ATOM     10  C   UNL     1      -2.773  -2.846   2.054  1.00  0.00     0.179 C 
ATOM     11  C   UNL     1      -3.612  -1.998  -0.092  1.00  0.00     0.179 C 
ATOM     12  C   UNL     1      -4.209  -3.355   2.250  1.00  0.00     0.284 C 
ATOM     13  C   UNL     1      -4.963  -2.714   0.149  1.00  0.00     0.284 C 
ATOM     14  H   UNL     1      -5.782  -4.249   1.320  1.00  0.00     0.349 HD
BRANCH   9  15
ATOM     15  C   UNL     1      -1.801  -0.886   0.934  1.00  0.00     0.129 A 
ATOM     16  C   UNL     1      -1.471   2.743   0.010  1.00  0.00     0.045 C 
ATOM     17  C   UNL     1      -1.081   1.327   0.309  1.00  0.00    -0.038 A 
ATOM     18  C   UNL     1      -2.084   0.451   0.697  1.00  0.00     0.051 A 
ATOM     19  C   UNL     1       0.232   0.832   0.220  1.00  0.00     0.003 A 
ATOM     20  C   UNL     1       0.437  -0.548   0.470  1.00  0.00     0.073 A 
ATOM     21  C   UNL     1       1.335   1.648  -0.107  1.00  0.00     0.010 A 
ATOM     22  N   UNL     1      -0.558  -1.384   0.825  1.00  0.00    -0.231 NA
ATOM     23  C   UNL     1       1.722  -1.059   0.325  1.00  0.00     0.029 A 
ATOM     24  C   UNL     1       2.616   1.113  -0.216  1.00  0.00     0.001 A 
ATOM     25  C   UNL     1       2.808  -0.247  -0.015  1.00  0.00     0.002 A 
ENDBRANCH   9  15
ENDBRANCH   7   8
BRANCH   7  26
ATOM     26  C   UNL     1      -4.234  -6.264   1.467  1.00  0.00     0.044 A 
ATOM     27  C   UNL     1      -5.323  -6.868   2.105  1.00  0.00     0.094 A 
ATOM     28  C   UNL     1      -3.213  -6.380   2.492  1.00  0.00     0.009 A 
ATOM     29  N   UNL     1      -5.253  -6.275   3.359  1.00  0.00    -0.361 N 
ATOM     30  C   UNL     1      -3.918  -6.149   3.686  1.00  0.00     0.046 A 
ATOM     31  C   UNL     1      -1.806  -6.424   2.571  1.00  0.00     0.011 A 
ATOM     32  H   UNL     1      -6.016  -5.996   3.914  1.00  0.00     0.166 HD
ATOM     33  C   UNL     1      -3.303  -5.702   4.862  1.00  0.00     0.026 A 
ATOM     34  C   UNL     1      -1.174  -6.139   3.795  1.00  0.00     0.001 A 
ATOM     35  C   UNL     1      -1.910  -5.699   4.894  1.00  0.00     0.002 A 
ENDBRANCH   7  26
ENDBRANCH   4   7
ENDBRANCH   2   3
ENDBRANCH   1   2
BRANCH   1  36
ATOM     36  C   UNL     1      -3.106  -1.803  -3.224  1.00  0.00     0.023 C 
BRANCH  36  37
ATOM     37  C   UNL     1      -2.693  -1.469  -4.640  1.00  0.00     0.116 C 
BRANCH  37  38
ATOM     38  N   UNL     1      -3.452  -0.353  -5.187  1.00  0.00    -0.352 N 
ATOM     39  C   UNL     1      -3.005   0.718  -5.929  1.00  0.00     0.251 C 
ATOM     40  H   UNL     1      -4.418  -0.366  -5.000  1.00  0.00     0.163 HD
ATOM     41  O   UNL     1      -3.746   1.661  -6.155  1.00  0.00    -0.269 OA
BRANCH  39  42
ATOM     42  C   UNL     1      -1.610   0.731  -6.431  1.00  0.00     0.039 A 
ATOM     43  C   UNL     1      -0.905   1.938  -6.452  1.00  0.00     0.014 A 
ATOM     44  C   UNL     1      -1.000  -0.442  -6.881  1.00  0.00     0.014 A 
ATOM     45  C   UNL     1       0.424   1.953  -6.880  1.00  0.00     0.010 A 
ATOM     46  C   UNL     1       0.351  -0.446  -7.193  1.00  0.00     0.010 A 
ATOM     47  C   UNL     1       1.069   0.755  -7.226  1.00  0.00    -0.014 A 
BRANCH  47  48
ATOM     48  C   UNL     1       2.481   0.734  -7.676  1.00  0.00     0.031 A 
ATOM     49  C   UNL     1       2.809   0.240  -9.061  1.00  0.00     0.074 A 
ATOM     50  C   UNL     1       3.458   1.091  -6.822  1.00  0.00     0.049 A 
ATOM     51  N   UNL     1       3.977   0.062  -9.622  1.00  0.00    -0.248 NA
ATOM     52  C   UNL     1       1.673  -0.141  -9.919  1.00  0.00     0.031 C 
ATOM     53  C   UNL     1       3.256   1.524  -5.437  1.00  0.00     0.029 A 
ATOM     54  N   UNL     1       4.819   1.136  -6.986  1.00  0.00    -0.354 N 
ATOM     55  C   UNL     1       3.715  -0.471 -10.878  1.00  0.00     0.074 A 
ATOM     56  C   UNL     1       2.285  -0.646 -10.979  1.00  0.00     0.031 C 
ATOM     57  C   UNL     1       4.446   1.818  -4.889  1.00  0.00     0.029 A 
ATOM     58  C   UNL     1       5.496   1.551  -5.865  1.00  0.00     0.049 A 
ATOM     59  H   UNL     1       5.268   0.893  -7.828  1.00  0.00     0.167 HD
ATOM     60  C   UNL     1       4.590  -0.759 -11.869  1.00  0.00     0.037 A 
ATOM     61  C   UNL     1       6.819   1.688  -5.653  1.00  0.00     0.037 A 
ATOM     62  C   UNL     1       6.007  -0.537 -11.770  1.00  0.00     0.049 A 
ATOM     63  C   UNL     1       7.766   1.372  -6.781  1.00  0.00     0.074 A 
ATOM     64  C   UNL     1       6.977  -0.720 -12.738  1.00  0.00     0.029 A 
ATOM     65  N   UNL     1       6.654  -0.080 -10.631  1.00  0.00    -0.354 N 
ATOM     66  N   UNL     1       7.500   0.951  -7.995  1.00  0.00    -0.248 NA
ATOM     67  C   UNL     1       9.199   1.559  -6.514  1.00  0.00     0.031 C 
ATOM     68  C   UNL     1       8.219  -0.429 -12.168  1.00  0.00     0.029 A 
ATOM     69  C   UNL     1       8.016  -0.000 -10.865  1.00  0.00     0.049 A 
ATOM     70  H   UNL     1       6.211   0.152  -9.784  1.00  0.00     0.167 HD
ATOM     71  C   UNL     1       8.724   0.856  -8.644  1.00  0.00     0.074 A 
ATOM     72  C   UNL     1       9.731   1.283  -7.696  1.00  0.00     0.031 C 
ATOM     73  C   UNL     1       8.994   0.448  -9.908  1.00  0.00     0.037 A 
BRANCH  60  74
ATOM     74  C   UNL     1       4.048  -1.331 -13.147  1.00  0.00     0.064 A 
ATOM     75  C   UNL     1       3.268  -0.565 -14.027  1.00  0.00     0.173 A 
ATOM     76  C   UNL     1       4.366  -2.644 -13.528  1.00  0.00     0.173 A 
ATOM     77  F   UNL     1       2.922   0.690 -13.706  1.00  0.00    -0.203 F 
ATOM     78  C   UNL     1       2.813  -1.098 -15.231  1.00  0.00     0.198 A 
ATOM     79  C   UNL     1       3.937  -3.162 -14.747  1.00  0.00     0.198 A 
ATOM     80  F   UNL     1       5.110  -3.420 -12.725  1.00  0.00    -0.203 F 
ATOM     81  F   UNL     1       2.036  -0.360 -16.036  1.00  0.00    -0.200 F 
ATOM     82  C   UNL     1       3.158  -2.390 -15.595  1.00  0.00     0.200 A 
ATOM     83  F   UNL     1       4.283  -4.406 -15.104  1.00  0.00    -0.200 F 
ATOM     84  F   UNL     1       2.735  -2.894 -16.763  1.00  0.00    -0.200 F 
ENDBRANCH  60  74
BRANCH  61  85
ATOM     85  C   UNL     1       7.328   2.152  -4.334  1.00  0.00     0.064 A 
ATOM     86  C   UNL     1       7.990   3.382  -4.207  1.00  0.00     0.173 A 
ATOM     87  C   UNL     1       7.192   1.367  -3.180  1.00  0.00     0.173 A 
ATOM     88  F   UNL     1       8.158   4.167  -5.282  1.00  0.00    -0.203 F 
ATOM     89  C   UNL     1       8.533   3.788  -2.989  1.00  0.00     0.198 A 
ATOM     90  C   UNL     1       7.702   1.791  -1.954  1.00  0.00     0.198 A 
ATOM     91  F   UNL     1       6.556   0.188  -3.239  1.00  0.00    -0.203 F 
ATOM     92  F   UNL     1       9.219   4.936  -2.914  1.00  0.00    -0.200 F 
ATOM     93  C   UNL     1       8.386   2.993  -1.863  1.00  0.00     0.200 A 
ATOM     94  F   UNL     1       7.536   1.030  -0.863  1.00  0.00    -0.200 F 
ATOM     95  F   UNL     1       8.911   3.381  -0.693  1.00  0.00    -0.200 F 
ENDBRANCH  61  85
BRANCH  73  96
ATOM     96  C   UNL     1      10.427   0.492 -10.353  1.00  0.00     0.064 A 
ATOM     97  C   UNL     1      11.385  -0.399  -9.848  1.00  0.00     0.173 A 
ATOM     98  C   UNL     1      10.834   1.410 -11.333  1.00  0.00     0.173 A 
ATOM     99  F   UNL     1      11.048  -1.287  -8.900  1.00  0.00    -0.203 F 
ATOM    100  C   UNL     1      12.706  -0.350 -10.284  1.00  0.00     0.198 A 
ATOM    101  C   UNL     1      12.146   1.431 -11.794  1.00  0.00     0.198 A 
ATOM    102  F   UNL     1       9.953   2.276 -11.856  1.00  0.00    -0.203 F 
ATOM    103  F   UNL     1      13.617  -1.172  -9.746  1.00  0.00    -0.200 F 
ATOM    104  C   UNL     1      13.083   0.558 -11.262  1.00  0.00     0.200 A 
ATOM    105  F   UNL     1      12.503   2.296 -12.753  1.00  0.00    -0.200 F 
ATOM    106  F   UNL     1      14.352   0.597 -11.688  1.00  0.00    -0.200 F 
ENDBRANCH  73  96
ENDBRANCH  47  48
ENDBRANCH  39  42
ENDBRANCH  37  38
ENDBRANCH  36  37
ENDBRANCH   1  36
TORSDOF 14
