REMARK SMILES COC(=O)c1ccc([C@H]2[C@H]3C(=O)CC(C)(C)CC3=Nc3ccccc3N2C(=O)CCC(=O)NCCCCNC(=O)c2ccc(-c3c4nc(c(-c5c(F)c(F)c(F)c(F)c5F)c5ccc([nH]5)c(-c5c(F)c(F)c(F)c(F)c5F)c5nc(c(-c6c(F)c(F)c(F)c(F)c6F)c6ccc3[nH]6)C=C5)C=C4)cc2)cc1
REMARK SMILES IDX 31 1 32 2 33 3 30 5 29 6 27 7 28 8 26 9 9 10 8 12 5 13 6 14
REMARK SMILES IDX 105 15 7 16 104 17 3 18 4 19 2 20 1 21 25 22 20 23 24 24
REMARK SMILES IDX 21 25 23 26 22 27 19 28 18 29 10 30 17 31 11 32 14 34 12 35
REMARK SMILES IDX 13 36 15 37 16 38 34 39 35 40 36 41 37 42 38 43 39 44 40 46
REMARK SMILES IDX 41 47 42 48 103 49 43 50 102 51 44 52 45 53 46 54 96 55
REMARK SMILES IDX 47 56 101 57 95 58 97 59 48 60 100 61 94 62 93 63 49 65
REMARK SMILES IDX 81 66 61 67 80 68 62 69 65 70 79 71 98 72 63 73 64 74 78 76
REMARK SMILES IDX 99 77 66 78 50 79 51 80 59 81 52 82 53 83 57 84 60 85 54 86
REMARK SMILES IDX 55 87 58 88 56 89 82 90 83 91 91 92 84 93 85 94 89 95 92 96
REMARK SMILES IDX 86 97 87 98 90 99 88 100 67 101 68 102 76 103 69 104 70 105
REMARK SMILES IDX 74 106 77 107 71 108 72 109 75 110 73 111
REMARK H PARENT 33 4 38 45 97 64 65 75
REMARK Flexibility Score: 100.00
ROOT
ATOM      1  C   UNL     1       0.998  -0.416  -8.131  1.00  0.00     0.220 C 
ATOM      2  O   UNL     1       1.331  -1.126  -9.086  1.00  0.00    -0.275 OA
ATOM      3  N   UNL     1      -0.296  -0.511  -7.712  1.00  0.00    -0.356 N 
ATOM      4  H   UNL     1      -0.772  -1.291  -8.080  1.00  0.00     0.163 HD
ENDROOT
BRANCH   1   5
ATOM      5  C   UNL     1       2.025   0.499  -7.477  1.00  0.00     0.110 C 
BRANCH   5   6
ATOM      6  C   UNL     1       2.429   1.789  -8.204  1.00  0.00     0.110 C 
BRANCH   6   7
ATOM      7  C   UNL     1       1.706   3.010  -7.678  1.00  0.00     0.228 C 
ATOM      8  O   UNL     1       2.376   3.821  -7.030  1.00  0.00    -0.274 OA
BRANCH   7   9
ATOM      9  N   UNL     1       0.343   3.211  -7.856  1.00  0.00    -0.302 N 
BRANCH   9  10
ATOM     10  C   UNL     1      -0.420   3.850  -6.652  1.00  0.00     0.137 CG0
ATOM     11  G   UNL     1      -1.229   5.161  -6.896  1.00  0.00     0.000 G0
BRANCH  10  12
ATOM     12  C   UNL     1       0.053   3.461  -5.186  1.00  0.00    -0.024 A 
ATOM     13  C   UNL     1       0.852   2.516  -2.560  1.00  0.00     0.060 A 
ATOM     14  C   UNL     1       1.564   3.515  -3.226  1.00  0.00     0.016 A 
ATOM     15  C   UNL     1      -0.281   2.018  -3.174  1.00  0.00     0.016 A 
ATOM     16  C   UNL     1       1.157   3.987  -4.504  1.00  0.00     0.007 A 
ATOM     17  C   UNL     1      -0.631   2.464  -4.454  1.00  0.00     0.007 A 
BRANCH  13  18
ATOM     18  C   UNL     1       1.335   1.969  -1.253  1.00  0.00     0.337 C 
ATOM     19  O   UNL     1       2.218   2.458  -0.591  1.00  0.00    -0.246 OA
BRANCH  18  20
ATOM     20  O   UNL     1       0.666   0.811  -0.975  1.00  0.00    -0.465 OA
ATOM     21  C   UNL     1       1.086   0.135   0.212  1.00  0.00     0.282 C 
ENDBRANCH  18  20
ENDBRANCH  13  18
ENDBRANCH  10  12
ENDBRANCH   9  10
BRANCH   9  22
ATOM     22  C   UNL     1      -0.385   2.903  -9.141  1.00  0.00     0.070 A 
ATOM     23  C   UNL     1      -1.525   3.631  -9.595  1.00  0.00     0.087 A 
ATOM     24  C   UNL     1      -0.015   1.865 -10.014  1.00  0.00     0.028 A 
ATOM     25  C   UNL     1      -2.326   3.170 -10.666  1.00  0.00     0.030 A 
ATOM     26  C   UNL     1      -0.799   1.421 -11.097  1.00  0.00     0.002 A 
ATOM     27  C   UNL     1      -1.988   2.045 -11.397  1.00  0.00     0.002 A 
BRANCH  23  28
ATOM     28  N   UNL     1      -1.935   4.880  -9.110  1.00  0.00    -0.255 NA
ATOM     29  C   UNL     1      -1.096   5.468  -8.332  1.00  0.00     0.032 C 
ATOM     30  C   UNL     1      -1.229   5.161  -6.896  1.00  0.00     0.128 CG0
ATOM     31  C   UNL     1       0.113   6.219  -8.815  1.00  0.00     0.059 C 
ATOM     32  C   UNL     1      -1.148   6.450  -6.118  1.00  0.00     0.144 C 
ATOM     33  G   UNL     1      -0.420   3.850  -6.652  1.00  0.00     0.000 G0
ATOM     34  C   UNL     1       0.562   7.298  -7.803  1.00  0.00    -0.023 C 
ATOM     35  O   UNL     1      -1.722   6.581  -5.039  1.00  0.00    -0.299 OA
ATOM     36  C   UNL     1      -0.566   7.672  -6.823  1.00  0.00     0.083 C 
ATOM     37  C   UNL     1       1.761   6.844  -6.960  1.00  0.00     0.012 C 
ATOM     38  C   UNL     1       1.010   8.520  -8.611  1.00  0.00     0.012 C 
ENDBRANCH  23  28
ENDBRANCH   9  22
ENDBRANCH   7   9
ENDBRANCH   6   7
ENDBRANCH   5   6
ENDBRANCH   1   5
BRANCH   3  39
ATOM     39  C   UNL     1      -1.123   0.314  -6.825  1.00  0.00     0.116 C 
BRANCH  39  40
ATOM     40  C   UNL     1      -2.435   0.700  -7.538  1.00  0.00     0.023 C 
BRANCH  40  41
ATOM     41  C   UNL     1      -3.477   1.763  -7.090  1.00  0.00     0.023 C 
BRANCH  41  42
ATOM     42  C   UNL     1      -3.921   1.985  -5.644  1.00  0.00     0.116 C 
BRANCH  42  43
ATOM     43  N   UNL     1      -3.441   3.219  -4.991  1.00  0.00    -0.352 N 
ATOM     44  C   UNL     1      -3.867   3.894  -3.864  1.00  0.00     0.251 C 
ATOM     45  H   UNL     1      -2.674   3.639  -5.443  1.00  0.00     0.163 HD
ATOM     46  O   UNL     1      -3.174   4.734  -3.309  1.00  0.00    -0.269 OA
BRANCH  44  47
ATOM     47  C   UNL     1      -5.236   3.677  -3.419  1.00  0.00     0.039 A 
ATOM     48  C   UNL     1      -6.112   4.766  -3.442  1.00  0.00     0.014 A 
ATOM     49  C   UNL     1      -5.679   2.370  -3.345  1.00  0.00     0.014 A 
ATOM     50  C   UNL     1      -7.470   4.516  -3.571  1.00  0.00     0.010 A 
ATOM     51  C   UNL     1      -6.986   2.137  -3.698  1.00  0.00     0.010 A 
ATOM     52  C   UNL     1      -7.897   3.202  -3.804  1.00  0.00    -0.014 A 
BRANCH  52  53
ATOM     53  C   UNL     1      -9.296   2.877  -4.145  1.00  0.00     0.031 A 
ATOM     54  C   UNL     1     -10.006   1.851  -3.310  1.00  0.00     0.074 A 
ATOM     55  C   UNL     1      -9.860   3.402  -5.250  1.00  0.00     0.049 A 
ATOM     56  N   UNL     1     -11.161   1.277  -3.511  1.00  0.00    -0.248 NA
ATOM     57  C   UNL     1      -9.281   1.335  -2.132  1.00  0.00     0.031 C 
ATOM     58  C   UNL     1      -9.220   4.337  -6.181  1.00  0.00     0.029 A 
ATOM     59  N   UNL     1     -11.111   3.222  -5.780  1.00  0.00    -0.354 N 
ATOM     60  C   UNL     1     -11.265   0.312  -2.520  1.00  0.00     0.074 A 
ATOM     61  C   UNL     1     -10.017   0.290  -1.799  1.00  0.00     0.031 C 
ATOM     62  C   UNL     1     -10.104   4.698  -7.126  1.00  0.00     0.029 A 
ATOM     63  C   UNL     1     -11.354   3.984  -6.897  1.00  0.00     0.049 A 
ATOM     64  H   UNL     1     -11.774   2.604  -5.395  1.00  0.00     0.167 HD
ATOM     65  C   UNL     1     -12.335  -0.447  -2.198  1.00  0.00     0.037 A 
ATOM     66  C   UNL     1     -12.473   4.091  -7.638  1.00  0.00     0.037 A 
ATOM     67  C   UNL     1     -13.595  -0.341  -2.875  1.00  0.00     0.049 A 
ATOM     68  C   UNL     1     -13.669   3.270  -7.233  1.00  0.00     0.074 A 
ATOM     69  C   UNL     1     -14.784  -0.983  -2.592  1.00  0.00     0.029 A 
ATOM     70  N   UNL     1     -13.825   0.482  -3.970  1.00  0.00    -0.354 N 
ATOM     71  N   UNL     1     -13.793   2.419  -6.241  1.00  0.00    -0.248 NA
ATOM     72  C   UNL     1     -14.883   3.428  -8.043  1.00  0.00     0.031 C 
ATOM     73  C   UNL     1     -15.722  -0.585  -3.548  1.00  0.00     0.029 A 
ATOM     74  C   UNL     1     -15.135   0.349  -4.390  1.00  0.00     0.049 A 
ATOM     75  H   UNL     1     -13.155   1.071  -4.385  1.00  0.00     0.167 HD
ATOM     76  C   UNL     1     -15.104   1.966  -6.286  1.00  0.00     0.074 A 
ATOM     77  C   UNL     1     -15.739   2.650  -7.395  1.00  0.00     0.031 C 
ATOM     78  C   UNL     1     -15.730   1.064  -5.490  1.00  0.00     0.037 A 
BRANCH  65  79
ATOM     79  C   UNL     1     -12.180  -1.416  -1.063  1.00  0.00     0.064 A 
ATOM     80  C   UNL     1     -11.960  -0.987   0.257  1.00  0.00     0.173 A 
ATOM     81  C   UNL     1     -12.228  -2.797  -1.301  1.00  0.00     0.173 A 
ATOM     82  F   UNL     1     -11.880   0.323   0.537  1.00  0.00    -0.203 F 
ATOM     83  C   UNL     1     -11.749  -1.901   1.284  1.00  0.00     0.198 A 
ATOM     84  C   UNL     1     -12.058  -3.709  -0.263  1.00  0.00     0.198 A 
ATOM     85  F   UNL     1     -12.429  -3.264  -2.542  1.00  0.00    -0.203 F 
ATOM     86  F   UNL     1     -11.460  -1.465   2.518  1.00  0.00    -0.200 F 
ATOM     87  C   UNL     1     -11.806  -3.261   1.026  1.00  0.00     0.200 A 
ATOM     88  F   UNL     1     -12.122  -5.024  -0.512  1.00  0.00    -0.200 F 
ATOM     89  F   UNL     1     -11.603  -4.142   2.015  1.00  0.00    -0.200 F 
ENDBRANCH  65  79
BRANCH  66  90
ATOM     90  C   UNL     1     -12.536   5.039  -8.783  1.00  0.00     0.064 A 
ATOM     91  C   UNL     1     -13.361   6.173  -8.730  1.00  0.00     0.173 A 
ATOM     92  C   UNL     1     -11.790   4.836  -9.953  1.00  0.00     0.173 A 
ATOM     93  F   UNL     1     -14.106   6.407  -7.640  1.00  0.00    -0.203 F 
ATOM     94  C   UNL     1     -13.459   7.048  -9.811  1.00  0.00     0.198 A 
ATOM     95  C   UNL     1     -11.866   5.728 -11.022  1.00  0.00     0.198 A 
ATOM     96  F   UNL     1     -10.978   3.773 -10.057  1.00  0.00    -0.203 F 
ATOM     97  F   UNL     1     -14.296   8.094  -9.750  1.00  0.00    -0.200 F 
ATOM     98  C   UNL     1     -12.708   6.828 -10.955  1.00  0.00     0.200 A 
ATOM     99  F   UNL     1     -11.127   5.520 -12.120  1.00  0.00    -0.200 F 
ATOM    100  F   UNL     1     -12.803   7.669 -11.994  1.00  0.00    -0.200 F 
ENDBRANCH  66  90
BRANCH  78 101
ATOM    101  C   UNL     1     -17.181   0.803  -5.763  1.00  0.00     0.064 A 
ATOM    102  C   UNL     1     -17.599   0.089  -6.895  1.00  0.00     0.173 A 
ATOM    103  C   UNL     1     -18.156   1.218  -4.844  1.00  0.00     0.173 A 
ATOM    104  F   UNL     1     -16.703  -0.319  -7.806  1.00  0.00    -0.203 F 
ATOM    105  C   UNL     1     -18.947  -0.176  -7.110  1.00  0.00     0.198 A 
ATOM    106  C   UNL     1     -19.499   0.919  -5.045  1.00  0.00     0.198 A 
ATOM    107  F   UNL     1     -17.803   1.893  -3.740  1.00  0.00    -0.203 F 
ATOM    108  F   UNL     1     -19.331  -0.817  -8.223  1.00  0.00    -0.200 F 
ATOM    109  C   UNL     1     -19.894   0.229  -6.181  1.00  0.00     0.200 A 
ATOM    110  F   UNL     1     -20.410   1.292  -4.135  1.00  0.00    -0.200 F 
ATOM    111  F   UNL     1     -21.191  -0.041  -6.383  1.00  0.00    -0.200 F 
ENDBRANCH  78 101
ENDBRANCH  52  53
ENDBRANCH  44  47
ENDBRANCH  42  43
ENDBRANCH  41  42
ENDBRANCH  40  41
ENDBRANCH  39  40
ENDBRANCH   3  39
TORSDOF 17
