REMARK SMILES C[C@@H]1C[C@H]([NH3+])CN(S(=O)(=O)CCCC(=O)NCCCCNC(=O)c2ccc(-c3c4nc(c(-c5c(F)c(F)c(F)c(F)c5F)c5ccc([nH]5)c(-c5c(F)c(F)c(F)c(F)c5F)c5nc(c(-c6c(F)c(F)c(F)c(F)c6F)c6ccc3[nH]6)C=C5)C=C4)cc2)C1
REMARK SMILES IDX 17 1 16 2 14 3 15 4 13 6 12 7 11 8 8 9 9 10 10 11 7 12 1 13
REMARK SMILES IDX 2 14 3 15 87 16 4 17 6 18 5 19 18 23 19 24 20 25 21 26 22 27
REMARK SMILES IDX 23 29 24 30 25 31 86 32 26 33 85 34 27 35 28 36 29 37 79 38
REMARK SMILES IDX 30 39 84 40 78 41 80 42 31 43 83 44 77 45 76 46 32 48 64 49
REMARK SMILES IDX 44 50 63 51 45 52 48 53 62 54 81 55 46 56 47 57 61 59 82 60
REMARK SMILES IDX 49 61 33 62 34 63 42 64 35 65 36 66 40 67 43 68 37 69 38 70
REMARK SMILES IDX 41 71 39 72 65 73 66 74 74 75 67 76 68 77 72 78 75 79 69 80
REMARK SMILES IDX 70 81 73 82 71 83 50 84 51 85 59 86 52 87 53 88 57 89 60 90
REMARK SMILES IDX 54 91 55 92 58 93 56 94
REMARK H PARENT 16 5 5 20 5 21 5 22 21 28 80 47 48 58
REMARK Flexibility Score: inf
ROOT
ATOM      1  C   UNL     1       3.981  -5.322  -1.001  1.00  0.00     0.116 C 
ENDROOT
BRANCH   1   2
ATOM      2  N   UNL     1       4.842  -5.158   0.146  1.00  0.00    -0.356 N 
ATOM      3  C   UNL     1       5.143  -4.071   0.903  1.00  0.00     0.220 C 
ATOM      4  O   UNL     1       5.652  -4.292   2.006  1.00  0.00    -0.275 OA
ATOM      5  H   UNL     1       5.294  -5.985   0.432  1.00  0.00     0.163 HD
BRANCH   3   6
ATOM      6  C   UNL     1       4.829  -2.639   0.490  1.00  0.00     0.101 C 
BRANCH   6   7
ATOM      7  C   UNL     1       5.582  -2.035  -0.686  1.00  0.00     0.027 C 
BRANCH   7   8
ATOM      8  C   UNL     1       5.119  -2.345  -2.094  1.00  0.00     0.155 C 
BRANCH   8   9
ATOM      9  S   UNL     1       3.590  -1.660  -2.749  1.00  0.00     0.214 S 
ATOM     10  O   UNL     1       3.070  -2.637  -3.688  1.00  0.00    -0.212 OA
ATOM     11  O   UNL     1       3.927  -0.325  -3.203  1.00  0.00    -0.212 OA
BRANCH   9  12
ATOM     12  N   UNL     1       2.373  -1.473  -1.543  1.00  0.00    -0.196 NA
ATOM     13  C   UNL     1       0.728   0.786  -0.015  1.00  0.00     0.009 C 
ATOM     14  C   UNL     1       0.217  -0.204  -1.062  1.00  0.00     0.007 C 
ATOM     15  C   UNL     1      -0.400  -1.476  -0.469  1.00  0.00     0.071 C 
ATOM     16  C   UNL     1       1.303  -0.533  -2.091  1.00  0.00     0.106 C 
ATOM     17  C   UNL     1       0.629  -2.495   0.004  1.00  0.00     0.196 C 
ATOM     18  C   UNL     1       1.677  -2.737  -1.107  1.00  0.00     0.167 C 
BRANCH  17  19
ATOM     19  N   UNL     1       1.215  -2.086   1.286  1.00  0.00    -0.354 N 
ATOM     20  H   UNL     1       1.687  -1.189   1.174  1.00  0.00     0.344 HD
ATOM     21  H   UNL     1       1.888  -2.788   1.592  1.00  0.00     0.344 HD
ATOM     22  H   UNL     1       0.476  -1.996   1.984  1.00  0.00     0.344 HD
ENDBRANCH  17  19
ENDBRANCH   9  12
ENDBRANCH   8   9
ENDBRANCH   7   8
ENDBRANCH   6   7
ENDBRANCH   3   6
ENDBRANCH   1   2
BRANCH   1  23
ATOM     23  C   UNL     1       4.561  -6.220  -2.089  1.00  0.00     0.023 C 
BRANCH  23  24
ATOM     24  C   UNL     1       3.795  -7.527  -2.258  1.00  0.00     0.023 C 
BRANCH  24  25
ATOM     25  C   UNL     1       2.316  -7.377  -2.601  1.00  0.00     0.116 C 
BRANCH  25  26
ATOM     26  N   UNL     1       2.054  -6.817  -3.917  1.00  0.00    -0.352 N 
ATOM     27  C   UNL     1       1.141  -7.263  -4.856  1.00  0.00     0.251 C 
ATOM     28  H   UNL     1       2.588  -6.029  -4.168  1.00  0.00     0.163 HD
ATOM     29  O   UNL     1       1.058  -6.755  -5.956  1.00  0.00    -0.269 OA
BRANCH  27  30
ATOM     30  C   UNL     1       0.284  -8.417  -4.500  1.00  0.00     0.039 A 
ATOM     31  C   UNL     1       0.304  -9.549  -5.316  1.00  0.00     0.014 A 
ATOM     32  C   UNL     1      -0.456  -8.406  -3.315  1.00  0.00     0.014 A 
ATOM     33  C   UNL     1      -0.362 -10.704  -4.903  1.00  0.00     0.010 A 
ATOM     34  C   UNL     1      -1.046  -9.582  -2.866  1.00  0.00     0.010 A 
ATOM     35  C   UNL     1      -1.010 -10.743  -3.656  1.00  0.00    -0.014 A 
BRANCH  35  36
ATOM     36  C   UNL     1      -1.682 -11.976  -3.173  1.00  0.00     0.031 A 
ATOM     37  C   UNL     1      -3.168 -11.970  -2.941  1.00  0.00     0.074 A 
ATOM     38  C   UNL     1      -0.959 -13.075  -2.882  1.00  0.00     0.049 A 
ATOM     39  N   UNL     1      -3.937 -12.911  -2.454  1.00  0.00    -0.248 NA
ATOM     40  C   UNL     1      -3.881 -10.724  -3.265  1.00  0.00     0.031 C 
ATOM     41  C   UNL     1       0.495 -13.192  -3.006  1.00  0.00     0.029 A 
ATOM     42  N   UNL     1      -1.350 -14.304  -2.411  1.00  0.00    -0.354 N 
ATOM     43  C   UNL     1      -5.210 -12.362  -2.392  1.00  0.00     0.074 A 
ATOM     44  C   UNL     1      -5.103 -10.988  -2.831  1.00  0.00     0.031 C 
ATOM     45  C   UNL     1       0.870 -14.431  -2.648  1.00  0.00     0.029 A 
ATOM     46  C   UNL     1      -0.311 -15.187  -2.240  1.00  0.00     0.049 A 
ATOM     47  H   UNL     1      -2.287 -14.531  -2.214  1.00  0.00     0.167 HD
ATOM     48  C   UNL     1      -6.372 -12.957  -2.033  1.00  0.00     0.037 A 
ATOM     49  C   UNL     1      -0.315 -16.463  -1.807  1.00  0.00     0.037 A 
ATOM     50  C   UNL     1      -6.486 -14.336  -1.642  1.00  0.00     0.049 A 
ATOM     51  C   UNL     1      -1.624 -17.113  -1.445  1.00  0.00     0.074 A 
ATOM     52  C   UNL     1      -7.626 -15.051  -1.320  1.00  0.00     0.029 A 
ATOM     53  N   UNL     1      -5.417 -15.212  -1.528  1.00  0.00    -0.354 N 
ATOM     54  N   UNL     1      -2.832 -16.604  -1.457  1.00  0.00    -0.248 NA
ATOM     55  C   UNL     1      -1.572 -18.519  -1.021  1.00  0.00     0.031 C 
ATOM     56  C   UNL     1      -7.242 -16.352  -0.978  1.00  0.00     0.029 A 
ATOM     57  C   UNL     1      -5.869 -16.459  -1.132  1.00  0.00     0.049 A 
ATOM     58  H   UNL     1      -4.476 -14.981  -1.703  1.00  0.00     0.167 HD
ATOM     59  C   UNL     1      -3.684 -17.633  -1.080  1.00  0.00     0.074 A 
ATOM     60  C   UNL     1      -2.857 -18.799  -0.854  1.00  0.00     0.031 C 
ATOM     61  C   UNL     1      -5.032 -17.614  -0.934  1.00  0.00     0.037 A 
BRANCH  48  62
ATOM     62  C   UNL     1      -7.615 -12.116  -2.062  1.00  0.00     0.064 A 
ATOM     63  C   UNL     1      -8.174 -11.671  -3.270  1.00  0.00     0.173 A 
ATOM     64  C   UNL     1      -8.266 -11.765  -0.870  1.00  0.00     0.173 A 
ATOM     65  F   UNL     1      -7.582 -11.966  -4.437  1.00  0.00    -0.203 F 
ATOM     66  C   UNL     1      -9.316 -10.875  -3.281  1.00  0.00     0.198 A 
ATOM     67  C   UNL     1      -9.427 -10.996  -0.887  1.00  0.00     0.198 A 
ATOM     68  F   UNL     1      -7.777 -12.168   0.313  1.00  0.00    -0.203 F 
ATOM     69  F   UNL     1      -9.797 -10.413  -4.444  1.00  0.00    -0.200 F 
ATOM     70  C   UNL     1      -9.946 -10.544  -2.091  1.00  0.00     0.200 A 
ATOM     71  F   UNL     1     -10.041 -10.687   0.264  1.00  0.00    -0.200 F 
ATOM     72  F   UNL     1     -11.047  -9.781  -2.104  1.00  0.00    -0.200 F 
ENDBRANCH  48  62
BRANCH  49  73
ATOM     73  C   UNL     1       0.957 -17.229  -1.733  1.00  0.00     0.064 A 
ATOM     74  C   UNL     1       1.215 -18.279  -2.627  1.00  0.00     0.173 A 
ATOM     75  C   UNL     1       1.931 -16.941  -0.767  1.00  0.00     0.173 A 
ATOM     76  F   UNL     1       0.305 -18.606  -3.555  1.00  0.00    -0.203 F 
ATOM     77  C   UNL     1       2.388 -19.027  -2.541  1.00  0.00     0.198 A 
ATOM     78  C   UNL     1       3.116 -17.672  -0.699  1.00  0.00     0.198 A 
ATOM     79  F   UNL     1       1.735 -15.943   0.107  1.00  0.00    -0.203 F 
ATOM     80  F   UNL     1       2.587 -20.055  -3.377  1.00  0.00    -0.200 F 
ATOM     81  C   UNL     1       3.339 -18.720  -1.580  1.00  0.00     0.200 A 
ATOM     82  F   UNL     1       4.038 -17.364   0.222  1.00  0.00    -0.200 F 
ATOM     83  F   UNL     1       4.468 -19.438  -1.498  1.00  0.00    -0.200 F 
ENDBRANCH  49  73
BRANCH  61  84
ATOM     84  C   UNL     1      -5.704 -18.903  -0.562  1.00  0.00     0.064 A 
ATOM     85  C   UNL     1      -5.602 -19.444   0.728  1.00  0.00     0.173 A 
ATOM     86  C   UNL     1      -6.501 -19.579  -1.499  1.00  0.00     0.173 A 
ATOM     87  F   UNL     1      -4.841 -18.841   1.653  1.00  0.00    -0.203 F 
ATOM     88  C   UNL     1      -6.255 -20.628   1.059  1.00  0.00     0.198 A 
ATOM     89  C   UNL     1      -7.175 -20.747  -1.155  1.00  0.00     0.198 A 
ATOM     90  F   UNL     1      -6.637 -19.099  -2.744  1.00  0.00    -0.203 F 
ATOM     91  F   UNL     1      -6.108 -21.150   2.285  1.00  0.00    -0.200 F 
ATOM     92  C   UNL     1      -7.046 -21.274   0.121  1.00  0.00     0.200 A 
ATOM     93  F   UNL     1      -7.950 -21.363  -2.058  1.00  0.00    -0.200 F 
ATOM     94  F   UNL     1      -7.680 -22.409   0.446  1.00  0.00    -0.200 F 
ENDBRANCH  61  84
ENDBRANCH  35  36
ENDBRANCH  27  30
ENDBRANCH  25  26
ENDBRANCH  24  25
ENDBRANCH  23  24
ENDBRANCH   1  23
TORSDOF 16
