REMARK SMILES Nc1ccc(-c2cc(O)ccc2Cl)c(C(=O)NCCCCNC(=O)c2ccc(-c3c4nc(c(-c5c(F)c(F)c(F)c(F)c5F)c5ccc([nH]5)c(-c5c(F)c(F)c(F)c(F)c5F)c5nc(c(-c6c(F)c(F)c(F)c(F)c6F)c6ccc3[nH]6)C=C5)C=C4)cc2)n1
REMARK SMILES IDX 19 1 18 2 17 3 15 4 16 5 14 7 2 8 3 9 88 10 4 11 5 12 1 13
REMARK SMILES IDX 6 16 7 17 12 18 8 19 11 20 13 21 10 22 9 23 20 25 21 26
REMARK SMILES IDX 22 27 23 28 24 30 25 31 26 32 87 33 27 34 86 35 28 36 29 37
REMARK SMILES IDX 30 38 80 39 31 40 85 41 79 42 81 43 32 44 84 45 78 46 77 47
REMARK SMILES IDX 33 49 65 50 45 51 64 52 46 53 49 54 63 55 82 56 47 57 48 58
REMARK SMILES IDX 62 60 83 61 50 62 34 63 35 64 43 65 36 66 37 67 41 68 44 69
REMARK SMILES IDX 38 70 39 71 42 72 40 73 66 74 67 75 75 76 68 77 69 78 73 79
REMARK SMILES IDX 76 80 70 81 71 82 74 83 72 84 51 85 52 86 60 87 53 88 54 89
REMARK SMILES IDX 58 90 61 91 55 92 56 93 59 94 57 95
REMARK H PARENT 17 6 1 14 1 15 9 24 22 29 81 48 49 59
REMARK Flexibility Score: inf
ROOT
ATOM      1  C   UNL     1      -4.696   2.312   2.473  1.00  0.00     0.023 C 
ENDROOT
BRANCH   1   2
ATOM      2  C   UNL     1      -3.850   1.705   1.364  1.00  0.00     0.116 C 
BRANCH   2   3
ATOM      3  N   UNL     1      -2.965   2.602   0.668  1.00  0.00    -0.351 N 
ATOM      4  C   UNL     1      -1.831   2.312  -0.070  1.00  0.00     0.270 C 
ATOM      5  O   UNL     1      -1.305   3.251  -0.672  1.00  0.00    -0.267 OA
ATOM      6  H   UNL     1      -3.199   3.556   0.725  1.00  0.00     0.163 HD
BRANCH   4   7
ATOM      7  C   UNL     1      -1.177   0.950  -0.105  1.00  0.00     0.138 A 
ATOM      8  C   UNL     1       0.906  -0.075   0.133  1.00  0.00     0.124 A 
ATOM      9  C   UNL     1       0.371  -1.313  -0.161  1.00  0.00     0.047 A 
ATOM     10  N   UNL     1       0.157   1.032   0.197  1.00  0.00    -0.225 NA
ATOM     11  C   UNL     1      -0.984  -1.402  -0.466  1.00  0.00     0.015 A 
ATOM     12  C   UNL     1      -1.801  -0.257  -0.468  1.00  0.00     0.015 A 
BRANCH   8  13
ATOM     13  N   UNL     1       2.248   0.059   0.430  1.00  0.00    -0.384 N 
ATOM     14  H   UNL     1       2.840  -0.727   0.397  1.00  0.00     0.158 HD
ATOM     15  H   UNL     1       2.612   0.940   0.675  1.00  0.00     0.158 HD
ENDBRANCH   8  13
BRANCH  12  16
ATOM     16  C   UNL     1      -3.216  -0.429  -0.835  1.00  0.00     0.006 A 
ATOM     17  C   UNL     1      -4.048  -1.173   0.035  1.00  0.00     0.056 A 
ATOM     18  C   UNL     1      -3.797   0.121  -1.994  1.00  0.00     0.049 A 
ATOM     19  C   UNL     1      -5.417  -1.260  -0.195  1.00  0.00     0.116 A 
ATOM     20  C   UNL     1      -5.171  -0.004  -2.230  1.00  0.00     0.025 A 
ATOM     21  Cl  UNL     1      -2.856   0.954  -3.178  1.00  0.00    -0.084 Cl
ATOM     22  C   UNL     1      -5.984  -0.679  -1.319  1.00  0.00     0.048 A 
BRANCH  19  23
ATOM     23  O   UNL     1      -6.248  -1.861   0.698  1.00  0.00    -0.508 OA
ATOM     24  H   UNL     1      -5.897  -2.264   1.468  1.00  0.00     0.293 HD
ENDBRANCH  19  23
ENDBRANCH  12  16
ENDBRANCH   4   7
ENDBRANCH   2   3
ENDBRANCH   1   2
BRANCH   1  25
ATOM     25  C   UNL     1      -5.691   3.397   2.062  1.00  0.00     0.023 C 
BRANCH  25  26
ATOM     26  C   UNL     1      -6.504   3.183   0.786  1.00  0.00     0.116 C 
BRANCH  26  27
ATOM     27  N   UNL     1      -7.333   1.985   0.761  1.00  0.00    -0.352 N 
ATOM     28  C   UNL     1      -8.669   1.830   0.457  1.00  0.00     0.251 C 
ATOM     29  H   UNL     1      -6.864   1.153   0.999  1.00  0.00     0.163 HD
ATOM     30  O   UNL     1      -9.172   0.710   0.449  1.00  0.00    -0.269 OA
BRANCH  28  31
ATOM     31  C   UNL     1      -9.533   3.008   0.213  1.00  0.00     0.039 A 
ATOM     32  C   UNL     1     -10.751   3.087   0.896  1.00  0.00     0.014 A 
ATOM     33  C   UNL     1      -9.141   4.049  -0.630  1.00  0.00     0.014 A 
ATOM     34  C   UNL     1     -11.501   4.264   0.848  1.00  0.00     0.010 A 
ATOM     35  C   UNL     1      -9.845   5.252  -0.612  1.00  0.00     0.010 A 
ATOM     36  C   UNL     1     -11.012   5.383   0.156  1.00  0.00    -0.014 A 
BRANCH  36  37
ATOM     37  C   UNL     1     -11.660   6.715   0.292  1.00  0.00     0.031 A 
ATOM     38  C   UNL     1     -12.246   7.412  -0.901  1.00  0.00     0.074 A 
ATOM     39  C   UNL     1     -11.632   7.339   1.487  1.00  0.00     0.049 A 
ATOM     40  N   UNL     1     -12.768   8.610  -0.986  1.00  0.00    -0.248 NA
ATOM     41  C   UNL     1     -12.216   6.678  -2.175  1.00  0.00     0.031 C 
ATOM     42  C   UNL     1     -11.035   6.800   2.711  1.00  0.00     0.029 A 
ATOM     43  N   UNL     1     -12.105   8.572   1.868  1.00  0.00    -0.354 N 
ATOM     44  C   UNL     1     -13.108   8.781  -2.320  1.00  0.00     0.074 A 
ATOM     45  C   UNL     1     -12.697   7.581  -3.018  1.00  0.00     0.031 C 
ATOM     46  C   UNL     1     -11.198   7.683   3.709  1.00  0.00     0.029 A 
ATOM     47  C   UNL     1     -11.877   8.866   3.191  1.00  0.00     0.049 A 
ATOM     48  H   UNL     1     -12.564   9.186   1.251  1.00  0.00     0.167 HD
ATOM     49  C   UNL     1     -13.726   9.834  -2.906  1.00  0.00     0.037 A 
ATOM     50  C   UNL     1     -12.175   9.967   3.906  1.00  0.00     0.037 A 
ATOM     51  C   UNL     1     -14.163  11.015  -2.208  1.00  0.00     0.049 A 
ATOM     52  C   UNL     1     -12.881  11.112   3.236  1.00  0.00     0.074 A 
ATOM     53  C   UNL     1     -14.856  12.105  -2.704  1.00  0.00     0.029 A 
ATOM     54  N   UNL     1     -13.949  11.258  -0.859  1.00  0.00    -0.354 N 
ATOM     55  N   UNL     1     -13.262  11.230   1.988  1.00  0.00    -0.248 NA
ATOM     56  C   UNL     1     -13.204  12.274   4.075  1.00  0.00     0.031 C 
ATOM     57  C   UNL     1     -15.034  13.023  -1.664  1.00  0.00     0.029 A 
ATOM     58  C   UNL     1     -14.484  12.488  -0.510  1.00  0.00     0.049 A 
ATOM     59  H   UNL     1     -13.485  10.648  -0.242  1.00  0.00     0.167 HD
ATOM     60  C   UNL     1     -13.890  12.464   1.897  1.00  0.00     0.074 A 
ATOM     61  C   UNL     1     -13.850  13.053   3.219  1.00  0.00     0.031 C 
ATOM     62  C   UNL     1     -14.448  13.055   0.813  1.00  0.00     0.037 A 
BRANCH  49  63
ATOM     63  C   UNL     1     -13.975   9.753  -4.383  1.00  0.00     0.064 A 
ATOM     64  C   UNL     1     -14.944   8.889  -4.915  1.00  0.00     0.173 A 
ATOM     65  C   UNL     1     -13.261  10.568  -5.274  1.00  0.00     0.173 A 
ATOM     66  F   UNL     1     -15.646   8.082  -4.106  1.00  0.00    -0.203 F 
ATOM     67  C   UNL     1     -15.169   8.825  -6.288  1.00  0.00     0.198 A 
ATOM     68  C   UNL     1     -13.507  10.520  -6.643  1.00  0.00     0.198 A 
ATOM     69  F   UNL     1     -12.328  11.416  -4.815  1.00  0.00    -0.203 F 
ATOM     70  F   UNL     1     -16.068   7.959  -6.777  1.00  0.00    -0.200 F 
ATOM     71  C   UNL     1     -14.455   9.643  -7.149  1.00  0.00     0.200 A 
ATOM     72  F   UNL     1     -12.825  11.320  -7.474  1.00  0.00    -0.200 F 
ATOM     73  F   UNL     1     -14.676   9.583  -8.470  1.00  0.00    -0.200 F 
ENDBRANCH  49  63
BRANCH  50  74
ATOM     74  C   UNL     1     -11.836  10.026   5.351  1.00  0.00     0.064 A 
ATOM     75  C   UNL     1     -12.841   9.952   6.325  1.00  0.00     0.173 A 
ATOM     76  C   UNL     1     -10.511  10.158   5.788  1.00  0.00     0.173 A 
ATOM     77  F   UNL     1     -14.126   9.847   5.954  1.00  0.00    -0.203 F 
ATOM     78  C   UNL     1     -12.535  10.025   7.682  1.00  0.00     0.198 A 
ATOM     79  C   UNL     1     -10.203  10.207   7.146  1.00  0.00     0.198 A 
ATOM     80  F   UNL     1      -9.513  10.228   4.895  1.00  0.00    -0.203 F 
ATOM     81  F   UNL     1     -13.519   9.993   8.591  1.00  0.00    -0.200 F 
ATOM     82  C   UNL     1     -11.216  10.147   8.092  1.00  0.00     0.200 A 
ATOM     83  F   UNL     1      -8.927  10.312   7.539  1.00  0.00    -0.200 F 
ATOM     84  F   UNL     1     -10.922  10.215   9.397  1.00  0.00    -0.200 F 
ENDBRANCH  50  74
BRANCH  62  85
ATOM     85  C   UNL     1     -15.093  14.393   1.017  1.00  0.00     0.064 A 
ATOM     86  C   UNL     1     -14.330  15.556   1.195  1.00  0.00     0.173 A 
ATOM     87  C   UNL     1     -16.490  14.518   0.994  1.00  0.00     0.173 A 
ATOM     88  F   UNL     1     -12.991  15.484   1.242  1.00  0.00    -0.203 F 
ATOM     89  C   UNL     1     -14.944  16.794   1.361  1.00  0.00     0.198 A 
ATOM     90  C   UNL     1     -17.099  15.761   1.136  1.00  0.00     0.198 A 
ATOM     91  F   UNL     1     -17.262  13.435   0.824  1.00  0.00    -0.203 F 
ATOM     92  F   UNL     1     -14.197  17.888   1.569  1.00  0.00    -0.200 F 
ATOM     93  C   UNL     1     -16.327  16.897   1.325  1.00  0.00     0.200 A 
ATOM     94  F   UNL     1     -18.435  15.860   1.091  1.00  0.00    -0.200 F 
ATOM     95  F   UNL     1     -16.915  18.091   1.478  1.00  0.00    -0.200 F 
ENDBRANCH  62  85
ENDBRANCH  36  37
ENDBRANCH  28  31
ENDBRANCH  26  27
ENDBRANCH  25  26
ENDBRANCH   1  25
TORSDOF 14
