REMARK SMILES C[C@@H]1CCc2sc(NC(=O)/C=C/C(=O)NCCCCNC(=O)c3ccc(-c4c5nc(c(-c6c(F)c(F)c(F)c(F)c6F)c6ccc([nH]6)c(-c6c(F)c(F)c(F)c(F)c6F)c6nc(c(-c7c(F)c(F)c(F)c(F)c7F)c7ccc4[nH]7)C=C6)C=C5)cc3)c(C#N)c2C1
REMARK SMILES IDX 17 1 16 2 15 3 13 4 14 5 12 7 11 8 9 9 8 10 10 12 7 13 1 14
REMARK SMILES IDX 2 15 3 16 90 17 4 18 89 19 5 20 86 21 6 22 87 23 88 24 18 25
REMARK SMILES IDX 19 26 20 27 21 28 22 30 23 31 24 32 85 33 25 34 84 35 26 36
REMARK SMILES IDX 27 37 28 38 78 39 29 40 83 41 77 42 79 43 30 44 82 45 76 46
REMARK SMILES IDX 75 47 31 49 63 50 43 51 62 52 44 53 47 54 61 55 80 56 45 57
REMARK SMILES IDX 46 58 60 60 81 61 48 62 32 63 33 64 41 65 34 66 35 67 39 68
REMARK SMILES IDX 42 69 36 70 37 71 40 72 38 73 64 74 65 75 73 76 66 77 67 78
REMARK SMILES IDX 71 79 74 80 68 81 69 82 72 83 70 84 49 85 50 86 58 87 51 88
REMARK SMILES IDX 52 89 56 90 59 91 53 92 54 93 57 94 55 95
REMARK H PARENT 15 6 8 11 20 29 79 48 47 59
REMARK Flexibility Score: inf
ROOT
ATOM      1  C   UNL     1       2.445   9.043   4.674  1.00  0.00     0.023 C 
ENDROOT
BRANCH   1   2
ATOM      2  C   UNL     1       2.891   8.519   3.311  1.00  0.00     0.116 C 
BRANCH   2   3
ATOM      3  N   UNL     1       3.121   7.090   3.363  1.00  0.00    -0.353 N 
ATOM      4  C   UNL     1       2.182   6.118   3.504  1.00  0.00     0.244 C 
ATOM      5  O   UNL     1       2.456   5.056   4.057  1.00  0.00    -0.270 OA
ATOM      6  H   UNL     1       4.056   6.792   3.289  1.00  0.00     0.163 HD
BRANCH   4   7
ATOM      7  C   UNL     1       0.814   6.329   2.982  1.00  0.00     0.077 C 
ATOM      8  C   UNL     1       0.629   6.876   1.772  1.00  0.00     0.077 C 
BRANCH   8   9
ATOM      9  C   UNL     1      -0.682   6.897   1.122  1.00  0.00     0.249 C 
ATOM     10  N   UNL     1      -1.274   5.747   0.708  1.00  0.00    -0.313 N 
ATOM     11  H   UNL     1      -2.147   5.880   0.272  1.00  0.00     0.171 HD
ATOM     12  O   UNL     1      -1.232   7.981   0.933  1.00  0.00    -0.270 OA
BRANCH  10  13
ATOM     13  C   UNL     1      -0.881   4.431   0.783  1.00  0.00     0.114 A 
ATOM     14  C   UNL     1       1.063  -0.262  -0.149  1.00  0.00     0.008 C 
ATOM     15  C   UNL     1       0.490  -0.138   1.265  1.00  0.00    -0.009 C 
ATOM     16  C   UNL     1      -1.035  -0.399   1.317  1.00  0.00     0.009 C 
ATOM     17  C   UNL     1       0.823   1.247   1.851  1.00  0.00     0.041 C 
ATOM     18  C   UNL     1      -1.871   0.651   0.572  1.00  0.00     0.047 C 
ATOM     19  C   UNL     1      -0.069   2.316   1.282  1.00  0.00    -0.014 A 
ATOM     20  C   UNL     1      -1.333   2.025   0.810  1.00  0.00     0.011 A 
ATOM     21  C   UNL     1       0.260   3.688   1.022  1.00  0.00     0.090 A 
ATOM     22  S   UNL     1      -2.214   3.415   0.418  1.00  0.00    -0.121 S 
BRANCH  21  23
ATOM     23  C   UNL     1       1.622   4.143   0.958  1.00  0.00     0.103 C 
ATOM     24  N   UNL     1       2.724   4.468   0.841  1.00  0.00    -0.192 NA
ENDBRANCH  21  23
ENDBRANCH  10  13
ENDBRANCH   8   9
ENDBRANCH   4   7
ENDBRANCH   2   3
ENDBRANCH   1   2
BRANCH   1  25
ATOM     25  C   UNL     1       3.511   8.960   5.774  1.00  0.00     0.023 C 
BRANCH  25  26
ATOM     26  C   UNL     1       4.784   9.734   5.465  1.00  0.00     0.116 C 
BRANCH  26  27
ATOM     27  N   UNL     1       4.522  11.144   5.153  1.00  0.00    -0.352 N 
ATOM     28  C   UNL     1       5.402  12.108   4.695  1.00  0.00     0.251 C 
ATOM     29  H   UNL     1       3.594  11.445   5.288  1.00  0.00     0.163 HD
ATOM     30  O   UNL     1       5.169  13.303   4.828  1.00  0.00    -0.269 OA
BRANCH  28  31
ATOM     31  C   UNL     1       6.607  11.660   3.984  1.00  0.00     0.039 A 
ATOM     32  C   UNL     1       7.868  12.235   4.155  1.00  0.00     0.014 A 
ATOM     33  C   UNL     1       6.431  10.567   3.147  1.00  0.00     0.014 A 
ATOM     34  C   UNL     1       8.945  11.674   3.469  1.00  0.00     0.010 A 
ATOM     35  C   UNL     1       7.513   9.854   2.743  1.00  0.00     0.010 A 
ATOM     36  C   UNL     1       8.741  10.484   2.753  1.00  0.00    -0.014 A 
BRANCH  36  37
ATOM     37  C   UNL     1       9.797   9.739   2.096  1.00  0.00     0.031 A 
ATOM     38  C   UNL     1      10.805   9.238   3.056  1.00  0.00     0.074 A 
ATOM     39  C   UNL     1       9.697   9.338   0.806  1.00  0.00     0.049 A 
ATOM     40  N   UNL     1      12.000   9.694   3.214  1.00  0.00    -0.248 NA
ATOM     41  C   UNL     1      10.388   8.294   4.109  1.00  0.00     0.031 C 
ATOM     42  C   UNL     1       8.599   9.546  -0.150  1.00  0.00     0.029 A 
ATOM     43  N   UNL     1      10.564   8.572   0.086  1.00  0.00    -0.354 N 
ATOM     44  C   UNL     1      12.570   8.923   4.218  1.00  0.00     0.074 A 
ATOM     45  C   UNL     1      11.477   8.267   4.882  1.00  0.00     0.031 C 
ATOM     46  C   UNL     1       8.770   8.748  -1.232  1.00  0.00     0.029 A 
ATOM     47  C   UNL     1      10.055   8.085  -1.123  1.00  0.00     0.049 A 
ATOM     48  H   UNL     1      11.479   8.377   0.393  1.00  0.00     0.167 HD
ATOM     49  C   UNL     1      13.909   8.677   4.207  1.00  0.00     0.037 A 
ATOM     50  C   UNL     1      10.672   7.186  -1.940  1.00  0.00     0.037 A 
ATOM     51  C   UNL     1      14.569   9.563   3.274  1.00  0.00     0.049 A 
ATOM     52  C   UNL     1      12.120   7.225  -1.590  1.00  0.00     0.074 A 
ATOM     53  C   UNL     1      14.690  10.935   3.171  1.00  0.00     0.029 A 
ATOM     54  N   UNL     1      14.836   9.063   2.020  1.00  0.00    -0.354 N 
ATOM     55  N   UNL     1      12.870   8.271  -1.812  1.00  0.00    -0.248 NA
ATOM     56  C   UNL     1      12.564   6.349  -0.512  1.00  0.00     0.031 C 
ATOM     57  C   UNL     1      14.529  11.213   1.782  1.00  0.00     0.029 A 
ATOM     58  C   UNL     1      14.445   9.999   1.098  1.00  0.00     0.049 A 
ATOM     59  H   UNL     1      15.237   8.186   1.820  1.00  0.00     0.167 HD
ATOM     60  C   UNL     1      13.602   8.430  -0.644  1.00  0.00     0.074 A 
ATOM     61  C   UNL     1      13.401   7.189   0.107  1.00  0.00     0.031 C 
ATOM     62  C   UNL     1      14.027   9.664  -0.242  1.00  0.00     0.037 A 
BRANCH  49  63
ATOM     63  C   UNL     1      14.565   7.401   4.675  1.00  0.00     0.064 A 
ATOM     64  C   UNL     1      15.973   7.323   4.643  1.00  0.00     0.173 A 
ATOM     65  C   UNL     1      13.894   6.171   4.846  1.00  0.00     0.173 A 
ATOM     66  F   UNL     1      16.715   8.430   4.490  1.00  0.00    -0.203 F 
ATOM     67  C   UNL     1      16.646   6.101   4.664  1.00  0.00     0.198 A 
ATOM     68  C   UNL     1      14.574   4.957   4.917  1.00  0.00     0.198 A 
ATOM     69  F   UNL     1      12.562   6.068   4.840  1.00  0.00    -0.203 F 
ATOM     70  F   UNL     1      17.974   6.071   4.488  1.00  0.00    -0.200 F 
ATOM     71  C   UNL     1      15.945   4.917   4.788  1.00  0.00     0.200 A 
ATOM     72  F   UNL     1      13.874   3.818   5.024  1.00  0.00    -0.200 F 
ATOM     73  F   UNL     1      16.580   3.740   4.738  1.00  0.00    -0.200 F 
ENDBRANCH  49  63
BRANCH  50  74
ATOM     74  C   UNL     1      10.083   6.094  -2.761  1.00  0.00     0.064 A 
ATOM     75  C   UNL     1      10.820   5.434  -3.763  1.00  0.00     0.173 A 
ATOM     76  C   UNL     1       8.875   5.479  -2.380  1.00  0.00     0.173 A 
ATOM     77  F   UNL     1      12.007   5.918  -4.157  1.00  0.00    -0.203 F 
ATOM     78  C   UNL     1      10.383   4.228  -4.331  1.00  0.00     0.198 A 
ATOM     79  C   UNL     1       8.442   4.275  -2.944  1.00  0.00     0.198 A 
ATOM     80  F   UNL     1       8.139   5.985  -1.381  1.00  0.00    -0.203 F 
ATOM     81  F   UNL     1      11.139   3.602  -5.245  1.00  0.00    -0.200 F 
ATOM     82  C   UNL     1       9.200   3.643  -3.911  1.00  0.00     0.200 A 
ATOM     83  F   UNL     1       7.317   3.699  -2.497  1.00  0.00    -0.200 F 
ATOM     84  F   UNL     1       8.813   2.458  -4.405  1.00  0.00    -0.200 F 
ENDBRANCH  50  74
BRANCH  62  85
ATOM     85  C   UNL     1      13.874  10.816  -1.197  1.00  0.00     0.064 A 
ATOM     86  C   UNL     1      12.640  11.345  -1.616  1.00  0.00     0.173 A 
ATOM     87  C   UNL     1      15.028  11.528  -1.543  1.00  0.00     0.173 A 
ATOM     88  F   UNL     1      11.486  10.781  -1.244  1.00  0.00    -0.203 F 
ATOM     89  C   UNL     1      12.573  12.516  -2.371  1.00  0.00     0.198 A 
ATOM     90  C   UNL     1      14.957  12.714  -2.267  1.00  0.00     0.198 A 
ATOM     91  F   UNL     1      16.228  11.102  -1.119  1.00  0.00    -0.203 F 
ATOM     92  F   UNL     1      11.383  13.004  -2.755  1.00  0.00    -0.200 F 
ATOM     93  C   UNL     1      13.732  13.204  -2.688  1.00  0.00     0.200 A 
ATOM     94  F   UNL     1      16.078  13.403  -2.521  1.00  0.00    -0.200 F 
ATOM     95  F   UNL     1      13.668  14.354  -3.373  1.00  0.00    -0.200 F 
ENDBRANCH  62  85
ENDBRANCH  36  37
ENDBRANCH  28  31
ENDBRANCH  26  27
ENDBRANCH  25  26
ENDBRANCH   1  25
TORSDOF 14
