REMARK SMILES COc1ccc(N2C[C@@H](C)Cn3c2nc2c3c(=O)n(CC(=O)NCCCCNC(=O)c3ccc(-c4c5nc(c(-c6c(F)c(F)c(F)c(F)c6F)c6ccc([nH]6)c(-c6c(F)c(F)c(F)c(F)c6F)c6nc(c(-c7c(F)c(F)c(F)c(F)c7F)c7ccc4[nH]7)C=C6)C=C5)cc3)c(=O)n2C)cc1
REMARK SMILES IDX 25 1 24 2 23 3 21 4 22 5 20 7 19 8 7 9 8 10 13 11 9 12 12 13
REMARK SMILES IDX 14 14 11 15 10 16 16 17 15 18 17 19 96 20 18 21 94 22 97 23
REMARK SMILES IDX 95 24 6 25 3 26 4 27 99 28 5 29 98 30 2 31 1 32 26 33 27 34
REMARK SMILES IDX 28 35 29 36 30 38 31 39 32 40 93 41 33 42 92 43 34 44 35 45
REMARK SMILES IDX 36 46 86 47 37 48 91 49 85 50 87 51 38 52 90 53 84 54 83 55
REMARK SMILES IDX 39 57 71 58 51 59 70 60 52 61 55 62 69 63 88 64 53 65 54 66
REMARK SMILES IDX 68 68 89 69 56 70 40 71 41 72 49 73 42 74 43 75 47 76 50 77
REMARK SMILES IDX 44 78 45 79 48 80 46 81 72 82 73 83 81 84 74 85 75 86 79 87
REMARK SMILES IDX 82 88 76 89 77 90 80 91 78 92 57 93 58 94 66 95 59 96 60 97
REMARK SMILES IDX 64 98 67 99 61 100 62 101 65 102 63 103
REMARK H PARENT 23 6 28 37 87 56 55 67
REMARK Flexibility Score: inf
ROOT
ATOM      1  C   UNL     1       3.962   7.705   8.763  1.00  0.00     0.023 C 
ENDROOT
BRANCH   1   2
ATOM      2  C   UNL     1       5.153   7.585   9.713  1.00  0.00     0.116 C 
BRANCH   2   3
ATOM      3  N   UNL     1       4.800   6.927  10.956  1.00  0.00    -0.355 N 
ATOM      4  C   UNL     1       5.308   5.804  11.540  1.00  0.00     0.240 C 
ATOM      5  O   UNL     1       5.035   5.627  12.731  1.00  0.00    -0.273 OA
ATOM      6  H   UNL     1       4.075   7.362  11.461  1.00  0.00     0.163 HD
BRANCH   4   7
ATOM      7  C   UNL     1       6.270   4.860  10.808  1.00  0.00     0.230 C 
BRANCH   7   8
ATOM      8  N   UNL     1       5.709   4.299   9.583  1.00  0.00    -0.249 N 
ATOM      9  N   UNL     1       1.963   1.250   6.346  1.00  0.00    -0.312 N 
ATOM     10  C   UNL     1       1.210   0.352   7.233  1.00  0.00     0.131 C 
ATOM     11  C   UNL     1       2.988   1.979   6.871  1.00  0.00     0.212 A 
ATOM     12  C   UNL     1       0.822   1.112   8.504  1.00  0.00     0.026 C 
ATOM     13  N   UNL     1       3.049   2.149   8.242  1.00  0.00    -0.304 N 
ATOM     14  N   UNL     1       3.963   2.656   6.289  1.00  0.00    -0.194 NA
ATOM     15  C   UNL     1       2.098   1.602   9.190  1.00  0.00     0.131 C 
ATOM     16  C   UNL     1      -0.014   0.254   9.448  1.00  0.00     0.011 C 
ATOM     17  C   UNL     1       4.124   2.934   8.521  1.00  0.00     0.154 A 
ATOM     18  C   UNL     1       4.658   3.235   7.311  1.00  0.00     0.170 A 
ATOM     19  C   UNL     1       4.648   3.402   9.756  1.00  0.00     0.283 A 
ATOM     20  N   UNL     1       5.777   4.029   7.205  1.00  0.00    -0.279 N 
ATOM     21  O   UNL     1       4.214   3.048  10.837  1.00  0.00    -0.267 OA
ATOM     22  C   UNL     1       6.355   4.558   8.363  1.00  0.00     0.332 A 
ATOM     23  C   UNL     1       6.356   4.303   5.902  1.00  0.00     0.157 C 
ATOM     24  O   UNL     1       7.391   5.227   8.319  1.00  0.00    -0.247 OA
BRANCH   9  25
ATOM     25  C   UNL     1       1.634   1.186   4.981  1.00  0.00     0.044 A 
ATOM     26  C   UNL     1       0.897   0.987   2.256  1.00  0.00     0.119 A 
ATOM     27  C   UNL     1      -0.054   1.313   3.219  1.00  0.00     0.048 A 
ATOM     28  C   UNL     1       2.224   0.800   2.642  1.00  0.00     0.048 A 
ATOM     29  C   UNL     1       0.309   1.399   4.564  1.00  0.00     0.030 A 
ATOM     30  C   UNL     1       2.588   0.912   3.994  1.00  0.00     0.030 A 
BRANCH  26  31
ATOM     31  O   UNL     1       0.437   0.943   0.970  1.00  0.00    -0.497 OA
ATOM     32  C   UNL     1       1.040  -0.050   0.148  1.00  0.00     0.278 C 
ENDBRANCH  26  31
ENDBRANCH   9  25
ENDBRANCH   7   8
ENDBRANCH   4   7
ENDBRANCH   2   3
ENDBRANCH   1   2
BRANCH   1  33
ATOM     33  C   UNL     1       2.862   8.695   9.207  1.00  0.00     0.023 C 
BRANCH  33  34
ATOM     34  C   UNL     1       3.236  10.192   9.183  1.00  0.00     0.116 C 
BRANCH  34  35
ATOM     35  N   UNL     1       3.530  10.637   7.832  1.00  0.00    -0.352 N 
ATOM     36  C   UNL     1       3.265  11.787   7.138  1.00  0.00     0.251 C 
ATOM     37  H   UNL     1       4.025   9.971   7.302  1.00  0.00     0.163 HD
ATOM     38  O   UNL     1       3.440  11.756   5.918  1.00  0.00    -0.269 OA
BRANCH  36  39
ATOM     39  C   UNL     1       2.794  13.058   7.742  1.00  0.00     0.039 A 
ATOM     40  C   UNL     1       1.990  13.881   6.933  1.00  0.00     0.014 A 
ATOM     41  C   UNL     1       3.236  13.550   8.971  1.00  0.00     0.014 A 
ATOM     42  C   UNL     1       1.607  15.160   7.347  1.00  0.00     0.010 A 
ATOM     43  C   UNL     1       2.851  14.839   9.386  1.00  0.00     0.010 A 
ATOM     44  C   UNL     1       2.019  15.649   8.587  1.00  0.00    -0.014 A 
BRANCH  44  45
ATOM     45  C   UNL     1       1.400  16.909   9.074  1.00  0.00     0.031 A 
ATOM     46  C   UNL     1       0.853  16.816  10.454  1.00  0.00     0.074 A 
ATOM     47  C   UNL     1       1.709  18.153   8.640  1.00  0.00     0.049 A 
ATOM     48  N   UNL     1       1.637  16.948  11.480  1.00  0.00    -0.248 NA
ATOM     49  C   UNL     1      -0.476  16.322  10.797  1.00  0.00     0.031 C 
ATOM     50  C   UNL     1       2.998  18.526   8.048  1.00  0.00     0.029 A 
ATOM     51  N   UNL     1       1.058  19.361   8.820  1.00  0.00    -0.354 N 
ATOM     52  C   UNL     1       0.964  16.478  12.589  1.00  0.00     0.074 A 
ATOM     53  C   UNL     1      -0.358  16.128  12.124  1.00  0.00     0.031 C 
ATOM     54  C   UNL     1       3.104  19.872   8.053  1.00  0.00     0.029 A 
ATOM     55  C   UNL     1       1.843  20.465   8.500  1.00  0.00     0.049 A 
ATOM     56  H   UNL     1       0.131  19.433   9.142  1.00  0.00     0.167 HD
ATOM     57  C   UNL     1       1.573  16.452  13.806  1.00  0.00     0.037 A 
ATOM     58  C   UNL     1       1.745  21.707   9.047  1.00  0.00     0.037 A 
ATOM     59  C   UNL     1       2.900  17.022  13.857  1.00  0.00     0.049 A 
ATOM     60  C   UNL     1       2.246  21.493  10.448  1.00  0.00     0.074 A 
ATOM     61  C   UNL     1       4.165  16.724  14.311  1.00  0.00     0.029 A 
ATOM     62  N   UNL     1       2.994  18.247  13.264  1.00  0.00    -0.354 N 
ATOM     63  N   UNL     1       3.500  21.402  10.806  1.00  0.00    -0.248 NA
ATOM     64  C   UNL     1       1.283  21.143  11.505  1.00  0.00     0.031 C 
ATOM     65  C   UNL     1       5.018  17.820  13.931  1.00  0.00     0.029 A 
ATOM     66  C   UNL     1       4.249  18.771  13.273  1.00  0.00     0.049 A 
ATOM     67  H   UNL     1       2.222  18.710  12.866  1.00  0.00     0.167 HD
ATOM     68  C   UNL     1       3.470  20.745  12.030  1.00  0.00     0.074 A 
ATOM     69  C   UNL     1       2.100  20.797  12.492  1.00  0.00     0.031 C 
ATOM     70  C   UNL     1       4.486  19.947  12.468  1.00  0.00     0.037 A 
BRANCH  57  71
ATOM     71  C   UNL     1       0.887  16.179  15.083  1.00  0.00     0.064 A 
ATOM     72  C   UNL     1       0.586  17.281  15.904  1.00  0.00     0.173 A 
ATOM     73  C   UNL     1       0.725  14.899  15.611  1.00  0.00     0.173 A 
ATOM     74  F   UNL     1       0.715  18.530  15.426  1.00  0.00    -0.203 F 
ATOM     75  C   UNL     1       0.194  17.110  17.225  1.00  0.00     0.198 A 
ATOM     76  C   UNL     1       0.317  14.729  16.935  1.00  0.00     0.198 A 
ATOM     77  F   UNL     1       1.006  13.819  14.867  1.00  0.00    -0.203 F 
ATOM     78  F   UNL     1      -0.035  18.181  17.997  1.00  0.00    -0.200 F 
ATOM     79  C   UNL     1       0.071  15.832  17.744  1.00  0.00     0.200 A 
ATOM     80  F   UNL     1       0.193  13.495  17.443  1.00  0.00    -0.200 F 
ATOM     81  F   UNL     1      -0.276  15.665  19.028  1.00  0.00    -0.200 F 
ENDBRANCH  57  71
BRANCH  58  82
ATOM     82  C   UNL     1       0.548  22.549   8.718  1.00  0.00     0.064 A 
ATOM     83  C   UNL     1       0.156  22.685   7.370  1.00  0.00     0.173 A 
ATOM     84  C   UNL     1      -0.205  23.292   9.642  1.00  0.00     0.173 A 
ATOM     85  F   UNL     1       0.897  22.139   6.393  1.00  0.00    -0.203 F 
ATOM     86  C   UNL     1      -0.988  23.398   6.995  1.00  0.00     0.198 A 
ATOM     87  C   UNL     1      -1.372  23.969   9.276  1.00  0.00     0.198 A 
ATOM     88  F   UNL     1       0.170  23.395  10.923  1.00  0.00    -0.203 F 
ATOM     89  F   UNL     1      -1.329  23.486   5.702  1.00  0.00    -0.200 F 
ATOM     90  C   UNL     1      -1.774  24.007   7.955  1.00  0.00     0.200 A 
ATOM     91  F   UNL     1      -2.109  24.575  10.217  1.00  0.00    -0.200 F 
ATOM     92  F   UNL     1      -2.902  24.641   7.610  1.00  0.00    -0.200 F 
ENDBRANCH  58  82
BRANCH  70  93
ATOM     93  C   UNL     1       5.816  20.233  11.884  1.00  0.00     0.064 A 
ATOM     94  C   UNL     1       6.409  21.483  12.115  1.00  0.00     0.173 A 
ATOM     95  C   UNL     1       6.524  19.289  11.130  1.00  0.00     0.173 A 
ATOM     96  F   UNL     1       5.776  22.407  12.857  1.00  0.00    -0.203 F 
ATOM     97  C   UNL     1       7.665  21.781  11.607  1.00  0.00     0.198 A 
ATOM     98  C   UNL     1       7.792  19.586  10.640  1.00  0.00     0.198 A 
ATOM     99  F   UNL     1       5.999  18.082  10.872  1.00  0.00    -0.203 F 
ATOM    100  F   UNL     1       8.211  22.983  11.841  1.00  0.00    -0.200 F 
ATOM    101  C   UNL     1       8.360  20.830  10.877  1.00  0.00     0.200 A 
ATOM    102  F   UNL     1       8.473  18.662   9.948  1.00  0.00    -0.200 F 
ATOM    103  F   UNL     1       9.585  21.108  10.413  1.00  0.00    -0.200 F 
ENDBRANCH  70  93
ENDBRANCH  44  45
ENDBRANCH  36  39
ENDBRANCH  34  35
ENDBRANCH  33  34
ENDBRANCH   1  33
TORSDOF 14
