REMARK SMILES N#CCCn1cc(C(=O)NCCCCNC(=O)c2ccc(-c3c4nc(c(-c5c(F)c(F)c(F)c(F)c5F)c5ccc([nH]5)c(-c5c(F)c(F)c(F)c(F)c5F)c5nc(c(-c6c(F)c(F)c(F)c(F)c6F)c6ccc3[nH]6)C=C5)C=C4)cc2)c(-c2cccc([N+](=O)[O-])c2)n1
REMARK SMILES IDX 12 1 11 2 10 3 8 4 9 5 7 7 5 8 6 9 91 10 81 11 4 12 3 13
REMARK SMILES IDX 2 14 1 15 82 16 83 17 90 18 84 19 86 20 85 21 87 22 88 23
REMARK SMILES IDX 89 24 13 25 14 26 15 27 16 28 17 30 18 31 19 32 80 33 20 34
REMARK SMILES IDX 79 35 21 36 22 37 23 38 73 39 24 40 78 41 72 42 74 43 25 44
REMARK SMILES IDX 77 45 71 46 70 47 26 49 58 50 38 51 57 52 39 53 42 54 56 55
REMARK SMILES IDX 75 56 40 57 41 58 55 60 76 61 43 62 27 63 28 64 36 65 29 66
REMARK SMILES IDX 30 67 34 68 37 69 31 70 32 71 35 72 33 73 59 74 60 75 68 76
REMARK SMILES IDX 61 77 62 78 66 79 69 80 63 81 64 82 67 83 65 84 44 85 45 86
REMARK SMILES IDX 53 87 46 88 47 89 51 90 54 91 48 92 49 93 52 94 50 95
REMARK H PARENT 10 6 15 29 74 48 42 59
REMARK Flexibility Score: inf
ROOT
ATOM      1  C   UNL     1       5.463  -5.893   3.396  1.00  0.00     0.023 C 
ENDROOT
BRANCH   1   2
ATOM      2  C   UNL     1       5.910  -5.920   1.934  1.00  0.00     0.116 C 
BRANCH   2   3
ATOM      3  N   UNL     1       4.924  -6.556   1.092  1.00  0.00    -0.352 N 
ATOM      4  C   UNL     1       3.905  -6.054   0.325  1.00  0.00     0.255 C 
ATOM      5  O   UNL     1       3.252  -6.888  -0.301  1.00  0.00    -0.269 OA
ATOM      6  H   UNL     1       4.998  -7.537   1.064  1.00  0.00     0.163 HD
BRANCH   4   7
ATOM      7  C   UNL     1       3.667  -4.621   0.209  1.00  0.00     0.085 A 
ATOM      8  N   UNL     1       3.802  -2.426   0.362  1.00  0.00    -0.270 N 
ATOM      9  C   UNL     1       4.105  -3.584   1.012  1.00  0.00     0.123 A 
ATOM     10  N   UNL     1       3.080  -2.622  -0.747  1.00  0.00    -0.172 NA
ATOM     11  C   UNL     1       2.874  -3.951  -0.786  1.00  0.00     0.105 A 
BRANCH   8  12
ATOM     12  C   UNL     1       4.216  -1.100   0.794  1.00  0.00     0.159 C 
BRANCH  12  13
ATOM     13  C   UNL     1       3.732   0.061  -0.062  1.00  0.00     0.144 C 
BRANCH  13  14
ATOM     14  C   UNL     1       2.212   0.061  -0.062  1.00  0.00     0.064 C 
ATOM     15  N   UNL     1       0.951   0.061  -0.062  1.00  0.00    -0.198 NA
ENDBRANCH  13  14
ENDBRANCH  12  13
ENDBRANCH   8  12
BRANCH  11  16
ATOM     16  C   UNL     1       1.962  -4.533  -1.773  1.00  0.00     0.010 A 
ATOM     17  C   UNL     1       0.950  -5.418  -1.361  1.00  0.00     0.011 A 
ATOM     18  C   UNL     1       2.073  -4.211  -3.130  1.00  0.00     0.096 A 
ATOM     19  C   UNL     1       0.099  -6.024  -2.288  1.00  0.00     0.008 A 
ATOM     20  C   UNL     1       1.216  -4.823  -4.057  1.00  0.00     0.270 A 
ATOM     21  C   UNL     1       0.235  -5.736  -3.643  1.00  0.00     0.085 A 
BRANCH  20  22
ATOM     22  N   UNL     1       1.361  -4.523  -5.487  1.00  0.00     0.062 N 
ATOM     23  O   UNL     1       0.606  -5.108  -6.278  1.00  0.00    -0.258 OA
ATOM     24  O   UNL     1       2.234  -3.711  -5.823  1.00  0.00    -0.258 OA
ENDBRANCH  20  22
ENDBRANCH  11  16
ENDBRANCH   4   7
ENDBRANCH   2   3
ENDBRANCH   1   2
BRANCH   1  25
ATOM     25  C   UNL     1       5.505  -7.258   4.099  1.00  0.00     0.023 C 
BRANCH  25  26
ATOM     26  C   UNL     1       6.899  -7.862   4.239  1.00  0.00     0.116 C 
BRANCH  26  27
ATOM     27  N   UNL     1       7.806  -7.021   5.019  1.00  0.00    -0.352 N 
ATOM     28  C   UNL     1       9.186  -7.091   5.095  1.00  0.00     0.251 C 
ATOM     29  H   UNL     1       7.381  -6.316   5.559  1.00  0.00     0.163 HD
ATOM     30  O   UNL     1       9.798  -6.617   6.034  1.00  0.00    -0.269 OA
BRANCH  28  31
ATOM     31  C   UNL     1       9.907  -7.736   3.985  1.00  0.00     0.039 A 
ATOM     32  C   UNL     1      10.921  -8.668   4.211  1.00  0.00     0.014 A 
ATOM     33  C   UNL     1       9.505  -7.410   2.695  1.00  0.00     0.014 A 
ATOM     34  C   UNL     1      11.467  -9.339   3.118  1.00  0.00     0.010 A 
ATOM     35  C   UNL     1       9.932  -8.173   1.639  1.00  0.00     0.010 A 
ATOM     36  C   UNL     1      10.951  -9.101   1.835  1.00  0.00    -0.014 A 
BRANCH  36  37
ATOM     37  C   UNL     1      11.390  -9.891   0.689  1.00  0.00     0.031 A 
ATOM     38  C   UNL     1      11.217 -11.367   0.827  1.00  0.00     0.074 A 
ATOM     39  C   UNL     1      11.686  -9.322  -0.500  1.00  0.00     0.049 A 
ATOM     40  N   UNL     1      12.123 -12.287   0.758  1.00  0.00    -0.248 NA
ATOM     41  C   UNL     1       9.879 -11.878   1.173  1.00  0.00     0.031 C 
ATOM     42  C   UNL     1      11.584  -7.909  -0.887  1.00  0.00     0.029 A 
ATOM     43  N   UNL     1      12.031  -9.922  -1.670  1.00  0.00    -0.354 N 
ATOM     44  C   UNL     1      11.454 -13.504   0.881  1.00  0.00     0.074 A 
ATOM     45  C   UNL     1      10.107 -13.189   1.282  1.00  0.00     0.031 C 
ATOM     46  C   UNL     1      11.619  -7.803  -2.233  1.00  0.00     0.029 A 
ATOM     47  C   UNL     1      11.922  -9.108  -2.790  1.00  0.00     0.049 A 
ATOM     48  H   UNL     1      12.334 -10.857  -1.719  1.00  0.00     0.167 HD
ATOM     49  C   UNL     1      12.002 -14.668   0.433  1.00  0.00     0.037 A 
ATOM     50  C   UNL     1      12.039  -9.491  -4.085  1.00  0.00     0.037 A 
ATOM     51  C   UNL     1      13.425 -14.541   0.253  1.00  0.00     0.049 A 
ATOM     52  C   UNL     1      12.749 -10.795  -4.093  1.00  0.00     0.074 A 
ATOM     53  C   UNL     1      14.476 -14.226   1.094  1.00  0.00     0.029 A 
ATOM     54  N   UNL     1      13.910 -14.358  -1.019  1.00  0.00    -0.354 N 
ATOM     55  N   UNL     1      13.996 -10.943  -3.740  1.00  0.00    -0.248 NA
ATOM     56  C   UNL     1      11.936 -12.000  -4.040  1.00  0.00     0.031 C 
ATOM     57  C   UNL     1      15.322 -13.379   0.319  1.00  0.00     0.029 A 
ATOM     58  C   UNL     1      14.780 -13.298  -0.965  1.00  0.00     0.049 A 
ATOM     59  H   UNL     1      13.679 -14.887  -1.817  1.00  0.00     0.167 HD
ATOM     60  C   UNL     1      14.019 -12.126  -3.018  1.00  0.00     0.074 A 
ATOM     61  C   UNL     1      12.740 -12.773  -3.305  1.00  0.00     0.031 C 
ATOM     62  C   UNL     1      14.939 -12.336  -2.030  1.00  0.00     0.037 A 
BRANCH  49  63
ATOM     63  C   UNL     1      11.211 -15.811  -0.151  1.00  0.00     0.064 A 
ATOM     64  C   UNL     1      11.844 -17.044  -0.404  1.00  0.00     0.173 A 
ATOM     65  C   UNL     1       9.933 -15.655  -0.731  1.00  0.00     0.173 A 
ATOM     66  F   UNL     1      13.075 -17.289   0.070  1.00  0.00    -0.203 F 
ATOM     67  C   UNL     1      11.264 -18.019  -1.222  1.00  0.00     0.198 A 
ATOM     68  C   UNL     1       9.334 -16.651  -1.500  1.00  0.00     0.198 A 
ATOM     69  F   UNL     1       9.265 -14.496  -0.674  1.00  0.00    -0.203 F 
ATOM     70  F   UNL     1      11.954 -19.126  -1.530  1.00  0.00    -0.200 F 
ATOM     71  C   UNL     1      10.010 -17.821  -1.770  1.00  0.00     0.200 A 
ATOM     72  F   UNL     1       8.127 -16.429  -2.040  1.00  0.00    -0.200 F 
ATOM     73  F   UNL     1       9.475 -18.729  -2.596  1.00  0.00    -0.200 F 
ENDBRANCH  49  63
BRANCH  50  74
ATOM     74  C   UNL     1      11.317  -8.963  -5.266  1.00  0.00     0.064 A 
ATOM     75  C   UNL     1      11.767  -9.225  -6.569  1.00  0.00     0.173 A 
ATOM     76  C   UNL     1      10.021  -8.422  -5.148  1.00  0.00     0.173 A 
ATOM     77  F   UNL     1      12.972  -9.780  -6.766  1.00  0.00    -0.203 F 
ATOM     78  C   UNL     1      10.960  -8.985  -7.686  1.00  0.00     0.198 A 
ATOM     79  C   UNL     1       9.219  -8.177  -6.264  1.00  0.00     0.198 A 
ATOM     80  F   UNL     1       9.471  -8.209  -3.944  1.00  0.00    -0.203 F 
ATOM     81  F   UNL     1      11.401  -9.306  -8.911  1.00  0.00    -0.200 F 
ATOM     82  C   UNL     1       9.682  -8.471  -7.532  1.00  0.00     0.200 A 
ATOM     83  F   UNL     1       7.972  -7.714  -6.096  1.00  0.00    -0.200 F 
ATOM     84  F   UNL     1       8.886  -8.300  -8.596  1.00  0.00    -0.200 F 
ENDBRANCH  50  74
BRANCH  62  85
ATOM     85  C   UNL     1      16.070 -11.350  -1.894  1.00  0.00     0.064 A 
ATOM     86  C   UNL     1      15.897  -9.986  -1.597  1.00  0.00     0.173 A 
ATOM     87  C   UNL     1      17.383 -11.836  -1.913  1.00  0.00     0.173 A 
ATOM     88  F   UNL     1      14.677  -9.459  -1.453  1.00  0.00    -0.203 F 
ATOM     89  C   UNL     1      16.987  -9.145  -1.376  1.00  0.00     0.198 A 
ATOM     90  C   UNL     1      18.469 -11.003  -1.655  1.00  0.00     0.198 A 
ATOM     91  F   UNL     1      17.613 -13.140  -2.133  1.00  0.00    -0.203 F 
ATOM     92  F   UNL     1      16.790  -7.846  -1.105  1.00  0.00    -0.200 F 
ATOM     93  C   UNL     1      18.272  -9.656  -1.398  1.00  0.00     0.200 A 
ATOM     94  F   UNL     1      19.708 -11.514  -1.626  1.00  0.00    -0.200 F 
ATOM     95  F   UNL     1      19.319  -8.858  -1.143  1.00  0.00    -0.200 F 
ENDBRANCH  62  85
ENDBRANCH  36  37
ENDBRANCH  28  31
ENDBRANCH  26  27
ENDBRANCH  25  26
ENDBRANCH   1  25
TORSDOF 16
