REMARK SMILES O=C(C[C@@H]([NH2+]Cc1cccnc1)C(=O)NCCCCNC(=O)c1ccc(-c2c3nc(c(-c4c(F)c(F)c(F)c(F)c4F)c4ccc([nH]4)c(-c4c(F)c(F)c(F)c(F)c4F)c4nc(c(-c5c(F)c(F)c(F)c(F)c5F)c5ccc2[nH]5)C=C4)C=C3)cc1)Nc1ccc2ccccc2c1
REMARK SMILES IDX 17 1 16 2 15 3 13 4 14 5 4 7 3 8 2 9 1 10 86 11 87 13 88 14
REMARK SMILES IDX 96 15 89 16 95 17 90 18 94 19 91 20 93 21 92 22 5 23 6 26
REMARK SMILES IDX 7 27 8 28 12 29 9 30 11 31 10 32 18 33 19 34 20 35 21 36
REMARK SMILES IDX 22 38 23 39 24 40 85 41 25 42 84 43 26 44 27 45 28 46 78 47
REMARK SMILES IDX 29 48 83 49 77 50 79 51 30 52 82 53 76 54 75 55 31 57 63 58
REMARK SMILES IDX 43 59 62 60 44 61 47 62 61 63 80 64 45 65 46 66 60 68 81 69
REMARK SMILES IDX 48 70 32 71 33 72 41 73 34 74 35 75 39 76 42 77 36 78 37 79
REMARK SMILES IDX 40 80 38 81 64 82 65 83 73 84 66 85 67 86 71 87 74 88 68 89
REMARK SMILES IDX 69 90 72 91 70 92 49 93 50 94 58 95 51 96 52 97 56 98 59 99
REMARK SMILES IDX 53 100 54 101 57 102 55 103
REMARK H PARENT 15 6 86 12 5 24 5 25 20 37 79 56 47 67
REMARK Flexibility Score: inf
ROOT
ATOM      1  C   UNL     1       5.400  -0.087  -3.454  1.00  0.00     0.023 C 
ENDROOT
BRANCH   1   2
ATOM      2  C   UNL     1       5.896   0.569  -2.164  1.00  0.00     0.116 C 
BRANCH   2   3
ATOM      3  N   UNL     1       5.486   1.958  -2.095  1.00  0.00    -0.351 N 
ATOM      4  C   UNL     1       4.545   2.559  -1.312  1.00  0.00     0.278 C 
ATOM      5  O   UNL     1       4.390   3.776  -1.445  1.00  0.00    -0.268 OA
ATOM      6  H   UNL     1       5.962   2.562  -2.710  1.00  0.00     0.163 HD
BRANCH   4   7
ATOM      7  C   UNL     1       3.742   1.771  -0.255  1.00  0.00     0.282 C 
BRANCH   7   8
ATOM      8  C   UNL     1       2.838   0.729  -0.949  1.00  0.00     0.175 C 
BRANCH   8   9
ATOM      9  C   UNL     1       2.042  -0.162  -0.016  1.00  0.00     0.230 C 
ATOM     10  O   UNL     1       0.817  -0.181  -0.032  1.00  0.00    -0.274 OA
ATOM     11  N   UNL     1       2.852  -0.912   0.820  1.00  0.00    -0.326 N 
ATOM     12  H   UNL     1       3.821  -0.913   0.647  1.00  0.00     0.169 HD
BRANCH  11  13
ATOM     13  C   UNL     1       2.375  -1.669   1.897  1.00  0.00     0.041 A 
ATOM     14  C   UNL     1       2.947  -1.449   3.149  1.00  0.00     0.027 A 
ATOM     15  C   UNL     1       1.388  -2.640   1.736  1.00  0.00     0.034 A 
ATOM     16  C   UNL     1       2.470  -2.134   4.264  1.00  0.00     0.011 A 
ATOM     17  C   UNL     1       0.987  -3.424   2.833  1.00  0.00    -0.016 A 
ATOM     18  C   UNL     1       1.500  -3.134   4.119  1.00  0.00    -0.018 A 
ATOM     19  C   UNL     1       0.104  -4.506   2.683  1.00  0.00     0.009 A 
ATOM     20  C   UNL     1       1.055  -3.869   5.226  1.00  0.00     0.009 A 
ATOM     21  C   UNL     1      -0.284  -5.268   3.788  1.00  0.00     0.001 A 
ATOM     22  C   UNL     1       0.172  -4.935   5.060  1.00  0.00     0.001 A 
ENDBRANCH  11  13
ENDBRANCH   8   9
ENDBRANCH   7   8
BRANCH   7  23
ATOM     23  N   UNL     1       4.642   1.194   0.794  1.00  0.00    -0.332 N 
ATOM     24  H   UNL     1       5.203   0.457   0.365  1.00  0.00     0.347 HD
ATOM     25  H   UNL     1       4.041   0.845   1.540  1.00  0.00     0.347 HD
BRANCH  23  26
ATOM     26  C   UNL     1       5.559   2.178   1.407  1.00  0.00     0.299 C 
BRANCH  26  27
ATOM     27  C   UNL     1       4.864   3.179   2.289  1.00  0.00     0.024 A 
ATOM     28  C   UNL     1       4.005   2.792   3.326  1.00  0.00     0.013 A 
ATOM     29  C   UNL     1       5.069   4.544   2.113  1.00  0.00     0.120 A 
ATOM     30  C   UNL     1       3.364   3.756   4.095  1.00  0.00     0.021 A 
ATOM     31  N   UNL     1       4.479   5.501   2.865  1.00  0.00    -0.264 NA
ATOM     32  C   UNL     1       3.630   5.086   3.828  1.00  0.00     0.111 A 
ENDBRANCH  26  27
ENDBRANCH  23  26
ENDBRANCH   7  23
ENDBRANCH   4   7
ENDBRANCH   2   3
ENDBRANCH   1   2
BRANCH   1  33
ATOM     33  C   UNL     1       6.074   0.430  -4.723  1.00  0.00     0.023 C 
BRANCH  33  34
ATOM     34  C   UNL     1       7.585   0.257  -4.756  1.00  0.00     0.116 C 
BRANCH  34  35
ATOM     35  N   UNL     1       8.002  -1.134  -4.651  1.00  0.00    -0.352 N 
ATOM     36  C   UNL     1       8.985  -1.780  -5.362  1.00  0.00     0.251 C 
ATOM     37  H   UNL     1       7.519  -1.680  -3.990  1.00  0.00     0.163 HD
ATOM     38  O   UNL     1       9.150  -2.990  -5.258  1.00  0.00    -0.269 OA
BRANCH  36  39
ATOM     39  C   UNL     1       9.822  -0.988  -6.282  1.00  0.00     0.039 A 
ATOM     40  C   UNL     1       9.930  -1.382  -7.617  1.00  0.00     0.014 A 
ATOM     41  C   UNL     1      10.433   0.185  -5.832  1.00  0.00     0.014 A 
ATOM     42  C   UNL     1      10.594  -0.556  -8.525  1.00  0.00     0.010 A 
ATOM     43  C   UNL     1      11.027   1.040  -6.749  1.00  0.00     0.010 A 
ATOM     44  C   UNL     1      11.113   0.679  -8.104  1.00  0.00    -0.014 A 
BRANCH  44  45
ATOM     45  C   UNL     1      11.775   1.618  -9.043  1.00  0.00     0.031 A 
ATOM     46  C   UNL     1      13.222   1.960  -8.835  1.00  0.00     0.074 A 
ATOM     47  C   UNL     1      11.058   2.239  -9.998  1.00  0.00     0.049 A 
ATOM     48  N   UNL     1      13.945   2.891  -9.401  1.00  0.00    -0.248 NA
ATOM     49  C   UNL     1      13.942   1.169  -7.824  1.00  0.00     0.031 C 
ATOM     50  C   UNL     1       9.641   2.010 -10.281  1.00  0.00     0.029 A 
ATOM     51  N   UNL     1      11.422   3.216 -10.892  1.00  0.00    -0.354 N 
ATOM     52  C   UNL     1      15.191   2.819  -8.793  1.00  0.00     0.074 A 
ATOM     53  C   UNL     1      15.114   1.785  -7.784  1.00  0.00     0.031 C 
ATOM     54  C   UNL     1       9.257   2.818 -11.283  1.00  0.00     0.029 A 
ATOM     55  C   UNL     1      10.385   3.656 -11.679  1.00  0.00     0.049 A 
ATOM     56  H   UNL     1      12.339   3.568 -10.962  1.00  0.00     0.167 HD
ATOM     57  C   UNL     1      16.304   3.539  -9.065  1.00  0.00     0.037 A 
ATOM     58  C   UNL     1      10.346   4.640 -12.598  1.00  0.00     0.037 A 
ATOM     59  C   UNL     1      16.382   4.542 -10.094  1.00  0.00     0.049 A 
ATOM     60  C   UNL     1      11.595   5.435 -12.876  1.00  0.00     0.074 A 
ATOM     61  C   UNL     1      17.476   5.293 -10.485  1.00  0.00     0.029 A 
ATOM     62  N   UNL     1      15.320   4.929 -10.898  1.00  0.00    -0.354 N 
ATOM     63  N   UNL     1      12.781   5.331 -12.326  1.00  0.00    -0.248 NA
ATOM     64  C   UNL     1      11.501   6.484 -13.902  1.00  0.00     0.031 C 
ATOM     65  C   UNL     1      17.066   6.165 -11.497  1.00  0.00     0.029 A 
ATOM     66  C   UNL     1      15.730   5.920 -11.774  1.00  0.00     0.049 A 
ATOM     67  H   UNL     1      14.410   4.556 -10.852  1.00  0.00     0.167 HD
ATOM     68  C   UNL     1      13.582   6.267 -12.967  1.00  0.00     0.074 A 
ATOM     69  C   UNL     1      12.748   6.932 -13.945  1.00  0.00     0.031 C 
ATOM     70  C   UNL     1      14.893   6.545 -12.765  1.00  0.00     0.037 A 
BRANCH  57  71
ATOM     71  C   UNL     1      17.526   3.270  -8.236  1.00  0.00     0.064 A 
ATOM     72  C   UNL     1      18.239   2.067  -8.344  1.00  0.00     0.173 A 
ATOM     73  C   UNL     1      18.004   4.239  -7.341  1.00  0.00     0.173 A 
ATOM     74  F   UNL     1      17.816   1.103  -9.175  1.00  0.00    -0.203 F 
ATOM     75  C   UNL     1      19.368   1.831  -7.563  1.00  0.00     0.198 A 
ATOM     76  C   UNL     1      19.152   4.012  -6.586  1.00  0.00     0.198 A 
ATOM     77  F   UNL     1      17.363   5.409  -7.202  1.00  0.00    -0.203 F 
ATOM     78  F   UNL     1      20.000   0.652  -7.643  1.00  0.00    -0.200 F 
ATOM     79  C   UNL     1      19.827   2.806  -6.691  1.00  0.00     0.200 A 
ATOM     80  F   UNL     1      19.603   4.961  -5.753  1.00  0.00    -0.200 F 
ATOM     81  F   UNL     1      20.917   2.579  -5.945  1.00  0.00    -0.200 F 
ENDBRANCH  57  71
BRANCH  58  82
ATOM     82  C   UNL     1       9.086   4.921 -13.335  1.00  0.00     0.064 A 
ATOM     83  C   UNL     1       8.975   4.630 -14.702  1.00  0.00     0.173 A 
ATOM     84  C   UNL     1       7.973   5.488 -12.697  1.00  0.00     0.173 A 
ATOM     85  F   UNL     1      10.019   4.106 -15.360  1.00  0.00    -0.203 F 
ATOM     86  C   UNL     1       7.808   4.914 -15.407  1.00  0.00     0.198 A 
ATOM     87  C   UNL     1       6.796   5.746 -13.397  1.00  0.00     0.198 A 
ATOM     88  F   UNL     1       8.025   5.781 -11.389  1.00  0.00    -0.203 F 
ATOM     89  F   UNL     1       7.746   4.668 -16.722  1.00  0.00    -0.200 F 
ATOM     90  C   UNL     1       6.717   5.467 -14.753  1.00  0.00     0.200 A 
ATOM     91  F   UNL     1       5.740   6.267 -12.758  1.00  0.00    -0.200 F 
ATOM     92  F   UNL     1       5.593   5.737 -15.431  1.00  0.00    -0.200 F 
ENDBRANCH  58  82
BRANCH  70  93
ATOM     93  C   UNL     1      15.536   7.563 -13.661  1.00  0.00     0.064 A 
ATOM     94  C   UNL     1      15.289   8.935 -13.519  1.00  0.00     0.173 A 
ATOM     95  C   UNL     1      16.477   7.158 -14.620  1.00  0.00     0.173 A 
ATOM     96  F   UNL     1      14.388   9.371 -12.625  1.00  0.00    -0.203 F 
ATOM     97  C   UNL     1      15.954   9.865 -14.313  1.00  0.00     0.198 A 
ATOM     98  C   UNL     1      17.160   8.091 -15.393  1.00  0.00     0.198 A 
ATOM     99  F   UNL     1      16.752   5.856 -14.788  1.00  0.00    -0.203 F 
ATOM    100  F   UNL     1      15.682  11.171 -14.183  1.00  0.00    -0.200 F 
ATOM    101  C   UNL     1      16.896   9.444 -15.241  1.00  0.00     0.200 A 
ATOM    102  F   UNL     1      18.081   7.683 -16.277  1.00  0.00    -0.200 F 
ATOM    103  F   UNL     1      17.549  10.343 -15.990  1.00  0.00    -0.200 F 
ENDBRANCH  70  93
ENDBRANCH  44  45
ENDBRANCH  36  39
ENDBRANCH  34  35
ENDBRANCH  33  34
ENDBRANCH   1  33
TORSDOF 17
