REMARK SMILES CC(C)[NH2+][C@@]1(C(=O)NCCCCNC(=O)c2ccc(-c3c4nc(c(-c5c(F)c(F)c(F)c(F)c5F)c5ccc([nH]5)c(-c5c(F)c(F)c(F)c(F)c5F)c5nc(c(-c6c(F)c(F)c(F)c(F)c6F)c6ccc3[nH]6)C=C5)C=C4)cc2)CC[C@H](Sc2ccccn2)C1
REMARK SMILES IDX 10 1 9 2 8 3 6 4 7 5 5 7 79 8 89 9 80 10 81 11 4 12 2 15
REMARK SMILES IDX 1 16 3 17 82 18 83 19 84 20 88 21 85 22 87 23 86 24 11 25
REMARK SMILES IDX 12 26 13 27 14 28 15 30 16 31 17 32 78 33 18 34 77 35 19 36
REMARK SMILES IDX 20 37 21 38 71 39 22 40 76 41 70 42 72 43 23 44 75 45 69 46
REMARK SMILES IDX 68 47 24 49 56 50 36 51 55 52 37 53 40 54 54 55 73 56 38 57
REMARK SMILES IDX 39 58 53 60 74 61 41 62 25 63 26 64 34 65 27 66 28 67 32 68
REMARK SMILES IDX 35 69 29 70 30 71 33 72 31 73 57 74 58 75 66 76 59 77 60 78
REMARK SMILES IDX 64 79 67 80 61 81 62 82 65 83 63 84 42 85 43 86 51 87 44 88
REMARK SMILES IDX 45 89 49 90 52 91 46 92 47 93 50 94 48 95
REMARK H PARENT 8 6 4 13 4 14 13 29 72 48 40 59
REMARK Flexibility Score: inf
ROOT
ATOM      1  C   UNL     1      -0.268  -2.316   6.555  1.00  0.00     0.023 C 
ENDROOT
BRANCH   1   2
ATOM      2  C   UNL     1      -1.310  -1.419   5.910  1.00  0.00     0.116 C 
BRANCH   2   3
ATOM      3  N   UNL     1      -0.766  -0.315   5.167  1.00  0.00    -0.351 N 
ATOM      4  C   UNL     1      -1.117   0.146   3.940  1.00  0.00     0.281 C 
ATOM      5  O   UNL     1      -0.937   1.361   3.760  1.00  0.00    -0.268 OA
ATOM      6  H   UNL     1      -0.036   0.175   5.610  1.00  0.00     0.163 HD
BRANCH   4   7
ATOM      7  C   UNL     1      -1.706  -0.735   2.776  1.00  0.00     0.176 C 
ATOM      8  C   UNL     1      -3.224  -0.431   2.709  1.00  0.00     0.080 C 
ATOM      9  C   UNL     1      -1.655  -2.280   2.857  1.00  0.00     0.094 C 
ATOM     10  C   UNL     1      -3.878  -1.516   3.558  1.00  0.00     0.022 C 
ATOM     11  C   UNL     1      -3.103  -2.759   3.140  1.00  0.00     0.060 C 
BRANCH   7  12
ATOM     12  N   UNL     1      -1.103  -0.227   1.506  1.00  0.00    -0.332 N 
ATOM     13  H   UNL     1      -1.649  -0.610   0.734  1.00  0.00     0.347 HD
ATOM     14  H   UNL     1      -1.126   0.789   1.596  1.00  0.00     0.347 HD
BRANCH  12  15
ATOM     15  C   UNL     1       0.312  -0.550   1.249  1.00  0.00     0.176 C 
ATOM     16  C   UNL     1       0.564  -0.261  -0.237  1.00  0.00     0.075 C 
ATOM     17  C   UNL     1       1.321   0.258   2.072  1.00  0.00     0.075 C 
ENDBRANCH  12  15
ENDBRANCH   7  12
BRANCH  11  18
ATOM     18  S   UNL     1      -3.201  -4.336   4.086  1.00  0.00    -0.103 SA
BRANCH  18  19
ATOM     19  C   UNL     1      -3.821  -3.971   5.716  1.00  0.00     0.096 A 
ATOM     20  C   UNL     1      -5.053  -3.371   5.941  1.00  0.00     0.035 A 
ATOM     21  N   UNL     1      -3.070  -4.455   6.734  1.00  0.00    -0.250 NA
ATOM     22  C   UNL     1      -5.522  -3.250   7.251  1.00  0.00     0.004 A 
ATOM     23  C   UNL     1      -3.568  -4.372   7.990  1.00  0.00     0.112 A 
ATOM     24  C   UNL     1      -4.775  -3.775   8.295  1.00  0.00     0.020 A 
ENDBRANCH  18  19
ENDBRANCH  11  18
ENDBRANCH   4   7
ENDBRANCH   2   3
ENDBRANCH   1   2
BRANCH   1  25
ATOM     25  C   UNL     1       0.439  -1.725   7.765  1.00  0.00     0.023 C 
BRANCH  25  26
ATOM     26  C   UNL     1      -0.440  -0.939   8.726  1.00  0.00     0.116 C 
BRANCH  26  27
ATOM     27  N   UNL     1      -1.648  -1.633   9.157  1.00  0.00    -0.352 N 
ATOM     28  C   UNL     1      -2.216  -1.689  10.411  1.00  0.00     0.251 C 
ATOM     29  H   UNL     1      -2.124  -2.131   8.454  1.00  0.00     0.163 HD
ATOM     30  O   UNL     1      -3.237  -2.317  10.625  1.00  0.00    -0.269 OA
BRANCH  28  31
ATOM     31  C   UNL     1      -1.511  -1.030  11.523  1.00  0.00     0.039 A 
ATOM     32  C   UNL     1      -1.191  -1.796  12.644  1.00  0.00     0.014 A 
ATOM     33  C   UNL     1      -1.071   0.288  11.398  1.00  0.00     0.014 A 
ATOM     34  C   UNL     1      -0.342  -1.264  13.610  1.00  0.00     0.010 A 
ATOM     35  C   UNL     1      -0.141   0.773  12.303  1.00  0.00     0.010 A 
ATOM     36  C   UNL     1       0.227   0.004  13.418  1.00  0.00    -0.014 A 
BRANCH  36  37
ATOM     37  C   UNL     1       1.187   0.571  14.392  1.00  0.00     0.031 A 
ATOM     38  C   UNL     1       0.832   1.841  15.109  1.00  0.00     0.074 A 
ATOM     39  C   UNL     1       2.390  -0.008  14.566  1.00  0.00     0.049 A 
ATOM     40  N   UNL     1       1.563   2.578  15.904  1.00  0.00    -0.248 NA
ATOM     41  C   UNL     1      -0.515   2.382  14.860  1.00  0.00     0.031 C 
ATOM     42  C   UNL     1       2.863  -1.212  13.878  1.00  0.00     0.029 A 
ATOM     43  N   UNL     1       3.442   0.347  15.371  1.00  0.00    -0.354 N 
ATOM     44  C   UNL     1       0.779   3.680  16.216  1.00  0.00     0.074 A 
ATOM     45  C   UNL     1      -0.456   3.550  15.476  1.00  0.00     0.031 C 
ATOM     46  C   UNL     1       4.097  -1.512  14.314  1.00  0.00     0.029 A 
ATOM     47  C   UNL     1       4.516  -0.504  15.282  1.00  0.00     0.049 A 
ATOM     48  H   UNL     1       3.428   1.137  15.958  1.00  0.00     0.167 HD
ATOM     49  C   UNL     1       1.054   4.694  17.068  1.00  0.00     0.037 A 
ATOM     50  C   UNL     1       5.703  -0.467  15.915  1.00  0.00     0.037 A 
ATOM     51  C   UNL     1       2.265   4.782  17.838  1.00  0.00     0.049 A 
ATOM     52  C   UNL     1       5.965   0.644  16.896  1.00  0.00     0.074 A 
ATOM     53  C   UNL     1       2.628   5.733  18.774  1.00  0.00     0.029 A 
ATOM     54  N   UNL     1       3.306   3.867  17.767  1.00  0.00    -0.354 N 
ATOM     55  N   UNL     1       5.198   1.656  17.224  1.00  0.00    -0.248 NA
ATOM     56  C   UNL     1       7.251   0.611  17.605  1.00  0.00     0.031 C 
ATOM     57  C   UNL     1       3.903   5.408  19.250  1.00  0.00     0.029 A 
ATOM     58  C   UNL     1       4.314   4.231  18.643  1.00  0.00     0.049 A 
ATOM     59  H   UNL     1       3.325   3.076  17.181  1.00  0.00     0.167 HD
ATOM     60  C   UNL     1       5.891   2.361  18.198  1.00  0.00     0.074 A 
ATOM     61  C   UNL     1       7.136   1.652  18.417  1.00  0.00     0.031 C 
ATOM     62  C   UNL     1       5.533   3.493  18.853  1.00  0.00     0.037 A 
BRANCH  49  63
ATOM     63  C   UNL     1       0.020   5.772  17.212  1.00  0.00     0.064 A 
ATOM     64  C   UNL     1      -1.221   5.525  17.820  1.00  0.00     0.173 A 
ATOM     65  C   UNL     1       0.269   7.067  16.735  1.00  0.00     0.173 A 
ATOM     66  F   UNL     1      -1.518   4.298  18.275  1.00  0.00    -0.203 F 
ATOM     67  C   UNL     1      -2.188   6.523  17.909  1.00  0.00     0.198 A 
ATOM     68  C   UNL     1      -0.687   8.072  16.857  1.00  0.00     0.198 A 
ATOM     69  F   UNL     1       1.439   7.358  16.146  1.00  0.00    -0.203 F 
ATOM     70  F   UNL     1      -3.389   6.244  18.433  1.00  0.00    -0.200 F 
ATOM     71  C   UNL     1      -1.918   7.797  17.434  1.00  0.00     0.200 A 
ATOM     72  F   UNL     1      -0.421   9.306  16.406  1.00  0.00    -0.200 F 
ATOM     73  F   UNL     1      -2.849   8.757  17.520  1.00  0.00    -0.200 F 
ENDBRANCH  49  63
BRANCH  50  74
ATOM     74  C   UNL     1       6.709  -1.536  15.681  1.00  0.00     0.064 A 
ATOM     75  C   UNL     1       7.001  -2.476  16.680  1.00  0.00     0.173 A 
ATOM     76  C   UNL     1       7.397  -1.644  14.464  1.00  0.00     0.173 A 
ATOM     77  F   UNL     1       6.381  -2.405  17.867  1.00  0.00    -0.203 F 
ATOM     78  C   UNL     1       7.960  -3.467  16.480  1.00  0.00     0.198 A 
ATOM     79  C   UNL     1       8.337  -2.652  14.256  1.00  0.00     0.198 A 
ATOM     80  F   UNL     1       7.149  -0.775  13.473  1.00  0.00    -0.203 F 
ATOM     81  F   UNL     1       8.252  -4.323  17.469  1.00  0.00    -0.200 F 
ATOM     82  C   UNL     1       8.624  -3.557  15.266  1.00  0.00     0.200 A 
ATOM     83  F   UNL     1       8.967  -2.744  13.076  1.00  0.00    -0.200 F 
ATOM     84  F   UNL     1       9.544  -4.511  15.073  1.00  0.00    -0.200 F 
ENDBRANCH  50  74
BRANCH  62  85
ATOM     85  C   UNL     1       6.476   4.001  19.902  1.00  0.00     0.064 A 
ATOM     86  C   UNL     1       7.694   4.609  19.567  1.00  0.00     0.173 A 
ATOM     87  C   UNL     1       6.135   3.911  21.260  1.00  0.00     0.173 A 
ATOM     88  F   UNL     1       8.070   4.705  18.283  1.00  0.00    -0.203 F 
ATOM     89  C   UNL     1       8.550   5.083  20.556  1.00  0.00     0.198 A 
ATOM     90  C   UNL     1       6.979   4.413  22.245  1.00  0.00     0.198 A 
ATOM     91  F   UNL     1       4.976   3.345  21.630  1.00  0.00    -0.203 F 
ATOM     92  F   UNL     1       9.732   5.617  20.217  1.00  0.00    -0.200 F 
ATOM     93  C   UNL     1       8.190   4.991  21.893  1.00  0.00     0.200 A 
ATOM     94  F   UNL     1       6.623   4.335  23.534  1.00  0.00    -0.200 F 
ATOM     95  F   UNL     1       9.013   5.454  22.843  1.00  0.00    -0.200 F 
ENDBRANCH  62  85
ENDBRANCH  36  37
ENDBRANCH  28  31
ENDBRANCH  26  27
ENDBRANCH  25  26
ENDBRANCH   1  25
TORSDOF 15
