REMARK SMILES Cc1ccc(S(=O)(=O)n2cc(C(=O)C(=O)NCC(=O)N[C@@H](Cc3c[nH]c4ccccc34)C(=O)NCCCCNC(=O)c3ccc(-c4c5nc(c(-c6c(F)c(F)c(F)c(F)c6F)c6ccc([nH]6)c(-c6c(F)c(F)c(F)c(F)c6F)c6nc(c(-c7c(F)c(F)c(F)c(F)c7F)c7ccc4[nH]7)C=C6)C=C5)cc3)c3ccccc32)cc1
REMARK SMILES IDX 32 1 33 2 34 3 21 5 20 6 18 7 19 8 17 10 16 11 14 12 15 13
REMARK SMILES IDX 12 15 13 16 11 17 9 18 10 19 110 20 105 21 109 22 106 23
REMARK SMILES IDX 108 24 107 25 6 26 7 27 8 28 5 29 1 30 2 31 3 32 112 33 4 34
REMARK SMILES IDX 111 35 22 36 23 37 24 38 31 39 25 40 26 41 30 42 27 44 29 45
REMARK SMILES IDX 28 46 35 47 36 48 37 49 38 50 39 51 40 52 41 54 42 55 43 56
REMARK SMILES IDX 104 57 44 58 103 59 45 60 46 61 47 62 97 63 48 64 102 65
REMARK SMILES IDX 96 66 98 67 49 68 101 69 95 70 94 71 50 73 82 74 62 75 81 76
REMARK SMILES IDX 63 77 66 78 80 79 99 80 64 81 65 82 79 84 100 85 67 86 51 87
REMARK SMILES IDX 52 88 60 89 53 90 54 91 58 92 61 93 55 94 56 95 59 96 57 97
REMARK SMILES IDX 83 98 84 99 92 100 85 101 86 102 90 103 93 104 87 105 88 106
REMARK SMILES IDX 91 107 89 108 68 109 69 110 77 111 70 112 71 113 75 114
REMARK SMILES IDX 78 115 72 116 73 117 76 118 74 119
REMARK H PARENT 34 4 20 9 16 14 25 43 39 53 98 72 66 83
REMARK Flexibility Score: inf
ROOT
ATOM      1  C   UNL     1      -9.722   0.326   3.239  1.00  0.00     0.242 C 
ATOM      2  O   UNL     1      -8.781  -0.469   3.122  1.00  0.00    -0.273 OA
ATOM      3  N   UNL     1     -10.734  -0.063   4.069  1.00  0.00    -0.354 N 
ATOM      4  H   UNL     1     -10.861  -1.037   4.133  1.00  0.00     0.163 HD
ENDROOT
BRANCH   1   5
ATOM      5  C   UNL     1      -9.638   1.702   2.531  1.00  0.00     0.175 C 
BRANCH   5   6
ATOM      6  N   UNL     1     -10.924   2.240   2.080  1.00  0.00    -0.342 N 
ATOM      7  C   UNL     1     -11.424   2.236   0.807  1.00  0.00     0.240 C 
ATOM      8  O   UNL     1     -12.637   2.382   0.654  1.00  0.00    -0.273 OA
ATOM      9  H   UNL     1     -11.491   2.652   2.771  1.00  0.00     0.164 HD
BRANCH   7  10
ATOM     10  C   UNL     1     -10.474   1.996  -0.381  1.00  0.00     0.216 C 
BRANCH  10  11
ATOM     11  N   UNL     1      -9.367   2.959  -0.336  1.00  0.00    -0.340 N 
ATOM     12  C   UNL     1      -8.028   2.762  -0.625  1.00  0.00     0.292 C 
ATOM     13  O   UNL     1      -7.203   3.641  -0.408  1.00  0.00    -0.265 OA
ATOM     14  H   UNL     1      -9.612   3.873  -0.061  1.00  0.00     0.164 HD
BRANCH  12  15
ATOM     15  C   UNL     1      -7.579   1.418  -1.208  1.00  0.00     0.252 C 
ATOM     16  O   UNL     1      -8.246   0.985  -2.148  1.00  0.00    -0.283 OA
BRANCH  15  17
ATOM     17  C   UNL     1      -6.529   0.616  -0.563  1.00  0.00     0.054 A 
ATOM     18  N   UNL     1      -4.663  -0.159   0.455  1.00  0.00    -0.240 N 
ATOM     19  C   UNL     1      -5.244   0.966  -0.129  1.00  0.00     0.117 A 
ATOM     20  C   UNL     1      -5.663  -1.140   0.571  1.00  0.00     0.065 A 
ATOM     21  C   UNL     1      -6.648  -0.791  -0.347  1.00  0.00     0.012 A 
ATOM     22  C   UNL     1      -5.631  -2.415   1.169  1.00  0.00     0.028 A 
ATOM     23  C   UNL     1      -7.516  -1.799  -0.818  1.00  0.00     0.011 A 
ATOM     24  C   UNL     1      -6.442  -3.411   0.630  1.00  0.00     0.002 A 
ATOM     25  C   UNL     1      -7.346  -3.117  -0.380  1.00  0.00     0.001 A 
BRANCH  18  26
ATOM     26  S   UNL     1      -3.132  -0.879   0.036  1.00  0.00     0.268 S 
ATOM     27  O   UNL     1      -3.373  -1.388  -1.305  1.00  0.00    -0.201 OA
ATOM     28  O   UNL     1      -2.899  -1.782   1.155  1.00  0.00    -0.201 OA
BRANCH  26  29
ATOM     29  C   UNL     1      -1.581  -0.067  -0.071  1.00  0.00     0.088 A 
ATOM     30  C   UNL     1       2.626   0.911  -0.047  1.00  0.00     0.044 C 
ATOM     31  C   UNL     1       1.153   0.619  -0.104  1.00  0.00    -0.051 A 
ATOM     32  C   UNL     1       0.778  -0.695  -0.340  1.00  0.00     0.005 A 
ATOM     33  C   UNL     1       0.150   1.588   0.124  1.00  0.00     0.005 A 
ATOM     34  C   UNL     1      -0.565  -1.021  -0.334  1.00  0.00     0.022 A 
ATOM     35  C   UNL     1      -1.230   1.253   0.148  1.00  0.00     0.022 A 
ENDBRANCH  26  29
ENDBRANCH  18  26
ENDBRANCH  15  17
ENDBRANCH  12  15
ENDBRANCH  10  11
ENDBRANCH   7  10
ENDBRANCH   5   6
BRANCH   5  36
ATOM     36  C   UNL     1      -8.737   2.742   3.225  1.00  0.00     0.072 C 
BRANCH  36  37
ATOM     37  C   UNL     1      -9.140   3.078   4.620  1.00  0.00    -0.020 A 
ATOM     38  C   UNL     1      -8.924   2.274   5.721  1.00  0.00     0.087 A 
ATOM     39  C   UNL     1      -9.799   4.256   5.091  1.00  0.00     0.003 A 
ATOM     40  N   UNL     1      -9.597   2.815   6.777  1.00  0.00    -0.361 N 
ATOM     41  C   UNL     1     -10.161   4.013   6.417  1.00  0.00     0.046 A 
ATOM     42  C   UNL     1     -10.159   5.492   4.515  1.00  0.00     0.010 A 
ATOM     43  H   UNL     1      -9.667   2.404   7.669  1.00  0.00     0.166 HD
ATOM     44  C   UNL     1     -10.952   4.897   7.156  1.00  0.00     0.026 A 
ATOM     45  C   UNL     1     -10.881   6.424   5.272  1.00  0.00     0.001 A 
ATOM     46  C   UNL     1     -11.294   6.116   6.565  1.00  0.00     0.002 A 
ENDBRANCH  36  37
ENDBRANCH   5  36
ENDBRANCH   1   5
BRANCH   3  47
ATOM     47  C   UNL     1     -11.655   0.724   4.872  1.00  0.00     0.116 C 
BRANCH  47  48
ATOM     48  C   UNL     1     -13.042   0.101   5.034  1.00  0.00     0.023 C 
BRANCH  48  49
ATOM     49  C   UNL     1     -13.095  -1.185   5.866  1.00  0.00     0.023 C 
BRANCH  49  50
ATOM     50  C   UNL     1     -12.658  -1.042   7.320  1.00  0.00     0.116 C 
BRANCH  50  51
ATOM     51  N   UNL     1     -13.633  -0.436   8.209  1.00  0.00    -0.352 N 
ATOM     52  C   UNL     1     -13.573  -0.163   9.568  1.00  0.00     0.251 C 
ATOM     53  H   UNL     1     -14.478  -0.176   7.776  1.00  0.00     0.163 HD
ATOM     54  O   UNL     1     -14.587   0.207  10.136  1.00  0.00    -0.269 OA
BRANCH  52  55
ATOM     55  C   UNL     1     -12.277  -0.158  10.312  1.00  0.00     0.039 A 
ATOM     56  C   UNL     1     -12.167   0.690  11.430  1.00  0.00     0.014 A 
ATOM     57  C   UNL     1     -11.139  -0.802   9.845  1.00  0.00     0.014 A 
ATOM     58  C   UNL     1     -10.910   1.076  11.896  1.00  0.00     0.010 A 
ATOM     59  C   UNL     1      -9.899  -0.339  10.217  1.00  0.00     0.010 A 
ATOM     60  C   UNL     1      -9.790   0.650  11.196  1.00  0.00    -0.014 A 
BRANCH  60  61
ATOM     61  C   UNL     1      -8.469   1.250  11.293  1.00  0.00     0.031 A 
ATOM     62  C   UNL     1      -7.352   0.497  11.897  1.00  0.00     0.074 A 
ATOM     63  C   UNL     1      -8.263   2.381  10.584  1.00  0.00     0.049 A 
ATOM     64  N   UNL     1      -6.203   1.003  12.179  1.00  0.00    -0.248 NA
ATOM     65  C   UNL     1      -7.466  -0.909  12.270  1.00  0.00     0.031 C 
ATOM     66  C   UNL     1      -6.997   2.916  10.098  1.00  0.00     0.029 A 
ATOM     67  N   UNL     1      -9.202   3.376  10.287  1.00  0.00    -0.354 N 
ATOM     68  C   UNL     1      -5.361  -0.024  12.548  1.00  0.00     0.074 A 
ATOM     69  C   UNL     1      -6.207  -1.191  12.621  1.00  0.00     0.031 C 
ATOM     70  C   UNL     1      -7.167   4.207   9.771  1.00  0.00     0.029 A 
ATOM     71  C   UNL     1      -8.497   4.592  10.217  1.00  0.00     0.049 A 
ATOM     72  H   UNL     1     -10.169   3.250  10.153  1.00  0.00     0.167 HD
ATOM     73  C   UNL     1      -4.022   0.223  12.644  1.00  0.00     0.037 A 
ATOM     74  C   UNL     1      -8.743   5.579  11.128  1.00  0.00     0.037 A 
ATOM     75  C   UNL     1      -3.747   1.636  12.400  1.00  0.00     0.049 A 
ATOM     76  C   UNL     1      -7.553   5.903  11.993  1.00  0.00     0.074 A 
ATOM     77  C   UNL     1      -3.396   2.329  11.253  1.00  0.00     0.029 A 
ATOM     78  N   UNL     1      -4.167   2.584  13.325  1.00  0.00    -0.354 N 
ATOM     79  N   UNL     1      -6.572   5.075  12.223  1.00  0.00    -0.248 NA
ATOM     80  C   UNL     1      -7.388   7.181  12.676  1.00  0.00     0.031 C 
ATOM     81  C   UNL     1      -3.680   3.701  11.470  1.00  0.00     0.029 A 
ATOM     82  C   UNL     1      -4.167   3.844  12.758  1.00  0.00     0.049 A 
ATOM     83  H   UNL     1      -4.428   2.386  14.254  1.00  0.00     0.167 HD
ATOM     84  C   UNL     1      -5.677   5.665  13.072  1.00  0.00     0.074 A 
ATOM     85  C   UNL     1      -6.223   6.987  13.316  1.00  0.00     0.031 C 
ATOM     86  C   UNL     1      -4.569   5.011  13.525  1.00  0.00     0.037 A 
BRANCH  73  87
ATOM     87  C   UNL     1      -2.942  -0.837  12.692  1.00  0.00     0.064 A 
ATOM     88  C   UNL     1      -1.653  -0.572  12.177  1.00  0.00     0.173 A 
ATOM     89  C   UNL     1      -3.116  -2.144  13.185  1.00  0.00     0.173 A 
ATOM     90  F   UNL     1      -1.303   0.653  11.762  1.00  0.00    -0.203 F 
ATOM     91  C   UNL     1      -0.667  -1.557  12.064  1.00  0.00     0.198 A 
ATOM     92  C   UNL     1      -2.150  -3.144  13.023  1.00  0.00     0.198 A 
ATOM     93  F   UNL     1      -4.198  -2.483  13.894  1.00  0.00    -0.203 F 
ATOM     94  F   UNL     1       0.535  -1.241  11.561  1.00  0.00    -0.200 F 
ATOM     95  C   UNL     1      -0.928  -2.853  12.453  1.00  0.00     0.200 A 
ATOM     96  F   UNL     1      -2.414  -4.394  13.432  1.00  0.00    -0.200 F 
ATOM     97  F   UNL     1      -0.001  -3.809  12.307  1.00  0.00    -0.200 F 
ENDBRANCH  73  87
BRANCH  74  98
ATOM     98  C   UNL     1     -10.157   5.615  11.594  1.00  0.00     0.064 A 
ATOM     99  C   UNL     1     -11.134   6.077  10.698  1.00  0.00     0.173 A 
ATOM    100  C   UNL     1     -10.588   4.835  12.675  1.00  0.00     0.173 A 
ATOM    101  F   UNL     1     -10.775   6.841   9.655  1.00  0.00    -0.203 F 
ATOM    102  C   UNL     1     -12.461   5.657  10.792  1.00  0.00     0.198 A 
ATOM    103  C   UNL     1     -11.922   4.431  12.777  1.00  0.00     0.198 A 
ATOM    104  F   UNL     1      -9.702   4.349  13.556  1.00  0.00    -0.203 F 
ATOM    105  F   UNL     1     -13.338   6.002   9.839  1.00  0.00    -0.200 F 
ATOM    106  C   UNL     1     -12.846   4.806  11.813  1.00  0.00     0.200 A 
ATOM    107  F   UNL     1     -12.291   3.588  13.753  1.00  0.00    -0.200 F 
ATOM    108  F   UNL     1     -14.091   4.311  11.843  1.00  0.00    -0.200 F 
ENDBRANCH  74  98
BRANCH  86 109
ATOM    109  C   UNL     1      -3.719   5.454  14.687  1.00  0.00     0.064 A 
ATOM    110  C   UNL     1      -4.224   6.173  15.783  1.00  0.00     0.173 A 
ATOM    111  C   UNL     1      -2.384   5.004  14.810  1.00  0.00     0.173 A 
ATOM    112  F   UNL     1      -5.508   6.552  15.837  1.00  0.00    -0.203 F 
ATOM    113  C   UNL     1      -3.435   6.473  16.894  1.00  0.00     0.198 A 
ATOM    114  C   UNL     1      -1.619   5.252  15.948  1.00  0.00     0.198 A 
ATOM    115  F   UNL     1      -1.796   4.283  13.844  1.00  0.00    -0.203 F 
ATOM    116  F   UNL     1      -3.952   7.196  17.897  1.00  0.00    -0.200 F 
ATOM    117  C   UNL     1      -2.139   6.000  16.984  1.00  0.00     0.200 A 
ATOM    118  F   UNL     1      -0.384   4.739  16.045  1.00  0.00    -0.200 F 
ATOM    119  F   UNL     1      -1.403   6.245  18.076  1.00  0.00    -0.200 F 
ENDBRANCH  86 109
ENDBRANCH  60  61
ENDBRANCH  52  55
ENDBRANCH  50  51
ENDBRANCH  49  50
ENDBRANCH  48  49
ENDBRANCH  47  48
ENDBRANCH   3  47
TORSDOF 20
