REMARK SMILES Cc1nn(CC(F)F)c2c1c(C(F)(F)F)cc(=O)n2CC(=O)NCCCCNC(=O)c1ccc(-c2c3nc(c(-c4c(F)c(F)c(F)c(F)c4F)c4ccc([nH]4)c(-c4c(F)c(F)c(F)c(F)c4F)c4nc(c(-c5c(F)c(F)c(F)c(F)c5F)c5ccc2[nH]5)C=C4)C=C3)cc1
REMARK SMILES IDX 25 1 24 2 23 3 21 4 22 5 20 7 19 8 1 9 2 10 3 11 10 12 4 13
REMARK SMILES IDX 9 14 11 15 16 16 17 17 18 18 5 19 6 20 7 21 8 22 12 23 13 24
REMARK SMILES IDX 14 25 15 26 26 27 27 28 28 29 29 30 30 32 31 33 32 34 93 35
REMARK SMILES IDX 33 36 92 37 34 38 35 39 36 40 86 41 37 42 91 43 85 44 87 45
REMARK SMILES IDX 38 46 90 47 84 48 83 49 39 51 71 52 51 53 70 54 52 55 55 56
REMARK SMILES IDX 69 57 88 58 53 59 54 60 68 62 89 63 56 64 40 65 41 66 49 67
REMARK SMILES IDX 42 68 43 69 47 70 50 71 44 72 45 73 48 74 46 75 72 76 73 77
REMARK SMILES IDX 81 78 74 79 75 80 79 81 82 82 76 83 77 84 80 85 78 86 57 87
REMARK SMILES IDX 58 88 66 89 59 90 60 91 64 92 67 93 61 94 62 95 65 96 63 97
REMARK H PARENT 23 6 28 31 87 50 55 61
REMARK Flexibility Score: inf
ROOT
ATOM      1  C   UNL     1      -4.220   0.004   3.467  1.00  0.00     0.023 C 
ENDROOT
BRANCH   1   2
ATOM      2  C   UNL     1      -3.824  -0.283   4.910  1.00  0.00     0.116 C 
BRANCH   2   3
ATOM      3  N   UNL     1      -3.329  -1.629   5.082  1.00  0.00    -0.355 N 
ATOM      4  C   UNL     1      -2.129  -2.034   5.575  1.00  0.00     0.240 C 
ATOM      5  O   UNL     1      -2.041  -3.213   5.933  1.00  0.00    -0.273 OA
ATOM      6  H   UNL     1      -3.941  -2.348   4.805  1.00  0.00     0.163 HD
BRANCH   4   7
ATOM      7  C   UNL     1      -0.969  -1.059   5.797  1.00  0.00     0.227 C 
BRANCH   7   8
ATOM      8  N   UNL     1      -0.604  -0.193   4.670  1.00  0.00    -0.283 N 
ATOM      9  C   UNL     1       1.080  -0.175  -0.080  1.00  0.00     0.069 C 
ATOM     10  C   UNL     1       0.649  -0.511   1.303  1.00  0.00     0.069 A 
ATOM     11  N   UNL     1       0.768  -1.785   1.690  1.00  0.00    -0.175 NA
ATOM     12  C   UNL     1       0.142   0.280   2.359  1.00  0.00     0.053 A 
ATOM     13  N   UNL     1       0.325  -1.821   2.964  1.00  0.00    -0.243 N 
ATOM     14  C   UNL     1      -0.088  -0.588   3.419  1.00  0.00     0.142 A 
ATOM     15  C   UNL     1      -0.144   1.667   2.534  1.00  0.00     0.074 A 
ATOM     16  C   UNL     1      -0.548   2.109   3.734  1.00  0.00     0.085 A 
ATOM     17  C   UNL     1      -0.749   1.190   4.885  1.00  0.00     0.253 A 
ATOM     18  O   UNL     1      -1.086   1.694   5.948  1.00  0.00    -0.269 OA
BRANCH  13  19
ATOM     19  C   UNL     1       0.383  -3.114   3.601  1.00  0.00     0.219 C 
BRANCH  19  20
ATOM     20  C   UNL     1       1.636  -3.318   4.413  1.00  0.00     0.363 C 
ATOM     21  F   UNL     1       1.801  -2.332   5.329  1.00  0.00    -0.208 F 
ATOM     22  F   UNL     1       1.520  -4.472   5.124  1.00  0.00    -0.208 F 
ENDBRANCH  19  20
ENDBRANCH  13  19
BRANCH  15  23
ATOM     23  C   UNL     1       0.004   2.595   1.373  1.00  0.00     0.417 C 
ATOM     24  F   UNL     1       1.265   2.607   0.873  1.00  0.00    -0.166 F 
ATOM     25  F   UNL     1      -0.836   2.277   0.355  1.00  0.00    -0.166 F 
ATOM     26  F   UNL     1      -0.283   3.884   1.704  1.00  0.00    -0.166 F 
ENDBRANCH  15  23
ENDBRANCH   7   8
ENDBRANCH   4   7
ENDBRANCH   2   3
ENDBRANCH   1   2
BRANCH   1  27
ATOM     27  C   UNL     1      -5.420  -0.812   2.964  1.00  0.00     0.023 C 
BRANCH  27  28
ATOM     28  C   UNL     1      -6.620  -0.835   3.915  1.00  0.00     0.116 C 
BRANCH  28  29
ATOM     29  N   UNL     1      -7.083   0.486   4.289  1.00  0.00    -0.352 N 
ATOM     30  C   UNL     1      -8.019   1.354   3.805  1.00  0.00     0.251 C 
ATOM     31  H   UNL     1      -6.612   0.841   5.078  1.00  0.00     0.163 HD
ATOM     32  O   UNL     1      -8.228   2.361   4.486  1.00  0.00    -0.269 OA
BRANCH  30  33
ATOM     33  C   UNL     1      -8.735   1.208   2.512  1.00  0.00     0.039 A 
ATOM     34  C   UNL     1      -8.573   0.156   1.613  1.00  0.00     0.014 A 
ATOM     35  C   UNL     1      -9.576   2.279   2.150  1.00  0.00     0.014 A 
ATOM     36  C   UNL     1      -9.136   0.224   0.347  1.00  0.00     0.010 A 
ATOM     37  C   UNL     1     -10.157   2.346   0.890  1.00  0.00     0.010 A 
ATOM     38  C   UNL     1      -9.883   1.343  -0.030  1.00  0.00    -0.014 A 
BRANCH  38  39
ATOM     39  C   UNL     1     -10.397   1.368  -1.393  1.00  0.00     0.031 A 
ATOM     40  C   UNL     1     -11.287   0.224  -1.745  1.00  0.00     0.074 A 
ATOM     41  C   UNL     1     -10.130   2.358  -2.266  1.00  0.00     0.049 A 
ATOM     42  N   UNL     1     -11.103  -0.685  -2.647  1.00  0.00    -0.248 NA
ATOM     43  C   UNL     1     -12.475   0.004  -0.906  1.00  0.00     0.031 C 
ATOM     44  C   UNL     1      -9.498   3.656  -2.018  1.00  0.00     0.029 A 
ATOM     45  N   UNL     1     -10.452   2.426  -3.588  1.00  0.00    -0.354 N 
ATOM     46  C   UNL     1     -12.223  -1.513  -2.596  1.00  0.00     0.074 A 
ATOM     47  C   UNL     1     -12.975  -1.113  -1.435  1.00  0.00     0.031 C 
ATOM     48  C   UNL     1      -9.692   4.460  -3.090  1.00  0.00     0.029 A 
ATOM     49  C   UNL     1     -10.326   3.690  -4.146  1.00  0.00     0.049 A 
ATOM     50  H   UNL     1     -10.749   1.643  -4.105  1.00  0.00     0.167 HD
ATOM     51  C   UNL     1     -12.544  -2.351  -3.620  1.00  0.00     0.037 A 
ATOM     52  C   UNL     1     -10.779   4.077  -5.364  1.00  0.00     0.037 A 
ATOM     53  C   UNL     1     -11.407  -2.626  -4.455  1.00  0.00     0.049 A 
ATOM     54  C   UNL     1     -10.960   2.849  -6.180  1.00  0.00     0.074 A 
ATOM     55  C   UNL     1     -10.188  -3.247  -4.258  1.00  0.00     0.029 A 
ATOM     56  N   UNL     1     -11.283  -1.944  -5.639  1.00  0.00    -0.354 N 
ATOM     57  N   UNL     1      -9.977   2.101  -6.599  1.00  0.00    -0.248 NA
ATOM     58  C   UNL     1     -12.267   2.211  -6.151  1.00  0.00     0.031 C 
ATOM     59  C   UNL     1      -9.264  -2.502  -5.047  1.00  0.00     0.029 A 
ATOM     60  C   UNL     1      -9.984  -1.510  -5.713  1.00  0.00     0.049 A 
ATOM     61  H   UNL     1     -11.990  -1.796  -6.307  1.00  0.00     0.167 HD
ATOM     62  C   UNL     1     -10.450   0.803  -6.481  1.00  0.00     0.074 A 
ATOM     63  C   UNL     1     -11.889   0.936  -6.272  1.00  0.00     0.031 C 
ATOM     64  C   UNL     1      -9.598  -0.244  -6.286  1.00  0.00     0.037 A 
BRANCH  51  65
ATOM     65  C   UNL     1     -13.956  -2.657  -4.052  1.00  0.00     0.064 A 
ATOM     66  C   UNL     1     -14.185  -3.641  -5.034  1.00  0.00     0.173 A 
ATOM     67  C   UNL     1     -15.053  -1.817  -3.764  1.00  0.00     0.173 A 
ATOM     68  F   UNL     1     -13.207  -4.482  -5.403  1.00  0.00    -0.203 F 
ATOM     69  C   UNL     1     -15.396  -3.724  -5.728  1.00  0.00     0.198 A 
ATOM     70  C   UNL     1     -16.276  -1.935  -4.422  1.00  0.00     0.198 A 
ATOM     71  F   UNL     1     -14.953  -0.780  -2.924  1.00  0.00    -0.203 F 
ATOM     72  F   UNL     1     -15.526  -4.593  -6.740  1.00  0.00    -0.200 F 
ATOM     73  C   UNL     1     -16.438  -2.866  -5.426  1.00  0.00     0.200 A 
ATOM     74  F   UNL     1     -17.267  -1.081  -4.128  1.00  0.00    -0.200 F 
ATOM     75  F   UNL     1     -17.576  -2.900  -6.131  1.00  0.00    -0.200 F 
ENDBRANCH  51  65
BRANCH  52  76
ATOM     76  C   UNL     1     -11.429   5.362  -5.725  1.00  0.00     0.064 A 
ATOM     77  C   UNL     1     -11.638   5.710  -7.070  1.00  0.00     0.173 A 
ATOM     78  C   UNL     1     -12.124   6.125  -4.767  1.00  0.00     0.173 A 
ATOM     79  F   UNL     1     -11.050   5.005  -8.048  1.00  0.00    -0.203 F 
ATOM     80  C   UNL     1     -12.517   6.736  -7.435  1.00  0.00     0.198 A 
ATOM     81  C   UNL     1     -12.996   7.153  -5.132  1.00  0.00     0.198 A 
ATOM     82  F   UNL     1     -12.054   5.826  -3.462  1.00  0.00    -0.203 F 
ATOM     83  F   UNL     1     -12.745   6.991  -8.731  1.00  0.00    -0.200 F 
ATOM     84  C   UNL     1     -13.205   7.447  -6.466  1.00  0.00     0.200 A 
ATOM     85  F   UNL     1     -13.683   7.808  -4.186  1.00  0.00    -0.200 F 
ATOM     86  F   UNL     1     -14.098   8.382  -6.817  1.00  0.00    -0.200 F 
ENDBRANCH  52  76
BRANCH  64  87
ATOM     87  C   UNL     1      -8.124   0.007  -6.434  1.00  0.00     0.064 A 
ATOM     88  C   UNL     1      -7.390   0.867  -5.598  1.00  0.00     0.173 A 
ATOM     89  C   UNL     1      -7.403  -0.782  -7.340  1.00  0.00     0.173 A 
ATOM     90  F   UNL     1      -7.994   1.580  -4.640  1.00  0.00    -0.203 F 
ATOM     91  C   UNL     1      -6.001   0.954  -5.691  1.00  0.00     0.198 A 
ATOM     92  C   UNL     1      -6.014  -0.720  -7.405  1.00  0.00     0.198 A 
ATOM     93  F   UNL     1      -8.045  -1.662  -8.124  1.00  0.00    -0.203 F 
ATOM     94  F   UNL     1      -5.323   1.782  -4.883  1.00  0.00    -0.200 F 
ATOM     95  C   UNL     1      -5.314   0.153  -6.588  1.00  0.00     0.200 A 
ATOM     96  F   UNL     1      -5.350  -1.535  -8.237  1.00  0.00    -0.200 F 
ATOM     97  F   UNL     1      -3.975   0.196  -6.640  1.00  0.00    -0.200 F 
ENDBRANCH  64  87
ENDBRANCH  38  39
ENDBRANCH  30  33
ENDBRANCH  28  29
ENDBRANCH  27  28
ENDBRANCH   1  27
TORSDOF 15
