REMARK SMILES O=C(NCCCCNC(=O)[C@H]1CN(C(=O)N[C@H]2CCOC2)c2ccccc2O1)c1ccc(-c2c3nc(c(-c4c(F)c(F)c(F)c(F)c4F)c4ccc([nH]4)c(-c4c(F)c(F)c(F)c(F)c4F)c4nc(c(-c5c(F)c(F)c(F)c(F)c5F)c5ccc2[nH]5)C=C4)C=C3)cc1
REMARK SMILES IDX 5 1 4 2 3 3 1 4 2 5 29 7 30 8 91 9 31 10 90 11 32 12 33 13
REMARK SMILES IDX 34 14 84 15 35 16 89 17 83 18 85 19 36 20 88 21 82 22 81 23
REMARK SMILES IDX 37 25 69 26 49 27 68 28 50 29 53 30 67 31 86 32 51 33 52 34
REMARK SMILES IDX 66 36 87 37 54 38 38 39 39 40 47 41 40 42 41 43 45 44 48 45
REMARK SMILES IDX 42 46 43 47 46 48 44 49 70 50 71 51 79 52 72 53 73 54 77 55
REMARK SMILES IDX 80 56 74 57 75 58 78 59 76 60 55 61 56 62 64 63 57 64 58 65
REMARK SMILES IDX 62 66 65 67 59 68 60 69 63 70 61 71 6 72 7 73 8 74 9 75
REMARK SMILES IDX 10 77 11 78 12 79 28 80 13 81 27 82 22 83 26 84 23 85 25 86
REMARK SMILES IDX 24 87 14 88 15 89 16 90 17 92 18 93 21 94 19 95 20 96
REMARK H PARENT 3 6 85 24 53 35 8 76 16 91
REMARK Flexibility Score: inf
ROOT
ATOM      1  C   UNL     1       5.705  -0.610   6.903  1.00  0.00     0.023 C 
ENDROOT
BRANCH   1   2
ATOM      2  C   UNL     1       5.032   0.736   6.710  1.00  0.00     0.116 C 
BRANCH   2   3
ATOM      3  N   UNL     1       3.665   0.772   7.209  1.00  0.00    -0.352 N 
ATOM      4  O   UNL     1       1.889   1.651   8.297  1.00  0.00    -0.269 OA
ATOM      5  C   UNL     1       3.019   1.801   7.845  1.00  0.00     0.251 C 
ATOM      6  H   UNL     1       3.136  -0.047   7.071  1.00  0.00     0.163 HD
BRANCH   5   7
ATOM      7  C   UNL     1       3.727   3.082   8.014  1.00  0.00     0.039 A 
ATOM      8  C   UNL     1       4.375   3.678   6.929  1.00  0.00     0.014 A 
ATOM      9  C   UNL     1       3.783   3.656   9.285  1.00  0.00     0.014 A 
ATOM     10  C   UNL     1       5.191   4.780   7.141  1.00  0.00     0.010 A 
ATOM     11  C   UNL     1       4.541   4.808   9.480  1.00  0.00     0.010 A 
ATOM     12  C   UNL     1       5.272   5.359   8.416  1.00  0.00    -0.014 A 
BRANCH  12  13
ATOM     13  C   UNL     1       6.084   6.579   8.615  1.00  0.00     0.031 A 
ATOM     14  C   UNL     1       7.307   6.554   9.481  1.00  0.00     0.074 A 
ATOM     15  C   UNL     1       5.693   7.714   8.009  1.00  0.00     0.049 A 
ATOM     16  N   UNL     1       8.094   7.541   9.825  1.00  0.00    -0.248 NA
ATOM     17  C   UNL     1       7.695   5.251  10.043  1.00  0.00     0.031 C 
ATOM     18  C   UNL     1       4.518   7.843   7.144  1.00  0.00     0.029 A 
ATOM     19  N   UNL     1       6.235   8.972   8.028  1.00  0.00    -0.354 N 
ATOM     20  C   UNL     1       9.051   6.988  10.664  1.00  0.00     0.074 A 
ATOM     21  C   UNL     1       8.740   5.580  10.790  1.00  0.00     0.031 C 
ATOM     22  C   UNL     1       4.439   9.104   6.698  1.00  0.00     0.029 A 
ATOM     23  C   UNL     1       5.518   9.883   7.295  1.00  0.00     0.049 A 
ATOM     24  H   UNL     1       7.057   9.199   8.519  1.00  0.00     0.167 HD
ATOM     25  C   UNL     1      10.094   7.606  11.269  1.00  0.00     0.037 A 
ATOM     26  C   UNL     1       5.693  11.208   7.144  1.00  0.00     0.037 A 
ATOM     27  C   UNL     1      10.399   9.006  11.119  1.00  0.00     0.049 A 
ATOM     28  C   UNL     1       6.843  11.871   7.841  1.00  0.00     0.074 A 
ATOM     29  C   UNL     1      11.450   9.725  11.661  1.00  0.00     0.029 A 
ATOM     30  N   UNL     1       9.646   9.902  10.371  1.00  0.00    -0.354 N 
ATOM     31  N   UNL     1       7.754  11.337   8.619  1.00  0.00    -0.248 NA
ATOM     32  C   UNL     1       6.990  13.318   7.644  1.00  0.00     0.031 C 
ATOM     33  C   UNL     1      11.311  11.062  11.275  1.00  0.00     0.029 A 
ATOM     34  C   UNL     1      10.200  11.170  10.454  1.00  0.00     0.049 A 
ATOM     35  H   UNL     1       8.839   9.671   9.858  1.00  0.00     0.167 HD
ATOM     36  C   UNL     1       8.592  12.376   8.991  1.00  0.00     0.074 A 
ATOM     37  C   UNL     1       8.088  13.571   8.343  1.00  0.00     0.031 C 
ATOM     38  C   UNL     1       9.682  12.344   9.797  1.00  0.00     0.037 A 
BRANCH  25  39
ATOM     39  C   UNL     1      10.964   6.779  12.169  1.00  0.00     0.064 A 
ATOM     40  C   UNL     1      11.852   5.819  11.662  1.00  0.00     0.173 A 
ATOM     41  C   UNL     1      10.929   6.971  13.559  1.00  0.00     0.173 A 
ATOM     42  F   UNL     1      11.914   5.588  10.342  1.00  0.00    -0.203 F 
ATOM     43  C   UNL     1      12.654   5.064  12.514  1.00  0.00     0.198 A 
ATOM     44  C   UNL     1      11.751   6.231  14.406  1.00  0.00     0.198 A 
ATOM     45  F   UNL     1      10.101   7.879  14.096  1.00  0.00    -0.203 F 
ATOM     46  F   UNL     1      13.462   4.121  12.010  1.00  0.00    -0.200 F 
ATOM     47  C   UNL     1      12.607   5.274  13.884  1.00  0.00     0.200 A 
ATOM     48  F   UNL     1      11.711   6.443  15.729  1.00  0.00    -0.200 F 
ATOM     49  F   UNL     1      13.381   4.548  14.702  1.00  0.00    -0.200 F 
ENDBRANCH  25  39
BRANCH  26  50
ATOM     50  C   UNL     1       4.744  11.973   6.300  1.00  0.00     0.064 A 
ATOM     51  C   UNL     1       5.131  12.462   5.046  1.00  0.00     0.173 A 
ATOM     52  C   UNL     1       3.417  12.180   6.704  1.00  0.00     0.173 A 
ATOM     53  F   UNL     1       6.394  12.299   4.625  1.00  0.00    -0.203 F 
ATOM     54  C   UNL     1       4.226  13.134   4.228  1.00  0.00     0.198 A 
ATOM     55  C   UNL     1       2.506  12.829   5.875  1.00  0.00     0.198 A 
ATOM     56  F   UNL     1       2.997  11.719   7.892  1.00  0.00    -0.203 F 
ATOM     57  F   UNL     1       4.626  13.613   3.043  1.00  0.00    -0.200 F 
ATOM     58  C   UNL     1       2.912  13.309   4.639  1.00  0.00     0.200 A 
ATOM     59  F   UNL     1       1.234  12.978   6.267  1.00  0.00    -0.200 F 
ATOM     60  F   UNL     1       2.038  13.940   3.844  1.00  0.00    -0.200 F 
ENDBRANCH  26  50
BRANCH  38  61
ATOM     61  C   UNL     1      10.419  13.633   9.995  1.00  0.00     0.064 A 
ATOM     62  C   UNL     1       9.911  14.651  10.814  1.00  0.00     0.173 A 
ATOM     63  C   UNL     1      11.668  13.834   9.387  1.00  0.00     0.173 A 
ATOM     64  F   UNL     1       8.713  14.510  11.400  1.00  0.00    -0.203 F 
ATOM     65  C   UNL     1      10.620  15.834  11.003  1.00  0.00     0.198 A 
ATOM     66  C   UNL     1      12.384  15.007   9.599  1.00  0.00     0.198 A 
ATOM     67  F   UNL     1      12.196  12.887   8.598  1.00  0.00    -0.203 F 
ATOM     68  F   UNL     1      10.099  16.811  11.758  1.00  0.00    -0.200 F 
ATOM     69  C   UNL     1      11.858  16.008  10.403  1.00  0.00     0.200 A 
ATOM     70  F   UNL     1      13.585  15.171   9.026  1.00  0.00    -0.200 F 
ATOM     71  F   UNL     1      12.542  17.145  10.592  1.00  0.00    -0.200 F 
ENDBRANCH  38  61
ENDBRANCH  12  13
ENDBRANCH   5   7
ENDBRANCH   2   3
ENDBRANCH   1   2
BRANCH   1  72
ATOM     72  C   UNL     1       4.913  -1.798   6.374  1.00  0.00     0.023 C 
BRANCH  72  73
ATOM     73  C   UNL     1       4.489  -1.700   4.906  1.00  0.00     0.116 C 
BRANCH  73  74
ATOM     74  N   UNL     1       5.618  -1.833   4.008  1.00  0.00    -0.353 N 
ATOM     75  C   UNL     1       6.072  -2.939   3.349  1.00  0.00     0.262 C 
ATOM     76  H   UNL     1       6.133  -1.008   3.852  1.00  0.00     0.163 HD
ATOM     77  O   UNL     1       7.104  -2.821   2.683  1.00  0.00    -0.271 OA
BRANCH  75  78
ATOM     78  C   UNL     1       5.375  -4.298   3.487  1.00  0.00     0.281 C 
ATOM     79  C   UNL     1       5.488  -4.793   4.915  1.00  0.00     0.183 C 
ATOM     80  O   UNL     1       4.012  -4.252   3.081  1.00  0.00    -0.477 OA
ATOM     81  N   UNL     1       5.079  -6.180   4.991  1.00  0.00    -0.287 N 
ATOM     82  C   UNL     1       3.275  -5.331   3.526  1.00  0.00     0.144 A 
ATOM     83  C   UNL     1       3.750  -6.320   4.428  1.00  0.00     0.088 A 
ATOM     84  C   UNL     1       1.970  -5.369   3.028  1.00  0.00     0.049 A 
ATOM     85  C   UNL     1       2.865  -7.335   4.803  1.00  0.00     0.030 A 
ATOM     86  C   UNL     1       1.107  -6.383   3.425  1.00  0.00     0.004 A 
ATOM     87  C   UNL     1       1.552  -7.361   4.311  1.00  0.00     0.002 A 
BRANCH  81  88
ATOM     88  C   UNL     1       5.796  -7.223   5.507  1.00  0.00     0.322 C 
ATOM     89  O   UNL     1       5.394  -8.393   5.501  1.00  0.00    -0.248 OA
ATOM     90  N   UNL     1       7.030  -7.110   6.040  1.00  0.00    -0.333 N 
ATOM     91  H   UNL     1       7.354  -8.011   6.269  1.00  0.00     0.165 HD
BRANCH  90  92
ATOM     92  C   UNL     1       8.068  -6.139   6.403  1.00  0.00     0.112 C 
ATOM     93  C   UNL     1       8.736  -5.367   5.282  1.00  0.00     0.056 C 
ATOM     94  C   UNL     1       7.707  -5.120   7.470  1.00  0.00     0.185 C 
ATOM     95  C   UNL     1       8.912  -3.962   5.835  1.00  0.00     0.162 C 
ATOM     96  O   UNL     1       8.459  -3.933   7.193  1.00  0.00    -0.379 OA
ENDBRANCH  90  92
ENDBRANCH  81  88
ENDBRANCH  75  78
ENDBRANCH  73  74
ENDBRANCH  72  73
ENDBRANCH   1  72
TORSDOF 13
