REMARK SMILES Cc1cc(C(=O)N2C[C@@H](C(=O)NCCCCNC(=O)c3ccc(-c4c5nc(c(-c6c(F)c(F)c(F)c(F)c6F)c6ccc([nH]6)c(-c6c(F)c(F)c(F)c(F)c6F)c6nc(c(-c7c(F)c(F)c(F)c(F)c7F)c7ccc4[nH]7)C=C6)C=C5)cc3)[C@H](C(C)C)C2)cs1
REMARK SMILES IDX 14 1 13 2 12 3 10 4 11 5 9 7 7 8 8 9 87 10 83 11 5 12 6 13
REMARK SMILES IDX 4 14 1 15 2 16 3 17 89 18 88 19 84 20 85 21 86 22 15 23
REMARK SMILES IDX 16 24 17 25 18 26 19 28 20 29 21 30 82 31 22 32 81 33 23 34
REMARK SMILES IDX 24 35 25 36 75 37 26 38 80 39 74 40 76 41 27 42 79 43 73 44
REMARK SMILES IDX 72 45 28 47 60 48 40 49 59 50 41 51 44 52 58 53 77 54 42 55
REMARK SMILES IDX 43 56 57 58 78 59 45 60 29 61 30 62 38 63 31 64 32 65 36 66
REMARK SMILES IDX 39 67 33 68 34 69 37 70 35 71 61 72 62 73 70 74 63 75 64 76
REMARK SMILES IDX 68 77 71 78 65 79 66 80 69 81 67 82 46 83 47 84 55 85 48 86
REMARK SMILES IDX 49 87 53 88 56 89 50 90 51 91 54 92 52 93
REMARK H PARENT 12 6 17 27 76 46 44 57
REMARK Flexibility Score: inf
ROOT
ATOM      1  C   UNL     1      -0.727  -5.087   3.944  1.00  0.00     0.023 C 
ENDROOT
BRANCH   1   2
ATOM      2  C   UNL     1       0.438  -5.235   2.962  1.00  0.00     0.116 C 
BRANCH   2   3
ATOM      3  N   UNL     1       0.250  -6.410   2.138  1.00  0.00    -0.356 N 
ATOM      4  C   UNL     1      -0.472  -6.615   1.006  1.00  0.00     0.225 C 
ATOM      5  O   UNL     1      -0.746  -7.796   0.774  1.00  0.00    -0.275 OA
ATOM      6  H   UNL     1       0.734  -7.206   2.456  1.00  0.00     0.163 HD
BRANCH   4   7
ATOM      7  C   UNL     1      -0.800  -5.509  -0.001  1.00  0.00     0.103 C 
ATOM      8  N   UNL     1      -2.085  -3.612  -0.483  1.00  0.00    -0.337 N 
ATOM      9  C   UNL     1      -1.297  -4.195   0.575  1.00  0.00     0.133 C 
ATOM     10  C   UNL     1      -2.786  -4.648  -1.195  1.00  0.00     0.124 C 
ATOM     11  C   UNL     1      -1.951  -5.930  -0.982  1.00  0.00     0.025 C 
BRANCH   8  12
ATOM     12  C   UNL     1      -2.368  -2.275  -0.703  1.00  0.00     0.254 C 
ATOM     13  O   UNL     1      -3.397  -1.921  -1.272  1.00  0.00    -0.269 OA
BRANCH  12  14
ATOM     14  C   UNL     1      -1.361  -1.292  -0.291  1.00  0.00     0.050 A 
ATOM     15  C   UNL     1       2.219  -0.056   0.045  1.00  0.00     0.056 C 
ATOM     16  C   UNL     1       0.747  -0.290   0.020  1.00  0.00     0.002 A 
ATOM     17  C   UNL     1       0.069  -1.416  -0.398  1.00  0.00     0.029 A 
ATOM     18  S   UNL     1      -0.331   0.941   0.508  1.00  0.00    -0.148 S 
ATOM     19  C   UNL     1      -1.696  -0.025   0.150  1.00  0.00     0.079 A 
ENDBRANCH  12  14
ENDBRANCH   8  12
BRANCH  11  20
ATOM     20  C   UNL     1      -1.474  -6.521  -2.338  1.00  0.00    -0.012 C 
ATOM     21  C   UNL     1      -0.528  -7.716  -2.195  1.00  0.00     0.008 C 
ATOM     22  C   UNL     1      -2.672  -6.961  -3.195  1.00  0.00     0.008 C 
ENDBRANCH  11  20
ENDBRANCH   4   7
ENDBRANCH   2   3
ENDBRANCH   1   2
BRANCH   1  23
ATOM     23  C   UNL     1      -0.705  -6.094   5.100  1.00  0.00     0.023 C 
BRANCH  23  24
ATOM     24  C   UNL     1       0.519  -6.008   6.004  1.00  0.00     0.116 C 
BRANCH  24  25
ATOM     25  N   UNL     1       0.712  -4.689   6.583  1.00  0.00    -0.352 N 
ATOM     26  C   UNL     1       1.286  -4.361   7.787  1.00  0.00     0.251 C 
ATOM     27  H   UNL     1       0.389  -3.932   6.041  1.00  0.00     0.163 HD
ATOM     28  O   UNL     1       1.289  -3.204   8.184  1.00  0.00    -0.269 OA
BRANCH  26  29
ATOM     29  C   UNL     1       1.862  -5.434   8.620  1.00  0.00     0.039 A 
ATOM     30  C   UNL     1       1.459  -5.538   9.953  1.00  0.00     0.014 A 
ATOM     31  C   UNL     1       2.764  -6.352   8.076  1.00  0.00     0.014 A 
ATOM     32  C   UNL     1       1.911  -6.607  10.727  1.00  0.00     0.010 A 
ATOM     33  C   UNL     1       3.168  -7.448   8.831  1.00  0.00     0.010 A 
ATOM     34  C   UNL     1       2.741  -7.587  10.161  1.00  0.00    -0.014 A 
BRANCH  34  35
ATOM     35  C   UNL     1       3.173  -8.773  10.939  1.00  0.00     0.031 A 
ATOM     36  C   UNL     1       4.625  -8.960  11.273  1.00  0.00     0.074 A 
ATOM     37  C   UNL     1       2.271  -9.719  11.265  1.00  0.00     0.049 A 
ATOM     38  N   UNL     1       5.218  -9.977  11.843  1.00  0.00    -0.248 NA
ATOM     39  C   UNL     1       5.537  -7.871  10.887  1.00  0.00     0.031 C 
ATOM     40  C   UNL     1       0.843  -9.672  10.948  1.00  0.00     0.029 A 
ATOM     41  N   UNL     1       2.427 -10.915  11.919  1.00  0.00    -0.354 N 
ATOM     42  C   UNL     1       6.570  -9.664  11.861  1.00  0.00     0.074 A 
ATOM     43  C   UNL     1       6.717  -8.378  11.213  1.00  0.00     0.031 C 
ATOM     44  C   UNL     1       0.253 -10.786  11.412  1.00  0.00     0.029 A 
ATOM     45  C   UNL     1       1.264 -11.638  12.030  1.00  0.00     0.049 A 
ATOM     46  H   UNL     1       3.291 -11.227  12.274  1.00  0.00     0.167 HD
ATOM     47  C   UNL     1       7.593 -10.378  12.386  1.00  0.00     0.037 A 
ATOM     48  C   UNL     1       1.044 -12.855  12.562  1.00  0.00     0.037 A 
ATOM     49  C   UNL     1       7.436 -11.632  13.072  1.00  0.00     0.049 A 
ATOM     50  C   UNL     1       2.196 -13.610  13.168  1.00  0.00     0.074 A 
ATOM     51  C   UNL     1       8.400 -12.393  13.710  1.00  0.00     0.029 A 
ATOM     52  N   UNL     1       6.233 -12.308  13.213  1.00  0.00    -0.354 N 
ATOM     53  N   UNL     1       3.459 -13.270  13.244  1.00  0.00    -0.248 NA
ATOM     54  C   UNL     1       1.891 -14.916  13.769  1.00  0.00     0.031 C 
ATOM     55  C   UNL     1       7.786 -13.546  14.210  1.00  0.00     0.029 A 
ATOM     56  C   UNL     1       6.434 -13.484  13.916  1.00  0.00     0.049 A 
ATOM     57  H   UNL     1       5.366 -11.997  12.866  1.00  0.00     0.167 HD
ATOM     58  C   UNL     1       4.092 -14.300  13.925  1.00  0.00     0.074 A 
ATOM     59  C   UNL     1       3.072 -15.275  14.251  1.00  0.00     0.031 C 
ATOM     60  C   UNL     1       5.401 -14.430  14.249  1.00  0.00     0.037 A 
BRANCH  47  61
ATOM     61  C   UNL     1       8.977  -9.818  12.254  1.00  0.00     0.064 A 
ATOM     62  C   UNL     1       9.398  -8.715  13.011  1.00  0.00     0.173 A 
ATOM     63  C   UNL     1       9.912 -10.430  11.406  1.00  0.00     0.173 A 
ATOM     64  F   UNL     1       8.537  -8.089  13.826  1.00  0.00    -0.203 F 
ATOM     65  C   UNL     1      10.701  -8.235  12.912  1.00  0.00     0.198 A 
ATOM     66  C   UNL     1      11.221  -9.962  11.328  1.00  0.00     0.198 A 
ATOM     67  F   UNL     1       9.560 -11.490  10.663  1.00  0.00    -0.203 F 
ATOM     68  F   UNL     1      11.072  -7.159  13.619  1.00  0.00    -0.200 F 
ATOM     69  C   UNL     1      11.613  -8.864  12.078  1.00  0.00     0.200 A 
ATOM     70  F   UNL     1      12.104 -10.577  10.529  1.00  0.00    -0.200 F 
ATOM     71  F   UNL     1      12.870  -8.408  11.993  1.00  0.00    -0.200 F 
ENDBRANCH  47  61
BRANCH  48  72
ATOM     72  C   UNL     1      -0.324 -13.435  12.560  1.00  0.00     0.064 A 
ATOM     73  C   UNL     1      -1.045 -13.578  13.754  1.00  0.00     0.173 A 
ATOM     74  C   UNL     1      -0.927 -13.879  11.375  1.00  0.00     0.173 A 
ATOM     75  F   UNL     1      -0.500 -13.187  14.915  1.00  0.00    -0.203 F 
ATOM     76  C   UNL     1      -2.307 -14.169  13.766  1.00  0.00     0.198 A 
ATOM     77  C   UNL     1      -2.200 -14.446  11.385  1.00  0.00     0.198 A 
ATOM     78  F   UNL     1      -0.280 -13.760  10.207  1.00  0.00    -0.203 F 
ATOM     79  F   UNL     1      -2.952 -14.341  14.928  1.00  0.00    -0.200 F 
ATOM     80  C   UNL     1      -2.884 -14.600  12.582  1.00  0.00     0.200 A 
ATOM     81  F   UNL     1      -2.760 -14.850  10.237  1.00  0.00    -0.200 F 
ATOM     82  F   UNL     1      -4.096 -15.172  12.594  1.00  0.00    -0.200 F 
ENDBRANCH  48  72
BRANCH  60  83
ATOM     83  C   UNL     1       5.799 -15.645  15.030  1.00  0.00     0.064 A 
ATOM     84  C   UNL     1       5.877 -16.910  14.431  1.00  0.00     0.173 A 
ATOM     85  C   UNL     1       6.156 -15.532  16.383  1.00  0.00     0.173 A 
ATOM     86  F   UNL     1       5.531 -17.069  13.144  1.00  0.00    -0.203 F 
ATOM     87  C   UNL     1       6.279 -18.023  15.163  1.00  0.00     0.198 A 
ATOM     88  C   UNL     1       6.582 -16.642  17.104  1.00  0.00     0.198 A 
ATOM     89  F   UNL     1       6.104 -14.341  16.998  1.00  0.00    -0.203 F 
ATOM     90  F   UNL     1       6.310 -19.230  14.581  1.00  0.00    -0.200 F 
ATOM     91  C   UNL     1       6.639 -17.887  16.496  1.00  0.00     0.200 A 
ATOM     92  F   UNL     1       6.941 -16.508  18.389  1.00  0.00    -0.200 F 
ATOM     93  F   UNL     1       7.035 -18.959  17.196  1.00  0.00    -0.200 F 
ENDBRANCH  60  83
ENDBRANCH  34  35
ENDBRANCH  26  29
ENDBRANCH  24  25
ENDBRANCH  23  24
ENDBRANCH   1  23
TORSDOF 14
