REMARK SMILES COc1ccc(-c2cc(C(F)(F)F)n3nc(C(=O)NCCCCNC(=O)c4ccc(-c5c6nc(c(-c7c(F)c(F)c(F)c(F)c7F)c7ccc([nH]7)c(-c7c(F)c(F)c(F)c(F)c7F)c7nc(c(-c8c(F)c(F)c(F)c(F)c8F)c8ccc5[nH]8)C=C7)C=C6)cc4)cc3n2)cc1OC
REMARK SMILES IDX 21 1 20 2 19 3 17 4 18 5 16 7 7 8 8 9 92 10 9 11 91 12 14 13
REMARK SMILES IDX 90 14 15 15 6 16 3 17 4 18 94 19 5 20 93 21 2 22 1 23 95 24
REMARK SMILES IDX 96 25 10 26 11 27 12 28 13 29 22 30 23 31 24 32 25 33 26 35
REMARK SMILES IDX 27 36 28 37 89 38 29 39 88 40 30 41 31 42 32 43 82 44 33 45
REMARK SMILES IDX 87 46 81 47 83 48 34 49 86 50 80 51 79 52 35 54 67 55 47 56
REMARK SMILES IDX 66 57 48 58 51 59 65 60 84 61 49 62 50 63 64 65 85 66 52 67
REMARK SMILES IDX 36 68 37 69 45 70 38 71 39 72 43 73 46 74 40 75 41 76 44 77
REMARK SMILES IDX 42 78 68 79 69 80 77 81 70 82 71 83 75 84 78 85 72 86 73 87
REMARK SMILES IDX 76 88 74 89 53 90 54 91 62 92 55 93 56 94 60 95 63 96 57 97
REMARK SMILES IDX 58 98 61 99 59 100
REMARK H PARENT 19 6 24 34 83 53 51 64
REMARK Flexibility Score: inf
ROOT
ATOM      1  C   UNL     1       0.051  10.870   4.327  1.00  0.00     0.023 C 
ENDROOT
BRANCH   1   2
ATOM      2  C   UNL     1      -0.335  11.358   2.930  1.00  0.00     0.116 C 
BRANCH   2   3
ATOM      3  N   UNL     1       0.737  12.128   2.338  1.00  0.00    -0.351 N 
ATOM      4  C   UNL     1       1.750  11.778   1.474  1.00  0.00     0.271 C 
ATOM      5  O   UNL     1       2.499  12.698   1.133  1.00  0.00    -0.267 OA
ATOM      6  H   UNL     1       0.742  13.077   2.601  1.00  0.00     0.163 HD
BRANCH   4   7
ATOM      7  C   UNL     1       1.912  10.397   0.967  1.00  0.00     0.152 A 
ATOM      8  C   UNL     1       2.042   6.221  -0.505  1.00  0.00     0.075 A 
ATOM      9  C   UNL     1       3.078   6.784  -1.428  1.00  0.00     0.062 A 
ATOM     10  N   UNL     1       1.411   6.902   0.406  1.00  0.00    -0.228 NA
ATOM     11  C   UNL     1       3.329   8.103  -1.305  1.00  0.00     0.150 A 
ATOM     12  C   UNL     1       1.743   8.220   0.510  1.00  0.00     0.157 A 
ATOM     13  N   UNL     1       2.645   8.845  -0.349  1.00  0.00    -0.209 N 
ATOM     14  C   UNL     1       1.358   9.175   1.415  1.00  0.00     0.085 A 
ATOM     15  N   UNL     1       2.714  10.168  -0.092  1.00  0.00    -0.161 NA
BRANCH   8  16
ATOM     16  C   UNL     1       1.737   4.784  -0.669  1.00  0.00     0.004 A 
ATOM     17  C   UNL     1       1.161   2.066  -0.925  1.00  0.00     0.160 A 
ATOM     18  C   UNL     1       0.133   3.017  -1.014  1.00  0.00     0.051 A 
ATOM     19  C   UNL     1       2.485   2.475  -0.711  1.00  0.00     0.161 A 
ATOM     20  C   UNL     1       0.416   4.376  -0.867  1.00  0.00     0.014 A 
ATOM     21  C   UNL     1       2.763   3.841  -0.588  1.00  0.00     0.060 A 
BRANCH  17  22
ATOM     22  O   UNL     1       0.859   0.752  -1.163  1.00  0.00    -0.493 OA
ATOM     23  C   UNL     1       0.071   0.180  -0.118  1.00  0.00     0.278 C 
ENDBRANCH  17  22
BRANCH  19  24
ATOM     24  O   UNL     1       3.608   1.698  -0.623  1.00  0.00    -0.493 OA
ATOM     25  C   UNL     1       3.441   0.329  -0.287  1.00  0.00     0.278 C 
ENDBRANCH  19  24
ENDBRANCH   8  16
BRANCH  11  26
ATOM     26  C   UNL     1       4.329   8.833  -2.118  1.00  0.00     0.433 C 
ATOM     27  F   UNL     1       3.782   9.808  -2.883  1.00  0.00    -0.165 F 
ATOM     28  F   UNL     1       5.310   9.391  -1.366  1.00  0.00    -0.165 F 
ATOM     29  F   UNL     1       4.965   7.994  -2.985  1.00  0.00    -0.165 F 
ENDBRANCH  11  26
ENDBRANCH   4   7
ENDBRANCH   2   3
ENDBRANCH   1   2
BRANCH   1  30
ATOM     30  C   UNL     1      -0.131  11.925   5.424  1.00  0.00     0.023 C 
BRANCH  30  31
ATOM     31  C   UNL     1      -1.560  12.433   5.600  1.00  0.00     0.116 C 
BRANCH  31  32
ATOM     32  N   UNL     1      -2.522  11.374   5.859  1.00  0.00    -0.352 N 
ATOM     33  C   UNL     1      -3.690  11.434   6.579  1.00  0.00     0.251 C 
ATOM     34  H   UNL     1      -2.308  10.497   5.466  1.00  0.00     0.163 HD
ATOM     35  O   UNL     1      -4.338  10.415   6.794  1.00  0.00    -0.269 OA
BRANCH  33  36
ATOM     36  C   UNL     1      -4.139  12.727   7.134  1.00  0.00     0.039 A 
ATOM     37  C   UNL     1      -4.536  12.777   8.472  1.00  0.00     0.014 A 
ATOM     38  C   UNL     1      -4.145  13.886   6.352  1.00  0.00     0.014 A 
ATOM     39  C   UNL     1      -4.876  14.004   9.043  1.00  0.00     0.010 A 
ATOM     40  C   UNL     1      -4.411  15.117   6.943  1.00  0.00     0.010 A 
ATOM     41  C   UNL     1      -4.779  15.189   8.295  1.00  0.00    -0.014 A 
BRANCH  41  42
ATOM     42  C   UNL     1      -5.039  16.506   8.928  1.00  0.00     0.031 A 
ATOM     43  C   UNL     1      -6.188  17.362   8.474  1.00  0.00     0.074 A 
ATOM     44  C   UNL     1      -4.207  16.948   9.892  1.00  0.00     0.049 A 
ATOM     45  N   UNL     1      -6.575  18.531   8.920  1.00  0.00    -0.248 NA
ATOM     46  C   UNL     1      -6.994  16.851   7.354  1.00  0.00     0.031 C 
ATOM     47  C   UNL     1      -3.017  16.241  10.369  1.00  0.00     0.029 A 
ATOM     48  N   UNL     1      -4.234  18.096  10.643  1.00  0.00    -0.354 N 
ATOM     49  C   UNL     1      -7.660  18.895   8.134  1.00  0.00     0.074 A 
ATOM     50  C   UNL     1      -7.833  17.855   7.144  1.00  0.00     0.031 C 
ATOM     51  C   UNL     1      -2.450  16.951  11.357  1.00  0.00     0.029 A 
ATOM     52  C   UNL     1      -3.217  18.175  11.562  1.00  0.00     0.049 A 
ATOM     53  H   UNL     1      -4.918  18.795  10.534  1.00  0.00     0.167 HD
ATOM     54  C   UNL     1      -8.459  19.984   8.247  1.00  0.00     0.037 A 
ATOM     55  C   UNL     1      -2.939  19.127  12.474  1.00  0.00     0.037 A 
ATOM     56  C   UNL     1      -8.292  21.009   9.245  1.00  0.00     0.049 A 
ATOM     57  C   UNL     1      -3.851  20.318  12.588  1.00  0.00     0.074 A 
ATOM     58  C   UNL     1      -9.079  22.124   9.479  1.00  0.00     0.029 A 
ATOM     59  N   UNL     1      -7.262  21.047  10.174  1.00  0.00    -0.354 N 
ATOM     60  N   UNL     1      -4.926  20.609  11.896  1.00  0.00    -0.248 NA
ATOM     61  C   UNL     1      -3.519  21.304  13.624  1.00  0.00     0.031 C 
ATOM     62  C   UNL     1      -8.498  22.861  10.517  1.00  0.00     0.029 A 
ATOM     63  C   UNL     1      -7.382  22.176  10.970  1.00  0.00     0.049 A 
ATOM     64  H   UNL     1      -6.550  20.372  10.256  1.00  0.00     0.167 HD
ATOM     65  C   UNL     1      -5.414  21.794  12.430  1.00  0.00     0.074 A 
ATOM     66  C   UNL     1      -4.530  22.154  13.519  1.00  0.00     0.031 C 
ATOM     67  C   UNL     1      -6.495  22.520  12.052  1.00  0.00     0.037 A 
BRANCH  54  68
ATOM     68  C   UNL     1      -9.591  20.119   7.269  1.00  0.00     0.064 A 
ATOM     69  C   UNL     1     -10.696  19.252   7.299  1.00  0.00     0.173 A 
ATOM     70  C   UNL     1      -9.593  21.146   6.314  1.00  0.00     0.173 A 
ATOM     71  F   UNL     1     -10.740  18.245   8.184  1.00  0.00    -0.203 F 
ATOM     72  C   UNL     1     -11.742  19.391   6.391  1.00  0.00     0.198 A 
ATOM     73  C   UNL     1     -10.657  21.302   5.429  1.00  0.00     0.198 A 
ATOM     74  F   UNL     1      -8.565  22.006   6.244  1.00  0.00    -0.203 F 
ATOM     75  F   UNL     1     -12.761  18.520   6.406  1.00  0.00    -0.200 F 
ATOM     76  C   UNL     1     -11.726  20.421   5.463  1.00  0.00     0.200 A 
ATOM     77  F   UNL     1     -10.646  22.306   4.541  1.00  0.00    -0.200 F 
ATOM     78  F   UNL     1     -12.738  20.558   4.595  1.00  0.00    -0.200 F 
ENDBRANCH  54  68
BRANCH  55  79
ATOM     79  C   UNL     1      -1.770  18.972  13.379  1.00  0.00     0.064 A 
ATOM     80  C   UNL     1      -1.947  18.745  14.751  1.00  0.00     0.173 A 
ATOM     81  C   UNL     1      -0.456  19.055  12.896  1.00  0.00     0.173 A 
ATOM     82  F   UNL     1      -3.184  18.676  15.264  1.00  0.00    -0.203 F 
ATOM     83  C   UNL     1      -0.855  18.636  15.610  1.00  0.00     0.198 A 
ATOM     84  C   UNL     1       0.635  18.914  13.750  1.00  0.00     0.198 A 
ATOM     85  F   UNL     1      -0.233  19.262  11.590  1.00  0.00    -0.203 F 
ATOM     86  F   UNL     1      -1.054  18.473  16.925  1.00  0.00    -0.200 F 
ATOM     87  C   UNL     1       0.435  18.715  15.108  1.00  0.00     0.200 A 
ATOM     88  F   UNL     1       1.880  18.974  13.259  1.00  0.00    -0.200 F 
ATOM     89  F   UNL     1       1.485  18.607  15.934  1.00  0.00    -0.200 F 
ENDBRANCH  55  79
BRANCH  67  90
ATOM     90  C   UNL     1      -6.799  23.757  12.850  1.00  0.00     0.064 A 
ATOM     91  C   UNL     1      -5.974  24.890  12.800  1.00  0.00     0.173 A 
ATOM     92  C   UNL     1      -7.935  23.808  13.672  1.00  0.00     0.173 A 
ATOM     93  F   UNL     1      -4.868  24.888  12.040  1.00  0.00    -0.203 F 
ATOM     94  C   UNL     1      -6.250  26.012  13.577  1.00  0.00     0.198 A 
ATOM     95  C   UNL     1      -8.228  24.945  14.420  1.00  0.00     0.198 A 
ATOM     96  F   UNL     1      -8.763  22.756  13.749  1.00  0.00    -0.203 F 
ATOM     97  F   UNL     1      -5.410  27.056  13.566  1.00  0.00    -0.200 F 
ATOM     98  C   UNL     1      -7.379  26.040  14.383  1.00  0.00     0.200 A 
ATOM     99  F   UNL     1      -9.327  24.976  15.186  1.00  0.00    -0.200 F 
ATOM    100  F   UNL     1      -7.642  27.119  15.132  1.00  0.00    -0.200 F 
ENDBRANCH  67  90
ENDBRANCH  41  42
ENDBRANCH  33  36
ENDBRANCH  31  32
ENDBRANCH  30  31
ENDBRANCH   1  30
TORSDOF 15
