REMARK SMILES C[C@@H](C(=O)NCCCCNC(=O)c1ccc(-c2c3nc(c(-c4c(F)c(F)c(F)c(F)c4F)c4ccc([nH]4)c(-c4c(F)c(F)c(F)c(F)c4F)c4nc(c(-c5c(F)c(F)c(F)c(F)c5F)c5ccc2[nH]5)C=C4)C=C3)cc1)N1C(=O)CSc2cccn2-c2ccccc21
REMARK SMILES IDX 6 1 5 2 3 3 4 4 2 6 1 7 76 8 77 9 78 10 91 12 86 13 90 14
REMARK SMILES IDX 87 15 89 16 88 17 85 18 81 19 84 20 82 21 83 22 80 23 79 24
REMARK SMILES IDX 7 26 8 27 9 28 10 29 11 30 12 32 13 33 14 34 75 35 15 36
REMARK SMILES IDX 74 37 16 38 17 39 18 40 68 41 19 42 73 43 67 44 69 45 20 46
REMARK SMILES IDX 72 47 66 48 65 49 21 51 53 52 33 53 52 54 34 55 37 56 51 57
REMARK SMILES IDX 70 58 35 59 36 60 50 62 71 63 38 64 22 65 23 66 31 67 24 68
REMARK SMILES IDX 25 69 29 70 32 71 26 72 27 73 30 74 28 75 54 76 55 77 63 78
REMARK SMILES IDX 56 79 57 80 61 81 64 82 58 83 59 84 62 85 60 86 39 87 40 88
REMARK SMILES IDX 48 89 41 90 42 91 46 92 49 93 43 94 44 95 47 96 45 97
REMARK H PARENT 5 5 10 31 69 50 37 61
REMARK Flexibility Score: 80.00
ROOT
ATOM      1  C   UNL     1       2.920  -0.389  -1.588  1.00  0.00     0.116 C 
ENDROOT
BRANCH   1   2
ATOM      2  N   UNL     1       1.994  -1.442  -1.965  1.00  0.00    -0.354 N 
ATOM      3  C   UNL     1       0.753  -1.782  -1.505  1.00  0.00     0.242 C 
ATOM      4  O   UNL     1       0.298  -2.840  -1.950  1.00  0.00    -0.273 OA
ATOM      5  H   UNL     1       2.323  -2.020  -2.691  1.00  0.00     0.163 HD
BRANCH   3   6
ATOM      6  C   UNL     1      -0.028  -0.874  -0.519  1.00  0.00     0.176 C 
ATOM      7  C   UNL     1       0.612  -0.704   0.856  1.00  0.00     0.042 C 
BRANCH   6   8
ATOM      8  N   UNL     1      -1.472  -1.193  -0.422  1.00  0.00    -0.297 N 
BRANCH   8   9
ATOM      9  C   UNL     1      -2.323  -0.644  -1.380  1.00  0.00     0.238 CG0
ATOM     10  O   UNL     1      -1.909  -0.123  -2.419  1.00  0.00    -0.274 OA
ATOM     11  G   UNL     1      -3.796  -0.607  -1.015  1.00  0.00     0.000 G0
ENDBRANCH   8   9
BRANCH   8  12
ATOM     12  C   UNL     1      -1.986  -2.171   0.476  1.00  0.00     0.069 A 
ATOM     13  C   UNL     1      -2.723  -1.846   1.631  1.00  0.00     0.070 A 
ATOM     14  C   UNL     1      -1.950  -3.518   0.079  1.00  0.00     0.028 A 
ATOM     15  C   UNL     1      -3.380  -2.852   2.368  1.00  0.00     0.029 A 
ATOM     16  C   UNL     1      -2.633  -4.507   0.795  1.00  0.00     0.002 A 
ATOM     17  C   UNL     1      -3.356  -4.173   1.933  1.00  0.00     0.002 A 
BRANCH  13  18
ATOM     18  N   UNL     1      -2.814  -0.526   2.131  1.00  0.00    -0.310 N 
ATOM     19  C   UNL     1      -3.197   0.656   1.513  1.00  0.00     0.080 A 
ATOM     20  C   UNL     1      -2.527  -0.228   3.458  1.00  0.00     0.092 A 
ATOM     21  C   UNL     1      -2.963   1.691   2.404  1.00  0.00     0.035 A 
ATOM     22  C   UNL     1      -2.563   1.133   3.635  1.00  0.00     0.021 A 
BRANCH  19  23
ATOM     23  S   UNL     1      -4.084   0.850   0.016  1.00  0.00    -0.098 SA
BRANCH  23  24
ATOM     24  C   UNL     1      -3.796  -0.607  -1.015  1.00  0.00     0.177 CG0
ATOM     25  G   UNL     1      -2.323  -0.644  -1.380  1.00  0.00     0.000 G0
ENDBRANCH  23  24
ENDBRANCH  19  23
ENDBRANCH  13  18
ENDBRANCH   8  12
ENDBRANCH   6   8
ENDBRANCH   3   6
ENDBRANCH   1   2
BRANCH   1  26
ATOM     26  C   UNL     1       4.023  -0.928  -0.668  1.00  0.00     0.023 C 
BRANCH  26  27
ATOM     27  C   UNL     1       4.894  -2.036  -1.279  1.00  0.00     0.023 C 
BRANCH  27  28
ATOM     28  C   UNL     1       5.783  -1.611  -2.446  1.00  0.00     0.116 C 
BRANCH  28  29
ATOM     29  N   UNL     1       6.843  -0.698  -2.046  1.00  0.00    -0.352 N 
ATOM     30  C   UNL     1       8.209  -0.801  -2.176  1.00  0.00     0.251 C 
ATOM     31  H   UNL     1       6.532   0.128  -1.610  1.00  0.00     0.163 HD
ATOM     32  O   UNL     1       8.933   0.027  -1.636  1.00  0.00    -0.269 OA
BRANCH  30  33
ATOM     33  C   UNL     1       8.821  -1.923  -2.928  1.00  0.00     0.039 A 
ATOM     34  C   UNL     1       9.926  -2.575  -2.370  1.00  0.00     0.014 A 
ATOM     35  C   UNL     1       8.330  -2.333  -4.170  1.00  0.00     0.014 A 
ATOM     36  C   UNL     1      10.470  -3.697  -3.004  1.00  0.00     0.010 A 
ATOM     37  C   UNL     1       8.833  -3.489  -4.771  1.00  0.00     0.010 A 
ATOM     38  C   UNL     1       9.888  -4.201  -4.179  1.00  0.00    -0.014 A 
BRANCH  38  39
ATOM     39  C   UNL     1      10.309  -5.513  -4.744  1.00  0.00     0.031 A 
ATOM     40  C   UNL     1      10.931  -5.608  -6.109  1.00  0.00     0.074 A 
ATOM     41  C   UNL     1      10.043  -6.638  -4.048  1.00  0.00     0.049 A 
ATOM     42  N   UNL     1      11.265  -6.675  -6.792  1.00  0.00    -0.248 NA
ATOM     43  C   UNL     1      11.200  -4.342  -6.806  1.00  0.00     0.031 C 
ATOM     44  C   UNL     1       9.404  -6.685  -2.731  1.00  0.00     0.029 A 
ATOM     45  N   UNL     1      10.255  -7.960  -4.357  1.00  0.00    -0.354 N 
ATOM     46  C   UNL     1      11.770  -6.213  -7.999  1.00  0.00     0.074 A 
ATOM     47  C   UNL     1      11.670  -4.768  -7.972  1.00  0.00     0.031 C 
ATOM     48  C   UNL     1       9.282  -7.964  -2.344  1.00  0.00     0.029 A 
ATOM     49  C   UNL     1       9.785  -8.832  -3.403  1.00  0.00     0.049 A 
ATOM     50  H   UNL     1      10.702  -8.256  -5.184  1.00  0.00     0.167 HD
ATOM     51  C   UNL     1      12.280  -6.929  -9.030  1.00  0.00     0.037 A 
ATOM     52  C   UNL     1       9.736 -10.178  -3.392  1.00  0.00     0.037 A 
ATOM     53  C   UNL     1      12.398  -8.366  -9.045  1.00  0.00     0.049 A 
ATOM     54  C   UNL     1      10.281 -10.944  -4.569  1.00  0.00     0.074 A 
ATOM     55  C   UNL     1      12.980  -9.170 -10.011  1.00  0.00     0.029 A 
ATOM     56  N   UNL     1      11.915  -9.213  -8.060  1.00  0.00    -0.354 N 
ATOM     57  N   UNL     1      10.840 -10.491  -5.664  1.00  0.00    -0.248 NA
ATOM     58  C   UNL     1      10.186 -12.410  -4.509  1.00  0.00     0.031 C 
ATOM     59  C   UNL     1      12.790 -10.505  -9.643  1.00  0.00     0.029 A 
ATOM     60  C   UNL     1      12.145 -10.533  -8.418  1.00  0.00     0.049 A 
ATOM     61  H   UNL     1      11.474  -8.921  -7.230  1.00  0.00     0.167 HD
ATOM     62  C   UNL     1      11.180 -11.611  -6.410  1.00  0.00     0.074 A 
ATOM     63  C   UNL     1      10.792 -12.767  -5.631  1.00  0.00     0.031 C 
ATOM     64  C   UNL     1      11.755 -11.677  -7.635  1.00  0.00     0.037 A 
BRANCH  51  65
ATOM     65  C   UNL     1      12.758  -6.186 -10.244  1.00  0.00     0.064 A 
ATOM     66  C   UNL     1      13.938  -5.429 -10.227  1.00  0.00     0.173 A 
ATOM     67  C   UNL     1      12.081  -6.321 -11.467  1.00  0.00     0.173 A 
ATOM     68  F   UNL     1      14.619  -5.266  -9.083  1.00  0.00    -0.203 F 
ATOM     69  C   UNL     1      14.418  -4.825 -11.387  1.00  0.00     0.198 A 
ATOM     70  C   UNL     1      12.579  -5.739 -12.630  1.00  0.00     0.198 A 
ATOM     71  F   UNL     1      10.953  -7.043 -11.540  1.00  0.00    -0.203 F 
ATOM     72  F   UNL     1      15.535  -4.086 -11.342  1.00  0.00    -0.200 F 
ATOM     73  C   UNL     1      13.745  -4.990 -12.589  1.00  0.00     0.200 A 
ATOM     74  F   UNL     1      11.937  -5.915 -13.793  1.00  0.00    -0.200 F 
ATOM     75  F   UNL     1      14.222  -4.428 -13.708  1.00  0.00    -0.200 F 
ENDBRANCH  51  65
BRANCH  52  76
ATOM     76  C   UNL     1       9.124 -10.899  -2.243  1.00  0.00     0.064 A 
ATOM     77  C   UNL     1       9.894 -11.728  -1.415  1.00  0.00     0.173 A 
ATOM     78  C   UNL     1       7.749 -10.812  -1.976  1.00  0.00     0.173 A 
ATOM     79  F   UNL     1      11.209 -11.865  -1.641  1.00  0.00    -0.203 F 
ATOM     80  C   UNL     1       9.308 -12.469  -0.390  1.00  0.00     0.198 A 
ATOM     81  C   UNL     1       7.170 -11.524  -0.928  1.00  0.00     0.198 A 
ATOM     82  F   UNL     1       6.965 -10.032  -2.735  1.00  0.00    -0.203 F 
ATOM     83  F   UNL     1      10.057 -13.306   0.341  1.00  0.00    -0.200 F 
ATOM     84  C   UNL     1       7.947 -12.363  -0.145  1.00  0.00     0.200 A 
ATOM     85  F   UNL     1       5.858 -11.406  -0.685  1.00  0.00    -0.200 F 
ATOM     86  F   UNL     1       7.383 -13.080   0.837  1.00  0.00    -0.200 F 
ENDBRANCH  52  76
BRANCH  64  87
ATOM     87  C   UNL     1      12.015 -13.042  -8.204  1.00  0.00     0.064 A 
ATOM     88  C   UNL     1      10.967 -13.867  -8.639  1.00  0.00     0.173 A 
ATOM     89  C   UNL     1      13.327 -13.516  -8.354  1.00  0.00     0.173 A 
ATOM     90  F   UNL     1       9.693 -13.469  -8.503  1.00  0.00    -0.203 F 
ATOM     91  C   UNL     1      11.222 -15.125  -9.179  1.00  0.00     0.198 A 
ATOM     92  C   UNL     1      13.580 -14.759  -8.925  1.00  0.00     0.198 A 
ATOM     93  F   UNL     1      14.367 -12.765  -7.959  1.00  0.00    -0.203 F 
ATOM     94  F   UNL     1      10.202 -15.915  -9.541  1.00  0.00    -0.200 F 
ATOM     95  C   UNL     1      12.528 -15.566  -9.330  1.00  0.00     0.200 A 
ATOM     96  F   UNL     1      14.844 -15.178  -9.085  1.00  0.00    -0.200 F 
ATOM     97  F   UNL     1      12.772 -16.773  -9.860  1.00  0.00    -0.200 F 
ENDBRANCH  64  87
ENDBRANCH  38  39
ENDBRANCH  30  33
ENDBRANCH  28  29
ENDBRANCH  27  28
ENDBRANCH  26  27
ENDBRANCH   1  26
TORSDOF 12
