REMARK SMILES C#Cc1cccc(N(C)S(=O)(=O)c2cc(F)c(F)c(C(=O)NCCCCNC(=O)c3ccc(-c4c5nc(c(-c6c(F)c(F)c(F)c(F)c6F)c6ccc([nH]6)c(-c6c(F)c(F)c(F)c(F)c6F)c6nc(c(-c7c(F)c(F)c(F)c(F)c7F)c7ccc4[nH]7)C=C6)C=C5)cc3)c2)c1
REMARK SMILES IDX 23 1 22 2 20 3 21 4 19 6 13 7 14 8 93 9 15 10 16 11 17 12
REMARK SMILES IDX 18 13 10 14 11 15 12 16 8 17 9 18 7 19 3 20 4 21 94 22 5 23
REMARK SMILES IDX 6 24 2 25 1 26 24 27 25 28 26 29 27 30 28 31 29 33 30 34
REMARK SMILES IDX 31 35 92 36 32 37 91 38 33 39 34 40 35 41 85 42 36 43 90 44
REMARK SMILES IDX 84 45 86 46 37 47 89 48 83 49 82 50 38 52 70 53 50 54 69 55
REMARK SMILES IDX 51 56 54 57 68 58 87 59 52 60 53 61 67 63 88 64 55 65 39 66
REMARK SMILES IDX 40 67 48 68 41 69 42 70 46 71 49 72 43 73 44 74 47 75 45 76
REMARK SMILES IDX 71 77 72 78 80 79 73 80 74 81 78 82 81 83 75 84 76 85 79 86
REMARK SMILES IDX 77 87 56 88 57 89 65 90 58 91 59 92 63 93 66 94 60 95 61 96
REMARK SMILES IDX 64 97 62 98
REMARK H PARENT 22 5 27 32 86 51 54 62
REMARK Flexibility Score: inf
ROOT
ATOM      1  C   UNL     1       6.301  -3.530   0.262  1.00  0.00     0.116 C 
ENDROOT
BRANCH   1   2
ATOM      2  N   UNL     1       6.909  -4.809   0.034  1.00  0.00    -0.352 N 
ATOM      3  C   UNL     1       6.301  -6.001  -0.337  1.00  0.00     0.254 C 
ATOM      4  O   UNL     1       7.040  -6.951  -0.585  1.00  0.00    -0.269 OA
ATOM      5  H   UNL     1       7.885  -4.847   0.156  1.00  0.00     0.163 HD
BRANCH   3   6
ATOM      6  C   UNL     1       4.804  -6.183  -0.373  1.00  0.00     0.079 A 
ATOM      7  C   UNL     1       2.514  -5.311  -0.415  1.00  0.00     0.091 A 
ATOM      8  C   UNL     1       2.045  -6.559   0.022  1.00  0.00     0.064 A 
ATOM      9  C   UNL     1       3.874  -5.172  -0.728  1.00  0.00     0.039 A 
ATOM     10  C   UNL     1       2.935  -7.615   0.188  1.00  0.00     0.161 A 
ATOM     11  F   UNL     1       2.463  -8.813   0.557  1.00  0.00    -0.204 F 
ATOM     12  C   UNL     1       4.305  -7.426   0.036  1.00  0.00     0.171 A 
ATOM     13  F   UNL     1       5.121  -8.451   0.325  1.00  0.00    -0.203 F 
BRANCH   7  14
ATOM     14  S   UNL     1       1.308  -3.954  -0.344  1.00  0.00     0.264 S 
ATOM     15  O   UNL     1       0.700  -4.095   0.966  1.00  0.00    -0.201 OA
ATOM     16  O   UNL     1       0.519  -4.081  -1.551  1.00  0.00    -0.201 OA
BRANCH  14  17
ATOM     17  N   UNL     1       2.078  -2.410  -0.364  1.00  0.00    -0.269 N 
ATOM     18  C   UNL     1       3.336  -2.300   0.374  1.00  0.00     0.164 C 
BRANCH  17  19
ATOM     19  C   UNL     1       1.240  -1.197  -0.244  1.00  0.00     0.053 A 
ATOM     20  C   UNL     1      -0.875   0.001  -0.049  1.00  0.00     0.026 A 
ATOM     21  C   UNL     1      -0.212   1.229  -0.015  1.00  0.00     0.017 A 
ATOM     22  C   UNL     1      -0.156  -1.204  -0.157  1.00  0.00     0.044 A 
ATOM     23  C   UNL     1       1.170   1.261  -0.115  1.00  0.00     0.003 A 
ATOM     24  C   UNL     1       1.877   0.065  -0.262  1.00  0.00     0.027 A 
BRANCH  20  25
ATOM     25  C   UNL     1      -2.303  -0.012   0.010  1.00  0.00    -0.070 C 
ATOM     26  C   UNL     1      -3.506   0.005   0.041  1.00  0.00     0.010 C 
ENDBRANCH  20  25
ENDBRANCH  17  19
ENDBRANCH  14  17
ENDBRANCH   7  14
ENDBRANCH   3   6
ENDBRANCH   1   2
BRANCH   1  27
ATOM     27  C   UNL     1       6.688  -2.720   1.488  1.00  0.00     0.023 C 
BRANCH  27  28
ATOM     28  C   UNL     1       7.971  -1.918   1.406  1.00  0.00     0.023 C 
BRANCH  28  29
ATOM     29  C   UNL     1       8.113  -1.014   0.189  1.00  0.00     0.116 C 
BRANCH  29  30
ATOM     30  N   UNL     1       7.116   0.048   0.097  1.00  0.00    -0.352 N 
ATOM     31  C   UNL     1       7.310   1.403  -0.081  1.00  0.00     0.251 C 
ATOM     32  H   UNL     1       6.178  -0.242   0.172  1.00  0.00     0.163 HD
ATOM     33  O   UNL     1       6.356   2.174  -0.060  1.00  0.00    -0.269 OA
BRANCH  31  34
ATOM     34  C   UNL     1       8.686   1.918  -0.249  1.00  0.00     0.039 A 
ATOM     35  C   UNL     1       9.122   2.978   0.548  1.00  0.00     0.014 A 
ATOM     36  C   UNL     1       9.570   1.287  -1.126  1.00  0.00     0.014 A 
ATOM     37  C   UNL     1      10.473   3.333   0.540  1.00  0.00     0.010 A 
ATOM     38  C   UNL     1      10.930   1.564  -1.047  1.00  0.00     0.010 A 
ATOM     39  C   UNL     1      11.399   2.589  -0.212  1.00  0.00    -0.014 A 
BRANCH  39  40
ATOM     40  C   UNL     1      12.859   2.858  -0.137  1.00  0.00     0.031 A 
ATOM     41  C   UNL     1      13.618   3.249  -1.375  1.00  0.00     0.074 A 
ATOM     42  C   UNL     1      13.514   2.693   1.031  1.00  0.00     0.049 A 
ATOM     43  N   UNL     1      14.900   3.469  -1.524  1.00  0.00    -0.248 NA
ATOM     44  C   UNL     1      12.841   3.385  -2.618  1.00  0.00     0.031 C 
ATOM     45  C   UNL     1      12.899   2.271   2.291  1.00  0.00     0.029 A 
ATOM     46  N   UNL     1      14.840   2.856   1.351  1.00  0.00    -0.354 N 
ATOM     47  C   UNL     1      15.078   3.764  -2.869  1.00  0.00     0.074 A 
ATOM     48  C   UNL     1      13.790   3.623  -3.510  1.00  0.00     0.031 C 
ATOM     49  C   UNL     1      13.834   2.252   3.253  1.00  0.00     0.029 A 
ATOM     50  C   UNL     1      15.126   2.606   2.672  1.00  0.00     0.049 A 
ATOM     51  H   UNL     1      15.522   3.127   0.694  1.00  0.00     0.167 HD
ATOM     52  C   UNL     1      16.207   4.152  -3.505  1.00  0.00     0.037 A 
ATOM     53  C   UNL     1      16.296   2.651   3.340  1.00  0.00     0.037 A 
ATOM     54  C   UNL     1      17.482   4.310  -2.857  1.00  0.00     0.049 A 
ATOM     55  C   UNL     1      17.546   3.048   2.601  1.00  0.00     0.074 A 
ATOM     56  C   UNL     1      18.675   4.745  -3.406  1.00  0.00     0.029 A 
ATOM     57  N   UNL     1      17.732   4.037  -1.520  1.00  0.00    -0.354 N 
ATOM     58  N   UNL     1      17.688   3.391   1.343  1.00  0.00    -0.248 NA
ATOM     59  C   UNL     1      18.798   3.069   3.371  1.00  0.00     0.031 C 
ATOM     60  C   UNL     1      19.662   4.667  -2.422  1.00  0.00     0.029 A 
ATOM     61  C   UNL     1      19.070   4.261  -1.236  1.00  0.00     0.049 A 
ATOM     62  H   UNL     1      17.060   3.730  -0.870  1.00  0.00     0.167 HD
ATOM     63  C   UNL     1      19.033   3.695   1.178  1.00  0.00     0.074 A 
ATOM     64  C   UNL     1      19.663   3.512   2.469  1.00  0.00     0.031 C 
ATOM     65  C   UNL     1      19.685   4.086   0.056  1.00  0.00     0.037 A 
BRANCH  52  66
ATOM     66  C   UNL     1      16.123   4.452  -4.975  1.00  0.00     0.064 A 
ATOM     67  C   UNL     1      16.823   3.666  -5.904  1.00  0.00     0.173 A 
ATOM     68  C   UNL     1      15.420   5.566  -5.459  1.00  0.00     0.173 A 
ATOM     69  F   UNL     1      17.515   2.591  -5.497  1.00  0.00    -0.203 F 
ATOM     70  C   UNL     1      16.840   3.998  -7.256  1.00  0.00     0.198 A 
ATOM     71  C   UNL     1      15.408   5.873  -6.817  1.00  0.00     0.198 A 
ATOM     72  F   UNL     1      14.723   6.343  -4.616  1.00  0.00    -0.203 F 
ATOM     73  F   UNL     1      17.553   3.259  -8.117  1.00  0.00    -0.200 F 
ATOM     74  C   UNL     1      16.130   5.098  -7.712  1.00  0.00     0.200 A 
ATOM     75  F   UNL     1      14.697   6.919  -7.259  1.00  0.00    -0.200 F 
ATOM     76  F   UNL     1      16.139   5.411  -9.015  1.00  0.00    -0.200 F 
ENDBRANCH  52  66
BRANCH  53  77
ATOM     77  C   UNL     1      16.326   2.347   4.797  1.00  0.00     0.064 A 
ATOM     78  C   UNL     1      16.043   1.062   5.284  1.00  0.00     0.173 A 
ATOM     79  C   UNL     1      16.608   3.349   5.737  1.00  0.00     0.173 A 
ATOM     80  F   UNL     1      15.763   0.066   4.431  1.00  0.00    -0.203 F 
ATOM     81  C   UNL     1      16.014   0.798   6.653  1.00  0.00     0.198 A 
ATOM     82  C   UNL     1      16.612   3.077   7.104  1.00  0.00     0.198 A 
ATOM     83  F   UNL     1      16.905   4.590   5.323  1.00  0.00    -0.203 F 
ATOM     84  F   UNL     1      15.694  -0.427   7.090  1.00  0.00    -0.200 F 
ATOM     85  C   UNL     1      16.303   1.805   7.561  1.00  0.00     0.200 A 
ATOM     86  F   UNL     1      16.919   4.046   7.976  1.00  0.00    -0.200 F 
ATOM     87  F   UNL     1      16.286   1.549   8.876  1.00  0.00    -0.200 F 
ENDBRANCH  53  77
BRANCH  65  88
ATOM     88  C   UNL     1      21.157   4.375   0.160  1.00  0.00     0.064 A 
ATOM     89  C   UNL     1      21.639   5.679  -0.038  1.00  0.00     0.173 A 
ATOM     90  C   UNL     1      22.096   3.352   0.351  1.00  0.00     0.173 A 
ATOM     91  F   UNL     1      20.784   6.694  -0.237  1.00  0.00    -0.203 F 
ATOM     92  C   UNL     1      23.005   5.942  -0.074  1.00  0.00     0.198 A 
ATOM     93  C   UNL     1      23.462   3.625   0.353  1.00  0.00     0.198 A 
ATOM     94  F   UNL     1      21.689   2.090   0.554  1.00  0.00    -0.203 F 
ATOM     95  F   UNL     1      23.441   7.186  -0.318  1.00  0.00    -0.200 F 
ATOM     96  C   UNL     1      23.916   4.916   0.126  1.00  0.00     0.200 A 
ATOM     97  F   UNL     1      24.340   2.637   0.573  1.00  0.00    -0.200 F 
ATOM     98  F   UNL     1      25.231   5.171   0.099  1.00  0.00    -0.200 F 
ENDBRANCH  65  88
ENDBRANCH  39  40
ENDBRANCH  31  34
ENDBRANCH  29  30
ENDBRANCH  28  29
ENDBRANCH  27  28
ENDBRANCH   1  27
TORSDOF 15
