REMARK SMILES CC[C@@H](C)[C@H](NC(=O)Cn1ccc(C(F)(F)F)n1)C(=O)NCCCCNC(=O)c1ccc(-c2c3nc(c(-c4c(F)c(F)c(F)c(F)c4F)c4ccc([nH]4)c(-c4c(F)c(F)c(F)c(F)c4F)c4nc(c(-c5c(F)c(F)c(F)c(F)c5F)c5ccc2[nH]5)C=C4)C=C3)cc1
REMARK SMILES IDX 22 1 21 2 19 3 20 4 5 6 3 7 4 8 2 9 1 10 6 11 7 12 8 14 9 15
REMARK SMILES IDX 10 16 11 17 18 18 12 19 13 20 14 21 15 22 16 23 17 24 23 25
REMARK SMILES IDX 24 26 25 27 26 28 27 29 28 31 29 32 30 33 91 34 31 35 90 36
REMARK SMILES IDX 32 37 33 38 34 39 84 40 35 41 89 42 83 43 85 44 36 45 88 46
REMARK SMILES IDX 82 47 81 48 37 50 69 51 49 52 68 53 50 54 53 55 67 56 86 57
REMARK SMILES IDX 51 58 52 59 66 61 87 62 54 63 38 64 39 65 47 66 40 67 41 68
REMARK SMILES IDX 45 69 48 70 42 71 43 72 46 73 44 74 70 75 71 76 79 77 72 78
REMARK SMILES IDX 73 79 77 80 80 81 74 82 75 83 78 84 76 85 55 86 56 87 64 88
REMARK SMILES IDX 57 89 58 90 62 91 65 92 59 93 60 94 63 95 61 96
REMARK H PARENT 21 5 6 13 26 30 85 49 53 60
REMARK Flexibility Score: inf
ROOT
ATOM      1  C   UNL     1       4.155   0.663   3.742  1.00  0.00     0.116 C 
ENDROOT
BRANCH   1   2
ATOM      2  N   UNL     1       3.308   1.162   4.816  1.00  0.00    -0.354 N 
ATOM      3  C   UNL     1       2.004   0.854   5.123  1.00  0.00     0.242 C 
ATOM      4  O   UNL     1       1.647   1.035   6.292  1.00  0.00    -0.273 OA
ATOM      5  H   UNL     1       3.733   1.819   5.413  1.00  0.00     0.163 HD
BRANCH   3   6
ATOM      6  C   UNL     1       1.052   0.180   4.113  1.00  0.00     0.174 C 
BRANCH   6   7
ATOM      7  C   UNL     1       1.122  -1.406   4.255  1.00  0.00     0.018 C 
ATOM      8  C   UNL     1       0.126  -1.891   5.319  1.00  0.00     0.010 C 
BRANCH   7   9
ATOM      9  C   UNL     1       2.556  -1.918   4.538  1.00  0.00     0.002 C 
ATOM     10  C   UNL     1       2.819  -3.389   4.795  1.00  0.00     0.004 C 
ENDBRANCH   7   9
ENDBRANCH   6   7
BRANCH   6  11
ATOM     11  N   UNL     1       1.232   0.626   2.720  1.00  0.00    -0.342 N 
ATOM     12  C   UNL     1       1.194   1.885   2.177  1.00  0.00     0.242 C 
ATOM     13  H   UNL     1       1.408  -0.097   2.075  1.00  0.00     0.164 HD
ATOM     14  O   UNL     1       0.902   1.928   0.974  1.00  0.00    -0.273 OA
BRANCH  12  15
ATOM     15  C   UNL     1       1.740   3.129   2.852  1.00  0.00     0.243 C 
BRANCH  15  16
ATOM     16  N   UNL     1       1.043   3.668   4.002  1.00  0.00    -0.263 N 
ATOM     17  C   UNL     1       1.619   3.965   5.210  1.00  0.00     0.110 A 
ATOM     18  N   UNL     1      -0.170   4.225   3.858  1.00  0.00    -0.168 NA
ATOM     19  C   UNL     1       0.669   4.627   5.942  1.00  0.00     0.055 A 
ATOM     20  C   UNL     1      -0.407   4.831   5.041  1.00  0.00     0.166 A 
BRANCH  20  21
ATOM     21  C   UNL     1      -1.641   5.637   5.325  1.00  0.00     0.435 C 
ATOM     22  F   UNL     1      -2.582   4.909   5.982  1.00  0.00    -0.164 F 
ATOM     23  F   UNL     1      -1.358   6.707   6.122  1.00  0.00    -0.164 F 
ATOM     24  F   UNL     1      -2.228   6.138   4.207  1.00  0.00    -0.164 F 
ENDBRANCH  20  21
ENDBRANCH  15  16
ENDBRANCH  12  15
ENDBRANCH   6  11
ENDBRANCH   3   6
ENDBRANCH   1   2
BRANCH   1  25
ATOM     25  C   UNL     1       4.937   1.672   2.901  1.00  0.00     0.023 C 
BRANCH  25  26
ATOM     26  C   UNL     1       5.564   2.878   3.597  1.00  0.00     0.023 C 
BRANCH  26  27
ATOM     27  C   UNL     1       6.591   2.524   4.654  1.00  0.00     0.116 C 
BRANCH  27  28
ATOM     28  N   UNL     1       7.664   1.679   4.129  1.00  0.00    -0.352 N 
ATOM     29  C   UNL     1       8.634   0.978   4.823  1.00  0.00     0.251 C 
ATOM     30  H   UNL     1       7.701   1.598   3.148  1.00  0.00     0.163 HD
ATOM     31  O   UNL     1       9.665   0.614   4.283  1.00  0.00    -0.269 OA
BRANCH  29  32
ATOM     32  C   UNL     1       8.377   0.662   6.236  1.00  0.00     0.039 A 
ATOM     33  C   UNL     1       9.370   0.740   7.212  1.00  0.00     0.014 A 
ATOM     34  C   UNL     1       7.069   0.331   6.569  1.00  0.00     0.014 A 
ATOM     35  C   UNL     1       9.005   0.531   8.538  1.00  0.00     0.010 A 
ATOM     36  C   UNL     1       6.672   0.387   7.869  1.00  0.00     0.010 A 
ATOM     37  C   UNL     1       7.645   0.365   8.850  1.00  0.00    -0.014 A 
BRANCH  37  38
ATOM     38  C   UNL     1       7.171   0.244  10.215  1.00  0.00     0.031 A 
ATOM     39  C   UNL     1       7.533   1.397  11.066  1.00  0.00     0.074 A 
ATOM     40  C   UNL     1       6.291  -0.707  10.594  1.00  0.00     0.049 A 
ATOM     41  N   UNL     1       8.455   1.437  11.966  1.00  0.00    -0.248 NA
ATOM     42  C   UNL     1       6.951   2.710  10.748  1.00  0.00     0.031 C 
ATOM     43  C   UNL     1       5.585  -1.696   9.768  1.00  0.00     0.029 A 
ATOM     44  N   UNL     1       5.769  -0.931  11.828  1.00  0.00    -0.354 N 
ATOM     45  C   UNL     1       8.404   2.719  12.499  1.00  0.00     0.074 A 
ATOM     46  C   UNL     1       7.653   3.506  11.558  1.00  0.00     0.031 C 
ATOM     47  C   UNL     1       4.579  -2.252  10.480  1.00  0.00     0.029 A 
ATOM     48  C   UNL     1       4.680  -1.796  11.852  1.00  0.00     0.049 A 
ATOM     49  H   UNL     1       6.134  -0.514  12.641  1.00  0.00     0.167 HD
ATOM     50  C   UNL     1       8.722   2.925  13.808  1.00  0.00     0.037 A 
ATOM     51  C   UNL     1       3.914  -2.084  12.934  1.00  0.00     0.037 A 
ATOM     52  C   UNL     1       9.411   1.768  14.342  1.00  0.00     0.049 A 
ATOM     53  C   UNL     1       4.710  -1.716  14.135  1.00  0.00     0.074 A 
ATOM     54  C   UNL     1      10.575   1.094  14.026  1.00  0.00     0.029 A 
ATOM     55  N   UNL     1       8.675   0.895  15.109  1.00  0.00    -0.354 N 
ATOM     56  N   UNL     1       5.801  -2.334  14.495  1.00  0.00    -0.248 NA
ATOM     57  C   UNL     1       4.562  -0.362  14.646  1.00  0.00     0.031 C 
ATOM     58  C   UNL     1      10.266  -0.288  14.209  1.00  0.00     0.029 A 
ATOM     59  C   UNL     1       8.965  -0.381  14.704  1.00  0.00     0.049 A 
ATOM     60  H   UNL     1       8.048   1.145  15.826  1.00  0.00     0.167 HD
ATOM     61  C   UNL     1       6.664  -1.324  14.893  1.00  0.00     0.074 A 
ATOM     62  C   UNL     1       5.819  -0.140  15.044  1.00  0.00     0.031 C 
ATOM     63  C   UNL     1       8.017  -1.470  14.766  1.00  0.00     0.037 A 
BRANCH  50  64
ATOM     64  C   UNL     1       8.036   3.926  14.718  1.00  0.00     0.064 A 
ATOM     65  C   UNL     1       8.459   3.995  16.064  1.00  0.00     0.173 A 
ATOM     66  C   UNL     1       6.808   4.566  14.444  1.00  0.00     0.173 A 
ATOM     67  F   UNL     1       9.623   3.447  16.444  1.00  0.00    -0.203 F 
ATOM     68  C   UNL     1       7.648   4.526  17.069  1.00  0.00     0.198 A 
ATOM     69  C   UNL     1       6.023   5.138  15.444  1.00  0.00     0.198 A 
ATOM     70  F   UNL     1       6.253   4.587  13.229  1.00  0.00    -0.203 F 
ATOM     71  F   UNL     1       8.028   4.423  18.350  1.00  0.00    -0.200 F 
ATOM     72  C   UNL     1       6.421   5.079  16.761  1.00  0.00     0.200 A 
ATOM     73  F   UNL     1       4.834   5.668  15.123  1.00  0.00    -0.200 F 
ATOM     74  F   UNL     1       5.606   5.514  17.729  1.00  0.00    -0.200 F 
ENDBRANCH  50  64
BRANCH  51  75
ATOM     75  C   UNL     1       2.456  -2.342  12.997  1.00  0.00     0.064 A 
ATOM     76  C   UNL     1       1.868  -2.898  14.145  1.00  0.00     0.173 A 
ATOM     77  C   UNL     1       1.574  -1.779  12.054  1.00  0.00     0.173 A 
ATOM     78  F   UNL     1       2.639  -3.418  15.112  1.00  0.00    -0.203 F 
ATOM     79  C   UNL     1       0.485  -2.860  14.355  1.00  0.00     0.198 A 
ATOM     80  C   UNL     1       0.193  -1.745  12.262  1.00  0.00     0.198 A 
ATOM     81  F   UNL     1       2.042  -1.162  10.960  1.00  0.00    -0.203 F 
ATOM     82  F   UNL     1      -0.033  -3.341  15.495  1.00  0.00    -0.200 F 
ATOM     83  C   UNL     1      -0.350  -2.272  13.420  1.00  0.00     0.200 A 
ATOM     84  F   UNL     1      -0.600  -1.139  11.367  1.00  0.00    -0.200 F 
ATOM     85  F   UNL     1      -1.667  -2.174  13.651  1.00  0.00    -0.200 F 
ENDBRANCH  51  75
BRANCH  63  86
ATOM     86  C   UNL     1       8.547  -2.845  14.461  1.00  0.00     0.064 A 
ATOM     87  C   UNL     1       8.283  -3.554  13.275  1.00  0.00     0.173 A 
ATOM     88  C   UNL     1       9.475  -3.402  15.349  1.00  0.00     0.173 A 
ATOM     89  F   UNL     1       7.482  -3.047  12.331  1.00  0.00    -0.203 F 
ATOM     90  C   UNL     1       8.890  -4.782  13.016  1.00  0.00     0.198 A 
ATOM     91  C   UNL     1      10.108  -4.610  15.072  1.00  0.00     0.198 A 
ATOM     92  F   UNL     1       9.806  -2.746  16.472  1.00  0.00    -0.203 F 
ATOM     93  F   UNL     1       8.613  -5.444  11.883  1.00  0.00    -0.200 F 
ATOM     94  C   UNL     1       9.809  -5.305  13.911  1.00  0.00     0.200 A 
ATOM     95  F   UNL     1      11.031  -5.086  15.918  1.00  0.00    -0.200 F 
ATOM     96  F   UNL     1      10.425  -6.465  13.644  1.00  0.00    -0.200 F 
ENDBRANCH  63  86
ENDBRANCH  37  38
ENDBRANCH  29  32
ENDBRANCH  27  28
ENDBRANCH  26  27
ENDBRANCH  25  26
ENDBRANCH   1  25
TORSDOF 17
