REMARK SMILES CCC[NH2+][C@@](C)(C[N@H+]1CCC(C)(C)C1)C(=O)NCCCCNC(=O)c1ccc(-c2c3nc(c(-c4c(F)c(F)c(F)c(F)c4F)c4ccc([nH]4)c(-c4c(F)c(F)c(F)c(F)c4F)c4nc(c(-c5c(F)c(F)c(F)c(F)c5F)c5ccc2[nH]5)C=C4)C=C3)cc1
REMARK SMILES IDX 19 1 18 2 17 3 15 4 16 5 5 7 6 8 4 9 3 12 2 13 1 14 7 15
REMARK SMILES IDX 8 16 9 17 14 18 10 20 11 21 12 22 13 23 20 24 21 25 22 26
REMARK SMILES IDX 23 27 24 29 25 30 26 31 87 32 27 33 86 34 28 35 29 36 30 37
REMARK SMILES IDX 80 38 31 39 85 40 79 41 81 42 32 43 84 44 78 45 77 46 33 48
REMARK SMILES IDX 65 49 45 50 64 51 46 52 49 53 63 54 82 55 47 56 48 57 62 59
REMARK SMILES IDX 83 60 50 61 34 62 35 63 43 64 36 65 37 66 41 67 44 68 38 69
REMARK SMILES IDX 39 70 42 71 40 72 66 73 67 74 75 75 68 76 69 77 73 78 76 79
REMARK SMILES IDX 70 80 71 81 74 82 72 83 51 84 52 85 60 86 53 87 54 88 58 89
REMARK SMILES IDX 61 90 55 91 56 92 59 93 57 94
REMARK H PARENT 17 6 4 10 4 11 8 19 22 28 81 47 49 58
REMARK Flexibility Score: inf
ROOT
ATOM      1  C   UNL     1       1.064   7.071  -4.253  1.00  0.00     0.023 C 
ENDROOT
BRANCH   1   2
ATOM      2  C   UNL     1       2.067   6.440  -3.287  1.00  0.00     0.116 C 
BRANCH   2   3
ATOM      3  N   UNL     1       1.495   6.166  -1.984  1.00  0.00    -0.350 N 
ATOM      4  C   UNL     1       1.107   5.017  -1.353  1.00  0.00     0.287 C 
ATOM      5  O   UNL     1       0.613   5.203  -0.235  1.00  0.00    -0.268 OA
ATOM      6  H   UNL     1       1.357   6.975  -1.440  1.00  0.00     0.163 HD
BRANCH   4   7
ATOM      7  C   UNL     1       1.289   3.597  -1.990  1.00  0.00     0.221 C 
ATOM      8  C   UNL     1       2.800   3.327  -2.182  1.00  0.00     0.097 C 
BRANCH   7   9
ATOM      9  N   UNL     1       0.754   2.500  -1.126  1.00  0.00    -0.329 N 
ATOM     10  H   UNL     1      -0.252   2.648  -1.045  1.00  0.00     0.347 HD
ATOM     11  H   UNL     1       1.056   1.649  -1.600  1.00  0.00     0.347 HD
BRANCH   9  12
ATOM     12  C   UNL     1       1.271   2.345   0.228  1.00  0.00     0.261 C 
BRANCH  12  13
ATOM     13  C   UNL     1       0.670   1.084   0.871  1.00  0.00     0.058 C 
ATOM     14  C   UNL     1       1.113  -0.215   0.206  1.00  0.00     0.010 C 
ENDBRANCH  12  13
ENDBRANCH   9  12
ENDBRANCH   7   9
BRANCH   7  15
ATOM     15  C   UNL     1       0.534   3.474  -3.381  1.00  0.00     0.341 C 
BRANCH  15  16
ATOM     16  N   UNL     1      -0.939   3.469  -3.518  1.00  0.00    -0.329 N 
ATOM     17  C   UNL     1      -1.628   2.291  -2.993  1.00  0.00     0.263 C 
ATOM     18  C   UNL     1      -1.642   4.668  -3.046  1.00  0.00     0.269 C 
ATOM     19  H   UNL     1      -0.999   3.450  -4.536  1.00  0.00     0.348 HD
ATOM     20  C   UNL     1      -2.489   2.785  -1.843  1.00  0.00     0.073 C 
ATOM     21  C   UNL     1      -2.886   4.196  -2.275  1.00  0.00     0.019 C 
ATOM     22  C   UNL     1      -4.120   4.162  -3.191  1.00  0.00     0.017 C 
ATOM     23  C   UNL     1      -3.179   5.088  -1.064  1.00  0.00     0.017 C 
ENDBRANCH  15  16
ENDBRANCH   7  15
ENDBRANCH   4   7
ENDBRANCH   2   3
ENDBRANCH   1   2
BRANCH   1  24
ATOM     24  C   UNL     1       0.554   8.453  -3.849  1.00  0.00     0.023 C 
BRANCH  24  25
ATOM     25  C   UNL     1       1.638   9.461  -3.492  1.00  0.00     0.116 C 
BRANCH  25  26
ATOM     26  N   UNL     1       2.653   9.596  -4.526  1.00  0.00    -0.352 N 
ATOM     27  C   UNL     1       3.269  10.723  -5.003  1.00  0.00     0.251 C 
ATOM     28  H   UNL     1       2.940   8.752  -4.945  1.00  0.00     0.163 HD
ATOM     29  O   UNL     1       4.026  10.645  -5.968  1.00  0.00    -0.269 OA
BRANCH  27  30
ATOM     30  C   UNL     1       2.994  12.036  -4.386  1.00  0.00     0.039 A 
ATOM     31  C   UNL     1       2.787  13.133  -5.225  1.00  0.00     0.014 A 
ATOM     32  C   UNL     1       2.930  12.191  -2.998  1.00  0.00     0.014 A 
ATOM     33  C   UNL     1       2.458  14.370  -4.673  1.00  0.00     0.010 A 
ATOM     34  C   UNL     1       2.515  13.403  -2.454  1.00  0.00     0.010 A 
ATOM     35  C   UNL     1       2.281  14.507  -3.285  1.00  0.00    -0.014 A 
BRANCH  35  36
ATOM     36  C   UNL     1       1.836  15.801  -2.712  1.00  0.00     0.031 A 
ATOM     37  C   UNL     1       2.723  16.573  -1.776  1.00  0.00     0.074 A 
ATOM     38  C   UNL     1       0.612  16.270  -3.025  1.00  0.00     0.049 A 
ATOM     39  N   UNL     1       2.518  17.742  -1.220  1.00  0.00    -0.248 NA
ATOM     40  C   UNL     1       3.995  15.944  -1.393  1.00  0.00     0.031 C 
ATOM     41  C   UNL     1      -0.367  15.577  -3.866  1.00  0.00     0.029 A 
ATOM     42  N   UNL     1      -0.016  17.440  -2.682  1.00  0.00    -0.354 N 
ATOM     43  C   UNL     1       3.631  17.983  -0.426  1.00  0.00     0.074 A 
ATOM     44  C   UNL     1       4.477  16.813  -0.517  1.00  0.00     0.031 C 
ATOM     45  C   UNL     1      -1.450  16.355  -4.011  1.00  0.00     0.029 A 
ATOM     46  C   UNL     1      -1.260  17.583  -3.247  1.00  0.00     0.049 A 
ATOM     47  H   UNL     1       0.387  18.114  -2.087  1.00  0.00     0.167 HD
ATOM     48  C   UNL     1       3.934  19.093   0.290  1.00  0.00     0.037 A 
ATOM     49  C   UNL     1      -2.144  18.595  -3.163  1.00  0.00     0.037 A 
ATOM     50  C   UNL     1       3.092  20.258   0.368  1.00  0.00     0.049 A 
ATOM     51  C   UNL     1      -1.781  19.816  -2.363  1.00  0.00     0.074 A 
ATOM     52  C   UNL     1       3.332  21.455   1.020  1.00  0.00     0.029 A 
ATOM     53  N   UNL     1       1.839  20.369  -0.219  1.00  0.00    -0.354 N 
ATOM     54  N   UNL     1      -0.685  20.071  -1.690  1.00  0.00    -0.248 NA
ATOM     55  C   UNL     1      -2.776  20.896  -2.322  1.00  0.00     0.031 C 
ATOM     56  C   UNL     1       2.201  22.267   0.877  1.00  0.00     0.029 A 
ATOM     57  C   UNL     1       1.282  21.603   0.080  1.00  0.00     0.049 A 
ATOM     58  H   UNL     1       1.408  19.673  -0.766  1.00  0.00     0.167 HD
ATOM     59  C   UNL     1      -0.846  21.348  -1.169  1.00  0.00     0.074 A 
ATOM     60  C   UNL     1      -2.135  21.824  -1.628  1.00  0.00     0.031 C 
ATOM     61  C   UNL     1      -0.004  22.061  -0.380  1.00  0.00     0.037 A 
BRANCH  48  62
ATOM     62  C   UNL     1       5.234  19.099   1.045  1.00  0.00     0.064 A 
ATOM     63  C   UNL     1       6.472  19.126   0.384  1.00  0.00     0.173 A 
ATOM     64  C   UNL     1       5.243  19.118   2.449  1.00  0.00     0.173 A 
ATOM     65  F   UNL     1       6.522  19.098  -0.957  1.00  0.00    -0.203 F 
ATOM     66  C   UNL     1       7.668  19.139   1.097  1.00  0.00     0.198 A 
ATOM     67  C   UNL     1       6.441  19.166   3.158  1.00  0.00     0.198 A 
ATOM     68  F   UNL     1       4.090  19.099   3.134  1.00  0.00    -0.203 F 
ATOM     69  F   UNL     1       8.837  19.109   0.442  1.00  0.00    -0.200 F 
ATOM     70  C   UNL     1       7.651  19.168   2.483  1.00  0.00     0.200 A 
ATOM     71  F   UNL     1       6.422  19.209   4.498  1.00  0.00    -0.200 F 
ATOM     72  F   UNL     1       8.803  19.190   3.168  1.00  0.00    -0.200 F 
ENDBRANCH  48  62
BRANCH  49  73
ATOM     73  C   UNL     1      -3.441  18.510  -3.885  1.00  0.00     0.064 A 
ATOM     74  C   UNL     1      -3.722  19.355  -4.969  1.00  0.00     0.173 A 
ATOM     75  C   UNL     1      -4.429  17.590  -3.504  1.00  0.00     0.173 A 
ATOM     76  F   UNL     1      -2.817  20.264  -5.361  1.00  0.00    -0.203 F 
ATOM     77  C   UNL     1      -4.950  19.302  -5.625  1.00  0.00     0.198 A 
ATOM     78  C   UNL     1      -5.643  17.514  -4.183  1.00  0.00     0.198 A 
ATOM     79  F   UNL     1      -4.208  16.754  -2.479  1.00  0.00    -0.203 F 
ATOM     80  F   UNL     1      -5.212  20.157  -6.622  1.00  0.00    -0.200 F 
ATOM     81  C   UNL     1      -5.907  18.377  -5.235  1.00  0.00     0.200 A 
ATOM     82  F   UNL     1      -6.558  16.607  -3.814  1.00  0.00    -0.200 F 
ATOM     83  F   UNL     1      -7.087  18.323  -5.869  1.00  0.00    -0.200 F 
ENDBRANCH  49  73
BRANCH  61  84
ATOM     84  C   UNL     1      -0.443  23.445   0.010  1.00  0.00     0.064 A 
ATOM     85  C   UNL     1      -1.521  23.661   0.882  1.00  0.00     0.173 A 
ATOM     86  C   UNL     1       0.231  24.571  -0.489  1.00  0.00     0.173 A 
ATOM     87  F   UNL     1      -2.208  22.620   1.377  1.00  0.00    -0.203 F 
ATOM     88  C   UNL     1      -1.936  24.951   1.203  1.00  0.00     0.198 A 
ATOM     89  C   UNL     1      -0.162  25.858  -0.134  1.00  0.00     0.198 A 
ATOM     90  F   UNL     1       1.275  24.422  -1.318  1.00  0.00    -0.203 F 
ATOM     91  F   UNL     1      -3.012  25.132   1.982  1.00  0.00    -0.200 F 
ATOM     92  C   UNL     1      -1.253  26.048   0.700  1.00  0.00     0.200 A 
ATOM     93  F   UNL     1       0.511  26.916  -0.608  1.00  0.00    -0.200 F 
ATOM     94  F   UNL     1      -1.653  27.288   1.010  1.00  0.00    -0.200 F 
ENDBRANCH  61  84
ENDBRANCH  35  36
ENDBRANCH  27  30
ENDBRANCH  25  26
ENDBRANCH  24  25
ENDBRANCH   1  24
TORSDOF 16
