REMARK SMILES Cn1c(C[NH+]2CCC3(CC2)NC(=O)C[C@@H]3C(=O)NCCCCNC(=O)c2ccc(-c3c4nc(c(-c5c(F)c(F)c(F)c(F)c5F)c5ccc([nH]5)c(-c5c(F)c(F)c(F)c(F)c5F)c5nc(c(-c6c(F)c(F)c(F)c(F)c6F)c6ccc3[nH]6)C=C5)C=C4)cc2)nc2ccccc21
REMARK SMILES IDX 20 1 19 2 18 3 16 4 17 5 15 7 5 8 6 9 10 10 7 12 9 13 8 14
REMARK SMILES IDX 11 15 12 16 14 18 13 19 4 20 3 21 1 22 2 23 95 24 89 25
REMARK SMILES IDX 90 26 94 27 91 28 93 29 92 30 21 31 22 32 23 33 24 34 25 36
REMARK SMILES IDX 26 37 27 38 88 39 28 40 87 41 29 42 30 43 31 44 81 45 32 46
REMARK SMILES IDX 86 47 80 48 82 49 33 50 85 51 79 52 78 53 34 55 66 56 46 57
REMARK SMILES IDX 65 58 47 59 50 60 64 61 83 62 48 63 49 64 63 66 84 67 51 68
REMARK SMILES IDX 35 69 36 70 44 71 37 72 38 73 42 74 45 75 39 76 40 77 43 78
REMARK SMILES IDX 41 79 67 80 68 81 76 82 69 83 70 84 74 85 77 86 71 87 72 88
REMARK SMILES IDX 75 89 73 90 52 91 53 92 61 93 54 94 55 95 59 96 62 97 56 98
REMARK SMILES IDX 57 99 60 100 58 101
REMARK H PARENT 18 6 5 11 11 17 23 35 82 54 50 65
REMARK Flexibility Score: inf
ROOT
ATOM      1  C   UNL     1      -4.348  -5.314  -2.566  1.00  0.00     0.023 C 
ENDROOT
BRANCH   1   2
ATOM      2  C   UNL     1      -3.213  -5.153  -3.585  1.00  0.00     0.116 C 
BRANCH   2   3
ATOM      3  N   UNL     1      -3.301  -3.913  -4.332  1.00  0.00    -0.356 N 
ATOM      4  C   UNL     1      -2.361  -2.971  -4.615  1.00  0.00     0.226 C 
ATOM      5  O   UNL     1      -2.696  -2.067  -5.382  1.00  0.00    -0.275 OA
ATOM      6  H   UNL     1      -4.194  -3.720  -4.697  1.00  0.00     0.163 HD
BRANCH   4   7
ATOM      7  C   UNL     1      -0.980  -3.020  -3.981  1.00  0.00     0.114 C 
ATOM      8  N   UNL     1      -3.121  -1.951  -0.780  1.00  0.00    -0.328 N 
ATOM      9  C   UNL     1      -3.087  -1.175  -2.013  1.00  0.00     0.265 C 
ATOM     10  C   UNL     1      -2.240  -3.113  -0.768  1.00  0.00     0.265 C 
ATOM     11  H   UNL     1      -4.064  -2.338  -0.801  1.00  0.00     0.348 HD
ATOM     12  C   UNL     1      -1.696  -0.916  -2.595  1.00  0.00     0.091 C 
ATOM     13  C   UNL     1      -0.865  -3.001  -1.404  1.00  0.00     0.091 C 
ATOM     14  C   UNL     1      -0.800  -2.164  -2.688  1.00  0.00     0.063 C 
ATOM     15  N   UNL     1       0.585  -1.721  -2.819  1.00  0.00    -0.349 N 
ATOM     16  C   UNL     1       1.124  -1.873  -4.067  1.00  0.00     0.221 C 
ATOM     17  H   UNL     1       1.093  -1.342  -2.066  1.00  0.00     0.164 HD
ATOM     18  C   UNL     1       0.069  -2.449  -4.961  1.00  0.00     0.116 C 
ATOM     19  O   UNL     1       2.254  -1.561  -4.386  1.00  0.00    -0.275 OA
BRANCH   8  20
ATOM     20  C   UNL     1      -3.114  -1.179   0.475  1.00  0.00     0.339 C 
BRANCH  20  21
ATOM     21  C   UNL     1      -1.792  -0.554   0.788  1.00  0.00     0.165 A 
ATOM     22  C   UNL     1      -2.320   1.842   0.159  1.00  0.00     0.152 C 
ATOM     23  N   UNL     1      -1.448   0.756   0.534  1.00  0.00    -0.326 N 
ATOM     24  C   UNL     1      -0.070   0.817   0.490  1.00  0.00     0.068 A 
ATOM     25  N   UNL     1      -0.735  -1.234   1.194  1.00  0.00    -0.227 NA
ATOM     26  C   UNL     1       0.340  -0.448   0.891  1.00  0.00     0.089 A 
ATOM     27  C   UNL     1       0.832   1.806   0.087  1.00  0.00     0.028 A 
ATOM     28  C   UNL     1       1.698  -0.790   0.852  1.00  0.00     0.030 A 
ATOM     29  C   UNL     1       2.183   1.442   0.031  1.00  0.00     0.002 A 
ATOM     30  C   UNL     1       2.611   0.163   0.392  1.00  0.00     0.002 A 
ENDBRANCH  20  21
ENDBRANCH   8  20
ENDBRANCH   4   7
ENDBRANCH   2   3
ENDBRANCH   1   2
BRANCH   1  31
ATOM     31  C   UNL     1      -5.755  -5.318  -3.129  1.00  0.00     0.023 C 
BRANCH  31  32
ATOM     32  C   UNL     1      -5.993  -6.389  -4.166  1.00  0.00     0.116 C 
BRANCH  32  33
ATOM     33  N   UNL     1      -5.740  -7.726  -3.646  1.00  0.00    -0.352 N 
ATOM     34  C   UNL     1      -6.606  -8.783  -3.514  1.00  0.00     0.251 C 
ATOM     35  H   UNL     1      -4.818  -7.896  -3.346  1.00  0.00     0.163 HD
ATOM     36  O   UNL     1      -6.288  -9.775  -2.869  1.00  0.00    -0.269 OA
BRANCH  34  37
ATOM     37  C   UNL     1      -7.940  -8.693  -4.138  1.00  0.00     0.039 A 
ATOM     38  C   UNL     1      -9.062  -9.102  -3.419  1.00  0.00     0.014 A 
ATOM     39  C   UNL     1      -8.077  -8.145  -5.416  1.00  0.00     0.014 A 
ATOM     40  C   UNL     1     -10.331  -8.891  -3.957  1.00  0.00     0.010 A 
ATOM     41  C   UNL     1      -9.336  -7.815  -5.887  1.00  0.00     0.010 A 
ATOM     42  C   UNL     1     -10.478  -8.204  -5.174  1.00  0.00    -0.014 A 
BRANCH  42  43
ATOM     43  C   UNL     1     -11.815  -7.910  -5.743  1.00  0.00     0.031 A 
ATOM     44  C   UNL     1     -12.185  -8.460  -7.093  1.00  0.00     0.074 A 
ATOM     45  C   UNL     1     -12.661  -7.100  -5.078  1.00  0.00     0.049 A 
ATOM     46  N   UNL     1     -13.273  -8.268  -7.795  1.00  0.00    -0.248 NA
ATOM     47  C   UNL     1     -11.186  -9.311  -7.761  1.00  0.00     0.031 C 
ATOM     48  C   UNL     1     -12.387  -6.459  -3.791  1.00  0.00     0.029 A 
ATOM     49  N   UNL     1     -13.925  -6.672  -5.398  1.00  0.00    -0.354 N 
ATOM     50  C   UNL     1     -13.078  -8.959  -8.984  1.00  0.00     0.074 A 
ATOM     51  C   UNL     1     -11.743  -9.509  -8.945  1.00  0.00     0.031 C 
ATOM     52  C   UNL     1     -13.463  -5.751  -3.413  1.00  0.00     0.029 A 
ATOM     53  C   UNL     1     -14.484  -5.849  -4.452  1.00  0.00     0.049 A 
ATOM     54  H   UNL     1     -14.387  -6.931  -6.228  1.00  0.00     0.167 HD
ATOM     55  C   UNL     1     -13.949  -9.146 -10.003  1.00  0.00     0.037 A 
ATOM     56  C   UNL     1     -15.684  -5.239  -4.430  1.00  0.00     0.037 A 
ATOM     57  C   UNL     1     -15.286  -8.617 -10.021  1.00  0.00     0.049 A 
ATOM     58  C   UNL     1     -16.630  -5.456  -5.582  1.00  0.00     0.074 A 
ATOM     59  C   UNL     1     -16.270  -8.794 -10.976  1.00  0.00     0.029 A 
ATOM     60  N   UNL     1     -15.823  -7.801  -9.036  1.00  0.00    -0.354 N 
ATOM     61  N   UNL     1     -16.465  -6.175  -6.666  1.00  0.00    -0.248 NA
ATOM     62  C   UNL     1     -17.933  -4.782  -5.502  1.00  0.00     0.031 C 
ATOM     63  C   UNL     1     -17.383  -8.038 -10.599  1.00  0.00     0.029 A 
ATOM     64  C   UNL     1     -17.119  -7.445  -9.375  1.00  0.00     0.049 A 
ATOM     65  H   UNL     1     -15.354  -7.517  -8.219  1.00  0.00     0.167 HD
ATOM     66  C   UNL     1     -17.652  -6.069  -7.379  1.00  0.00     0.074 A 
ATOM     67  C   UNL     1     -18.534  -5.229  -6.595  1.00  0.00     0.031 C 
ATOM     68  C   UNL     1     -17.984  -6.617  -8.574  1.00  0.00     0.037 A 
BRANCH  55  69
ATOM     69  C   UNL     1     -13.483  -9.961 -11.175  1.00  0.00     0.064 A 
ATOM     70  C   UNL     1     -13.226 -11.337 -11.063  1.00  0.00     0.173 A 
ATOM     71  C   UNL     1     -13.321  -9.367 -12.436  1.00  0.00     0.173 A 
ATOM     72  F   UNL     1     -13.350 -11.954  -9.878  1.00  0.00    -0.203 F 
ATOM     73  C   UNL     1     -12.794 -12.079 -12.160  1.00  0.00     0.198 A 
ATOM     74  C   UNL     1     -12.925 -10.119 -13.539  1.00  0.00     0.198 A 
ATOM     75  F   UNL     1     -13.555  -8.056 -12.601  1.00  0.00    -0.203 F 
ATOM     76  F   UNL     1     -12.499 -13.378 -12.014  1.00  0.00    -0.200 F 
ATOM     77  C   UNL     1     -12.653 -11.471 -13.398  1.00  0.00     0.200 A 
ATOM     78  F   UNL     1     -12.803  -9.533 -14.738  1.00  0.00    -0.200 F 
ATOM     79  F   UNL     1     -12.247 -12.188 -14.455  1.00  0.00    -0.200 F 
ENDBRANCH  55  69
BRANCH  56  80
ATOM     80  C   UNL     1     -16.070  -4.389  -3.273  1.00  0.00     0.064 A 
ATOM     81  C   UNL     1     -17.106  -4.773  -2.409  1.00  0.00     0.173 A 
ATOM     82  C   UNL     1     -15.426  -3.170  -3.013  1.00  0.00     0.173 A 
ATOM     83  F   UNL     1     -17.765  -5.921  -2.624  1.00  0.00    -0.203 F 
ATOM     84  C   UNL     1     -17.502  -3.958  -1.350  1.00  0.00     0.198 A 
ATOM     85  C   UNL     1     -15.800  -2.373  -1.934  1.00  0.00     0.198 A 
ATOM     86  F   UNL     1     -14.423  -2.759  -3.803  1.00  0.00    -0.203 F 
ATOM     87  F   UNL     1     -18.532  -4.324  -0.575  1.00  0.00    -0.200 F 
ATOM     88  C   UNL     1     -16.845  -2.761  -1.110  1.00  0.00     0.200 A 
ATOM     89  F   UNL     1     -15.150  -1.225  -1.695  1.00  0.00    -0.200 F 
ATOM     90  F   UNL     1     -17.225  -1.978  -0.091  1.00  0.00    -0.200 F 
ENDBRANCH  56  80
BRANCH  68  91
ATOM     91  C   UNL     1     -19.375  -6.368  -9.085  1.00  0.00     0.064 A 
ATOM     92  C   UNL     1     -19.784  -5.103  -9.532  1.00  0.00     0.173 A 
ATOM     93  C   UNL     1     -20.296  -7.423  -9.166  1.00  0.00     0.173 A 
ATOM     94  F   UNL     1     -18.946  -4.058  -9.463  1.00  0.00    -0.203 F 
ATOM     95  C   UNL     1     -21.075  -4.898 -10.012  1.00  0.00     0.198 A 
ATOM     96  C   UNL     1     -21.573  -7.223  -9.682  1.00  0.00     0.198 A 
ATOM     97  F   UNL     1     -19.952  -8.655  -8.761  1.00  0.00    -0.203 F 
ATOM     98  F   UNL     1     -21.462  -3.669 -10.381  1.00  0.00    -0.200 F 
ATOM     99  C   UNL     1     -21.965  -5.959 -10.095  1.00  0.00     0.200 A 
ATOM    100  F   UNL     1     -22.424  -8.254  -9.779  1.00  0.00    -0.200 F 
ATOM    101  F   UNL     1     -23.203  -5.761 -10.566  1.00  0.00    -0.200 F 
ENDBRANCH  68  91
ENDBRANCH  42  43
ENDBRANCH  34  37
ENDBRANCH  32  33
ENDBRANCH  31  32
ENDBRANCH   1  31
TORSDOF 13
