REMARK SMILES C[C@H](CC(=O)NCCCCNC(=O)c1ccc(-c2c3nc(c(-c4c(F)c(F)c(F)c(F)c4F)c4ccc([nH]4)c(-c4c(F)c(F)c(F)c(F)c4F)c4nc(c(-c5c(F)c(F)c(F)c(F)c5F)c5ccc2[nH]5)C=C4)C=C3)cc1)NC(=O)Cc1cn2ccsc2n1
REMARK SMILES IDX 7 1 6 2 4 3 5 4 3 6 2 7 1 8 77 9 78 10 79 12 80 13 81 14
REMARK SMILES IDX 82 15 88 16 83 17 87 18 84 19 86 20 85 21 8 22 9 23 10 24
REMARK SMILES IDX 11 25 12 26 13 28 14 29 15 30 76 31 16 32 75 33 17 34 18 35
REMARK SMILES IDX 19 36 69 37 20 38 74 39 68 40 70 41 21 42 73 43 67 44 66 45
REMARK SMILES IDX 22 47 54 48 34 49 53 50 35 51 38 52 52 53 71 54 36 55 37 56
REMARK SMILES IDX 51 58 72 59 39 60 23 61 24 62 32 63 25 64 26 65 30 66 33 67
REMARK SMILES IDX 27 68 28 69 31 70 29 71 55 72 56 73 64 74 57 75 58 76 62 77
REMARK SMILES IDX 65 78 59 79 60 80 63 81 61 82 40 83 41 84 49 85 42 86 43 87
REMARK SMILES IDX 47 88 50 89 44 90 45 91 48 92 46 93
REMARK H PARENT 6 5 77 11 11 27 70 46 38 57
REMARK Flexibility Score: inf
ROOT
ATOM      1  C   UNL     1      -1.920  -0.695  -0.423  1.00  0.00     0.116 C 
ENDROOT
BRANCH   1   2
ATOM      2  N   UNL     1      -1.230   0.338  -1.169  1.00  0.00    -0.356 N 
ATOM      3  C   UNL     1       0.023   0.837  -0.975  1.00  0.00     0.222 C 
ATOM      4  O   UNL     1       0.412   1.760  -1.690  1.00  0.00    -0.275 OA
ATOM      5  H   UNL     1      -1.735   0.733  -1.917  1.00  0.00     0.163 HD
BRANCH   3   6
ATOM      6  C   UNL     1       0.939   0.190   0.045  1.00  0.00     0.124 C 
BRANCH   6   7
ATOM      7  C   UNL     1       0.799   0.613   1.524  1.00  0.00     0.088 C 
ATOM      8  C   UNL     1       1.328   2.025   1.757  1.00  0.00     0.031 C 
BRANCH   7   9
ATOM      9  N   UNL     1      -0.525   0.481   2.103  1.00  0.00    -0.353 N 
ATOM     10  C   UNL     1      -1.106  -0.460   2.902  1.00  0.00     0.226 C 
ATOM     11  H   UNL     1      -1.128   1.225   1.873  1.00  0.00     0.163 HD
ATOM     12  O   UNL     1      -2.232  -0.172   3.331  1.00  0.00    -0.275 OA
BRANCH  10  13
ATOM     13  C   UNL     1      -0.430  -1.733   3.377  1.00  0.00     0.157 C 
BRANCH  13  14
ATOM     14  C   UNL     1       0.181  -2.646   2.363  1.00  0.00     0.070 A 
ATOM     15  C   UNL     1       1.407  -2.537   1.720  1.00  0.00     0.118 A 
ATOM     16  N   UNL     1      -0.391  -3.888   2.071  1.00  0.00    -0.223 NA
ATOM     17  N   UNL     1       1.491  -3.628   0.920  1.00  0.00    -0.297 N 
ATOM     18  C   UNL     1       0.461  -4.446   1.251  1.00  0.00     0.193 A 
ATOM     19  C   UNL     1       2.348  -4.074  -0.053  1.00  0.00     0.104 A 
ATOM     20  S   UNL     1       0.600  -5.957   0.406  1.00  0.00    -0.105 S 
ATOM     21  C   UNL     1       2.031  -5.319  -0.440  1.00  0.00     0.087 A 
ENDBRANCH  13  14
ENDBRANCH  10  13
ENDBRANCH   7   9
ENDBRANCH   6   7
ENDBRANCH   3   6
ENDBRANCH   1   2
BRANCH   1  22
ATOM     22  C   UNL     1      -3.043  -0.095   0.419  1.00  0.00     0.023 C 
BRANCH  22  23
ATOM     23  C   UNL     1      -4.250   0.367  -0.365  1.00  0.00     0.023 C 
BRANCH  23  24
ATOM     24  C   UNL     1      -4.908  -0.766  -1.114  1.00  0.00     0.116 C 
BRANCH  24  25
ATOM     25  N   UNL     1      -5.394  -1.810  -0.220  1.00  0.00    -0.352 N 
ATOM     26  C   UNL     1      -6.686  -2.223   0.003  1.00  0.00     0.251 C 
ATOM     27  H   UNL     1      -4.702  -2.284   0.295  1.00  0.00     0.163 HD
ATOM     28  O   UNL     1      -6.968  -2.964   0.926  1.00  0.00    -0.269 OA
BRANCH  26  29
ATOM     29  C   UNL     1      -7.739  -1.700  -0.889  1.00  0.00     0.039 A 
ATOM     30  C   UNL     1      -8.897  -1.176  -0.319  1.00  0.00     0.014 A 
ATOM     31  C   UNL     1      -7.518  -1.627  -2.266  1.00  0.00     0.014 A 
ATOM     32  C   UNL     1      -9.794  -0.490  -1.130  1.00  0.00     0.010 A 
ATOM     33  C   UNL     1      -8.337  -0.824  -3.042  1.00  0.00     0.010 A 
ATOM     34  C   UNL     1      -9.481  -0.245  -2.479  1.00  0.00    -0.014 A 
BRANCH  34  35
ATOM     35  C   UNL     1     -10.311   0.663  -3.300  1.00  0.00     0.031 A 
ATOM     36  C   UNL     1     -10.976   0.161  -4.545  1.00  0.00     0.074 A 
ATOM     37  C   UNL     1     -10.409   1.959  -2.947  1.00  0.00     0.049 A 
ATOM     38  N   UNL     1     -11.690   0.824  -5.418  1.00  0.00    -0.248 NA
ATOM     39  C   UNL     1     -10.804  -1.265  -4.864  1.00  0.00     0.031 C 
ATOM     40  C   UNL     1      -9.777   2.564  -1.774  1.00  0.00     0.029 A 
ATOM     41  N   UNL     1     -11.074   3.002  -3.541  1.00  0.00    -0.354 N 
ATOM     42  C   UNL     1     -12.052  -0.102  -6.385  1.00  0.00     0.074 A 
ATOM     43  C   UNL     1     -11.431  -1.358  -6.026  1.00  0.00     0.031 C 
ATOM     44  C   UNL     1     -10.115   3.860  -1.711  1.00  0.00     0.029 A 
ATOM     45  C   UNL     1     -10.922   4.196  -2.878  1.00  0.00     0.049 A 
ATOM     46  H   UNL     1     -11.607   2.905  -4.362  1.00  0.00     0.167 HD
ATOM     47  C   UNL     1     -12.847   0.084  -7.464  1.00  0.00     0.037 A 
ATOM     48  C   UNL     1     -11.358   5.430  -3.190  1.00  0.00     0.037 A 
ATOM     49  C   UNL     1     -13.448   1.343  -7.815  1.00  0.00     0.049 A 
ATOM     50  C   UNL     1     -12.173   5.619  -4.440  1.00  0.00     0.074 A 
ATOM     51  C   UNL     1     -14.297   1.621  -8.870  1.00  0.00     0.029 A 
ATOM     52  N   UNL     1     -13.246   2.537  -7.138  1.00  0.00    -0.354 N 
ATOM     53  N   UNL     1     -12.576   4.722  -5.306  1.00  0.00    -0.248 NA
ATOM     54  C   UNL     1     -12.593   6.990  -4.758  1.00  0.00     0.031 C 
ATOM     55  C   UNL     1     -14.530   2.997  -8.891  1.00  0.00     0.029 A 
ATOM     56  C   UNL     1     -13.910   3.564  -7.791  1.00  0.00     0.049 A 
ATOM     57  H   UNL     1     -12.711   2.640  -6.318  1.00  0.00     0.167 HD
ATOM     58  C   UNL     1     -13.315   5.414  -6.255  1.00  0.00     0.074 A 
ATOM     59  C   UNL     1     -13.331   6.801  -5.841  1.00  0.00     0.031 C 
ATOM     60  C   UNL     1     -13.920   4.942  -7.372  1.00  0.00     0.037 A 
BRANCH  47  61
ATOM     61  C   UNL     1     -13.086  -1.092  -8.365  1.00  0.00     0.064 A 
ATOM     62  C   UNL     1     -13.800  -2.222  -7.939  1.00  0.00     0.173 A 
ATOM     63  C   UNL     1     -12.635  -1.065  -9.694  1.00  0.00     0.173 A 
ATOM     64  F   UNL     1     -14.258  -2.299  -6.680  1.00  0.00    -0.203 F 
ATOM     65  C   UNL     1     -14.011  -3.300  -8.794  1.00  0.00     0.198 A 
ATOM     66  C   UNL     1     -12.892  -2.122 -10.561  1.00  0.00     0.198 A 
ATOM     67  F   UNL     1     -11.959  -0.004 -10.160  1.00  0.00    -0.203 F 
ATOM     68  F   UNL     1     -14.634  -4.397  -8.344  1.00  0.00    -0.200 F 
ATOM     69  C   UNL     1     -13.566  -3.245 -10.107  1.00  0.00     0.200 A 
ATOM     70  F   UNL     1     -12.489  -2.052 -11.837  1.00  0.00    -0.200 F 
ATOM     71  F   UNL     1     -13.782  -4.277 -10.933  1.00  0.00    -0.200 F 
ENDBRANCH  47  61
BRANCH  48  72
ATOM     72  C   UNL     1     -11.011   6.586  -2.322  1.00  0.00     0.064 A 
ATOM     73  C   UNL     1     -12.005   7.324  -1.665  1.00  0.00     0.173 A 
ATOM     74  C   UNL     1      -9.679   6.997  -2.156  1.00  0.00     0.173 A 
ATOM     75  F   UNL     1     -13.295   6.982  -1.802  1.00  0.00    -0.203 F 
ATOM     76  C   UNL     1     -11.685   8.451  -0.912  1.00  0.00     0.198 A 
ATOM     77  C   UNL     1      -9.356   8.093  -1.361  1.00  0.00     0.198 A 
ATOM     78  F   UNL     1      -8.686   6.326  -2.759  1.00  0.00    -0.203 F 
ATOM     79  F   UNL     1     -12.662   9.185  -0.363  1.00  0.00    -0.200 F 
ATOM     80  C   UNL     1     -10.360   8.830  -0.754  1.00  0.00     0.200 A 
ATOM     81  F   UNL     1      -8.073   8.439  -1.193  1.00  0.00    -0.200 F 
ATOM     82  F   UNL     1     -10.053   9.914  -0.029  1.00  0.00    -0.200 F 
ENDBRANCH  48  72
BRANCH  60  83
ATOM     83  C   UNL     1     -14.673   5.925  -8.223  1.00  0.00     0.064 A 
ATOM     84  C   UNL     1     -14.015   6.940  -8.934  1.00  0.00     0.173 A 
ATOM     85  C   UNL     1     -16.065   5.816  -8.374  1.00  0.00     0.173 A 
ATOM     86  F   UNL     1     -12.687   7.090  -8.823  1.00  0.00    -0.203 F 
ATOM     87  C   UNL     1     -14.726   7.831  -9.732  1.00  0.00     0.198 A 
ATOM     88  C   UNL     1     -16.765   6.677  -9.213  1.00  0.00     0.198 A 
ATOM     89  F   UNL     1     -16.744   4.855  -7.729  1.00  0.00    -0.203 F 
ATOM     90  F   UNL     1     -14.084   8.833 -10.348  1.00  0.00    -0.200 F 
ATOM     91  C   UNL     1     -16.098   7.692  -9.880  1.00  0.00     0.200 A 
ATOM     92  F   UNL     1     -18.086   6.520  -9.379  1.00  0.00    -0.200 F 
ATOM     93  F   UNL     1     -16.778   8.540 -10.664  1.00  0.00    -0.200 F 
ENDBRANCH  60  83
ENDBRANCH  34  35
ENDBRANCH  26  29
ENDBRANCH  24  25
ENDBRANCH  23  24
ENDBRANCH  22  23
ENDBRANCH   1  22
TORSDOF 15
