REMARK SMILES O=C(NCCCCNC(=O)C1(CC#Cc2ccccc2)CC1)c1ccc(-c2c3nc(c(-c4c(F)c(F)c(F)c(F)c4F)c4ccc([nH]4)c(-c4c(F)c(F)c(F)c(F)c4F)c4nc(c(-c5c(F)c(F)c(F)c(F)c5F)c5ccc2[nH]5)C=C4)C=C3)cc1
REMARK SMILES IDX 6 1 5 2 4 3 3 4 1 5 2 6 23 8 24 9 85 10 25 11 84 12 26 13
REMARK SMILES IDX 27 14 28 15 78 16 29 17 83 18 77 19 79 20 30 21 82 22 76 23
REMARK SMILES IDX 75 24 31 26 63 27 43 28 62 29 44 30 47 31 61 32 80 33 45 34
REMARK SMILES IDX 46 35 60 37 81 38 48 39 32 40 33 41 41 42 34 43 35 44 39 45
REMARK SMILES IDX 42 46 36 47 37 48 40 49 38 50 64 51 65 52 73 53 66 54 67 55
REMARK SMILES IDX 71 56 74 57 68 58 69 59 72 60 70 61 49 62 50 63 58 64 51 65
REMARK SMILES IDX 52 66 56 67 59 68 53 69 54 70 57 71 55 72 7 73 8 74 9 75
REMARK SMILES IDX 10 77 11 78 21 79 22 80 12 81 13 82 14 83 15 84 16 85 20 86
REMARK SMILES IDX 17 87 19 88 18 89
REMARK H PARENT 3 7 79 25 47 36 8 76
REMARK Flexibility Score: inf
ROOT
ATOM      1  C   UNL     1       6.096  -2.931  -0.490  1.00  0.00     0.023 C 
ENDROOT
BRANCH   1   2
ATOM      2  C   UNL     1       5.684  -1.650   0.220  1.00  0.00     0.023 C 
BRANCH   2   3
ATOM      3  C   UNL     1       5.210  -0.474  -0.610  1.00  0.00     0.116 C 
BRANCH   3   4
ATOM      4  N   UNL     1       3.796  -0.490  -0.967  1.00  0.00    -0.352 N 
ATOM      5  O   UNL     1       1.638   0.242  -0.888  1.00  0.00    -0.269 OA
ATOM      6  C   UNL     1       2.816   0.419  -0.606  1.00  0.00     0.251 C 
ATOM      7  H   UNL     1       3.502  -1.239  -1.534  1.00  0.00     0.163 HD
BRANCH   6   8
ATOM      8  C   UNL     1       3.230   1.601   0.178  1.00  0.00     0.039 A 
ATOM      9  C   UNL     1       4.333   2.323  -0.263  1.00  0.00     0.014 A 
ATOM     10  C   UNL     1       2.652   1.867   1.424  1.00  0.00     0.014 A 
ATOM     11  C   UNL     1       5.029   3.090   0.652  1.00  0.00     0.010 A 
ATOM     12  C   UNL     1       3.262   2.794   2.279  1.00  0.00     0.010 A 
ATOM     13  C   UNL     1       4.489   3.371   1.922  1.00  0.00    -0.014 A 
BRANCH  13  14
ATOM     14  C   UNL     1       5.220   4.351   2.768  1.00  0.00     0.031 A 
ATOM     15  C   UNL     1       5.784   3.998   4.115  1.00  0.00     0.074 A 
ATOM     16  C   UNL     1       5.466   5.558   2.221  1.00  0.00     0.049 A 
ATOM     17  N   UNL     1       6.560   4.715   4.891  1.00  0.00    -0.248 NA
ATOM     18  C   UNL     1       5.429   2.687   4.678  1.00  0.00     0.031 C 
ATOM     19  C   UNL     1       4.950   6.003   0.921  1.00  0.00     0.029 A 
ATOM     20  N   UNL     1       6.259   6.596   2.630  1.00  0.00    -0.354 N 
ATOM     21  C   UNL     1       6.757   3.964   6.043  1.00  0.00     0.074 A 
ATOM     22  C   UNL     1       6.010   2.735   5.871  1.00  0.00     0.031 C 
ATOM     23  C   UNL     1       5.540   7.153   0.581  1.00  0.00     0.029 A 
ATOM     24  C   UNL     1       6.377   7.590   1.688  1.00  0.00     0.049 A 
ATOM     25  H   UNL     1       6.699   6.628   3.510  1.00  0.00     0.167 HD
ATOM     26  C   UNL     1       7.490   4.281   7.139  1.00  0.00     0.037 A 
ATOM     27  C   UNL     1       7.071   8.740   1.713  1.00  0.00     0.037 A 
ATOM     28  C   UNL     1       8.243   5.505   7.281  1.00  0.00     0.049 A 
ATOM     29  C   UNL     1       7.869   9.060   2.939  1.00  0.00     0.074 A 
ATOM     30  C   UNL     1       9.044   5.912   8.335  1.00  0.00     0.029 A 
ATOM     31  N   UNL     1       8.284   6.525   6.337  1.00  0.00    -0.354 N 
ATOM     32  N   UNL     1       8.060   8.333   4.012  1.00  0.00    -0.248 NA
ATOM     33  C   UNL     1       8.534  10.366   2.963  1.00  0.00     0.031 C 
ATOM     34  C   UNL     1       9.518   7.199   8.056  1.00  0.00     0.029 A 
ATOM     35  C   UNL     1       9.073   7.570   6.798  1.00  0.00     0.049 A 
ATOM     36  H   UNL     1       7.822   6.508   5.468  1.00  0.00     0.167 HD
ATOM     37  C   UNL     1       8.883   9.084   4.836  1.00  0.00     0.074 A 
ATOM     38  C   UNL     1       9.173  10.313   4.123  1.00  0.00     0.031 C 
ATOM     39  C   UNL     1       9.352   8.784   6.072  1.00  0.00     0.037 A 
BRANCH  26  40
ATOM     40  C   UNL     1       7.482   3.318   8.297  1.00  0.00     0.064 A 
ATOM     41  C   UNL     1       8.110   2.065   8.233  1.00  0.00     0.173 A 
ATOM     42  C   UNL     1       6.869   3.677   9.509  1.00  0.00     0.173 A 
ATOM     43  F   UNL     1       8.707   1.665   7.100  1.00  0.00    -0.203 F 
ATOM     44  C   UNL     1       8.096   1.197   9.325  1.00  0.00     0.198 A 
ATOM     45  C   UNL     1       6.885   2.821  10.608  1.00  0.00     0.198 A 
ATOM     46  F   UNL     1       6.262   4.867   9.634  1.00  0.00    -0.203 F 
ATOM     47  F   UNL     1       8.659  -0.015   9.223  1.00  0.00    -0.200 F 
ATOM     48  C   UNL     1       7.490   1.578  10.513  1.00  0.00     0.200 A 
ATOM     49  F   UNL     1       6.312   3.199  11.759  1.00  0.00    -0.200 F 
ATOM     50  F   UNL     1       7.482   0.744  11.562  1.00  0.00    -0.200 F 
ENDBRANCH  26  40
BRANCH  27  51
ATOM     51  C   UNL     1       7.020   9.658   0.546  1.00  0.00     0.064 A 
ATOM     52  C   UNL     1       8.159   9.904  -0.231  1.00  0.00     0.173 A 
ATOM     53  C   UNL     1       5.822  10.280   0.162  1.00  0.00     0.173 A 
ATOM     54  F   UNL     1       9.331   9.343   0.100  1.00  0.00    -0.203 F 
ATOM     55  C   UNL     1       8.104  10.747  -1.339  1.00  0.00     0.198 A 
ATOM     56  C   UNL     1       5.759  11.091  -0.967  1.00  0.00     0.198 A 
ATOM     57  F   UNL     1       4.699  10.068   0.865  1.00  0.00    -0.203 F 
ATOM     58  F   UNL     1       9.217  10.998  -2.042  1.00  0.00    -0.200 F 
ATOM     59  C   UNL     1       6.903  11.332  -1.712  1.00  0.00     0.200 A 
ATOM     60  F   UNL     1       4.590  11.628  -1.338  1.00  0.00    -0.200 F 
ATOM     61  F   UNL     1       6.847  12.128  -2.788  1.00  0.00    -0.200 F 
ENDBRANCH  27  51
BRANCH  39  62
ATOM     62  C   UNL     1      10.269   9.790   6.704  1.00  0.00     0.064 A 
ATOM     63  C   UNL     1       9.808  11.039   7.147  1.00  0.00     0.173 A 
ATOM     64  C   UNL     1      11.632   9.499   6.864  1.00  0.00     0.173 A 
ATOM     65  F   UNL     1       8.517  11.374   6.998  1.00  0.00    -0.203 F 
ATOM     66  C   UNL     1      10.685  11.973   7.690  1.00  0.00     0.198 A 
ATOM     67  C   UNL     1      12.499  10.421   7.440  1.00  0.00     0.198 A 
ATOM     68  F   UNL     1      12.123   8.317   6.459  1.00  0.00    -0.203 F 
ATOM     69  F   UNL     1      10.235  13.186   8.043  1.00  0.00    -0.200 F 
ATOM     70  C   UNL     1      12.028  11.662   7.842  1.00  0.00     0.200 A 
ATOM     71  F   UNL     1      13.794  10.113   7.597  1.00  0.00    -0.200 F 
ATOM     72  F   UNL     1      12.872  12.563   8.363  1.00  0.00    -0.200 F 
ENDBRANCH  39  62
ENDBRANCH  13  14
ENDBRANCH   6   8
ENDBRANCH   3   4
ENDBRANCH   2   3
ENDBRANCH   1   2
BRANCH   1  73
ATOM     73  C   UNL     1       6.091  -2.945  -2.015  1.00  0.00     0.116 C 
BRANCH  73  74
ATOM     74  N   UNL     1       7.114  -3.853  -2.481  1.00  0.00    -0.356 N 
ATOM     75  C   UNL     1       7.192  -5.209  -2.564  1.00  0.00     0.227 C 
ATOM     76  H   UNL     1       7.923  -3.396  -2.806  1.00  0.00     0.163 HD
ATOM     77  O   UNL     1       8.334  -5.669  -2.470  1.00  0.00    -0.274 OA
BRANCH  75  78
ATOM     78  C   UNL     1       6.034  -6.153  -2.854  1.00  0.00     0.060 C 
ATOM     79  C   UNL     1       6.469  -7.306  -3.784  1.00  0.00     0.019 C 
ATOM     80  C   UNL     1       6.189  -7.589  -2.342  1.00  0.00     0.019 C 
BRANCH  78  81
ATOM     81  C   UNL     1       4.618  -5.679  -3.133  1.00  0.00     0.106 C 
BRANCH  81  82
ATOM     82  C   UNL     1       3.944  -5.452  -1.846  1.00  0.00    -0.097 C 
ATOM     83  C   UNL     1       3.387  -5.114  -0.835  1.00  0.00    -0.067 C 
BRANCH  83  84
ATOM     84  C   UNL     1       2.887  -4.473   0.348  1.00  0.00     0.024 A 
ATOM     85  C   UNL     1       3.219  -4.960   1.614  1.00  0.00     0.017 A 
ATOM     86  C   UNL     1       2.227  -3.247   0.232  1.00  0.00     0.017 A 
ATOM     87  C   UNL     1       2.946  -4.193   2.751  1.00  0.00     0.001 A 
ATOM     88  C   UNL     1       1.963  -2.479   1.369  1.00  0.00     0.001 A 
ATOM     89  C   UNL     1       2.340  -2.942   2.626  1.00  0.00     0.000 A 
ENDBRANCH  83  84
ENDBRANCH  81  82
ENDBRANCH  78  81
ENDBRANCH  75  78
ENDBRANCH  73  74
ENDBRANCH   1  73
TORSDOF 14
