REMARK SMILES CC[C@](C)(NS(=O)(=O)c1ccc(C(=O)OC)cc1)C(=O)NCCCCNC(=O)c1ccc(-c2c3nc(c(-c4c(F)c(F)c(F)c(F)c4F)c4ccc([nH]4)c(-c4c(F)c(F)c(F)c(F)c4F)c4nc(c(-c5c(F)c(F)c(F)c(F)c5F)c5ccc2[nH]5)C=C4)C=C3)cc1
REMARK SMILES IDX 22 1 21 2 19 3 20 4 3 6 4 7 2 8 1 9 5 10 6 12 7 13 8 14 9 15
REMARK SMILES IDX 10 16 18 17 11 18 17 19 12 20 13 21 14 22 15 23 16 24 23 25
REMARK SMILES IDX 24 26 25 27 26 28 27 29 28 31 29 32 30 33 91 34 31 35 90 36
REMARK SMILES IDX 32 37 33 38 34 39 84 40 35 41 89 42 83 43 85 44 36 45 88 46
REMARK SMILES IDX 82 47 81 48 37 50 69 51 49 52 68 53 50 54 53 55 67 56 86 57
REMARK SMILES IDX 51 58 52 59 66 61 87 62 54 63 38 64 39 65 47 66 40 67 41 68
REMARK SMILES IDX 45 69 48 70 42 71 43 72 46 73 44 74 70 75 71 76 79 77 72 78
REMARK SMILES IDX 73 79 77 80 80 81 74 82 75 83 78 84 76 85 55 86 56 87 64 88
REMARK SMILES IDX 57 89 58 90 62 91 65 92 59 93 60 94 63 95 61 96
REMARK H PARENT 21 5 5 11 26 30 85 49 53 60
REMARK Flexibility Score: inf
ROOT
ATOM      1  C   UNL     1       1.970  -3.113   3.927  1.00  0.00     0.116 C 
ENDROOT
BRANCH   1   2
ATOM      2  N   UNL     1       2.639  -2.451   2.817  1.00  0.00    -0.354 N 
ATOM      3  C   UNL     1       2.220  -1.825   1.684  1.00  0.00     0.241 C 
ATOM      4  O   UNL     1       3.014  -0.971   1.261  1.00  0.00    -0.273 OA
ATOM      5  H   UNL     1       3.620  -2.459   2.906  1.00  0.00     0.163 HD
BRANCH   3   6
ATOM      6  C   UNL     1       0.921  -2.130   0.899  1.00  0.00     0.108 C 
ATOM      7  C   UNL     1       0.819  -1.107  -0.294  1.00  0.00     0.040 C 
BRANCH   6   8
ATOM      8  C   UNL     1      -0.336  -1.872   1.763  1.00  0.00     0.030 C 
ATOM      9  C   UNL     1      -0.361  -0.461   2.390  1.00  0.00     0.006 C 
ENDBRANCH   6   8
BRANCH   6  10
ATOM     10  N   UNL     1       0.879  -3.399   0.131  1.00  0.00    -0.196 NA
ATOM     11  H   UNL     1       1.195  -3.104  -0.793  1.00  0.00     0.142 HD
BRANCH  10  12
ATOM     12  S   UNL     1       1.538  -4.909   0.262  1.00  0.00     0.241 S 
ATOM     13  O   UNL     1       0.981  -5.513   1.447  1.00  0.00    -0.207 OA
ATOM     14  O   UNL     1       1.253  -5.503  -1.028  1.00  0.00    -0.207 OA
BRANCH  12  15
ATOM     15  C   UNL     1       3.316  -4.919   0.385  1.00  0.00     0.082 A 
ATOM     16  C   UNL     1       3.944  -6.155   0.614  1.00  0.00     0.022 A 
ATOM     17  C   UNL     1       4.103  -3.777   0.313  1.00  0.00     0.022 A 
ATOM     18  C   UNL     1       5.323  -6.219   0.886  1.00  0.00     0.017 A 
ATOM     19  C   UNL     1       5.461  -3.824   0.670  1.00  0.00     0.017 A 
ATOM     20  C   UNL     1       6.079  -5.043   0.980  1.00  0.00     0.060 A 
BRANCH  20  21
ATOM     21  C   UNL     1       7.500  -5.123   1.434  1.00  0.00     0.337 C 
ATOM     22  O   UNL     1       8.081  -6.175   1.665  1.00  0.00    -0.246 OA
BRANCH  21  23
ATOM     23  O   UNL     1       8.014  -3.879   1.598  1.00  0.00    -0.465 OA
ATOM     24  C   UNL     1       9.375  -3.836   2.041  1.00  0.00     0.282 C 
ENDBRANCH  21  23
ENDBRANCH  20  21
ENDBRANCH  12  15
ENDBRANCH  10  12
ENDBRANCH   6  10
ENDBRANCH   3   6
ENDBRANCH   1   2
BRANCH   1  25
ATOM     25  C   UNL     1       2.269  -4.598   4.125  1.00  0.00     0.023 C 
BRANCH  25  26
ATOM     26  C   UNL     1       3.728  -5.020   4.044  1.00  0.00     0.023 C 
BRANCH  26  27
ATOM     27  C   UNL     1       4.535  -4.667   5.275  1.00  0.00     0.116 C 
BRANCH  27  28
ATOM     28  N   UNL     1       4.155  -5.490   6.413  1.00  0.00    -0.352 N 
ATOM     29  C   UNL     1       4.886  -6.427   7.100  1.00  0.00     0.251 C 
ATOM     30  H   UNL     1       3.236  -5.354   6.740  1.00  0.00     0.163 HD
ATOM     31  O   UNL     1       4.315  -7.216   7.847  1.00  0.00    -0.269 OA
BRANCH  29  32
ATOM     32  C   UNL     1       6.357  -6.485   6.950  1.00  0.00     0.039 A 
ATOM     33  C   UNL     1       7.005  -7.721   7.037  1.00  0.00     0.014 A 
ATOM     34  C   UNL     1       7.106  -5.319   6.775  1.00  0.00     0.014 A 
ATOM     35  C   UNL     1       8.395  -7.782   6.925  1.00  0.00     0.010 A 
ATOM     36  C   UNL     1       8.470  -5.395   6.535  1.00  0.00     0.010 A 
ATOM     37  C   UNL     1       9.136  -6.620   6.657  1.00  0.00    -0.014 A 
BRANCH  37  38
ATOM     38  C   UNL     1      10.617  -6.641   6.587  1.00  0.00     0.031 A 
ATOM     39  C   UNL     1      11.418  -5.829   7.572  1.00  0.00     0.074 A 
ATOM     40  C   UNL     1      11.235  -7.340   5.617  1.00  0.00     0.049 A 
ATOM     41  N   UNL     1      12.712  -5.644   7.639  1.00  0.00    -0.248 NA
ATOM     42  C   UNL     1      10.658  -5.090   8.595  1.00  0.00     0.031 C 
ATOM     43  C   UNL     1      10.562  -8.113   4.574  1.00  0.00     0.029 A 
ATOM     44  N   UNL     1      12.569  -7.506   5.348  1.00  0.00    -0.354 N 
ATOM     45  C   UNL     1      12.912  -4.759   8.692  1.00  0.00     0.074 A 
ATOM     46  C   UNL     1      11.608  -4.381   9.184  1.00  0.00     0.031 C 
ATOM     47  C   UNL     1      11.486  -8.702   3.799  1.00  0.00     0.029 A 
ATOM     48  C   UNL     1      12.814  -8.310   4.262  1.00  0.00     0.049 A 
ATOM     49  H   UNL     1      13.283  -7.089   5.883  1.00  0.00     0.167 HD
ATOM     50  C   UNL     1      14.080  -4.328   9.223  1.00  0.00     0.037 A 
ATOM     51  C   UNL     1      13.981  -8.678   3.701  1.00  0.00     0.037 A 
ATOM     52  C   UNL     1      15.373  -4.737   8.746  1.00  0.00     0.049 A 
ATOM     53  C   UNL     1      15.267  -8.186   4.310  1.00  0.00     0.074 A 
ATOM     54  C   UNL     1      16.621  -4.405   9.242  1.00  0.00     0.029 A 
ATOM     55  N   UNL     1      15.582  -5.573   7.658  1.00  0.00    -0.354 N 
ATOM     56  N   UNL     1      15.447  -7.399   5.344  1.00  0.00    -0.248 NA
ATOM     57  C   UNL     1      16.512  -8.638   3.677  1.00  0.00     0.031 C 
ATOM     58  C   UNL     1      17.586  -4.996   8.420  1.00  0.00     0.029 A 
ATOM     59  C   UNL     1      16.940  -5.748   7.451  1.00  0.00     0.049 A 
ATOM     60  H   UNL     1      14.870  -5.980   7.114  1.00  0.00     0.167 HD
ATOM     61  C   UNL     1      16.821  -7.284   5.502  1.00  0.00     0.074 A 
ATOM     62  C   UNL     1      17.427  -8.097   4.468  1.00  0.00     0.031 C 
ATOM     63  C   UNL     1      17.520  -6.568   6.418  1.00  0.00     0.037 A 
BRANCH  50  64
ATOM     64  C   UNL     1      14.007  -3.372  10.382  1.00  0.00     0.064 A 
ATOM     65  C   UNL     1      13.506  -3.764  11.634  1.00  0.00     0.173 A 
ATOM     66  C   UNL     1      14.463  -2.052  10.246  1.00  0.00     0.173 A 
ATOM     67  F   UNL     1      13.042  -5.009  11.816  1.00  0.00    -0.203 F 
ATOM     68  C   UNL     1      13.430  -2.861  12.692  1.00  0.00     0.198 A 
ATOM     69  C   UNL     1      14.421  -1.163  11.317  1.00  0.00     0.198 A 
ATOM     70  F   UNL     1      14.955  -1.623   9.074  1.00  0.00    -0.203 F 
ATOM     71  F   UNL     1      12.889  -3.243  13.858  1.00  0.00    -0.200 F 
ATOM     72  C   UNL     1      13.895  -1.565  12.536  1.00  0.00     0.200 A 
ATOM     73  F   UNL     1      14.884   0.086  11.168  1.00  0.00    -0.200 F 
ATOM     74  F   UNL     1      13.829  -0.700  13.557  1.00  0.00    -0.200 F 
ENDBRANCH  50  64
BRANCH  51  75
ATOM     75  C   UNL     1      13.982  -9.572   2.514  1.00  0.00     0.064 A 
ATOM     76  C   UNL     1      14.469 -10.885   2.599  1.00  0.00     0.173 A 
ATOM     77  C   UNL     1      13.497  -9.137   1.272  1.00  0.00     0.173 A 
ATOM     78  F   UNL     1      14.963 -11.342   3.758  1.00  0.00    -0.203 F 
ATOM     79  C   UNL     1      14.489 -11.719   1.483  1.00  0.00     0.198 A 
ATOM     80  C   UNL     1      13.486  -9.984   0.165  1.00  0.00     0.198 A 
ATOM     81  F   UNL     1      13.020  -7.891   1.136  1.00  0.00    -0.203 F 
ATOM     82  F   UNL     1      15.007 -12.951   1.580  1.00  0.00    -0.200 F 
ATOM     83  C   UNL     1      13.991 -11.271   0.269  1.00  0.00     0.200 A 
ATOM     84  F   UNL     1      12.991  -9.551  -1.002  1.00  0.00    -0.200 F 
ATOM     85  F   UNL     1      14.007 -12.075  -0.802  1.00  0.00    -0.200 F 
ENDBRANCH  51  75
BRANCH  63  86
ATOM     86  C   UNL     1      19.018  -6.661   6.365  1.00  0.00     0.064 A 
ATOM     87  C   UNL     1      19.758  -6.077   5.327  1.00  0.00     0.173 A 
ATOM     88  C   UNL     1      19.723  -7.306   7.393  1.00  0.00     0.173 A 
ATOM     89  F   UNL     1      19.131  -5.460   4.314  1.00  0.00    -0.203 F 
ATOM     90  C   UNL     1      21.147  -6.163   5.304  1.00  0.00     0.198 A 
ATOM     91  C   UNL     1      21.113  -7.358   7.386  1.00  0.00     0.198 A 
ATOM     92  F   UNL     1      19.063  -7.871   8.415  1.00  0.00    -0.203 F 
ATOM     93  F   UNL     1      21.831  -5.645   4.274  1.00  0.00    -0.200 F 
ATOM     94  C   UNL     1      21.824  -6.795   6.337  1.00  0.00     0.200 A 
ATOM     95  F   UNL     1      21.766  -7.952   8.394  1.00  0.00    -0.200 F 
ATOM     96  F   UNL     1      23.162  -6.867   6.318  1.00  0.00    -0.200 F 
ENDBRANCH  63  86
ENDBRANCH  37  38
ENDBRANCH  29  32
ENDBRANCH  27  28
ENDBRANCH  26  27
ENDBRANCH  25  26
ENDBRANCH   1  25
TORSDOF 17
