REMARK SMILES CC(C)N(CC1CC1)C(=O)NC1(CC(=O)NCCCCNC(=O)c2ccc(-c3c4nc(c(-c5c(F)c(F)c(F)c(F)c5F)c5ccc([nH]5)c(-c5c(F)c(F)c(F)c(F)c5F)c5nc(c(-c6c(F)c(F)c(F)c(F)c6F)c6ccc3[nH]6)C=C5)C=C4)cc2)CCC1
REMARK SMILES IDX 17 1 16 2 14 3 15 4 13 6 12 7 87 8 89 9 88 10 11 11 9 12
REMARK SMILES IDX 10 13 4 15 2 16 1 17 3 18 5 19 6 20 7 21 8 22 18 23 19 24
REMARK SMILES IDX 20 25 21 26 22 27 23 29 24 30 25 31 86 32 26 33 85 34 27 35
REMARK SMILES IDX 28 36 29 37 79 38 30 39 84 40 78 41 80 42 31 43 83 44 77 45
REMARK SMILES IDX 76 46 32 48 64 49 44 50 63 51 45 52 48 53 62 54 81 55 46 56
REMARK SMILES IDX 47 57 61 59 82 60 49 61 33 62 34 63 42 64 35 65 36 66 40 67
REMARK SMILES IDX 43 68 37 69 38 70 41 71 39 72 65 73 66 74 74 75 67 76 68 77
REMARK SMILES IDX 72 78 75 79 69 80 70 81 73 82 71 83 50 84 51 85 59 86 52 87
REMARK SMILES IDX 53 88 57 89 60 90 54 91 55 92 58 93 56 94
REMARK H PARENT 16 5 11 14 21 28 80 47 48 58
REMARK Flexibility Score: inf
ROOT
ATOM      1  C   UNL     1      -6.014   1.167  -1.640  1.00  0.00     0.116 C 
ENDROOT
BRANCH   1   2
ATOM      2  N   UNL     1      -4.581   1.304  -1.524  1.00  0.00    -0.356 N 
ATOM      3  C   UNL     1      -3.627   0.348  -1.351  1.00  0.00     0.222 C 
ATOM      4  O   UNL     1      -2.459   0.728  -1.248  1.00  0.00    -0.275 OA
ATOM      5  H   UNL     1      -4.243   2.227  -1.579  1.00  0.00     0.163 HD
BRANCH   3   6
ATOM      6  C   UNL     1      -3.993  -1.128  -1.339  1.00  0.00     0.128 C 
BRANCH   6   7
ATOM      7  C   UNL     1      -4.005  -1.820   0.030  1.00  0.00     0.051 C 
ATOM      8  C   UNL     1      -4.465  -3.321   0.255  1.00  0.00     0.029 C 
ATOM      9  C   UNL     1      -5.371  -1.507   0.773  1.00  0.00     0.029 C 
ATOM     10  C   UNL     1      -5.915  -2.842   0.263  1.00  0.00     0.005 C 
BRANCH   7  11
ATOM     11  N   UNL     1      -2.869  -1.457   0.895  1.00  0.00    -0.332 N 
ATOM     12  C   UNL     1      -1.528  -1.478   0.943  1.00  0.00     0.318 C 
ATOM     13  O   UNL     1      -1.113  -1.004   2.012  1.00  0.00    -0.249 OA
ATOM     14  H   UNL     1      -3.214  -1.061   1.727  1.00  0.00     0.165 HD
BRANCH  12  15
ATOM     15  N   UNL     1      -0.666  -1.937  -0.014  1.00  0.00    -0.322 N 
BRANCH  15  16
ATOM     16  C   UNL     1       0.761  -1.536   0.152  1.00  0.00     0.080 C 
ATOM     17  C   UNL     1       0.963  -0.014   0.150  1.00  0.00     0.031 C 
ATOM     18  C   UNL     1       1.446  -2.212   1.341  1.00  0.00     0.031 C 
ENDBRANCH  15  16
BRANCH  15  19
ATOM     19  C   UNL     1      -0.946  -2.543  -1.320  1.00  0.00     0.125 C 
BRANCH  19  20
ATOM     20  C   UNL     1      -1.783  -3.785  -1.306  1.00  0.00     0.009 C 
ATOM     21  C   UNL     1      -2.636  -4.088  -2.529  1.00  0.00     0.006 C 
ATOM     22  C   UNL     1      -1.474  -4.964  -2.208  1.00  0.00     0.006 C 
ENDBRANCH  19  20
ENDBRANCH  15  19
ENDBRANCH  12  15
ENDBRANCH   7  11
ENDBRANCH   6   7
ENDBRANCH   3   6
ENDBRANCH   1   2
BRANCH   1  23
ATOM     23  C   UNL     1      -6.708   1.516  -0.324  1.00  0.00     0.023 C 
BRANCH  23  24
ATOM     24  C   UNL     1      -7.103   2.970  -0.150  1.00  0.00     0.023 C 
BRANCH  24  25
ATOM     25  C   UNL     1      -7.920   3.550  -1.286  1.00  0.00     0.116 C 
BRANCH  25  26
ATOM     26  N   UNL     1      -9.032   2.715  -1.722  1.00  0.00    -0.352 N 
ATOM     27  C   UNL     1     -10.255   3.132  -2.201  1.00  0.00     0.251 C 
ATOM     28  H   UNL     1      -8.894   1.742  -1.668  1.00  0.00     0.163 HD
ATOM     29  O   UNL     1     -11.129   2.339  -2.506  1.00  0.00    -0.269 OA
BRANCH  27  30
ATOM     30  C   UNL     1     -10.486   4.586  -2.276  1.00  0.00     0.039 A 
ATOM     31  C   UNL     1     -11.533   5.137  -1.537  1.00  0.00     0.014 A 
ATOM     32  C   UNL     1      -9.554   5.396  -2.927  1.00  0.00     0.014 A 
ATOM     33  C   UNL     1     -11.595   6.519  -1.379  1.00  0.00     0.010 A 
ATOM     34  C   UNL     1      -9.556   6.759  -2.678  1.00  0.00     0.010 A 
ATOM     35  C   UNL     1     -10.579   7.334  -1.907  1.00  0.00    -0.014 A 
BRANCH  35  36
ATOM     36  C   UNL     1     -10.577   8.800  -1.696  1.00  0.00     0.031 A 
ATOM     37  C   UNL     1     -10.675   9.710  -2.886  1.00  0.00     0.074 A 
ATOM     38  C   UNL     1     -10.409   9.303  -0.458  1.00  0.00     0.049 A 
ATOM     39  N   UNL     1     -10.595  11.014  -2.941  1.00  0.00    -0.248 NA
ATOM     40  C   UNL     1     -10.838   9.064  -4.199  1.00  0.00     0.031 C 
ATOM     41  C   UNL     1     -10.230   8.516   0.764  1.00  0.00     0.029 A 
ATOM     42  N   UNL     1     -10.350  10.603  -0.024  1.00  0.00    -0.354 N 
ATOM     43  C   UNL     1     -10.669  11.335  -4.289  1.00  0.00     0.074 A 
ATOM     44  C   UNL     1     -10.732  10.093  -5.024  1.00  0.00     0.031 C 
ATOM     45  C   UNL     1     -10.114   9.349   1.812  1.00  0.00     0.029 A 
ATOM     46  C   UNL     1     -10.178  10.726   1.333  1.00  0.00     0.049 A 
ATOM     47  H   UNL     1     -10.424  11.376  -0.629  1.00  0.00     0.167 HD
ATOM     48  C   UNL     1     -10.716  12.560  -4.861  1.00  0.00     0.037 A 
ATOM     49  C   UNL     1     -10.088  11.829   2.099  1.00  0.00     0.037 A 
ATOM     50  C   UNL     1     -10.713  13.791  -4.120  1.00  0.00     0.049 A 
ATOM     51  C   UNL     1     -10.192  13.180   1.442  1.00  0.00     0.074 A 
ATOM     52  C   UNL     1     -10.834  15.084  -4.593  1.00  0.00     0.029 A 
ATOM     53  N   UNL     1     -10.592  13.874  -2.740  1.00  0.00    -0.354 N 
ATOM     54  N   UNL     1     -10.336  13.473   0.172  1.00  0.00    -0.248 NA
ATOM     55  C   UNL     1     -10.131  14.353   2.326  1.00  0.00     0.031 C 
ATOM     56  C   UNL     1     -10.760  15.954  -3.500  1.00  0.00     0.029 A 
ATOM     57  C   UNL     1     -10.629  15.200  -2.344  1.00  0.00     0.049 A 
ATOM     58  H   UNL     1     -10.495  13.105  -2.134  1.00  0.00     0.167 HD
ATOM     59  C   UNL     1     -10.409  14.857   0.106  1.00  0.00     0.074 A 
ATOM     60  C   UNL     1     -10.308  15.346   1.466  1.00  0.00     0.031 C 
ATOM     61  C   UNL     1     -10.543  15.655  -0.981  1.00  0.00     0.037 A 
BRANCH  48  62
ATOM     62  C   UNL     1     -10.801  12.620  -6.357  1.00  0.00     0.064 A 
ATOM     63  C   UNL     1     -11.960  12.222  -7.042  1.00  0.00     0.173 A 
ATOM     64  C   UNL     1      -9.719  13.090  -7.114  1.00  0.00     0.173 A 
ATOM     65  F   UNL     1     -13.015  11.746  -6.363  1.00  0.00    -0.203 F 
ATOM     66  C   UNL     1     -12.021  12.264  -8.432  1.00  0.00     0.198 A 
ATOM     67  C   UNL     1      -9.794  13.159  -8.503  1.00  0.00     0.198 A 
ATOM     68  F   UNL     1      -8.588  13.481  -6.509  1.00  0.00    -0.203 F 
ATOM     69  F   UNL     1     -13.117  11.826  -9.066  1.00  0.00    -0.200 F 
ATOM     70  C   UNL     1     -10.941  12.738  -9.161  1.00  0.00     0.200 A 
ATOM     71  F   UNL     1      -8.754  13.625  -9.207  1.00  0.00    -0.200 F 
ATOM     72  F   UNL     1     -11.002  12.781 -10.499  1.00  0.00    -0.200 F 
ENDBRANCH  48  62
BRANCH  49  73
ATOM     73  C   UNL     1      -9.934  11.708   3.571  1.00  0.00     0.064 A 
ATOM     74  C   UNL     1     -10.987  12.046   4.433  1.00  0.00     0.173 A 
ATOM     75  C   UNL     1      -8.736  11.263   4.149  1.00  0.00     0.173 A 
ATOM     76  F   UNL     1     -12.146  12.493   3.928  1.00  0.00    -0.203 F 
ATOM     77  C   UNL     1     -10.841  11.966   5.816  1.00  0.00     0.198 A 
ATOM     78  C   UNL     1      -8.599  11.161   5.532  1.00  0.00     0.198 A 
ATOM     79  F   UNL     1      -7.700  10.922   3.369  1.00  0.00    -0.203 F 
ATOM     80  F   UNL     1     -11.849  12.338   6.617  1.00  0.00    -0.200 F 
ATOM     81  C   UNL     1      -9.649  11.520   6.365  1.00  0.00     0.200 A 
ATOM     82  F   UNL     1      -7.449  10.717   6.059  1.00  0.00    -0.200 F 
ATOM     83  F   UNL     1      -9.508  11.444   7.695  1.00  0.00    -0.200 F 
ENDBRANCH  49  73
BRANCH  61  84
ATOM     84  C   UNL     1     -10.623  17.132  -0.742  1.00  0.00     0.064 A 
ATOM     85  C   UNL     1      -9.489  17.879  -0.393  1.00  0.00     0.173 A 
ATOM     86  C   UNL     1     -11.836  17.813  -0.917  1.00  0.00     0.173 A 
ATOM     87  F   UNL     1      -8.310  17.268  -0.202  1.00  0.00    -0.203 F 
ATOM     88  C   UNL     1      -9.572  19.256  -0.209  1.00  0.00     0.198 A 
ATOM     89  C   UNL     1     -11.910  19.193  -0.757  1.00  0.00     0.198 A 
ATOM     90  F   UNL     1     -12.946  17.141  -1.258  1.00  0.00    -0.203 F 
ATOM     91  F   UNL     1      -8.485  19.946   0.162  1.00  0.00    -0.200 F 
ATOM     92  C   UNL     1     -10.779  19.912  -0.398  1.00  0.00     0.200 A 
ATOM     93  F   UNL     1     -13.074  19.828  -0.953  1.00  0.00    -0.200 F 
ATOM     94  F   UNL     1     -10.855  21.239  -0.229  1.00  0.00    -0.200 F 
ENDBRANCH  61  84
ENDBRANCH  35  36
ENDBRANCH  27  30
ENDBRANCH  25  26
ENDBRANCH  24  25
ENDBRANCH  23  24
ENDBRANCH   1  23
TORSDOF 17
