REMARK SMILES C[C@]1(c2ccccc2C(=O)NCCCCNC(=O)c2ccc(-c3c4nc(c(-c5c(F)c(F)c(F)c(F)c5F)c5ccc([nH]5)c(-c5c(F)c(F)c(F)c(F)c5F)c5nc(c(-c6c(F)c(F)c(F)c(F)c6F)c6ccc3[nH]6)C=C5)C=C4)cc2)NN=C(c2ccccc2)S1
REMARK SMILES IDX 13 1 12 2 11 3 9 4 10 5 8 7 3 8 4 9 5 10 7 11 6 12 2 13 1 14
REMARK SMILES IDX 82 15 91 16 83 17 84 19 85 20 86 21 90 22 87 23 89 24 88 25
REMARK SMILES IDX 14 26 15 27 16 28 17 29 18 31 19 32 20 33 81 34 21 35 80 36
REMARK SMILES IDX 22 37 23 38 24 39 74 40 25 41 79 42 73 43 75 44 26 45 78 46
REMARK SMILES IDX 72 47 71 48 27 50 59 51 39 52 58 53 40 54 43 55 57 56 76 57
REMARK SMILES IDX 41 58 42 59 56 61 77 62 44 63 28 64 29 65 37 66 30 67 31 68
REMARK SMILES IDX 35 69 38 70 32 71 33 72 36 73 34 74 60 75 61 76 69 77 62 78
REMARK SMILES IDX 63 79 67 80 70 81 64 82 65 83 68 84 66 85 45 86 46 87 54 88
REMARK SMILES IDX 47 89 48 90 52 91 55 92 49 93 50 94 53 95 51 96
REMARK H PARENT 11 6 82 18 16 30 75 49 43 60
REMARK Flexibility Score: inf
ROOT
ATOM      1  C   UNL     1      -1.153  -0.085   2.801  1.00  0.00     0.023 C 
ENDROOT
BRANCH   1   2
ATOM      2  C   UNL     1      -0.880  -1.424   2.109  1.00  0.00     0.116 C 
BRANCH   2   3
ATOM      3  N   UNL     1      -1.344  -1.524   0.737  1.00  0.00    -0.352 N 
ATOM      4  C   UNL     1      -0.756  -1.512  -0.512  1.00  0.00     0.251 C 
ATOM      5  O   UNL     1      -1.466  -1.964  -1.421  1.00  0.00    -0.269 OA
ATOM      6  H   UNL     1      -2.322  -1.624   0.684  1.00  0.00     0.163 HD
BRANCH   4   7
ATOM      7  C   UNL     1       0.626  -1.029  -0.912  1.00  0.00     0.046 A 
ATOM      8  C   UNL     1       1.222   0.266  -0.735  1.00  0.00     0.002 A 
ATOM      9  C   UNL     1       2.467   0.529  -1.361  1.00  0.00     0.008 A 
ATOM     10  C   UNL     1       3.056  -0.380  -2.235  1.00  0.00     0.000 A 
ATOM     11  C   UNL     1       1.244  -1.912  -1.828  1.00  0.00     0.014 A 
ATOM     12  C   UNL     1       2.429  -1.588  -2.492  1.00  0.00     0.001 A 
BRANCH   8  13
ATOM     13  C   UNL     1       0.613   1.407   0.082  1.00  0.00     0.129 C 
ATOM     14  C   UNL     1       1.212   1.264   1.499  1.00  0.00     0.054 C 
ATOM     15  N   UNL     1       0.927   2.812  -0.312  1.00  0.00    -0.288 NA
ATOM     16  S   UNL     1      -1.187   1.403  -0.208  1.00  0.00    -0.070 SA
ATOM     17  N   UNL     1      -0.107   3.741  -0.176  1.00  0.00    -0.171 NA
ATOM     18  H   UNL     1       1.816   3.070  -0.649  1.00  0.00     0.185 HD
ATOM     19  C   UNL     1      -1.243   3.120  -0.169  1.00  0.00     0.126 C 
BRANCH  19  20
ATOM     20  C   UNL     1      -2.618   3.622  -0.202  1.00  0.00     0.009 A 
ATOM     21  C   UNL     1      -3.183   3.767  -1.474  1.00  0.00     0.011 A 
ATOM     22  C   UNL     1      -3.440   3.429   0.920  1.00  0.00     0.011 A 
ATOM     23  C   UNL     1      -4.565   3.666  -1.631  1.00  0.00     0.001 A 
ATOM     24  C   UNL     1      -4.824   3.332   0.754  1.00  0.00     0.001 A 
ATOM     25  C   UNL     1      -5.381   3.432  -0.522  1.00  0.00     0.000 A 
ENDBRANCH  19  20
ENDBRANCH   8  13
ENDBRANCH   4   7
ENDBRANCH   2   3
ENDBRANCH   1   2
BRANCH   1  26
ATOM     26  C   UNL     1      -2.537   0.212   3.347  1.00  0.00     0.023 C 
BRANCH  26  27
ATOM     27  C   UNL     1      -2.643  -0.123   4.816  1.00  0.00     0.116 C 
BRANCH  27  28
ATOM     28  N   UNL     1      -1.727   0.645   5.669  1.00  0.00    -0.352 N 
ATOM     29  C   UNL     1      -1.926   1.105   6.950  1.00  0.00     0.251 C 
ATOM     30  H   UNL     1      -0.853   0.860   5.270  1.00  0.00     0.163 HD
ATOM     31  O   UNL     1      -1.077   1.779   7.524  1.00  0.00    -0.269 OA
BRANCH  29  32
ATOM     32  C   UNL     1      -3.221   0.821   7.590  1.00  0.00     0.039 A 
ATOM     33  C   UNL     1      -3.948   1.866   8.162  1.00  0.00     0.014 A 
ATOM     34  C   UNL     1      -3.773  -0.452   7.466  1.00  0.00     0.014 A 
ATOM     35  C   UNL     1      -5.278   1.649   8.520  1.00  0.00     0.010 A 
ATOM     36  C   UNL     1      -5.129  -0.615   7.663  1.00  0.00     0.010 A 
ATOM     37  C   UNL     1      -5.892   0.423   8.220  1.00  0.00    -0.014 A 
BRANCH  37  38
ATOM     38  C   UNL     1      -7.312   0.145   8.533  1.00  0.00     0.031 A 
ATOM     39  C   UNL     1      -7.637  -1.036   9.408  1.00  0.00     0.074 A 
ATOM     40  C   UNL     1      -8.294   0.863   7.955  1.00  0.00     0.049 A 
ATOM     41  N   UNL     1      -8.793  -1.590   9.662  1.00  0.00    -0.248 NA
ATOM     42  C   UNL     1      -6.493  -1.731  10.025  1.00  0.00     0.031 C 
ATOM     43  C   UNL     1      -8.103   1.988   7.037  1.00  0.00     0.029 A 
ATOM     44  N   UNL     1      -9.656   0.742   8.051  1.00  0.00    -0.354 N 
ATOM     45  C   UNL     1      -8.504  -2.720  10.416  1.00  0.00     0.074 A 
ATOM     46  C   UNL     1      -7.066  -2.822  10.503  1.00  0.00     0.031 C 
ATOM     47  C   UNL     1      -9.304   2.479   6.689  1.00  0.00     0.029 A 
ATOM     48  C   UNL     1     -10.346   1.678   7.321  1.00  0.00     0.049 A 
ATOM     49  H   UNL     1     -10.098   0.048   8.592  1.00  0.00     0.167 HD
ATOM     50  C   UNL     1      -9.361  -3.571  11.023  1.00  0.00     0.037 A 
ATOM     51  C   UNL     1     -11.673   1.862   7.186  1.00  0.00     0.037 A 
ATOM     52  C   UNL     1     -10.788  -3.409  10.998  1.00  0.00     0.049 A 
ATOM     53  C   UNL     1     -12.611   0.935   7.912  1.00  0.00     0.074 A 
ATOM     54  C   UNL     1     -11.754  -4.156  11.645  1.00  0.00     0.029 A 
ATOM     55  N   UNL     1     -11.448  -2.409  10.299  1.00  0.00    -0.354 N 
ATOM     56  N   UNL     1     -12.331  -0.096   8.673  1.00  0.00    -0.248 NA
ATOM     57  C   UNL     1     -14.048   1.199   7.765  1.00  0.00     0.031 C 
ATOM     58  C   UNL     1     -13.004  -3.626  11.311  1.00  0.00     0.029 A 
ATOM     59  C   UNL     1     -12.813  -2.523  10.493  1.00  0.00     0.049 A 
ATOM     60  H   UNL     1     -11.011  -1.721   9.747  1.00  0.00     0.167 HD
ATOM     61  C   UNL     1     -13.550  -0.582   9.123  1.00  0.00     0.074 A 
ATOM     62  C   UNL     1     -14.573   0.273   8.555  1.00  0.00     0.031 C 
ATOM     63  C   UNL     1     -13.804  -1.640   9.932  1.00  0.00     0.037 A 
BRANCH  50  64
ATOM     64  C   UNL     1      -8.768  -4.726  11.777  1.00  0.00     0.064 A 
ATOM     65  C   UNL     1      -8.006  -4.535  12.941  1.00  0.00     0.173 A 
ATOM     66  C   UNL     1      -8.949  -6.041  11.323  1.00  0.00     0.173 A 
ATOM     67  F   UNL     1      -7.786  -3.297  13.409  1.00  0.00    -0.203 F 
ATOM     68  C   UNL     1      -7.407  -5.610  13.592  1.00  0.00     0.198 A 
ATOM     69  C   UNL     1      -8.381  -7.118  12.000  1.00  0.00     0.198 A 
ATOM     70  F   UNL     1      -9.670  -6.282  10.218  1.00  0.00    -0.203 F 
ATOM     71  F   UNL     1      -6.620  -5.392  14.655  1.00  0.00    -0.200 F 
ATOM     72  C   UNL     1      -7.600  -6.900  13.125  1.00  0.00     0.200 A 
ATOM     73  F   UNL     1      -8.577  -8.366  11.553  1.00  0.00    -0.200 F 
ATOM     74  F   UNL     1      -7.022  -7.934  13.751  1.00  0.00    -0.200 F 
ENDBRANCH  50  64
BRANCH  51  75
ATOM     75  C   UNL     1     -12.188   2.999   6.380  1.00  0.00     0.064 A 
ATOM     76  C   UNL     1     -12.797   4.097   7.005  1.00  0.00     0.173 A 
ATOM     77  C   UNL     1     -12.078   3.023   4.982  1.00  0.00     0.173 A 
ATOM     78  F   UNL     1     -12.940   4.113   8.338  1.00  0.00    -0.203 F 
ATOM     79  C   UNL     1     -13.293   5.167   6.262  1.00  0.00     0.198 A 
ATOM     80  C   UNL     1     -12.552   4.105   4.242  1.00  0.00     0.198 A 
ATOM     81  F   UNL     1     -11.496   2.003   4.337  1.00  0.00    -0.203 F 
ATOM     82  F   UNL     1     -13.906   6.184   6.883  1.00  0.00    -0.200 F 
ATOM     83  C   UNL     1     -13.166   5.173   4.881  1.00  0.00     0.200 A 
ATOM     84  F   UNL     1     -12.414   4.115   2.909  1.00  0.00    -0.200 F 
ATOM     85  F   UNL     1     -13.638   6.203   4.167  1.00  0.00    -0.200 F 
ENDBRANCH  51  75
BRANCH  63  86
ATOM     86  C   UNL     1     -15.235  -1.902  10.294  1.00  0.00     0.064 A 
ATOM     87  C   UNL     1     -16.137  -2.451   9.373  1.00  0.00     0.173 A 
ATOM     88  C   UNL     1     -15.686  -1.663  11.601  1.00  0.00     0.173 A 
ATOM     89  F   UNL     1     -15.754  -2.684   8.109  1.00  0.00    -0.203 F 
ATOM     90  C   UNL     1     -17.448  -2.737   9.744  1.00  0.00     0.198 A 
ATOM     91  C   UNL     1     -16.988  -1.977  11.976  1.00  0.00     0.198 A 
ATOM     92  F   UNL     1     -14.855  -1.147  12.520  1.00  0.00    -0.203 F 
ATOM     93  F   UNL     1     -18.306  -3.227   8.839  1.00  0.00    -0.200 F 
ATOM     94  C   UNL     1     -17.869  -2.508  11.046  1.00  0.00     0.200 A 
ATOM     95  F   UNL     1     -17.388  -1.770  13.238  1.00  0.00    -0.200 F 
ATOM     96  F   UNL     1     -19.127  -2.798  11.405  1.00  0.00    -0.200 F 
ENDBRANCH  63  86
ENDBRANCH  37  38
ENDBRANCH  29  32
ENDBRANCH  27  28
ENDBRANCH  26  27
ENDBRANCH   1  26
TORSDOF 13
