REMARK SMILES O=C(NCCCCNC(=O)[C@H](Cc1cccc(Br)c1)CC1CCC1)c1ccc(-c2c3nc(c(-c4c(F)c(F)c(F)c(F)c4F)c4ccc([nH]4)c(-c4c(F)c(F)c(F)c(F)c4F)c4nc(c(-c5c(F)c(F)c(F)c(F)c5F)c5ccc2[nH]5)C=C4)C=C3)cc1
REMARK SMILES IDX 5 1 4 2 3 3 1 4 2 5 25 7 26 8 87 9 27 10 86 11 28 12 29 13
REMARK SMILES IDX 30 14 80 15 31 16 85 17 79 18 81 19 32 20 84 21 78 22 77 23
REMARK SMILES IDX 33 25 65 26 45 27 64 28 46 29 49 30 63 31 82 32 47 33 48 34
REMARK SMILES IDX 62 36 83 37 50 38 34 39 35 40 43 41 36 42 37 43 41 44 44 45
REMARK SMILES IDX 38 46 39 47 42 48 40 49 66 50 67 51 75 52 68 53 69 54 73 55
REMARK SMILES IDX 76 56 70 57 71 58 74 59 72 60 51 61 52 62 60 63 53 64 54 65
REMARK SMILES IDX 58 66 61 67 55 68 56 69 59 70 57 71 6 72 7 73 8 74 9 75
REMARK SMILES IDX 10 77 11 78 20 79 21 80 22 81 24 82 23 83 12 84 13 85 14 86
REMARK SMILES IDX 19 87 15 88 17 89 16 90 18 91
REMARK H PARENT 3 6 81 24 49 35 8 76
REMARK Flexibility Score: inf
ROOT
ATOM      1  C   UNL     1       3.267   2.824 -10.427  1.00  0.00     0.023 C 
ENDROOT
BRANCH   1   2
ATOM      2  C   UNL     1       2.069   3.212  -9.569  1.00  0.00     0.116 C 
BRANCH   2   3
ATOM      3  N   UNL     1       1.748   4.628  -9.668  1.00  0.00    -0.352 N 
ATOM      4  O   UNL     1       0.590   6.448 -10.335  1.00  0.00    -0.269 OA
ATOM      5  C   UNL     1       0.620   5.237 -10.170  1.00  0.00     0.251 C 
ATOM      6  H   UNL     1       2.438   5.240  -9.325  1.00  0.00     0.163 HD
BRANCH   5   7
ATOM      7  C   UNL     1      -0.550   4.409 -10.533  1.00  0.00     0.039 A 
ATOM      8  C   UNL     1      -1.008   3.419  -9.664  1.00  0.00     0.014 A 
ATOM      9  C   UNL     1      -1.187   4.620 -11.760  1.00  0.00     0.014 A 
ATOM     10  C   UNL     1      -1.989   2.533 -10.089  1.00  0.00     0.010 A 
ATOM     11  C   UNL     1      -2.241   3.787 -12.146  1.00  0.00     0.010 A 
ATOM     12  C   UNL     1      -2.626   2.713 -11.329  1.00  0.00    -0.014 A 
BRANCH  12  13
ATOM     13  C   UNL     1      -3.726   1.790 -11.708  1.00  0.00     0.031 A 
ATOM     14  C   UNL     1      -3.601   0.865 -12.887  1.00  0.00     0.074 A 
ATOM     15  C   UNL     1      -4.826   1.753 -10.931  1.00  0.00     0.049 A 
ATOM     16  N   UNL     1      -4.449  -0.035 -13.321  1.00  0.00    -0.248 NA
ATOM     17  C   UNL     1      -2.373   0.963 -13.689  1.00  0.00     0.031 C 
ATOM     18  C   UNL     1      -5.062   2.616  -9.772  1.00  0.00     0.029 A 
ATOM     19  N   UNL     1      -5.933   0.946 -10.975  1.00  0.00    -0.354 N 
ATOM     20  C   UNL     1      -3.865  -0.601 -14.446  1.00  0.00     0.074 A 
ATOM     21  C   UNL     1      -2.602   0.077 -14.649  1.00  0.00     0.031 C 
ATOM     22  C   UNL     1      -6.211   2.257  -9.182  1.00  0.00     0.029 A 
ATOM     23  C   UNL     1      -6.822   1.183  -9.956  1.00  0.00     0.049 A 
ATOM     24  H   UNL     1      -6.077   0.264 -11.670  1.00  0.00     0.167 HD
ATOM     25  C   UNL     1      -4.336  -1.603 -15.228  1.00  0.00     0.037 A 
ATOM     26  C   UNL     1      -8.006   0.608  -9.679  1.00  0.00     0.037 A 
ATOM     27  C   UNL     1      -5.590  -2.280 -15.014  1.00  0.00     0.049 A 
ATOM     28  C   UNL     1      -8.503  -0.495 -10.567  1.00  0.00     0.074 A 
ATOM     29  C   UNL     1      -6.155  -3.307 -15.751  1.00  0.00     0.029 A 
ATOM     30  N   UNL     1      -6.473  -2.000 -13.981  1.00  0.00    -0.354 N 
ATOM     31  N   UNL     1      -7.933  -1.027 -11.621  1.00  0.00    -0.248 NA
ATOM     32  C   UNL     1      -9.807  -1.078 -10.229  1.00  0.00     0.031 C 
ATOM     33  C   UNL     1      -7.395  -3.625 -15.184  1.00  0.00     0.029 A 
ATOM     34  C   UNL     1      -7.583  -2.826 -14.068  1.00  0.00     0.049 A 
ATOM     35  H   UNL     1      -6.333  -1.314 -13.289  1.00  0.00     0.167 HD
ATOM     36  C   UNL     1      -8.803  -2.009 -12.068  1.00  0.00     0.074 A 
ATOM     37  C   UNL     1      -9.925  -2.022 -11.151  1.00  0.00     0.031 C 
ATOM     38  C   UNL     1      -8.690  -2.821 -13.148  1.00  0.00     0.037 A 
BRANCH  25  39
ATOM     39  C   UNL     1      -3.496  -2.030 -16.398  1.00  0.00     0.064 A 
ATOM     40  C   UNL     1      -2.313  -2.763 -16.223  1.00  0.00     0.173 A 
ATOM     41  C   UNL     1      -3.910  -1.758 -17.711  1.00  0.00     0.173 A 
ATOM     42  F   UNL     1      -1.867  -3.040 -14.988  1.00  0.00    -0.203 F 
ATOM     43  C   UNL     1      -1.567  -3.193 -17.318  1.00  0.00     0.198 A 
ATOM     44  C   UNL     1      -3.175  -2.211 -18.804  1.00  0.00     0.198 A 
ATOM     45  F   UNL     1      -5.037  -1.066 -17.935  1.00  0.00    -0.203 F 
ATOM     46  F   UNL     1      -0.422  -3.863 -17.125  1.00  0.00    -0.200 F 
ATOM     47  C   UNL     1      -2.003  -2.925 -18.607  1.00  0.00     0.200 A 
ATOM     48  F   UNL     1      -3.604  -1.961 -20.049  1.00  0.00    -0.200 F 
ATOM     49  F   UNL     1      -1.290  -3.350 -19.659  1.00  0.00    -0.200 F 
ENDBRANCH  25  39
BRANCH  26  50
ATOM     50  C   UNL     1      -8.799   1.078  -8.515  1.00  0.00     0.064 A 
ATOM     51  C   UNL     1      -8.993   0.263  -7.392  1.00  0.00     0.173 A 
ATOM     52  C   UNL     1      -9.369   2.360  -8.499  1.00  0.00     0.173 A 
ATOM     53  F   UNL     1      -8.483  -0.977  -7.368  1.00  0.00    -0.203 F 
ATOM     54  C   UNL     1      -9.742   0.706  -6.304  1.00  0.00     0.198 A 
ATOM     55  C   UNL     1     -10.090   2.814  -7.398  1.00  0.00     0.198 A 
ATOM     56  F   UNL     1      -9.206   3.181  -9.547  1.00  0.00    -0.203 F 
ATOM     57  F   UNL     1      -9.950  -0.108  -5.261  1.00  0.00    -0.200 F 
ATOM     58  C   UNL     1     -10.284   1.984  -6.305  1.00  0.00     0.200 A 
ATOM     59  F   UNL     1     -10.594   4.055  -7.396  1.00  0.00    -0.200 F 
ATOM     60  F   UNL     1     -10.997   2.412  -5.255  1.00  0.00    -0.200 F 
ENDBRANCH  26  50
BRANCH  38  61
ATOM     61  C   UNL     1      -9.805  -3.796 -13.378  1.00  0.00     0.064 A 
ATOM     62  C   UNL     1     -11.064  -3.375 -13.833  1.00  0.00     0.173 A 
ATOM     63  C   UNL     1      -9.612  -5.166 -13.149  1.00  0.00     0.173 A 
ATOM     64  F   UNL     1     -11.302  -2.073 -14.050  1.00  0.00    -0.203 F 
ATOM     65  C   UNL     1     -12.098  -4.288 -14.019  1.00  0.00     0.198 A 
ATOM     66  C   UNL     1     -10.640  -6.079 -13.362  1.00  0.00     0.198 A 
ATOM     67  F   UNL     1      -8.425  -5.619 -12.717  1.00  0.00    -0.203 F 
ATOM     68  F   UNL     1     -13.309  -3.857 -14.400  1.00  0.00    -0.200 F 
ATOM     69  C   UNL     1     -11.885  -5.638 -13.787  1.00  0.00     0.200 A 
ATOM     70  F   UNL     1     -10.431  -7.385 -13.146  1.00  0.00    -0.200 F 
ATOM     71  F   UNL     1     -12.883  -6.515 -13.963  1.00  0.00    -0.200 F 
ENDBRANCH  38  61
ENDBRANCH  12  13
ENDBRANCH   5   7
ENDBRANCH   2   3
ENDBRANCH   1   2
BRANCH   1  72
ATOM     72  C   UNL     1       4.592   3.489 -10.040  1.00  0.00     0.023 C 
BRANCH  72  73
ATOM     73  C   UNL     1       4.955   3.385  -8.560  1.00  0.00     0.116 C 
BRANCH  73  74
ATOM     74  N   UNL     1       5.054   2.008  -8.128  1.00  0.00    -0.356 N 
ATOM     75  C   UNL     1       5.785   1.437  -7.138  1.00  0.00     0.223 C 
ATOM     76  H   UNL     1       4.496   1.378  -8.640  1.00  0.00     0.163 HD
ATOM     77  O   UNL     1       5.869   0.209  -7.201  1.00  0.00    -0.275 OA
BRANCH  75  78
ATOM     78  C   UNL     1       6.567   2.273  -6.116  1.00  0.00     0.083 C 
BRANCH  78  79
ATOM     79  C   UNL     1       5.783   3.427  -5.451  1.00  0.00     0.017 C 
BRANCH  79  80
ATOM     80  C   UNL     1       6.702   4.615  -5.154  1.00  0.00    -0.010 C 
ATOM     81  C   UNL     1       6.196   6.002  -5.650  1.00  0.00     0.003 C 
ATOM     82  C   UNL     1       6.632   5.220  -3.723  1.00  0.00     0.003 C 
ATOM     83  C   UNL     1       6.822   6.604  -4.377  1.00  0.00     0.001 C 
ENDBRANCH  79  80
ENDBRANCH  78  79
BRANCH  78  84
ATOM     84  C   UNL     1       7.254   1.364  -5.051  1.00  0.00     0.049 C 
BRANCH  84  85
ATOM     85  C   UNL     1       6.338   0.746  -4.007  1.00  0.00    -0.046 A 
ATOM     86  C   UNL     1       6.200   1.334  -2.740  1.00  0.00     0.004 A 
ATOM     87  C   UNL     1       5.582  -0.401  -4.292  1.00  0.00     0.019 A 
ATOM     88  C   UNL     1       5.288   0.824  -1.811  1.00  0.00     0.001 A 
ATOM     89  C   UNL     1       4.661  -0.896  -3.369  1.00  0.00     0.018 A 
ATOM     90  C   UNL     1       4.506  -0.284  -2.131  1.00  0.00     0.016 A 
ATOM     91  Br  UNL     1       3.600  -2.396  -3.820  1.00  0.00    -0.051 Br
ENDBRANCH  84  85
ENDBRANCH  78  84
ENDBRANCH  75  78
ENDBRANCH  73  74
ENDBRANCH  72  73
ENDBRANCH   1  72
TORSDOF 15
