REMARK SMILES CC(C)(C)c1cc2c(cc1Cl)C=C(C(=O)NCCCCNC(=O)c1ccc(-c3c4nc(c(-c5c(F)c(F)c(F)c(F)c5F)c5ccc([nH]5)c(-c5c(F)c(F)c(F)c(F)c5F)c5nc(c(-c6c(F)c(F)c(F)c(F)c6F)c6ccc3[nH]6)C=C5)C=C4)cc1)[C@@H](C(F)(F)F)O2
REMARK SMILES IDX 19 1 18 2 17 3 16 4 14 5 15 6 13 8 5 9 6 10 10 11 7 12 9 13
REMARK SMILES IDX 11 14 8 15 92 16 12 17 87 18 2 19 1 20 3 21 4 22 88 23 89 24
REMARK SMILES IDX 90 25 91 26 20 27 21 28 22 29 23 31 24 32 25 33 86 34 26 35
REMARK SMILES IDX 85 36 27 37 28 38 29 39 79 40 30 41 84 42 78 43 80 44 31 45
REMARK SMILES IDX 83 46 77 47 76 48 32 50 64 51 44 52 63 53 45 54 48 55 62 56
REMARK SMILES IDX 81 57 46 58 47 59 61 61 82 62 49 63 33 64 34 65 42 66 35 67
REMARK SMILES IDX 36 68 40 69 43 70 37 71 38 72 41 73 39 74 65 75 66 76 74 77
REMARK SMILES IDX 67 78 68 79 72 80 75 81 69 82 70 83 73 84 71 85 50 86 51 87
REMARK SMILES IDX 59 88 52 89 53 90 57 91 60 92 54 93 55 94 58 95 56 96
REMARK H PARENT 16 7 21 30 80 49 48 60
REMARK Flexibility Score: inf
ROOT
ATOM      1  C   UNL     1       2.609   2.298  11.728  1.00  0.00     0.023 C 
ENDROOT
BRANCH   1   2
ATOM      2  C   UNL     1       2.541   2.373  10.201  1.00  0.00     0.023 C 
BRANCH   2   3
ATOM      3  C   UNL     1       3.634   1.584   9.484  1.00  0.00     0.116 C 
BRANCH   3   4
ATOM      4  N   UNL     1       3.277   0.187   9.308  1.00  0.00    -0.352 N 
ATOM      5  C   UNL     1       2.814  -0.595   8.304  1.00  0.00     0.251 C 
ATOM      6  O   UNL     1       2.644  -1.782   8.600  1.00  0.00    -0.270 OA
ATOM      7  H   UNL     1       3.407  -0.327  10.138  1.00  0.00     0.163 HD
BRANCH   5   8
ATOM      8  C   UNL     1       2.503  -0.128   6.920  1.00  0.00     0.067 C 
ATOM      9  C   UNL     1       0.767   0.221   2.139  1.00  0.00    -0.020 A 
ATOM     10  C   UNL     1       1.300   1.109   3.100  1.00  0.00     0.053 A 
ATOM     11  C   UNL     1       0.629  -1.125   2.556  1.00  0.00     0.045 A 
ATOM     12  C   UNL     1       1.678   0.690   4.378  1.00  0.00     0.128 A 
ATOM     13  C   UNL     1       1.017  -1.540   3.847  1.00  0.00     0.032 A 
ATOM     14  Cl  UNL     1      -0.058  -2.378   1.581  1.00  0.00    -0.084 Cl
ATOM     15  C   UNL     1       1.538  -0.632   4.764  1.00  0.00     0.019 A 
ATOM     16  O   UNL     1       2.127   1.665   5.219  1.00  0.00    -0.475 OA
ATOM     17  C   UNL     1       1.876  -1.019   6.128  1.00  0.00     0.025 C 
ATOM     18  C   UNL     1       2.878   1.224   6.382  1.00  0.00     0.314 C 
BRANCH   9  19
ATOM     19  C   UNL     1       0.334   0.774   0.758  1.00  0.00    -0.012 C 
ATOM     20  C   UNL     1       0.952  -0.016  -0.417  1.00  0.00     0.016 C 
ATOM     21  C   UNL     1       0.768   2.250   0.520  1.00  0.00     0.016 C 
ATOM     22  C   UNL     1      -1.206   0.763   0.662  1.00  0.00     0.016 C 
ENDBRANCH   9  19
BRANCH  18  23
ATOM     23  C   UNL     1       4.383   1.345   6.078  1.00  0.00     0.429 C 
ATOM     24  F   UNL     1       4.728   2.647   5.914  1.00  0.00    -0.167 F 
ATOM     25  F   UNL     1       5.156   0.869   7.083  1.00  0.00    -0.167 F 
ATOM     26  F   UNL     1       4.743   0.684   4.956  1.00  0.00    -0.167 F 
ENDBRANCH  18  23
ENDBRANCH   5   8
ENDBRANCH   3   4
ENDBRANCH   2   3
ENDBRANCH   1   2
BRANCH   1  27
ATOM     27  C   UNL     1       3.946   2.700  12.347  1.00  0.00     0.116 C 
BRANCH  27  28
ATOM     28  N   UNL     1       4.445   3.999  11.914  1.00  0.00    -0.352 N 
ATOM     29  C   UNL     1       5.301   4.844  12.585  1.00  0.00     0.251 C 
ATOM     30  H   UNL     1       4.132   4.310  11.034  1.00  0.00     0.163 HD
ATOM     31  O   UNL     1       5.584   5.945  12.128  1.00  0.00    -0.269 OA
BRANCH  29  32
ATOM     32  C   UNL     1       5.824   4.424  13.900  1.00  0.00     0.039 A 
ATOM     33  C   UNL     1       6.400   3.163  14.057  1.00  0.00     0.014 A 
ATOM     34  C   UNL     1       5.648   5.266  15.001  1.00  0.00     0.014 A 
ATOM     35  C   UNL     1       6.627   2.672  15.335  1.00  0.00     0.010 A 
ATOM     36  C   UNL     1       5.955   4.800  16.282  1.00  0.00     0.010 A 
ATOM     37  C   UNL     1       6.387   3.477  16.462  1.00  0.00    -0.014 A 
BRANCH  37  38
ATOM     38  C   UNL     1       6.567   2.890  17.814  1.00  0.00     0.031 A 
ATOM     39  C   UNL     1       5.385   2.669  18.719  1.00  0.00     0.074 A 
ATOM     40  C   UNL     1       7.790   2.470  18.186  1.00  0.00     0.049 A 
ATOM     41  N   UNL     1       5.345   2.099  19.898  1.00  0.00    -0.248 NA
ATOM     42  C   UNL     1       4.077   3.150  18.246  1.00  0.00     0.031 C 
ATOM     43  C   UNL     1       9.007   2.620  17.387  1.00  0.00     0.029 A 
ATOM     44  N   UNL     1       8.207   1.795  19.305  1.00  0.00    -0.354 N 
ATOM     45  C   UNL     1       4.021   2.169  20.311  1.00  0.00     0.074 A 
ATOM     46  C   UNL     1       3.289   2.858  19.272  1.00  0.00     0.031 C 
ATOM     47  C   UNL     1      10.017   1.992  18.005  1.00  0.00     0.029 A 
ATOM     48  C   UNL     1       9.534   1.445  19.269  1.00  0.00     0.049 A 
ATOM     49  H   UNL     1       7.612   1.583  20.061  1.00  0.00     0.167 HD
ATOM     50  C   UNL     1       3.465   1.688  21.449  1.00  0.00     0.037 A 
ATOM     51  C   UNL     1      10.280   0.758  20.154  1.00  0.00     0.037 A 
ATOM     52  C   UNL     1       4.188   0.970  22.465  1.00  0.00     0.049 A 
ATOM     53  C   UNL     1       9.643   0.259  21.419  1.00  0.00     0.074 A 
ATOM     54  C   UNL     1       3.704   0.416  23.638  1.00  0.00     0.029 A 
ATOM     55  N   UNL     1       5.547   0.700  22.426  1.00  0.00    -0.354 N 
ATOM     56  N   UNL     1       8.390   0.330  21.794  1.00  0.00    -0.248 NA
ATOM     57  C   UNL     1      10.527  -0.399  22.391  1.00  0.00     0.031 C 
ATOM     58  C   UNL     1       4.777  -0.159  24.325  1.00  0.00     0.029 A 
ATOM     59  C   UNL     1       5.923   0.006  23.564  1.00  0.00     0.049 A 
ATOM     60  H   UNL     1       6.155   0.963  21.697  1.00  0.00     0.167 HD
ATOM     61  C   UNL     1       8.332  -0.274  23.041  1.00  0.00     0.074 A 
ATOM     62  C   UNL     1       9.672  -0.726  23.351  1.00  0.00     0.031 C 
ATOM     63  C   UNL     1       7.263  -0.431  23.858  1.00  0.00     0.037 A 
BRANCH  50  64
ATOM     64  C   UNL     1       1.999   1.917  21.666  1.00  0.00     0.064 A 
ATOM     65  C   UNL     1       1.030   1.182  20.969  1.00  0.00     0.173 A 
ATOM     66  C   UNL     1       1.560   2.829  22.639  1.00  0.00     0.173 A 
ATOM     67  F   UNL     1       1.400   0.307  20.021  1.00  0.00    -0.203 F 
ATOM     68  C   UNL     1      -0.326   1.359  21.229  1.00  0.00     0.198 A 
ATOM     69  C   UNL     1       0.204   2.987  22.912  1.00  0.00     0.198 A 
ATOM     70  F   UNL     1       2.448   3.552  23.337  1.00  0.00    -0.203 F 
ATOM     71  F   UNL     1      -1.236   0.664  20.533  1.00  0.00    -0.200 F 
ATOM     72  C   UNL     1      -0.738   2.254  22.206  1.00  0.00     0.200 A 
ATOM     73  F   UNL     1      -0.191   3.845  23.863  1.00  0.00    -0.200 F 
ATOM     74  F   UNL     1      -2.043   2.412  22.465  1.00  0.00    -0.200 F 
ENDBRANCH  50  64
BRANCH  51  75
ATOM     75  C   UNL     1      11.709   0.494  19.854  1.00  0.00     0.064 A 
ATOM     76  C   UNL     1      12.146  -0.796  19.526  1.00  0.00     0.173 A 
ATOM     77  C   UNL     1      12.654   1.529  19.845  1.00  0.00     0.173 A 
ATOM     78  F   UNL     1      11.280  -1.820  19.539  1.00  0.00    -0.203 F 
ATOM     79  C   UNL     1      13.477  -1.040  19.197  1.00  0.00     0.198 A 
ATOM     80  C   UNL     1      13.980   1.289  19.492  1.00  0.00     0.198 A 
ATOM     81  F   UNL     1      12.282   2.781  20.149  1.00  0.00    -0.203 F 
ATOM     82  F   UNL     1      13.876  -2.286  18.906  1.00  0.00    -0.200 F 
ATOM     83  C   UNL     1      14.391   0.004  19.171  1.00  0.00     0.200 A 
ATOM     84  F   UNL     1      14.855   2.302  19.453  1.00  0.00    -0.200 F 
ATOM     85  F   UNL     1      15.667  -0.229  18.837  1.00  0.00    -0.200 F 
ENDBRANCH  51  75
BRANCH  63  86
ATOM     86  C   UNL     1       7.492  -1.113  25.171  1.00  0.00     0.064 A 
ATOM     87  C   UNL     1       8.098  -0.439  26.241  1.00  0.00     0.173 A 
ATOM     88  C   UNL     1       7.034  -2.421  25.387  1.00  0.00     0.173 A 
ATOM     89  F   UNL     1       8.564   0.808  26.076  1.00  0.00    -0.203 F 
ATOM     90  C   UNL     1       8.241  -1.054  27.481  1.00  0.00     0.198 A 
ATOM     91  C   UNL     1       7.160  -3.024  26.634  1.00  0.00     0.198 A 
ATOM     92  F   UNL     1       6.442  -3.102  24.394  1.00  0.00    -0.203 F 
ATOM     93  F   UNL     1       8.842  -0.400  28.485  1.00  0.00    -0.200 F 
ATOM     94  C   UNL     1       7.764  -2.341  27.680  1.00  0.00     0.200 A 
ATOM     95  F   UNL     1       6.689  -4.264  26.828  1.00  0.00    -0.200 F 
ATOM     96  F   UNL     1       7.889  -2.925  28.879  1.00  0.00    -0.200 F 
ENDBRANCH  63  86
ENDBRANCH  37  38
ENDBRANCH  29  32
ENDBRANCH  27  28
ENDBRANCH   1  27
TORSDOF 13
