REMARK SMILES COc1ccccc1S(=O)(=O)[C@@H](C)[C@H](C)C(=O)NCCCCNC(=O)c1ccc(-c2c3nc(c(-c4c(F)c(F)c(F)c(F)c4F)c4ccc([nH]4)c(-c4c(F)c(F)c(F)c(F)c4F)c4nc(c(-c5c(F)c(F)c(F)c(F)c5F)c5ccc2[nH]5)C=C4)C=C3)cc1
REMARK SMILES IDX 19 1 18 2 16 3 17 4 14 6 15 7 12 8 13 9 9 10 10 11 11 12
REMARK SMILES IDX 8 13 3 14 4 15 5 16 7 17 6 18 2 19 1 20 20 21 21 22 22 23
REMARK SMILES IDX 23 24 24 25 25 27 26 28 27 29 88 30 28 31 87 32 29 33 30 34
REMARK SMILES IDX 31 35 81 36 32 37 86 38 80 39 82 40 33 41 85 42 79 43 78 44
REMARK SMILES IDX 34 46 66 47 46 48 65 49 47 50 50 51 64 52 83 53 48 54 49 55
REMARK SMILES IDX 63 57 84 58 51 59 35 60 36 61 44 62 37 63 38 64 42 65 45 66
REMARK SMILES IDX 39 67 40 68 43 69 41 70 67 71 68 72 76 73 69 74 70 75 74 76
REMARK SMILES IDX 77 77 71 78 72 79 75 80 73 81 52 82 53 83 61 84 54 85 55 86
REMARK SMILES IDX 59 87 62 88 56 89 57 90 60 91 58 92
REMARK H PARENT 18 5 23 26 82 45 50 56
REMARK Flexibility Score: inf
ROOT
ATOM      1  C   UNL     1       3.356  -2.185   2.746  1.00  0.00     0.116 C 
ENDROOT
BRANCH   1   2
ATOM      2  N   UNL     1       1.988  -2.611   2.542  1.00  0.00    -0.356 N 
ATOM      3  C   UNL     1       1.210  -2.570   1.425  1.00  0.00     0.224 C 
ATOM      4  O   UNL     1       0.057  -2.991   1.518  1.00  0.00    -0.275 OA
ATOM      5  H   UNL     1       1.551  -2.991   3.338  1.00  0.00     0.163 HD
BRANCH   3   6
ATOM      6  C   UNL     1       1.749  -2.020   0.102  1.00  0.00     0.093 C 
ATOM      7  C   UNL     1       2.088  -0.537   0.289  1.00  0.00     0.019 C 
BRANCH   6   8
ATOM      8  C   UNL     1       2.778  -3.020  -0.506  1.00  0.00     0.122 C 
ATOM      9  C   UNL     1       4.282  -2.718  -0.509  1.00  0.00     0.026 C 
BRANCH   8  10
ATOM     10  S   UNL     1       2.252  -3.768  -2.044  1.00  0.00     0.185 S 
ATOM     11  O   UNL     1       0.872  -4.185  -1.868  1.00  0.00    -0.223 OA
ATOM     12  O   UNL     1       3.249  -4.772  -2.382  1.00  0.00    -0.223 OA
BRANCH  10  13
ATOM     13  C   UNL     1       2.237  -2.656  -3.427  1.00  0.00     0.109 A 
ATOM     14  C   UNL     1       2.672  -1.334  -3.419  1.00  0.00     0.137 A 
ATOM     15  C   UNL     1       2.475  -0.543  -4.561  1.00  0.00     0.048 A 
ATOM     16  C   UNL     1       1.952  -1.091  -5.732  1.00  0.00     0.004 A 
ATOM     17  C   UNL     1       1.732  -3.210  -4.618  1.00  0.00     0.024 A 
ATOM     18  C   UNL     1       1.605  -2.435  -5.769  1.00  0.00     0.002 A 
BRANCH  14  19
ATOM     19  O   UNL     1       3.233  -0.790  -2.307  1.00  0.00    -0.495 OA
ATOM     20  C   UNL     1       4.480  -0.131  -2.547  1.00  0.00     0.278 C 
ENDBRANCH  14  19
ENDBRANCH  10  13
ENDBRANCH   8  10
ENDBRANCH   6   8
ENDBRANCH   3   6
ENDBRANCH   1   2
BRANCH   1  21
ATOM     21  C   UNL     1       3.465  -0.910   3.575  1.00  0.00     0.023 C 
BRANCH  21  22
ATOM     22  C   UNL     1       3.091  -1.078   5.043  1.00  0.00     0.023 C 
BRANCH  22  23
ATOM     23  C   UNL     1       3.791  -2.228   5.753  1.00  0.00     0.116 C 
BRANCH  23  24
ATOM     24  N   UNL     1       5.243  -2.167   5.665  1.00  0.00    -0.352 N 
ATOM     25  C   UNL     1       6.170  -2.508   6.623  1.00  0.00     0.251 C 
ATOM     26  H   UNL     1       5.608  -1.840   4.811  1.00  0.00     0.163 HD
ATOM     27  O   UNL     1       7.360  -2.308   6.441  1.00  0.00    -0.269 OA
BRANCH  25  28
ATOM     28  C   UNL     1       5.692  -3.081   7.898  1.00  0.00     0.039 A 
ATOM     29  C   UNL     1       6.145  -2.526   9.096  1.00  0.00     0.014 A 
ATOM     30  C   UNL     1       4.758  -4.120   7.902  1.00  0.00     0.014 A 
ATOM     31  C   UNL     1       5.610  -2.977  10.303  1.00  0.00     0.010 A 
ATOM     32  C   UNL     1       4.163  -4.504   9.097  1.00  0.00     0.010 A 
ATOM     33  C   UNL     1       4.592  -3.945  10.310  1.00  0.00    -0.014 A 
BRANCH  33  34
ATOM     34  C   UNL     1       3.985  -4.407  11.582  1.00  0.00     0.031 A 
ATOM     35  C   UNL     1       4.145  -5.840  12.009  1.00  0.00     0.074 A 
ATOM     36  C   UNL     1       3.253  -3.554  12.324  1.00  0.00     0.049 A 
ATOM     37  N   UNL     1       3.665  -6.449  13.064  1.00  0.00    -0.248 NA
ATOM     38  C   UNL     1       4.920  -6.714  11.114  1.00  0.00     0.031 C 
ATOM     39  C   UNL     1       2.977  -2.157  11.984  1.00  0.00     0.029 A 
ATOM     40  N   UNL     1       2.604  -3.740  13.518  1.00  0.00    -0.354 N 
ATOM     41  C   UNL     1       4.070  -7.772  12.950  1.00  0.00     0.074 A 
ATOM     42  C   UNL     1       4.774  -7.895  11.694  1.00  0.00     0.031 C 
ATOM     43  C   UNL     1       2.243  -1.603  12.963  1.00  0.00     0.029 A 
ATOM     44  C   UNL     1       1.972  -2.612  13.983  1.00  0.00     0.049 A 
ATOM     45  H   UNL     1       2.592  -4.600  13.997  1.00  0.00     0.167 HD
ATOM     46  C   UNL     1       3.900  -8.787  13.830  1.00  0.00     0.037 A 
ATOM     47  C   UNL     1       1.260  -2.417  15.109  1.00  0.00     0.037 A 
ATOM     48  C   UNL     1       3.222  -8.654  15.092  1.00  0.00     0.049 A 
ATOM     49  C   UNL     1       1.097  -3.558  16.077  1.00  0.00     0.074 A 
ATOM     50  C   UNL     1       3.034  -9.607  16.077  1.00  0.00     0.029 A 
ATOM     51  N   UNL     1       2.622  -7.487  15.543  1.00  0.00    -0.354 N 
ATOM     52  N   UNL     1       1.546  -4.787  15.993  1.00  0.00    -0.248 NA
ATOM     53  C   UNL     1       0.340  -3.279  17.304  1.00  0.00     0.031 C 
ATOM     54  C   UNL     1       2.288  -9.027  17.109  1.00  0.00     0.029 A 
ATOM     55  C   UNL     1       2.054  -7.699  16.789  1.00  0.00     0.049 A 
ATOM     56  H   UNL     1       2.603  -6.635  15.051  1.00  0.00     0.167 HD
ATOM     57  C   UNL     1       1.158  -5.416  17.169  1.00  0.00     0.074 A 
ATOM     58  C   UNL     1       0.450  -4.427  17.955  1.00  0.00     0.031 C 
ATOM     59  C   UNL     1       1.368  -6.697  17.563  1.00  0.00     0.037 A 
BRANCH  46  60
ATOM     60  C   UNL     1       4.470 -10.125  13.458  1.00  0.00     0.064 A 
ATOM     61  C   UNL     1       5.856 -10.344  13.405  1.00  0.00     0.173 A 
ATOM     62  C   UNL     1       3.625 -11.207  13.171  1.00  0.00     0.173 A 
ATOM     63  F   UNL     1       6.708  -9.338  13.656  1.00  0.00    -0.203 F 
ATOM     64  C   UNL     1       6.373 -11.585  13.045  1.00  0.00     0.198 A 
ATOM     65  C   UNL     1       4.147 -12.457  12.844  1.00  0.00     0.198 A 
ATOM     66  F   UNL     1       2.293 -11.055  13.210  1.00  0.00    -0.203 F 
ATOM     67  F   UNL     1       7.699 -11.752  12.946  1.00  0.00    -0.200 F 
ATOM     68  C   UNL     1       5.519 -12.642  12.772  1.00  0.00     0.200 A 
ATOM     69  F   UNL     1       3.320 -13.481  12.592  1.00  0.00    -0.200 F 
ATOM     70  F   UNL     1       6.019 -13.838  12.432  1.00  0.00    -0.200 F 
ENDBRANCH  46  60
BRANCH  47  71
ATOM     71  C   UNL     1       0.687  -1.079  15.408  1.00  0.00     0.064 A 
ATOM     72  C   UNL     1       1.193  -0.300  16.459  1.00  0.00     0.173 A 
ATOM     73  C   UNL     1      -0.383  -0.558  14.667  1.00  0.00     0.173 A 
ATOM     74  F   UNL     1       2.204  -0.763  17.208  1.00  0.00    -0.203 F 
ATOM     75  C   UNL     1       0.632   0.936  16.774  1.00  0.00     0.198 A 
ATOM     76  C   UNL     1      -0.924   0.691  14.965  1.00  0.00     0.198 A 
ATOM     77  F   UNL     1      -0.899  -1.260  13.647  1.00  0.00    -0.203 F 
ATOM     78  F   UNL     1       1.102   1.635  17.816  1.00  0.00    -0.200 F 
ATOM     79  C   UNL     1      -0.423   1.433  16.024  1.00  0.00     0.200 A 
ATOM     80  F   UNL     1      -1.935   1.174  14.229  1.00  0.00    -0.200 F 
ATOM     81  F   UNL     1      -0.963   2.621  16.328  1.00  0.00    -0.200 F 
ENDBRANCH  47  71
BRANCH  59  82
ATOM     82  C   UNL     1       0.870  -7.084  18.925  1.00  0.00     0.064 A 
ATOM     83  C   UNL     1      -0.498  -7.217  19.202  1.00  0.00     0.173 A 
ATOM     84  C   UNL     1       1.780  -7.347  19.961  1.00  0.00     0.173 A 
ATOM     85  F   UNL     1      -1.408  -6.963  18.250  1.00  0.00    -0.203 F 
ATOM     86  C   UNL     1      -0.938  -7.565  20.477  1.00  0.00     0.198 A 
ATOM     87  C   UNL     1       1.337  -7.727  21.224  1.00  0.00     0.198 A 
ATOM     88  F   UNL     1       3.100  -7.242  19.745  1.00  0.00    -0.203 F 
ATOM     89  F   UNL     1      -2.252  -7.630  20.734  1.00  0.00    -0.200 F 
ATOM     90  C   UNL     1      -0.021  -7.825  21.484  1.00  0.00     0.200 A 
ATOM     91  F   UNL     1       2.225  -7.991  22.192  1.00  0.00    -0.200 F 
ATOM     92  F   UNL     1      -0.447  -8.161  22.709  1.00  0.00    -0.200 F 
ENDBRANCH  59  82
ENDBRANCH  33  34
ENDBRANCH  25  28
ENDBRANCH  23  24
ENDBRANCH  22  23
ENDBRANCH  21  22
ENDBRANCH   1  21
TORSDOF 15
