REMARK SMILES C[C@H]1OCC[C@@H]1C(=O)Nc1ccc(Cl)c(C(=O)NCCCCNC(=O)c2ccc(-c3c4nc(c(-c5c(F)c(F)c(F)c(F)c5F)c5ccc([nH]5)c(-c5c(F)c(F)c(F)c(F)c5F)c5nc(c(-c6c(F)c(F)c(F)c(F)c6F)c6ccc3[nH]6)C=C5)C=C4)cc2)c1
REMARK SMILES IDX 20 1 19 2 18 3 16 4 17 5 15 7 10 8 11 9 89 10 12 11 13 12
REMARK SMILES IDX 14 13 9 14 7 15 8 16 6 18 1 19 2 20 3 21 4 22 5 23 21 24
REMARK SMILES IDX 22 25 23 26 24 27 25 29 26 30 27 31 88 32 28 33 87 34 29 35
REMARK SMILES IDX 30 36 31 37 81 38 32 39 86 40 80 41 82 42 33 43 85 44 79 45
REMARK SMILES IDX 78 46 34 48 66 49 46 50 65 51 47 52 50 53 64 54 83 55 48 56
REMARK SMILES IDX 49 57 63 59 84 60 51 61 35 62 36 63 44 64 37 65 38 66 42 67
REMARK SMILES IDX 45 68 39 69 40 70 43 71 41 72 67 73 68 74 76 75 69 76 70 77
REMARK SMILES IDX 74 78 77 79 71 80 72 81 75 82 73 83 52 84 53 85 61 86 54 87
REMARK SMILES IDX 55 88 59 89 62 90 56 91 57 92 60 93 58 94
REMARK H PARENT 18 6 9 17 23 28 82 47 50 58
REMARK Flexibility Score: inf
ROOT
ATOM      1  C   UNL     1      -3.197   3.689   6.884  1.00  0.00     0.023 C 
ENDROOT
BRANCH   1   2
ATOM      2  C   UNL     1      -2.325   3.354   5.686  1.00  0.00     0.116 C 
BRANCH   2   3
ATOM      3  N   UNL     1      -1.034   2.757   5.980  1.00  0.00    -0.352 N 
ATOM      4  C   UNL     1      -0.295   1.864   5.230  1.00  0.00     0.252 C 
ATOM      5  O   UNL     1       0.821   1.532   5.627  1.00  0.00    -0.269 OA
ATOM      6  H   UNL     1      -0.629   3.027   6.836  1.00  0.00     0.163 HD
BRANCH   4   7
ATOM      7  C   UNL     1      -0.866   1.196   4.033  1.00  0.00     0.060 A 
ATOM      8  C   UNL     1      -1.176  -0.870   2.817  1.00  0.00     0.042 A 
ATOM      9  C   UNL     1      -2.202  -0.279   2.094  1.00  0.00     0.028 A 
ATOM     10  C   UNL     1      -0.615  -0.182   3.891  1.00  0.00     0.041 A 
ATOM     11  C   UNL     1      -2.394   1.093   2.174  1.00  0.00     0.023 A 
ATOM     12  C   UNL     1      -1.609   1.844   3.042  1.00  0.00     0.053 A 
ATOM     13  Cl  UNL     1      -1.478   3.531   2.691  1.00  0.00    -0.083 Cl
BRANCH   8  14
ATOM     14  N   UNL     1      -0.679  -2.122   2.450  1.00  0.00    -0.326 N 
ATOM     15  C   UNL     1      -0.255  -2.546   1.216  1.00  0.00     0.230 C 
ATOM     16  O   UNL     1      -0.024  -3.756   1.089  1.00  0.00    -0.274 OA
ATOM     17  H   UNL     1      -0.626  -2.788   3.172  1.00  0.00     0.169 HD
BRANCH  15  18
ATOM     18  C   UNL     1       0.051  -1.610   0.027  1.00  0.00     0.110 C 
ATOM     19  C   UNL     1       2.082  -0.158  -0.472  1.00  0.00     0.039 C 
ATOM     20  C   UNL     1       0.833  -0.348   0.385  1.00  0.00     0.127 C 
ATOM     21  O   UNL     1      -0.042   0.762   0.129  1.00  0.00    -0.378 OA
ATOM     22  C   UNL     1      -0.973   0.373  -0.882  1.00  0.00     0.161 C 
ATOM     23  C   UNL     1      -1.123  -1.135  -0.805  1.00  0.00     0.044 C 
ENDBRANCH  15  18
ENDBRANCH   8  14
ENDBRANCH   4   7
ENDBRANCH   2   3
ENDBRANCH   1   2
BRANCH   1  24
ATOM     24  C   UNL     1      -2.624   4.695   7.875  1.00  0.00     0.023 C 
BRANCH  24  25
ATOM     25  C   UNL     1      -1.950   5.932   7.288  1.00  0.00     0.116 C 
BRANCH  25  26
ATOM     26  N   UNL     1      -2.814   6.747   6.443  1.00  0.00    -0.352 N 
ATOM     27  C   UNL     1      -3.220   8.054   6.580  1.00  0.00     0.251 C 
ATOM     28  H   UNL     1      -3.163   6.287   5.645  1.00  0.00     0.163 HD
ATOM     29  O   UNL     1      -4.004   8.546   5.774  1.00  0.00    -0.269 OA
BRANCH  27  30
ATOM     30  C   UNL     1      -2.763   8.855   7.736  1.00  0.00     0.039 A 
ATOM     31  C   UNL     1      -3.716   9.536   8.498  1.00  0.00     0.014 A 
ATOM     32  C   UNL     1      -1.417   8.890   8.102  1.00  0.00     0.014 A 
ATOM     33  C   UNL     1      -3.338  10.140   9.699  1.00  0.00     0.010 A 
ATOM     34  C   UNL     1      -1.056   9.417   9.338  1.00  0.00     0.010 A 
ATOM     35  C   UNL     1      -2.019  10.021  10.162  1.00  0.00    -0.014 A 
BRANCH  35  36
ATOM     36  C   UNL     1      -1.632  10.463  11.527  1.00  0.00     0.031 A 
ATOM     37  C   UNL     1      -0.597  11.534  11.715  1.00  0.00     0.074 A 
ATOM     38  C   UNL     1      -2.139   9.819  12.599  1.00  0.00     0.049 A 
ATOM     39  N   UNL     1      -0.037  11.958  12.820  1.00  0.00    -0.248 NA
ATOM     40  C   UNL     1      -0.104  12.194  10.497  1.00  0.00     0.031 C 
ATOM     41  C   UNL     1      -3.111   8.725  12.549  1.00  0.00     0.029 A 
ATOM     42  N   UNL     1      -1.890   9.977  13.940  1.00  0.00    -0.354 N 
ATOM     43  C   UNL     1       0.887  12.917  12.428  1.00  0.00     0.074 A 
ATOM     44  C   UNL     1       0.845  12.982  10.983  1.00  0.00     0.031 C 
ATOM     45  C   UNL     1      -3.387   8.322  13.799  1.00  0.00     0.029 A 
ATOM     46  C   UNL     1      -2.581   9.097  14.737  1.00  0.00     0.049 A 
ATOM     47  H   UNL     1      -1.274  10.657  14.297  1.00  0.00     0.167 HD
ATOM     48  C   UNL     1       1.683  13.688  13.207  1.00  0.00     0.037 A 
ATOM     49  C   UNL     1      -2.556   8.920  16.072  1.00  0.00     0.037 A 
ATOM     50  C   UNL     1       1.700  13.645  14.645  1.00  0.00     0.049 A 
ATOM     51  C   UNL     1      -1.657   9.785  16.912  1.00  0.00     0.074 A 
ATOM     52  C   UNL     1       2.413  14.443  15.523  1.00  0.00     0.029 A 
ATOM     53  N   UNL     1       0.972  12.752  15.417  1.00  0.00    -0.354 N 
ATOM     54  N   UNL     1      -0.840  10.737  16.535  1.00  0.00    -0.248 NA
ATOM     55  C   UNL     1      -1.675   9.548  18.362  1.00  0.00     0.031 C 
ATOM     56  C   UNL     1       2.148  14.006  16.825  1.00  0.00     0.029 A 
ATOM     57  C   UNL     1       1.238  12.963  16.760  1.00  0.00     0.049 A 
ATOM     58  H   UNL     1       0.357  12.070  15.062  1.00  0.00     0.167 HD
ATOM     59  C   UNL     1      -0.263  11.226  17.698  1.00  0.00     0.074 A 
ATOM     60  C   UNL     1      -0.834  10.476  18.797  1.00  0.00     0.031 C 
ATOM     61  C   UNL     1       0.660  12.208  17.842  1.00  0.00     0.037 A 
BRANCH  48  62
ATOM     62  C   UNL     1       2.602  14.653  12.516  1.00  0.00     0.064 A 
ATOM     63  C   UNL     1       2.112  15.800  11.874  1.00  0.00     0.173 A 
ATOM     64  C   UNL     1       3.989  14.450  12.530  1.00  0.00     0.173 A 
ATOM     65  F   UNL     1       0.792  16.034  11.823  1.00  0.00    -0.203 F 
ATOM     66  C   UNL     1       2.976  16.693  11.247  1.00  0.00     0.198 A 
ATOM     67  C   UNL     1       4.853  15.360  11.927  1.00  0.00     0.198 A 
ATOM     68  F   UNL     1       4.509  13.372  13.137  1.00  0.00    -0.203 F 
ATOM     69  F   UNL     1       2.482  17.758  10.600  1.00  0.00    -0.200 F 
ATOM     70  C   UNL     1       4.345  16.477  11.279  1.00  0.00     0.200 A 
ATOM     71  F   UNL     1       6.177  15.156  11.969  1.00  0.00    -0.200 F 
ATOM     72  F   UNL     1       5.176  17.341  10.681  1.00  0.00    -0.200 F 
ENDBRANCH  48  62
BRANCH  49  73
ATOM     73  C   UNL     1      -3.421   7.888  16.700  1.00  0.00     0.064 A 
ATOM     74  C   UNL     1      -4.528   8.257  17.476  1.00  0.00     0.173 A 
ATOM     75  C   UNL     1      -3.162   6.519  16.540  1.00  0.00     0.173 A 
ATOM     76  F   UNL     1      -4.803   9.554  17.676  1.00  0.00    -0.203 F 
ATOM     77  C   UNL     1      -5.335   7.296  18.081  1.00  0.00     0.198 A 
ATOM     78  C   UNL     1      -3.985   5.559  17.124  1.00  0.00     0.198 A 
ATOM     79  F   UNL     1      -2.116   6.115  15.803  1.00  0.00    -0.203 F 
ATOM     80  F   UNL     1      -6.364   7.676  18.851  1.00  0.00    -0.200 F 
ATOM     81  C   UNL     1      -5.066   5.947  17.900  1.00  0.00     0.200 A 
ATOM     82  F   UNL     1      -3.729   4.256  16.937  1.00  0.00    -0.200 F 
ATOM     83  F   UNL     1      -5.845   5.023  18.478  1.00  0.00    -0.200 F 
ENDBRANCH  49  73
BRANCH  61  84
ATOM     84  C   UNL     1       1.095  12.543  19.237  1.00  0.00     0.064 A 
ATOM     85  C   UNL     1       1.950  11.698  19.960  1.00  0.00     0.173 A 
ATOM     86  C   UNL     1       0.694  13.746  19.838  1.00  0.00     0.173 A 
ATOM     87  F   UNL     1       2.346  10.530  19.434  1.00  0.00    -0.203 F 
ATOM     88  C   UNL     1       2.375  12.039  21.241  1.00  0.00     0.198 A 
ATOM     89  C   UNL     1       1.141  14.095  21.109  1.00  0.00     0.198 A 
ATOM     90  F   UNL     1      -0.120  14.589  19.186  1.00  0.00    -0.203 F 
ATOM     91  F   UNL     1       3.162  11.200  21.929  1.00  0.00    -0.200 F 
ATOM     92  C   UNL     1       1.978  13.239  21.811  1.00  0.00     0.200 A 
ATOM     93  F   UNL     1       0.766  15.260  21.654  1.00  0.00    -0.200 F 
ATOM     94  F   UNL     1       2.396  13.570  23.040  1.00  0.00    -0.200 F 
ENDBRANCH  61  84
ENDBRANCH  35  36
ENDBRANCH  27  30
ENDBRANCH  25  26
ENDBRANCH  24  25
ENDBRANCH   1  24
TORSDOF 13
