REMARK SMILES O=C(NCCCCNC(=O)c1ccc(-c2ccncc2)cn1)c1ccc(-c2c3nc(c(-c4c(F)c(F)c(F)c(F)c4F)c4ccc([nH]4)c(-c4c(F)c(F)c(F)c(F)c4F)c4nc(c(-c5c(F)c(F)c(F)c(F)c5F)c5ccc2[nH]5)C=C4)C=C3)cc1
REMARK SMILES IDX 5 1 4 2 3 3 1 4 2 5 23 7 24 8 85 9 25 10 84 11 26 12 27 13
REMARK SMILES IDX 28 14 78 15 29 16 83 17 77 18 79 19 30 20 82 21 76 22 75 23
REMARK SMILES IDX 31 25 63 26 43 27 62 28 44 29 47 30 61 31 80 32 45 33 46 34
REMARK SMILES IDX 60 36 81 37 48 38 32 39 33 40 41 41 34 42 35 43 39 44 42 45
REMARK SMILES IDX 36 46 37 47 40 48 38 49 64 50 65 51 73 52 66 53 67 54 71 55
REMARK SMILES IDX 74 56 68 57 69 58 72 59 70 60 49 61 50 62 58 63 51 64 52 65
REMARK SMILES IDX 56 66 59 67 53 68 54 69 57 70 55 71 6 72 7 73 8 74 9 75
REMARK SMILES IDX 10 77 11 78 12 79 22 80 13 81 21 82 14 83 15 84 16 85 20 86
REMARK SMILES IDX 17 87 19 88 18 89
REMARK H PARENT 3 6 79 24 47 35 8 76
REMARK Flexibility Score: inf
ROOT
ATOM      1  C   UNL     1       4.869  -1.489   2.103  1.00  0.00     0.023 C 
ENDROOT
BRANCH   1   2
ATOM      2  C   UNL     1       4.540  -1.067   0.676  1.00  0.00     0.116 C 
BRANCH   2   3
ATOM      3  N   UNL     1       3.110  -1.007   0.415  1.00  0.00    -0.352 N 
ATOM      4  O   UNL     1       1.119  -0.057  -0.051  1.00  0.00    -0.269 OA
ATOM      5  C   UNL     1       2.342   0.047  -0.016  1.00  0.00     0.251 C 
ATOM      6  H   UNL     1       2.621  -1.847   0.571  1.00  0.00     0.163 HD
BRANCH   5   7
ATOM      7  C   UNL     1       2.983   1.320  -0.410  1.00  0.00     0.039 A 
ATOM      8  C   UNL     1       4.111   1.331  -1.232  1.00  0.00     0.014 A 
ATOM      9  C   UNL     1       2.441   2.522   0.053  1.00  0.00     0.014 A 
ATOM     10  C   UNL     1       4.785   2.525  -1.465  1.00  0.00     0.010 A 
ATOM     11  C   UNL     1       3.072   3.731  -0.252  1.00  0.00     0.010 A 
ATOM     12  C   UNL     1       4.270   3.739  -0.983  1.00  0.00    -0.014 A 
BRANCH  12  13
ATOM     13  C   UNL     1       4.975   5.009  -1.288  1.00  0.00     0.031 A 
ATOM     14  C   UNL     1       5.592   5.834  -0.194  1.00  0.00     0.074 A 
ATOM     15  C   UNL     1       5.066   5.410  -2.570  1.00  0.00     0.049 A 
ATOM     16  N   UNL     1       6.228   6.976  -0.279  1.00  0.00    -0.248 NA
ATOM     17  C   UNL     1       5.474   5.316   1.177  1.00  0.00     0.031 C 
ATOM     18  C   UNL     1       4.502   4.696  -3.716  1.00  0.00     0.029 A 
ATOM     19  N   UNL     1       5.672   6.508  -3.126  1.00  0.00    -0.354 N 
ATOM     20  C   UNL     1       6.568   7.322   1.022  1.00  0.00     0.074 A 
ATOM     21  C   UNL     1       6.046   6.282   1.883  1.00  0.00     0.031 C 
ATOM     22  C   UNL     1       4.814   5.355  -4.841  1.00  0.00     0.029 A 
ATOM     23  C   UNL     1       5.548   6.566  -4.492  1.00  0.00     0.049 A 
ATOM     24  H   UNL     1       6.149   7.188  -2.597  1.00  0.00     0.167 HD
ATOM     25  C   UNL     1       7.258   8.405   1.455  1.00  0.00     0.037 A 
ATOM     26  C   UNL     1       5.960   7.502  -5.367  1.00  0.00     0.037 A 
ATOM     27  C   UNL     1       7.790   9.429   0.591  1.00  0.00     0.049 A 
ATOM     28  C   UNL     1       6.701   8.704  -4.857  1.00  0.00     0.074 A 
ATOM     29  C   UNL     1       8.536  10.544   0.930  1.00  0.00     0.029 A 
ATOM     30  N   UNL     1       7.626   9.463  -0.787  1.00  0.00    -0.354 N 
ATOM     31  N   UNL     1       7.042   9.004  -3.628  1.00  0.00    -0.248 NA
ATOM     32  C   UNL     1       7.112   9.699  -5.856  1.00  0.00     0.031 C 
ATOM     33  C   UNL     1       8.784  11.278  -0.235  1.00  0.00     0.029 A 
ATOM     34  C   UNL     1       8.237  10.594  -1.308  1.00  0.00     0.049 A 
ATOM     35  H   UNL     1       7.147   8.785  -1.316  1.00  0.00     0.167 HD
ATOM     36  C   UNL     1       7.723  10.210  -3.706  1.00  0.00     0.074 A 
ATOM     37  C   UNL     1       7.761  10.578  -5.106  1.00  0.00     0.031 C 
ATOM     38  C   UNL     1       8.267  10.945  -2.705  1.00  0.00     0.037 A 
BRANCH  25  39
ATOM     39  C   UNL     1       7.465   8.553   2.935  1.00  0.00     0.064 A 
ATOM     40  C   UNL     1       8.344   7.723   3.646  1.00  0.00     0.173 A 
ATOM     41  C   UNL     1       6.805   9.569   3.646  1.00  0.00     0.173 A 
ATOM     42  F   UNL     1       8.992   6.731   3.018  1.00  0.00    -0.203 F 
ATOM     43  C   UNL     1       8.535   7.886   5.016  1.00  0.00     0.198 A 
ATOM     44  C   UNL     1       7.019   9.747   5.010  1.00  0.00     0.198 A 
ATOM     45  F   UNL     1       5.959  10.396   3.013  1.00  0.00    -0.203 F 
ATOM     46  F   UNL     1       9.346   7.053   5.683  1.00  0.00    -0.200 F 
ATOM     47  C   UNL     1       7.878   8.902   5.696  1.00  0.00     0.200 A 
ATOM     48  F   UNL     1       6.393  10.736   5.662  1.00  0.00    -0.200 F 
ATOM     49  F   UNL     1       8.067   9.061   7.013  1.00  0.00    -0.200 F 
ENDBRANCH  25  39
BRANCH  26  50
ATOM     50  C   UNL     1       5.674   7.327  -6.812  1.00  0.00     0.064 A 
ATOM     51  C   UNL     1       6.701   7.044  -7.722  1.00  0.00     0.173 A 
ATOM     52  C   UNL     1       4.364   7.409  -7.308  1.00  0.00     0.173 A 
ATOM     53  F   UNL     1       7.971   6.974  -7.297  1.00  0.00    -0.203 F 
ATOM     54  C   UNL     1       6.430   6.859  -9.076  1.00  0.00     0.198 A 
ATOM     55  C   UNL     1       4.091   7.195  -8.657  1.00  0.00     0.198 A 
ATOM     56  F   UNL     1       3.346   7.671  -6.475  1.00  0.00    -0.203 F 
ATOM     57  F   UNL     1       7.434   6.622  -9.931  1.00  0.00    -0.200 F 
ATOM     58  C   UNL     1       5.124   6.926  -9.540  1.00  0.00     0.200 A 
ATOM     59  F   UNL     1       2.826   7.243  -9.098  1.00  0.00    -0.200 F 
ATOM     60  F   UNL     1       4.863   6.734 -10.840  1.00  0.00    -0.200 F 
ENDBRANCH  26  50
BRANCH  38  61
ATOM     61  C   UNL     1       8.976  12.209  -3.095  1.00  0.00     0.064 A 
ATOM     62  C   UNL     1       8.274  13.347  -3.516  1.00  0.00     0.173 A 
ATOM     63  C   UNL     1      10.375  12.290  -3.015  1.00  0.00     0.173 A 
ATOM     64  F   UNL     1       6.937  13.313  -3.626  1.00  0.00    -0.203 F 
ATOM     65  C   UNL     1       8.948  14.514  -3.866  1.00  0.00     0.198 A 
ATOM     66  C   UNL     1      11.043  13.467  -3.338  1.00  0.00     0.198 A 
ATOM     67  F   UNL     1      11.092  11.230  -2.614  1.00  0.00    -0.203 F 
ATOM     68  F   UNL     1       8.260  15.575  -4.310  1.00  0.00    -0.200 F 
ATOM     69  C   UNL     1      10.330  14.575  -3.770  1.00  0.00     0.200 A 
ATOM     70  F   UNL     1      12.378  13.528  -3.235  1.00  0.00    -0.200 F 
ATOM     71  F   UNL     1      10.976  15.701  -4.102  1.00  0.00    -0.200 F 
ENDBRANCH  38  61
ENDBRANCH  12  13
ENDBRANCH   5   7
ENDBRANCH   2   3
ENDBRANCH   1   2
BRANCH   1  72
ATOM     72  C   UNL     1       4.392  -2.885   2.499  1.00  0.00     0.023 C 
BRANCH  72  73
ATOM     73  C   UNL     1       4.797  -4.008   1.551  1.00  0.00     0.116 C 
BRANCH  73  74
ATOM     74  N   UNL     1       6.237  -4.127   1.396  1.00  0.00    -0.351 N 
ATOM     75  C   UNL     1       7.024  -5.250   1.544  1.00  0.00     0.269 C 
ATOM     76  H   UNL     1       6.712  -3.299   1.155  1.00  0.00     0.163 HD
ATOM     77  O   UNL     1       8.241  -5.166   1.412  1.00  0.00    -0.268 OA
BRANCH  75  78
ATOM     78  C   UNL     1       6.371  -6.553   1.838  1.00  0.00     0.128 A 
ATOM     79  C   UNL     1       5.492  -7.099   0.912  1.00  0.00     0.035 A 
ATOM     80  N   UNL     1       6.620  -7.092   3.054  1.00  0.00    -0.250 NA
ATOM     81  C   UNL     1       4.786  -8.243   1.277  1.00  0.00     0.013 A 
ATOM     82  C   UNL     1       5.938  -8.220   3.359  1.00  0.00     0.120 A 
ATOM     83  C   UNL     1       4.990  -8.831   2.534  1.00  0.00     0.000 A 
BRANCH  83  84
ATOM     84  C   UNL     1       4.222 -10.007   2.966  1.00  0.00    -0.014 A 
ATOM     85  C   UNL     1       4.063 -11.120   2.130  1.00  0.00     0.029 A 
ATOM     86  C   UNL     1       3.599 -10.045   4.220  1.00  0.00     0.029 A 
ATOM     87  C   UNL     1       3.305 -12.193   2.573  1.00  0.00     0.111 A 
ATOM     88  C   UNL     1       2.859 -11.163   4.574  1.00  0.00     0.111 A 
ATOM     89  N   UNL     1       2.698 -12.237   3.776  1.00  0.00    -0.265 NA
ENDBRANCH  83  84
ENDBRANCH  75  78
ENDBRANCH  73  74
ENDBRANCH  72  73
ENDBRANCH   1  72
TORSDOF 12
