REMARK SMILES Cc1cc(F)cc(-n2nc(C(=O)NCCCCNC(=O)c3ccc(-c4c5nc(c(-c6c(F)c(F)c(F)c(F)c6F)c6ccc([nH]6)c(-c6c(F)c(F)c(F)c(F)c6F)c6nc(c(-c7c(F)c(F)c(F)c(F)c7F)c7ccc4[nH]7)C=C6)C=C5)cc3)c3c2CC[C@H](C)C3)c1
REMARK SMILES IDX 16 1 15 2 14 3 13 4 11 5 12 6 10 8 8 9 9 10 85 11 84 12
REMARK SMILES IDX 86 13 90 14 87 15 88 16 89 17 7 18 1 19 2 20 3 21 91 22 4 23
REMARK SMILES IDX 5 24 6 25 17 26 18 27 19 28 20 30 21 31 22 32 83 33 23 34
REMARK SMILES IDX 82 35 24 36 25 37 26 38 76 39 27 40 81 41 75 42 77 43 28 44
REMARK SMILES IDX 80 45 74 46 73 47 29 49 61 50 41 51 60 52 42 53 45 54 59 55
REMARK SMILES IDX 78 56 43 57 44 58 58 60 79 61 46 62 30 63 31 64 39 65 32 66
REMARK SMILES IDX 33 67 37 68 40 69 34 70 35 71 38 72 36 73 62 74 63 75 71 76
REMARK SMILES IDX 64 77 65 78 69 79 72 80 66 81 67 82 70 83 68 84 47 85 48 86
REMARK SMILES IDX 56 87 49 88 50 89 54 90 57 91 51 92 52 93 55 94 53 95
REMARK H PARENT 13 7 18 29 77 48 45 59
REMARK Flexibility Score: inf
ROOT
ATOM      1  C   UNL     1       2.426 -10.278  -1.096  1.00  0.00     0.023 C 
ENDROOT
BRANCH   1   2
ATOM      2  C   UNL     1       1.725  -8.922  -0.995  1.00  0.00     0.023 C 
BRANCH   2   3
ATOM      3  C   UNL     1       0.975  -8.645   0.316  1.00  0.00     0.116 C 
BRANCH   3   4
ATOM      4  N   UNL     1       1.634  -7.640   1.119  1.00  0.00    -0.351 N 
ATOM      5  C   UNL     1       1.648  -6.266   1.183  1.00  0.00     0.272 C 
ATOM      6  O   UNL     1       2.381  -5.847   2.090  1.00  0.00    -0.267 OA
ATOM      7  H   UNL     1       2.226  -8.043   1.795  1.00  0.00     0.163 HD
BRANCH   5   8
ATOM      8  C   UNL     1       0.881  -5.317   0.320  1.00  0.00     0.154 A 
ATOM      9  N   UNL     1       0.196  -3.317  -0.194  1.00  0.00    -0.237 N 
ATOM     10  N   UNL     1       1.045  -4.002   0.592  1.00  0.00    -0.162 NA
ATOM     11  C   UNL     1      -0.452  -4.149  -1.072  1.00  0.00     0.048 A 
ATOM     12  C   UNL     1       0.014  -5.426  -0.813  1.00  0.00     0.007 A 
ATOM     13  C   UNL     1      -1.295  -3.750  -2.241  1.00  0.00     0.057 C 
ATOM     14  C   UNL     1      -0.364  -6.551  -1.693  1.00  0.00     0.043 C 
ATOM     15  C   UNL     1      -1.986  -4.982  -2.850  1.00  0.00     0.010 C 
ATOM     16  C   UNL     1      -1.001  -6.144  -3.033  1.00  0.00    -0.009 C 
ATOM     17  C   UNL     1      -1.668  -7.369  -3.661  1.00  0.00     0.008 C 
BRANCH   9  18
ATOM     18  C   UNL     1       0.128  -1.908  -0.101  1.00  0.00     0.068 A 
ATOM     19  C   UNL     1       2.548   1.029   0.154  1.00  0.00     0.044 C 
ATOM     20  C   UNL     1       1.283   0.226   0.078  1.00  0.00    -0.046 A 
ATOM     21  C   UNL     1       0.047   0.878   0.001  1.00  0.00     0.042 A 
ATOM     22  C   UNL     1       1.315  -1.176   0.067  1.00  0.00     0.032 A 
ATOM     23  C   UNL     1      -1.126   0.138  -0.113  1.00  0.00     0.125 A 
ATOM     24  F   UNL     1      -2.304   0.773  -0.160  1.00  0.00    -0.207 F 
ATOM     25  C   UNL     1      -1.100  -1.248  -0.180  1.00  0.00     0.067 A 
ENDBRANCH   9  18
ENDBRANCH   5   8
ENDBRANCH   3   4
ENDBRANCH   2   3
ENDBRANCH   1   2
BRANCH   1  26
ATOM     26  C   UNL     1       1.430 -11.403  -1.336  1.00  0.00     0.116 C 
BRANCH  26  27
ATOM     27  N   UNL     1       0.776 -11.333  -2.652  1.00  0.00    -0.352 N 
ATOM     28  C   UNL     1      -0.148 -12.218  -3.187  1.00  0.00     0.251 C 
ATOM     29  H   UNL     1       1.024 -10.568  -3.221  1.00  0.00     0.163 HD
ATOM     30  O   UNL     1      -0.423 -12.239  -4.373  1.00  0.00    -0.269 OA
BRANCH  28  31
ATOM     31  C   UNL     1      -0.825 -13.116  -2.244  1.00  0.00     0.039 A 
ATOM     32  C   UNL     1      -0.972 -14.492  -2.464  1.00  0.00     0.014 A 
ATOM     33  C   UNL     1      -1.253 -12.519  -1.067  1.00  0.00     0.014 A 
ATOM     34  C   UNL     1      -1.497 -15.283  -1.443  1.00  0.00     0.010 A 
ATOM     35  C   UNL     1      -1.536 -13.311  -0.003  1.00  0.00     0.010 A 
ATOM     36  C   UNL     1      -1.757 -14.675  -0.215  1.00  0.00    -0.014 A 
BRANCH  36  37
ATOM     37  C   UNL     1      -2.414 -15.289   0.921  1.00  0.00     0.031 A 
ATOM     38  C   UNL     1      -1.702 -16.226   1.794  1.00  0.00     0.074 A 
ATOM     39  C   UNL     1      -3.585 -14.690   1.238  1.00  0.00     0.049 A 
ATOM     40  N   UNL     1      -2.286 -17.048   2.589  1.00  0.00    -0.248 NA
ATOM     41  C   UNL     1      -0.247 -16.320   1.841  1.00  0.00     0.031 C 
ATOM     42  C   UNL     1      -4.336 -14.673   2.478  1.00  0.00     0.029 A 
ATOM     43  N   UNL     1      -4.377 -13.931   0.355  1.00  0.00    -0.354 N 
ATOM     44  C   UNL     1      -1.335 -17.504   3.479  1.00  0.00     0.074 A 
ATOM     45  C   UNL     1      -0.070 -17.144   2.883  1.00  0.00     0.031 C 
ATOM     46  C   UNL     1      -5.585 -14.239   2.213  1.00  0.00     0.029 A 
ATOM     47  C   UNL     1      -5.702 -14.099   0.767  1.00  0.00     0.049 A 
ATOM     48  H   UNL     1      -4.059 -13.388  -0.402  1.00  0.00     0.167 HD
ATOM     49  C   UNL     1      -1.760 -17.950   4.699  1.00  0.00     0.037 A 
ATOM     50  C   UNL     1      -6.524 -14.830  -0.045  1.00  0.00     0.037 A 
ATOM     51  C   UNL     1      -3.219 -17.834   4.777  1.00  0.00     0.049 A 
ATOM     52  C   UNL     1      -6.887 -16.134   0.613  1.00  0.00     0.074 A 
ATOM     53  C   UNL     1      -4.029 -16.851   5.322  1.00  0.00     0.029 A 
ATOM     54  N   UNL     1      -4.022 -18.579   3.918  1.00  0.00    -0.354 N 
ATOM     55  N   UNL     1      -6.116 -16.767   1.456  1.00  0.00    -0.248 NA
ATOM     56  C   UNL     1      -8.189 -16.763   0.444  1.00  0.00     0.031 C 
ATOM     57  C   UNL     1      -5.309 -16.959   4.722  1.00  0.00     0.029 A 
ATOM     58  C   UNL     1      -5.281 -18.014   3.824  1.00  0.00     0.049 A 
ATOM     59  H   UNL     1      -3.735 -19.393   3.445  1.00  0.00     0.167 HD
ATOM     60  C   UNL     1      -6.812 -17.814   1.995  1.00  0.00     0.074 A 
ATOM     61  C   UNL     1      -8.096 -17.782   1.314  1.00  0.00     0.031 C 
ATOM     62  C   UNL     1      -6.314 -18.607   2.990  1.00  0.00     0.037 A 
BRANCH  49  63
ATOM     63  C   UNL     1      -0.896 -18.168   5.931  1.00  0.00     0.064 A 
ATOM     64  C   UNL     1      -1.472 -18.126   7.224  1.00  0.00     0.173 A 
ATOM     65  C   UNL     1       0.493 -18.395   5.925  1.00  0.00     0.173 A 
ATOM     66  F   UNL     1      -2.796 -18.018   7.401  1.00  0.00    -0.203 F 
ATOM     67  C   UNL     1      -0.716 -18.200   8.398  1.00  0.00     0.198 A 
ATOM     68  C   UNL     1       1.256 -18.442   7.101  1.00  0.00     0.198 A 
ATOM     69  F   UNL     1       1.159 -18.636   4.792  1.00  0.00    -0.203 F 
ATOM     70  F   UNL     1      -1.329 -18.135   9.589  1.00  0.00    -0.200 F 
ATOM     71  C   UNL     1       0.653 -18.334   8.337  1.00  0.00     0.200 A 
ATOM     72  F   UNL     1       2.585 -18.601   7.024  1.00  0.00    -0.200 F 
ATOM     73  F   UNL     1       1.382 -18.386   9.460  1.00  0.00    -0.200 F 
ENDBRANCH  49  63
BRANCH  50  74
ATOM     74  C   UNL     1      -6.212 -14.613  -1.496  1.00  0.00     0.064 A 
ATOM     75  C   UNL     1      -6.412 -13.310  -2.004  1.00  0.00     0.173 A 
ATOM     76  C   UNL     1      -5.339 -15.447  -2.211  1.00  0.00     0.173 A 
ATOM     77  F   UNL     1      -7.239 -12.466  -1.365  1.00  0.00    -0.203 F 
ATOM     78  C   UNL     1      -5.663 -12.818  -3.072  1.00  0.00     0.198 A 
ATOM     79  C   UNL     1      -4.605 -14.955  -3.298  1.00  0.00     0.198 A 
ATOM     80  F   UNL     1      -5.102 -16.698  -1.794  1.00  0.00    -0.203 F 
ATOM     81  F   UNL     1      -5.780 -11.531  -3.434  1.00  0.00    -0.200 F 
ATOM     82  C   UNL     1      -4.736 -13.632  -3.698  1.00  0.00     0.200 A 
ATOM     83  F   UNL     1      -3.707 -15.741  -3.910  1.00  0.00    -0.200 F 
ATOM     84  F   UNL     1      -3.947 -13.131  -4.660  1.00  0.00    -0.200 F 
ENDBRANCH  50  74
BRANCH  62  85
ATOM     85  C   UNL     1      -6.862 -19.960   3.364  1.00  0.00     0.064 A 
ATOM     86  C   UNL     1      -7.594 -20.767   2.478  1.00  0.00     0.173 A 
ATOM     87  C   UNL     1      -6.528 -20.564   4.601  1.00  0.00     0.173 A 
ATOM     88  F   UNL     1      -7.838 -20.381   1.218  1.00  0.00    -0.203 F 
ATOM     89  C   UNL     1      -8.051 -22.033   2.839  1.00  0.00     0.198 A 
ATOM     90  C   UNL     1      -6.919 -21.859   4.927  1.00  0.00     0.198 A 
ATOM     91  F   UNL     1      -5.782 -19.933   5.520  1.00  0.00    -0.203 F 
ATOM     92  F   UNL     1      -8.808 -22.731   1.980  1.00  0.00    -0.200 F 
ATOM     93  C   UNL     1      -7.707 -22.583   4.058  1.00  0.00     0.200 A 
ATOM     94  F   UNL     1      -6.510 -22.406   6.080  1.00  0.00    -0.200 F 
ATOM     95  F   UNL     1      -8.112 -23.817   4.384  1.00  0.00    -0.200 F 
ENDBRANCH  62  85
ENDBRANCH  36  37
ENDBRANCH  28  31
ENDBRANCH  26  27
ENDBRANCH   1  26
TORSDOF 12
