REMARK SMILES O=C(NCCCCNC(=O)[C@H]1CC[C@@H](C[NH2+][C@H]2CCC[C@H](C3CC3)C2)CC1)c1ccc(-c2c3nc(c(-c4c(F)c(F)c(F)c(F)c4F)c4ccc([nH]4)c(-c4c(F)c(F)c(F)c(F)c4F)c4nc(c(-c5c(F)c(F)c(F)c(F)c5F)c5ccc2[nH]5)C=C4)C=C3)cc1
REMARK SMILES IDX 6 1 5 2 4 3 3 4 1 5 2 6 28 8 29 9 90 10 30 11 89 12 31 13
REMARK SMILES IDX 32 14 33 15 83 16 34 17 88 18 82 19 84 20 35 21 87 22 81 23
REMARK SMILES IDX 80 24 36 26 68 27 48 28 67 29 49 30 52 31 66 32 85 33 50 34
REMARK SMILES IDX 51 35 65 37 86 38 53 39 37 40 38 41 46 42 39 43 40 44 44 45
REMARK SMILES IDX 47 46 41 47 42 48 45 49 43 50 69 51 70 52 78 53 71 54 72 55
REMARK SMILES IDX 76 56 79 57 73 58 74 59 77 60 75 61 54 62 55 63 63 64 56 65
REMARK SMILES IDX 57 66 61 67 64 68 58 69 59 70 62 71 60 72 7 73 8 74 9 75
REMARK SMILES IDX 10 77 11 78 27 79 12 80 26 81 13 82 14 83 15 84 16 85 17 88
REMARK SMILES IDX 18 89 25 90 19 91 21 92 20 93 22 94 23 95 24 96
REMARK H PARENT 3 7 84 25 52 36 8 76 16 86 16 87
REMARK Flexibility Score: inf
ROOT
ATOM      1  C   UNL     1       7.509  -4.848   2.064  1.00  0.00     0.023 C 
ENDROOT
BRANCH   1   2
ATOM      2  C   UNL     1       6.166  -5.510   1.758  1.00  0.00     0.023 C 
BRANCH   2   3
ATOM      3  C   UNL     1       5.295  -4.764   0.755  1.00  0.00     0.116 C 
BRANCH   3   4
ATOM      4  N   UNL     1       5.953  -4.569  -0.528  1.00  0.00    -0.352 N 
ATOM      5  O   UNL     1       6.214  -4.743  -2.764  1.00  0.00    -0.269 OA
ATOM      6  C   UNL     1       5.476  -4.831  -1.788  1.00  0.00     0.251 C 
ATOM      7  H   UNL     1       6.864  -4.200  -0.487  1.00  0.00     0.163 HD
BRANCH   6   8
ATOM      8  C   UNL     1       4.071  -5.249  -1.956  1.00  0.00     0.039 A 
ATOM      9  C   UNL     1       3.042  -4.551  -1.318  1.00  0.00     0.014 A 
ATOM     10  C   UNL     1       3.786  -6.358  -2.756  1.00  0.00     0.014 A 
ATOM     11  C   UNL     1       1.741  -5.036  -1.377  1.00  0.00     0.010 A 
ATOM     12  C   UNL     1       2.468  -6.798  -2.877  1.00  0.00     0.010 A 
ATOM     13  C   UNL     1       1.440  -6.155  -2.169  1.00  0.00    -0.014 A 
BRANCH  13  14
ATOM     14  C   UNL     1       0.034  -6.601  -2.305  1.00  0.00     0.031 A 
ATOM     15  C   UNL     1      -0.409  -7.938  -1.788  1.00  0.00     0.074 A 
ATOM     16  C   UNL     1      -0.842  -5.787  -2.923  1.00  0.00     0.049 A 
ATOM     17  N   UNL     1      -1.586  -8.504  -1.867  1.00  0.00    -0.248 NA
ATOM     18  C   UNL     1       0.605  -8.752  -1.102  1.00  0.00     0.031 C 
ATOM     19  C   UNL     1      -0.515  -4.473  -3.481  1.00  0.00     0.029 A 
ATOM     20  N   UNL     1      -2.176  -5.942  -3.193  1.00  0.00    -0.354 N 
ATOM     21  C   UNL     1      -1.452  -9.747  -1.263  1.00  0.00     0.074 A 
ATOM     22  C   UNL     1      -0.071  -9.863  -0.842  1.00  0.00     0.031 C 
ATOM     23  C   UNL     1      -1.619  -3.937  -4.016  1.00  0.00     0.029 A 
ATOM     24  C   UNL     1      -2.715  -4.892  -3.892  1.00  0.00     0.049 A 
ATOM     25  H   UNL     1      -2.696  -6.730  -2.914  1.00  0.00     0.167 HD
ATOM     26  C   UNL     1      -2.399 -10.698  -1.075  1.00  0.00     0.037 A 
ATOM     27  C   UNL     1      -3.946  -4.727  -4.408  1.00  0.00     0.037 A 
ATOM     28  C   UNL     1      -3.773 -10.563  -1.488  1.00  0.00     0.049 A 
ATOM     29  C   UNL     1      -4.972  -5.803  -4.205  1.00  0.00     0.074 A 
ATOM     30  C   UNL     1      -4.824 -11.442  -1.290  1.00  0.00     0.029 A 
ATOM     31  N   UNL     1      -4.284  -9.484  -2.197  1.00  0.00    -0.354 N 
ATOM     32  N   UNL     1      -4.849  -6.951  -3.585  1.00  0.00    -0.248 NA
ATOM     33  C   UNL     1      -6.305  -5.562  -4.770  1.00  0.00     0.031 C 
ATOM     34  C   UNL     1      -5.956 -10.920  -1.925  1.00  0.00     0.029 A 
ATOM     35  C   UNL     1      -5.627  -9.691  -2.473  1.00  0.00     0.049 A 
ATOM     36  H   UNL     1      -3.768  -8.689  -2.464  1.00  0.00     0.167 HD
ATOM     37  C   UNL     1      -6.089  -7.566  -3.672  1.00  0.00     0.074 A 
ATOM     38  C   UNL     1      -6.956  -6.654  -4.393  1.00  0.00     0.031 C 
ATOM     39  C   UNL     1      -6.473  -8.775  -3.197  1.00  0.00     0.037 A 
BRANCH  26  40
ATOM     40  C   UNL     1      -1.976 -11.980  -0.418  1.00  0.00     0.064 A 
ATOM     41  C   UNL     1      -1.634 -12.040   0.941  1.00  0.00     0.173 A 
ATOM     42  C   UNL     1      -1.940 -13.175  -1.155  1.00  0.00     0.173 A 
ATOM     43  F   UNL     1      -1.644 -10.927   1.690  1.00  0.00    -0.203 F 
ATOM     44  C   UNL     1      -1.240 -13.240   1.530  1.00  0.00     0.198 A 
ATOM     45  C   UNL     1      -1.574 -14.378  -0.556  1.00  0.00     0.198 A 
ATOM     46  F   UNL     1      -2.264 -13.177  -2.456  1.00  0.00    -0.203 F 
ATOM     47  F   UNL     1      -0.869 -13.262   2.817  1.00  0.00    -0.200 F 
ATOM     48  C   UNL     1      -1.215 -14.408   0.783  1.00  0.00     0.200 A 
ATOM     49  F   UNL     1      -1.563 -15.507  -1.277  1.00  0.00    -0.200 F 
ATOM     50  F   UNL     1      -0.837 -15.561   1.351  1.00  0.00    -0.200 F 
ENDBRANCH  26  40
BRANCH  27  51
ATOM     51  C   UNL     1      -4.248  -3.494  -5.176  1.00  0.00     0.064 A 
ATOM     52  C   UNL     1      -5.081  -2.499  -4.651  1.00  0.00     0.173 A 
ATOM     53  C   UNL     1      -3.657  -3.261  -6.428  1.00  0.00     0.173 A 
ATOM     54  F   UNL     1      -5.679  -2.684  -3.464  1.00  0.00    -0.203 F 
ATOM     55  C   UNL     1      -5.315  -1.317  -5.350  1.00  0.00     0.198 A 
ATOM     56  C   UNL     1      -3.869  -2.068  -7.112  1.00  0.00     0.198 A 
ATOM     57  F   UNL     1      -2.842  -4.180  -6.967  1.00  0.00    -0.203 F 
ATOM     58  F   UNL     1      -6.135  -0.390  -4.837  1.00  0.00    -0.200 F 
ATOM     59  C   UNL     1      -4.701  -1.098  -6.575  1.00  0.00     0.200 A 
ATOM     60  F   UNL     1      -3.257  -1.852  -8.285  1.00  0.00    -0.200 F 
ATOM     61  F   UNL     1      -4.911   0.048  -7.236  1.00  0.00    -0.200 F 
ENDBRANCH  27  51
BRANCH  39  62
ATOM     62  C   UNL     1      -7.900  -9.179  -3.424  1.00  0.00     0.064 A 
ATOM     63  C   UNL     1      -8.359  -9.571  -4.690  1.00  0.00     0.173 A 
ATOM     64  C   UNL     1      -8.805  -9.220  -2.353  1.00  0.00     0.173 A 
ATOM     65  F   UNL     1      -7.536  -9.531  -5.749  1.00  0.00    -0.203 F 
ATOM     66  C   UNL     1      -9.677  -9.977  -4.878  1.00  0.00     0.198 A 
ATOM     67  C   UNL     1     -10.115  -9.652  -2.539  1.00  0.00     0.198 A 
ATOM     68  F   UNL     1      -8.414  -8.857  -1.123  1.00  0.00    -0.203 F 
ATOM     69  F   UNL     1     -10.106 -10.312  -6.103  1.00  0.00    -0.200 F 
ATOM     70  C   UNL     1     -10.551 -10.025  -3.801  1.00  0.00     0.200 A 
ATOM     71  F   UNL     1     -10.954  -9.710  -1.496  1.00  0.00    -0.200 F 
ATOM     72  F   UNL     1     -11.817 -10.427  -3.982  1.00  0.00    -0.200 F 
ENDBRANCH  39  62
ENDBRANCH  13  14
ENDBRANCH   6   8
ENDBRANCH   3   4
ENDBRANCH   2   3
ENDBRANCH   1   2
BRANCH   1  73
ATOM     73  C   UNL     1       7.412  -3.376   2.452  1.00  0.00     0.116 C 
BRANCH  73  74
ATOM     74  N   UNL     1       6.655  -3.195   3.676  1.00  0.00    -0.356 N 
ATOM     75  C   UNL     1       7.051  -2.739   4.894  1.00  0.00     0.223 C 
ATOM     76  H   UNL     1       5.704  -3.442   3.615  1.00  0.00     0.163 HD
ATOM     77  O   UNL     1       6.217  -2.708   5.801  1.00  0.00    -0.275 OA
BRANCH  75  78
ATOM     78  C   UNL     1       8.489  -2.306   5.109  1.00  0.00     0.078 C 
ATOM     79  C   UNL     1       8.521  -0.890   5.697  1.00  0.00     0.014 C 
ATOM     80  C   UNL     1       9.202  -3.332   5.995  1.00  0.00     0.014 C 
ATOM     81  C   UNL     1       9.945  -0.467   6.056  1.00  0.00     0.010 C 
ATOM     82  C   UNL     1      10.620  -2.871   6.316  1.00  0.00     0.010 C 
ATOM     83  C   UNL     1      10.643  -1.482   6.981  1.00  0.00     0.044 C 
BRANCH  83  84
ATOM     84  C   UNL     1      10.003  -1.442   8.389  1.00  0.00     0.264 C 
BRANCH  84  85
ATOM     85  N   UNL     1      10.626  -2.403   9.297  1.00  0.00    -0.344 N 
ATOM     86  H   UNL     1      11.610  -2.158   9.408  1.00  0.00     0.346 HD
ATOM     87  H   UNL     1      10.512  -3.331   8.889  1.00  0.00     0.346 HD
BRANCH  85  88
ATOM     88  C   UNL     1       9.993  -2.422  10.627  1.00  0.00     0.182 C 
ATOM     89  C   UNL     1      10.441  -3.696  11.361  1.00  0.00     0.065 C 
ATOM     90  C   UNL     1      10.364  -1.193  11.472  1.00  0.00     0.069 C 
ATOM     91  C   UNL     1      11.933  -3.678  11.689  1.00  0.00     0.006 C 
ATOM     92  C   UNL     1      11.869  -1.129  11.806  1.00  0.00    -0.002 C 
ATOM     93  C   UNL     1      12.311  -2.434  12.490  1.00  0.00     0.004 C 
BRANCH  92  94
ATOM     94  C   UNL     1      12.163   0.130  12.602  1.00  0.00    -0.008 C 
ATOM     95  C   UNL     1      12.620   0.141  14.041  1.00  0.00     0.004 C 
ATOM     96  C   UNL     1      13.587   0.493  12.946  1.00  0.00     0.004 C 
ENDBRANCH  92  94
ENDBRANCH  85  88
ENDBRANCH  84  85
ENDBRANCH  83  84
ENDBRANCH  75  78
ENDBRANCH  73  74
ENDBRANCH   1  73
TORSDOF 15
