REMARK SMILES O=C(NCCCCNC(=O)C1CCN(S(=O)(=O)c2ccc3nc(O)sc3c2)CC1)c1ccc(-c2c3nc(c(-c4c(F)c(F)c(F)c(F)c4F)c4ccc([nH]4)c(-c4c(F)c(F)c(F)c(F)c4F)c4nc(c(-c5c(F)c(F)c(F)c(F)c5F)c5ccc2[nH]5)C=C4)C=C3)cc1
REMARK SMILES IDX 6 1 5 2 4 3 3 4 1 5 2 6 30 8 31 9 92 10 32 11 91 12 33 13
REMARK SMILES IDX 34 14 35 15 85 16 36 17 90 18 84 19 86 20 37 21 89 22 83 23
REMARK SMILES IDX 82 24 38 26 70 27 50 28 69 29 51 30 54 31 68 32 87 33 52 34
REMARK SMILES IDX 53 35 67 37 88 38 55 39 39 40 40 41 48 42 41 43 42 44 46 45
REMARK SMILES IDX 49 46 43 47 44 48 47 49 45 50 71 51 72 52 80 53 73 54 74 55
REMARK SMILES IDX 78 56 81 57 75 58 76 59 79 60 77 61 56 62 57 63 65 64 58 65
REMARK SMILES IDX 59 66 63 67 66 68 60 69 61 70 64 71 62 72 7 73 8 74 9 75
REMARK SMILES IDX 10 77 11 78 12 79 29 80 13 81 28 82 14 83 15 84 16 85 17 86
REMARK SMILES IDX 18 87 19 88 27 89 20 90 26 91 21 92 25 93 22 94 23 95 24 96
REMARK H PARENT 3 7 86 25 54 36 8 76 24 97
REMARK Flexibility Score: inf
ROOT
ATOM      1  C   UNL     1       4.896  -0.780   3.022  1.00  0.00     0.023 C 
ENDROOT
BRANCH   1   2
ATOM      2  C   UNL     1       5.299   0.043   1.787  1.00  0.00     0.023 C 
BRANCH   2   3
ATOM      3  C   UNL     1       4.632  -0.336   0.451  1.00  0.00     0.116 C 
BRANCH   3   4
ATOM      4  N   UNL     1       3.186  -0.371   0.573  1.00  0.00    -0.352 N 
ATOM      5  O   UNL     1       1.074   0.284   0.331  1.00  0.00    -0.269 OA
ATOM      6  C   UNL     1       2.195   0.206  -0.170  1.00  0.00     0.251 C 
ATOM      7  H   UNL     1       2.859  -0.910   1.329  1.00  0.00     0.163 HD
BRANCH   6   8
ATOM      8  C   UNL     1       2.387   0.685  -1.556  1.00  0.00     0.039 A 
ATOM      9  C   UNL     1       1.617   1.783  -1.964  1.00  0.00     0.014 A 
ATOM     10  C   UNL     1       3.107  -0.048  -2.503  1.00  0.00     0.014 A 
ATOM     11  C   UNL     1       1.542   2.132  -3.311  1.00  0.00     0.010 A 
ATOM     12  C   UNL     1       3.030   0.303  -3.856  1.00  0.00     0.010 A 
ATOM     13  C   UNL     1       2.236   1.384  -4.268  1.00  0.00    -0.014 A 
BRANCH  13  14
ATOM     14  C   UNL     1       2.143   1.827  -5.675  1.00  0.00     0.031 A 
ATOM     15  C   UNL     1       3.464   1.965  -6.367  1.00  0.00     0.074 A 
ATOM     16  C   UNL     1       1.046   1.572  -6.424  1.00  0.00     0.049 A 
ATOM     17  N   UNL     1       4.123   0.942  -6.831  1.00  0.00    -0.248 NA
ATOM     18  C   UNL     1       4.251   3.198  -6.327  1.00  0.00     0.031 C 
ATOM     19  C   UNL     1       0.183   0.397  -6.250  1.00  0.00     0.029 A 
ATOM     20  N   UNL     1       0.568   2.168  -7.572  1.00  0.00    -0.354 N 
ATOM     21  C   UNL     1       5.408   1.366  -7.112  1.00  0.00     0.074 A 
ATOM     22  C   UNL     1       5.440   2.776  -6.788  1.00  0.00     0.031 C 
ATOM     23  C   UNL     1      -0.601   0.265  -7.339  1.00  0.00     0.029 A 
ATOM     24  C   UNL     1      -0.408   1.411  -8.227  1.00  0.00     0.049 A 
ATOM     25  H   UNL     1       0.884   3.041  -7.899  1.00  0.00     0.167 HD
ATOM     26  C   UNL     1       6.363   0.530  -7.603  1.00  0.00     0.037 A 
ATOM     27  C   UNL     1      -0.539   1.344  -9.584  1.00  0.00     0.037 A 
ATOM     28  C   UNL     1       5.941  -0.819  -7.843  1.00  0.00     0.049 A 
ATOM     29  C   UNL     1       0.721   0.591  -9.955  1.00  0.00     0.074 A 
ATOM     30  C   UNL     1       6.060  -2.062  -7.263  1.00  0.00     0.029 A 
ATOM     31  N   UNL     1       5.188  -1.044  -8.970  1.00  0.00    -0.354 N 
ATOM     32  N   UNL     1       0.928  -0.694  -9.821  1.00  0.00    -0.248 NA
ATOM     33  C   UNL     1       1.933   1.389 -10.142  1.00  0.00     0.031 C 
ATOM     34  C   UNL     1       4.980  -2.837  -7.804  1.00  0.00     0.029 A 
ATOM     35  C   UNL     1       4.261  -2.001  -8.658  1.00  0.00     0.049 A 
ATOM     36  H   UNL     1       5.295  -0.599  -9.841  1.00  0.00     0.167 HD
ATOM     37  C   UNL     1       2.308  -0.830  -9.641  1.00  0.00     0.074 A 
ATOM     38  C   UNL     1       2.863   0.490  -9.855  1.00  0.00     0.031 C 
ATOM     39  C   UNL     1       2.907  -1.960  -9.164  1.00  0.00     0.037 A 
BRANCH  26  40
ATOM     40  C   UNL     1       7.669   0.960  -8.138  1.00  0.00     0.064 A 
ATOM     41  C   UNL     1       7.775   1.082  -9.533  1.00  0.00     0.173 A 
ATOM     42  C   UNL     1       8.839   1.007  -7.379  1.00  0.00     0.173 A 
ATOM     43  F   UNL     1       6.669   1.032 -10.295  1.00  0.00    -0.203 F 
ATOM     44  C   UNL     1       9.011   1.185 -10.156  1.00  0.00     0.198 A 
ATOM     45  C   UNL     1      10.081   1.130  -8.006  1.00  0.00     0.198 A 
ATOM     46  F   UNL     1       8.790   0.883  -6.044  1.00  0.00    -0.203 F 
ATOM     47  F   UNL     1       9.079   1.229 -11.493  1.00  0.00    -0.200 F 
ATOM     48  C   UNL     1      10.166   1.198  -9.393  1.00  0.00     0.200 A 
ATOM     49  F   UNL     1      11.204   1.144  -7.274  1.00  0.00    -0.200 F 
ATOM     50  F   UNL     1      11.361   1.262  -9.995  1.00  0.00    -0.200 F 
ENDBRANCH  26  40
BRANCH  27  51
ATOM     51  C   UNL     1      -0.965   2.616 -10.263  1.00  0.00     0.064 A 
ATOM     52  C   UNL     1      -2.055   3.334  -9.728  1.00  0.00     0.173 A 
ATOM     53  C   UNL     1      -0.361   3.181 -11.397  1.00  0.00     0.173 A 
ATOM     54  F   UNL     1      -2.785   2.807  -8.732  1.00  0.00    -0.203 F 
ATOM     55  C   UNL     1      -2.403   4.605 -10.187  1.00  0.00     0.198 A 
ATOM     56  C   UNL     1      -0.686   4.468 -11.837  1.00  0.00     0.198 A 
ATOM     57  F   UNL     1       0.571   2.515 -12.092  1.00  0.00    -0.203 F 
ATOM     58  F   UNL     1      -3.410   5.272  -9.606  1.00  0.00    -0.200 F 
ATOM     59  C   UNL     1      -1.689   5.190 -11.214  1.00  0.00     0.200 A 
ATOM     60  F   UNL     1       0.002   5.019 -12.847  1.00  0.00    -0.200 F 
ATOM     61  F   UNL     1      -1.965   6.441 -11.605  1.00  0.00    -0.200 F 
ENDBRANCH  27  51
BRANCH  39  62
ATOM     62  C   UNL     1       2.022  -3.145  -8.988  1.00  0.00     0.064 A 
ATOM     63  C   UNL     1       1.498  -3.802 -10.108  1.00  0.00     0.173 A 
ATOM     64  C   UNL     1       1.748  -3.682  -7.720  1.00  0.00     0.173 A 
ATOM     65  F   UNL     1       1.747  -3.339 -11.344  1.00  0.00    -0.203 F 
ATOM     66  C   UNL     1       0.748  -4.965  -9.968  1.00  0.00     0.198 A 
ATOM     67  C   UNL     1       1.022  -4.862  -7.586  1.00  0.00     0.198 A 
ATOM     68  F   UNL     1       2.206  -3.086  -6.607  1.00  0.00    -0.203 F 
ATOM     69  F   UNL     1       0.266  -5.584 -11.055  1.00  0.00    -0.200 F 
ATOM     70  C   UNL     1       0.525  -5.504  -8.709  1.00  0.00     0.200 A 
ATOM     71  F   UNL     1       0.826  -5.393  -6.370  1.00  0.00    -0.200 F 
ATOM     72  F   UNL     1      -0.155  -6.651  -8.581  1.00  0.00    -0.200 F 
ENDBRANCH  39  62
ENDBRANCH  13  14
ENDBRANCH   6   8
ENDBRANCH   3   4
ENDBRANCH   2   3
ENDBRANCH   1   2
BRANCH   1  73
ATOM     73  C   UNL     1       5.114  -2.286   2.930  1.00  0.00     0.116 C 
BRANCH  73  74
ATOM     74  N   UNL     1       6.475  -2.726   3.172  1.00  0.00    -0.356 N 
ATOM     75  C   UNL     1       7.021  -3.884   3.630  1.00  0.00     0.223 C 
ATOM     76  H   UNL     1       7.147  -2.039   2.958  1.00  0.00     0.163 HD
ATOM     77  O   UNL     1       8.235  -4.003   3.414  1.00  0.00    -0.275 OA
BRANCH  75  78
ATOM     78  C   UNL     1       6.316  -4.975   4.470  1.00  0.00     0.081 C 
ATOM     79  C   UNL     1       6.797  -6.378   4.054  1.00  0.00     0.030 C 
ATOM     80  C   UNL     1       4.809  -5.081   4.545  1.00  0.00     0.030 C 
ATOM     81  C   UNL     1       6.253  -6.779   2.684  1.00  0.00     0.103 C 
ATOM     82  C   UNL     1       4.209  -5.402   3.193  1.00  0.00     0.103 C 
ATOM     83  N   UNL     1       4.756  -6.616   2.546  1.00  0.00    -0.198 NA
BRANCH  83  84
ATOM     84  S   UNL     1       4.335  -6.714   0.847  1.00  0.00     0.243 S 
ATOM     85  O   UNL     1       5.043  -5.649   0.171  1.00  0.00    -0.207 OA
ATOM     86  O   UNL     1       4.501  -8.096   0.439  1.00  0.00    -0.207 OA
BRANCH  84  87
ATOM     87  C   UNL     1       2.599  -6.296   0.745  1.00  0.00     0.084 A 
ATOM     88  C   UNL     1       2.241  -4.941   0.712  1.00  0.00     0.024 A 
ATOM     89  C   UNL     1       1.644  -7.300   0.556  1.00  0.00     0.043 A 
ATOM     90  C   UNL     1       0.905  -4.560   0.570  1.00  0.00     0.031 A 
ATOM     91  C   UNL     1       0.309  -6.895   0.364  1.00  0.00     0.059 A 
ATOM     92  C   UNL     1      -0.078  -5.549   0.382  1.00  0.00     0.085 A 
ATOM     93  S   UNL     1      -1.091  -7.860   0.057  1.00  0.00    -0.077 S 
ATOM     94  N   UNL     1      -1.427  -5.309   0.186  1.00  0.00    -0.203 NA
ATOM     95  C   UNL     1      -2.031  -6.448  -0.008  1.00  0.00     0.271 A 
BRANCH  95  96
ATOM     96  O   UNL     1      -3.328  -6.450  -0.243  1.00  0.00    -0.486 OA
ATOM     97  H   UNL     1      -3.801  -5.641  -0.269  1.00  0.00     0.296 HD
ENDBRANCH  95  96
ENDBRANCH  84  87
ENDBRANCH  83  84
ENDBRANCH  75  78
ENDBRANCH  73  74
ENDBRANCH   1  73
TORSDOF 14
