REMARK SMILES Cc1cc(C)c(C(=O)NC[C@H]2CC[C@@H](C(=O)NCCCCNC(=O)c3ccc(-c4c5nc(c(-c6c(F)c(F)c(F)c(F)c6F)c6ccc([nH]6)c(-c6c(F)c(F)c(F)c(F)c6F)c6nc(c(-c7c(F)c(F)c(F)c(F)c7F)c7ccc4[nH]7)C=C6)C=C5)cc3)O2)c(C)c1
REMARK SMILES IDX 19 1 18 2 17 3 15 4 16 5 14 7 11 8 12 9 88 10 13 11 10 12
REMARK SMILES IDX 9 13 7 14 8 15 6 17 1 18 2 19 3 20 91 21 4 22 89 23 5 24
REMARK SMILES IDX 90 25 20 26 21 27 22 28 23 29 24 31 25 32 26 33 87 34 27 35
REMARK SMILES IDX 86 36 28 37 29 38 30 39 80 40 31 41 85 42 79 43 81 44 32 45
REMARK SMILES IDX 84 46 78 47 77 48 33 50 65 51 45 52 64 53 46 54 49 55 63 56
REMARK SMILES IDX 82 57 47 58 48 59 62 61 83 62 50 63 34 64 35 65 43 66 36 67
REMARK SMILES IDX 37 68 41 69 44 70 38 71 39 72 42 73 40 74 66 75 67 76 75 77
REMARK SMILES IDX 68 78 69 79 73 80 76 81 70 82 71 83 74 84 72 85 51 86 52 87
REMARK SMILES IDX 60 88 53 89 54 90 58 91 61 92 55 93 56 94 59 95 57 96
REMARK H PARENT 17 6 9 16 22 30 81 49 49 60
REMARK Flexibility Score: inf
ROOT
ATOM      1  C   UNL     1      -4.124  -8.297   0.617  1.00  0.00     0.023 C 
ENDROOT
BRANCH   1   2
ATOM      2  C   UNL     1      -3.249  -7.258   1.312  1.00  0.00     0.116 C 
BRANCH   2   3
ATOM      3  N   UNL     1      -2.444  -7.838   2.373  1.00  0.00    -0.354 N 
ATOM      4  C   UNL     1      -1.086  -7.781   2.538  1.00  0.00     0.249 C 
ATOM      5  O   UNL     1      -0.596  -8.326   3.528  1.00  0.00    -0.272 OA
ATOM      6  H   UNL     1      -2.939  -8.336   3.063  1.00  0.00     0.163 HD
BRANCH   4   7
ATOM      7  C   UNL     1      -0.240  -7.078   1.465  1.00  0.00     0.207 C 
ATOM      8  C   UNL     1       0.406  -4.823   1.448  1.00  0.00     0.138 C 
ATOM      9  C   UNL     1       1.648  -5.666   1.232  1.00  0.00     0.037 C 
ATOM     10  O   UNL     1      -0.696  -5.725   1.281  1.00  0.00    -0.363 OA
ATOM     11  C   UNL     1       1.242  -6.999   1.809  1.00  0.00     0.045 C 
BRANCH   8  12
ATOM     12  C   UNL     1       0.313  -4.160   2.842  1.00  0.00     0.148 C 
BRANCH  12  13
ATOM     13  N   UNL     1       1.024  -2.899   2.870  1.00  0.00    -0.349 N 
ATOM     14  C   UNL     1       0.827  -1.628   2.399  1.00  0.00     0.251 C 
ATOM     15  O   UNL     1       1.903  -1.092   2.100  1.00  0.00    -0.269 OA
ATOM     16  H   UNL     1       1.876  -2.975   3.357  1.00  0.00     0.163 HD
BRANCH  14  17
ATOM     17  C   UNL     1      -0.449  -0.812   2.250  1.00  0.00     0.045 A 
ATOM     18  C   UNL     1      -3.685   1.994   1.317  1.00  0.00     0.044 C 
ATOM     19  C   UNL     1      -2.592   1.039   1.688  1.00  0.00    -0.051 A 
ATOM     20  C   UNL     1      -1.335   1.502   2.037  1.00  0.00     0.007 A 
ATOM     21  C   UNL     1      -2.793  -0.333   1.668  1.00  0.00     0.007 A 
ATOM     22  C   UNL     1      -0.281   0.614   2.354  1.00  0.00    -0.038 A 
ATOM     23  C   UNL     1      -1.754  -1.268   1.927  1.00  0.00    -0.038 A 
ATOM     24  C   UNL     1       1.004   1.315   2.747  1.00  0.00     0.045 C 
ATOM     25  C   UNL     1      -2.220  -2.684   1.811  1.00  0.00     0.045 C 
ENDBRANCH  14  17
ENDBRANCH  12  13
ENDBRANCH   8  12
ENDBRANCH   4   7
ENDBRANCH   2   3
ENDBRANCH   1   2
BRANCH   1  26
ATOM     26  C   UNL     1      -5.133  -9.006   1.520  1.00  0.00     0.023 C 
BRANCH  26  27
ATOM     27  C   UNL     1      -6.078  -8.088   2.287  1.00  0.00     0.116 C 
BRANCH  27  28
ATOM     28  N   UNL     1      -6.927  -7.291   1.415  1.00  0.00    -0.352 N 
ATOM     29  C   UNL     1      -8.298  -7.187   1.378  1.00  0.00     0.251 C 
ATOM     30  H   UNL     1      -6.448  -6.745   0.751  1.00  0.00     0.163 HD
ATOM     31  O   UNL     1      -8.844  -6.571   0.472  1.00  0.00    -0.269 OA
BRANCH  29  32
ATOM     32  C   UNL     1      -9.120  -7.849   2.417  1.00  0.00     0.039 A 
ATOM     33  C   UNL     1     -10.246  -8.575   2.023  1.00  0.00     0.014 A 
ATOM     34  C   UNL     1      -8.780  -7.764   3.769  1.00  0.00     0.014 A 
ATOM     35  C   UNL     1     -10.983  -9.284   2.975  1.00  0.00     0.010 A 
ATOM     36  C   UNL     1      -9.467  -8.533   4.705  1.00  0.00     0.010 A 
ATOM     37  C   UNL     1     -10.571  -9.308   4.318  1.00  0.00    -0.014 A 
BRANCH  37  38
ATOM     38  C   UNL     1     -11.268 -10.148   5.327  1.00  0.00     0.031 A 
ATOM     39  C   UNL     1     -11.952  -9.509   6.503  1.00  0.00     0.074 A 
ATOM     40  C   UNL     1     -11.223 -11.491   5.221  1.00  0.00     0.049 A 
ATOM     41  N   UNL     1     -12.529 -10.075   7.534  1.00  0.00    -0.248 NA
ATOM     42  C   UNL     1     -11.972  -8.039   6.537  1.00  0.00     0.031 C 
ATOM     43  C   UNL     1     -10.564 -12.235   4.147  1.00  0.00     0.029 A 
ATOM     44  N   UNL     1     -11.733 -12.472   6.037  1.00  0.00    -0.354 N 
ATOM     45  C   UNL     1     -12.972  -9.033   8.338  1.00  0.00     0.074 A 
ATOM     46  C   UNL     1     -12.547  -7.802   7.707  1.00  0.00     0.031 C 
ATOM     47  C   UNL     1     -10.726 -13.550   4.357  1.00  0.00     0.029 A 
ATOM     48  C   UNL     1     -11.457 -13.747   5.604  1.00  0.00     0.049 A 
ATOM     49  H   UNL     1     -12.248 -12.280   6.854  1.00  0.00     0.167 HD
ATOM     50  C   UNL     1     -13.689  -9.096   9.486  1.00  0.00     0.037 A 
ATOM     51  C   UNL     1     -11.746 -14.940   6.160  1.00  0.00     0.037 A 
ATOM     52  C   UNL     1     -14.119 -10.322  10.107  1.00  0.00     0.049 A 
ATOM     53  C   UNL     1     -12.501 -14.979   7.463  1.00  0.00     0.074 A 
ATOM     54  C   UNL     1     -14.883 -10.488  11.249  1.00  0.00     0.029 A 
ATOM     55  N   UNL     1     -13.817 -11.593   9.641  1.00  0.00    -0.354 N 
ATOM     56  N   UNL     1     -12.967 -13.987   8.182  1.00  0.00    -0.248 NA
ATOM     57  C   UNL     1     -12.772 -16.308   8.030  1.00  0.00     0.031 C 
ATOM     58  C   UNL     1     -14.997 -11.858  11.505  1.00  0.00     0.029 A 
ATOM     59  C   UNL     1     -14.357 -12.548  10.489  1.00  0.00     0.049 A 
ATOM     60  H   UNL     1     -13.297 -11.788   8.829  1.00  0.00     0.167 HD
ATOM     61  C   UNL     1     -13.612 -14.570   9.265  1.00  0.00     0.074 A 
ATOM     62  C   UNL     1     -13.494 -16.003   9.098  1.00  0.00     0.031 C 
ATOM     63  C   UNL     1     -14.242 -13.973  10.306  1.00  0.00     0.037 A 
BRANCH  50  64
ATOM     64  C   UNL     1     -14.060  -7.799  10.147  1.00  0.00     0.064 A 
ATOM     65  C   UNL     1     -14.992  -6.920   9.571  1.00  0.00     0.173 A 
ATOM     66  C   UNL     1     -13.516  -7.451  11.393  1.00  0.00     0.173 A 
ATOM     67  F   UNL     1     -15.534  -7.200   8.376  1.00  0.00    -0.203 F 
ATOM     68  C   UNL     1     -15.342  -5.731  10.204  1.00  0.00     0.198 A 
ATOM     69  C   UNL     1     -13.895  -6.276  12.038  1.00  0.00     0.198 A 
ATOM     70  F   UNL     1     -12.627  -8.257  11.992  1.00  0.00    -0.203 F 
ATOM     71  F   UNL     1     -16.197  -4.885   9.611  1.00  0.00    -0.200 F 
ATOM     72  C   UNL     1     -14.801  -5.414  11.440  1.00  0.00     0.200 A 
ATOM     73  F   UNL     1     -13.383  -5.979  13.241  1.00  0.00    -0.200 F 
ATOM     74  F   UNL     1     -15.149  -4.274  12.053  1.00  0.00    -0.200 F 
ENDBRANCH  50  64
BRANCH  51  75
ATOM     75  C   UNL     1     -11.329 -16.201   5.490  1.00  0.00     0.064 A 
ATOM     76  C   UNL     1     -12.282 -17.091   4.974  1.00  0.00     0.173 A 
ATOM     77  C   UNL     1      -9.977 -16.560   5.380  1.00  0.00     0.173 A 
ATOM     78  F   UNL     1     -13.588 -16.804   5.074  1.00  0.00    -0.203 F 
ATOM     79  C   UNL     1     -11.902 -18.303   4.402  1.00  0.00     0.198 A 
ATOM     80  C   UNL     1      -9.597 -17.757   4.776  1.00  0.00     0.198 A 
ATOM     81  F   UNL     1      -9.024 -15.745   5.854  1.00  0.00    -0.203 F 
ATOM     82  F   UNL     1     -12.837 -19.161   3.972  1.00  0.00    -0.200 F 
ATOM     83  C   UNL     1     -10.559 -18.633   4.299  1.00  0.00     0.200 A 
ATOM     84  F   UNL     1      -8.297 -18.064   4.665  1.00  0.00    -0.200 F 
ATOM     85  F   UNL     1     -10.194 -19.800   3.750  1.00  0.00    -0.200 F 
ENDBRANCH  51  75
BRANCH  63  86
ATOM     86  C   UNL     1     -14.890 -14.866  11.325  1.00  0.00     0.064 A 
ATOM     87  C   UNL     1     -14.133 -15.646  12.212  1.00  0.00     0.173 A 
ATOM     88  C   UNL     1     -16.288 -14.915  11.439  1.00  0.00     0.173 A 
ATOM     89  F   UNL     1     -12.794 -15.648  12.135  1.00  0.00    -0.203 F 
ATOM     90  C   UNL     1     -14.753 -16.464  13.154  1.00  0.00     0.198 A 
ATOM     91  C   UNL     1     -16.903 -15.706  12.405  1.00  0.00     0.198 A 
ATOM     92  F   UNL     1     -17.060 -14.183  10.621  1.00  0.00    -0.203 F 
ATOM     93  F   UNL     1     -14.010 -17.243  13.953  1.00  0.00    -0.200 F 
ATOM     94  C   UNL     1     -16.136 -16.487  13.255  1.00  0.00     0.200 A 
ATOM     95  F   UNL     1     -18.239 -15.714  12.512  1.00  0.00    -0.200 F 
ATOM     96  F   UNL     1     -16.729 -17.268  14.168  1.00  0.00    -0.200 F 
ENDBRANCH  63  86
ENDBRANCH  37  38
ENDBRANCH  29  32
ENDBRANCH  27  28
ENDBRANCH  26  27
ENDBRANCH   1  26
TORSDOF 14
