REMARK SMILES CC[C@H]1SC[C@H](C(=O)NCCCCNC(=O)c2ccc(-c3c4nc(c(-c5c(F)c(F)c(F)c(F)c5F)c5ccc([nH]5)c(-c5c(F)c(F)c(F)c(F)c5F)c5nc(c(-c6c(F)c(F)c(F)c(F)c6F)c6ccc3[nH]6)C=C5)C=C4)cc2)N1C(=O)Cc1ccc(F)c(F)c1
REMARK SMILES IDX 11 1 10 2 9 3 7 4 8 5 6 7 3 8 4 9 80 10 5 11 2 12 1 13 81 14
REMARK SMILES IDX 82 15 83 16 84 17 85 18 91 19 86 20 89 21 87 22 90 23 88 24
REMARK SMILES IDX 12 25 13 26 14 27 15 28 16 30 17 31 18 32 79 33 19 34 78 35
REMARK SMILES IDX 20 36 21 37 22 38 72 39 23 40 77 41 71 42 73 43 24 44 76 45
REMARK SMILES IDX 70 46 69 47 25 49 57 50 37 51 56 52 38 53 41 54 55 55 74 56
REMARK SMILES IDX 39 57 40 58 54 60 75 61 42 62 26 63 27 64 35 65 28 66 29 67
REMARK SMILES IDX 33 68 36 69 30 70 31 71 34 72 32 73 58 74 59 75 67 76 60 77
REMARK SMILES IDX 61 78 65 79 68 80 62 81 63 82 66 83 64 84 43 85 44 86 52 87
REMARK SMILES IDX 45 88 46 89 50 90 53 91 47 92 48 93 51 94 49 95
REMARK H PARENT 9 6 14 29 73 48 41 59
REMARK Flexibility Score: inf
ROOT
ATOM      1  C   UNL     1      -2.255   1.607  -6.917  1.00  0.00     0.023 C 
ENDROOT
BRANCH   1   2
ATOM      2  C   UNL     1      -2.679   0.449  -6.011  1.00  0.00     0.116 C 
BRANCH   2   3
ATOM      3  N   UNL     1      -1.897  -0.759  -6.226  1.00  0.00    -0.354 N 
ATOM      4  C   UNL     1      -0.982  -1.375  -5.418  1.00  0.00     0.243 C 
ATOM      5  O   UNL     1      -0.341  -2.318  -5.888  1.00  0.00    -0.273 OA
ATOM      6  H   UNL     1      -2.051  -1.203  -7.092  1.00  0.00     0.163 HD
BRANCH   4   7
ATOM      7  C   UNL     1      -0.783  -0.893  -3.968  1.00  0.00     0.185 C 
ATOM      8  C   UNL     1       1.072  -0.754  -2.377  1.00  0.00     0.143 C 
ATOM      9  S   UNL     1       0.451  -2.438  -2.140  1.00  0.00    -0.134 SA
ATOM     10  N   UNL     1       0.572  -0.381  -3.691  1.00  0.00    -0.318 N 
ATOM     11  C   UNL     1      -1.080  -2.090  -3.042  1.00  0.00     0.107 C 
BRANCH   8  12
ATOM     12  C   UNL     1       0.490   0.178  -1.290  1.00  0.00     0.033 C 
ATOM     13  C   UNL     1       1.049  -0.069   0.103  1.00  0.00     0.007 C 
ENDBRANCH   8  12
BRANCH  10  14
ATOM     14  C   UNL     1       1.095   0.620  -4.485  1.00  0.00     0.228 C 
ATOM     15  O   UNL     1       0.431   1.134  -5.386  1.00  0.00    -0.274 OA
BRANCH  14  16
ATOM     16  C   UNL     1       2.520   1.102  -4.261  1.00  0.00     0.135 C 
BRANCH  16  17
ATOM     17  C   UNL     1       2.611   2.178  -3.207  1.00  0.00    -0.036 A 
ATOM     18  C   UNL     1       1.827   3.343  -3.299  1.00  0.00     0.007 A 
ATOM     19  C   UNL     1       3.451   2.005  -2.098  1.00  0.00     0.046 A 
ATOM     20  C   UNL     1       1.836   4.285  -2.268  1.00  0.00     0.043 A 
ATOM     21  C   UNL     1       3.448   2.947  -1.074  1.00  0.00     0.159 A 
ATOM     22  C   UNL     1       2.639   4.073  -1.153  1.00  0.00     0.158 A 
ATOM     23  F   UNL     1       4.212   2.737   0.006  1.00  0.00    -0.204 F 
ATOM     24  F   UNL     1       2.617   4.959  -0.149  1.00  0.00    -0.204 F 
ENDBRANCH  16  17
ENDBRANCH  14  16
ENDBRANCH  10  14
ENDBRANCH   4   7
ENDBRANCH   2   3
ENDBRANCH   1   2
BRANCH   1  25
ATOM     25  C   UNL     1      -2.352   1.324  -8.412  1.00  0.00     0.023 C 
BRANCH  25  26
ATOM     26  C   UNL     1      -3.745   0.939  -8.883  1.00  0.00     0.116 C 
BRANCH  26  27
ATOM     27  N   UNL     1      -4.729   1.977  -8.612  1.00  0.00    -0.352 N 
ATOM     28  C   UNL     1      -5.615   2.579  -9.468  1.00  0.00     0.251 C 
ATOM     29  H   UNL     1      -4.763   2.293  -7.680  1.00  0.00     0.163 HD
ATOM     30  O   UNL     1      -6.254   3.564  -9.108  1.00  0.00    -0.269 OA
BRANCH  28  31
ATOM     31  C   UNL     1      -5.778   2.052 -10.837  1.00  0.00     0.039 A 
ATOM     32  C   UNL     1      -5.816   2.949 -11.907  1.00  0.00     0.014 A 
ATOM     33  C   UNL     1      -5.869   0.676 -11.065  1.00  0.00     0.014 A 
ATOM     34  C   UNL     1      -5.879   2.460 -13.212  1.00  0.00     0.010 A 
ATOM     35  C   UNL     1      -5.839   0.190 -12.366  1.00  0.00     0.010 A 
ATOM     36  C   UNL     1      -5.851   1.076 -13.453  1.00  0.00    -0.014 A 
BRANCH  36  37
ATOM     37  C   UNL     1      -5.827   0.537 -14.835  1.00  0.00     0.031 A 
ATOM     38  C   UNL     1      -6.951  -0.330 -15.327  1.00  0.00     0.074 A 
ATOM     39  C   UNL     1      -4.756   0.764 -15.618  1.00  0.00     0.049 A 
ATOM     40  N   UNL     1      -7.082  -0.944 -16.476  1.00  0.00    -0.248 NA
ATOM     41  C   UNL     1      -8.061  -0.566 -14.391  1.00  0.00     0.031 C 
ATOM     42  C   UNL     1      -3.574   1.534 -15.229  1.00  0.00     0.029 A 
ATOM     43  N   UNL     1      -4.480   0.356 -16.899  1.00  0.00    -0.354 N 
ATOM     44  C   UNL     1      -8.273  -1.652 -16.391  1.00  0.00     0.074 A 
ATOM     45  C   UNL     1      -8.798  -1.439 -15.060  1.00  0.00     0.031 C 
ATOM     46  C   UNL     1      -2.708   1.558 -16.253  1.00  0.00     0.029 A 
ATOM     47  C   UNL     1      -3.254   0.772 -17.356  1.00  0.00     0.049 A 
ATOM     48  H   UNL     1      -5.102  -0.184 -17.438  1.00  0.00     0.167 HD
ATOM     49  C   UNL     1      -8.883  -2.396 -17.344  1.00  0.00     0.037 A 
ATOM     50  C   UNL     1      -2.634   0.536 -18.527  1.00  0.00     0.037 A 
ATOM     51  C   UNL     1      -8.363  -2.584 -18.674  1.00  0.00     0.049 A 
ATOM     52  C   UNL     1      -3.335  -0.282 -19.577  1.00  0.00     0.074 A 
ATOM     53  C   UNL     1      -8.945  -3.244 -19.742  1.00  0.00     0.029 A 
ATOM     54  N   UNL     1      -7.130  -2.123 -19.113  1.00  0.00    -0.354 N 
ATOM     55  N   UNL     1      -4.506  -0.869 -19.522  1.00  0.00    -0.248 NA
ATOM     56  C   UNL     1      -2.633  -0.462 -20.854  1.00  0.00     0.031 C 
ATOM     57  C   UNL     1      -8.037  -3.239 -20.805  1.00  0.00     0.029 A 
ATOM     58  C   UNL     1      -6.917  -2.517 -20.425  1.00  0.00     0.049 A 
ATOM     59  H   UNL     1      -6.500  -1.593 -18.573  1.00  0.00     0.167 HD
ATOM     60  C   UNL     1      -4.692  -1.469 -20.760  1.00  0.00     0.074 A 
ATOM     61  C   UNL     1      -3.519  -1.159 -21.552  1.00  0.00     0.031 C 
ATOM     62  C   UNL     1      -5.741  -2.208 -21.200  1.00  0.00     0.037 A 
BRANCH  49  63
ATOM     63  C   UNL     1     -10.173  -3.073 -16.976  1.00  0.00     0.064 A 
ATOM     64  C   UNL     1     -11.343  -2.347 -16.702  1.00  0.00     0.173 A 
ATOM     65  C   UNL     1     -10.244  -4.473 -16.910  1.00  0.00     0.173 A 
ATOM     66  F   UNL     1     -11.331  -1.006 -16.741  1.00  0.00    -0.203 F 
ATOM     67  C   UNL     1     -12.520  -2.993 -16.333  1.00  0.00     0.198 A 
ATOM     68  C   UNL     1     -11.433  -5.118 -16.577  1.00  0.00     0.198 A 
ATOM     69  F   UNL     1      -9.160  -5.219 -17.169  1.00  0.00    -0.203 F 
ATOM     70  F   UNL     1     -13.605  -2.274 -16.011  1.00  0.00    -0.200 F 
ATOM     71  C   UNL     1     -12.566  -4.378 -16.277  1.00  0.00     0.200 A 
ATOM     72  F   UNL     1     -11.479  -6.457 -16.539  1.00  0.00    -0.200 F 
ATOM     73  F   UNL     1     -13.700  -4.998 -15.924  1.00  0.00    -0.200 F 
ENDBRANCH  49  63
BRANCH  50  74
ATOM     74  C   UNL     1      -1.280   1.102 -18.766  1.00  0.00     0.064 A 
ATOM     75  C   UNL     1      -1.083   2.144 -19.682  1.00  0.00     0.173 A 
ATOM     76  C   UNL     1      -0.162   0.632 -18.061  1.00  0.00     0.173 A 
ATOM     77  F   UNL     1      -2.117   2.615 -20.394  1.00  0.00    -0.203 F 
ATOM     78  C   UNL     1       0.184   2.685 -19.894  1.00  0.00     0.198 A 
ATOM     79  C   UNL     1       1.098   1.194 -18.252  1.00  0.00     0.198 A 
ATOM     80  F   UNL     1      -0.300  -0.359 -17.167  1.00  0.00    -0.203 F 
ATOM     81  F   UNL     1       0.352   3.655 -20.802  1.00  0.00    -0.200 F 
ATOM     82  C   UNL     1       1.272   2.216 -19.172  1.00  0.00     0.200 A 
ATOM     83  F   UNL     1       2.142   0.749 -17.539  1.00  0.00    -0.200 F 
ATOM     84  F   UNL     1       2.486   2.746 -19.366  1.00  0.00    -0.200 F 
ENDBRANCH  50  74
BRANCH  62  85
ATOM     85  C   UNL     1      -5.682  -2.714 -22.614  1.00  0.00     0.064 A 
ATOM     86  C   UNL     1      -4.790  -3.725 -23.000  1.00  0.00     0.173 A 
ATOM     87  C   UNL     1      -6.561  -2.209 -23.585  1.00  0.00     0.173 A 
ATOM     88  F   UNL     1      -3.919  -4.233 -22.115  1.00  0.00    -0.203 F 
ATOM     89  C   UNL     1      -4.762  -4.193 -24.312  1.00  0.00     0.198 A 
ATOM     90  C   UNL     1      -6.554  -2.703 -24.886  1.00  0.00     0.198 A 
ATOM     91  F   UNL     1      -7.439  -1.246 -23.267  1.00  0.00    -0.203 F 
ATOM     92  F   UNL     1      -3.866  -5.123 -24.671  1.00  0.00    -0.200 F 
ATOM     93  C   UNL     1      -5.649  -3.688 -25.251  1.00  0.00     0.200 A 
ATOM     94  F   UNL     1      -7.424  -2.225 -25.787  1.00  0.00    -0.200 F 
ATOM     95  F   UNL     1      -5.627  -4.146 -26.510  1.00  0.00    -0.200 F 
ENDBRANCH  62  85
ENDBRANCH  36  37
ENDBRANCH  28  31
ENDBRANCH  26  27
ENDBRANCH  25  26
ENDBRANCH   1  25
TORSDOF 15
