REMARK SMILES CN(CC(=O)NCCCCNC(=O)c1ccc(-c2c3nc(c(-c4c(F)c(F)c(F)c(F)c4F)c4ccc([nH]4)c(-c4c(F)c(F)c(F)c(F)c4F)c4nc(c(-c5c(F)c(F)c(F)c(F)c5F)c5ccc2[nH]5)C=C4)C=C3)cc1)C(=O)c1ccccn1
REMARK SMILES IDX 8 1 7 2 6 3 4 4 5 5 3 7 2 8 1 9 77 10 78 11 79 12 80 13
REMARK SMILES IDX 84 14 81 15 83 16 82 17 9 18 10 19 11 20 12 21 13 23 14 24
REMARK SMILES IDX 15 25 76 26 16 27 75 28 17 29 18 30 19 31 69 32 20 33 74 34
REMARK SMILES IDX 68 35 70 36 21 37 73 38 67 39 66 40 22 42 54 43 34 44 53 45
REMARK SMILES IDX 35 46 38 47 52 48 71 49 36 50 37 51 51 53 72 54 39 55 23 56
REMARK SMILES IDX 24 57 32 58 25 59 26 60 30 61 33 62 27 63 28 64 31 65 29 66
REMARK SMILES IDX 55 67 56 68 64 69 57 70 58 71 62 72 65 73 59 74 60 75 63 76
REMARK SMILES IDX 61 77 40 78 41 79 49 80 42 81 43 82 47 83 50 84 44 85 45 86
REMARK SMILES IDX 48 87 46 88
REMARK H PARENT 6 6 11 22 70 41 38 52
REMARK Flexibility Score: inf
ROOT
ATOM      1  C   UNL     1      -1.906  -0.020  -1.721  1.00  0.00     0.023 C 
ENDROOT
BRANCH   1   2
ATOM      2  C   UNL     1      -2.112   0.198  -0.223  1.00  0.00     0.116 C 
BRANCH   2   3
ATOM      3  N   UNL     1      -2.505  -1.000   0.486  1.00  0.00    -0.355 N 
ATOM      4  C   UNL     1      -1.760  -1.843   1.258  1.00  0.00     0.239 C 
ATOM      5  O   UNL     1      -2.383  -2.637   1.971  1.00  0.00    -0.273 OA
ATOM      6  H   UNL     1      -3.455  -1.244   0.399  1.00  0.00     0.163 HD
BRANCH   4   7
ATOM      7  C   UNL     1      -0.228  -1.734   1.364  1.00  0.00     0.219 C 
BRANCH   7   8
ATOM      8  N   UNL     1       0.500  -1.533   0.106  1.00  0.00    -0.331 N 
ATOM      9  C   UNL     1       1.272  -0.311  -0.058  1.00  0.00     0.147 C 
BRANCH   8  10
ATOM     10  C   UNL     1       0.771  -2.558  -0.816  1.00  0.00     0.272 C 
ATOM     11  O   UNL     1       1.420  -2.359  -1.844  1.00  0.00    -0.267 OA
BRANCH  10  12
ATOM     12  C   UNL     1       0.277  -3.938  -0.552  1.00  0.00     0.128 A 
ATOM     13  C   UNL     1      -1.071  -4.243  -0.692  1.00  0.00     0.034 A 
ATOM     14  N   UNL     1       1.226  -4.846  -0.209  1.00  0.00    -0.251 NA
ATOM     15  C   UNL     1      -1.477  -5.546  -0.423  1.00  0.00     0.004 A 
ATOM     16  C   UNL     1       0.803  -6.109   0.003  1.00  0.00     0.112 A 
ATOM     17  C   UNL     1      -0.525  -6.500  -0.077  1.00  0.00     0.020 A 
ENDBRANCH  10  12
ENDBRANCH   8  10
ENDBRANCH   7   8
ENDBRANCH   4   7
ENDBRANCH   2   3
ENDBRANCH   1   2
BRANCH   1  18
ATOM     18  C   UNL     1      -3.157  -0.416  -2.507  1.00  0.00     0.023 C 
BRANCH  18  19
ATOM     19  C   UNL     1      -4.363   0.500  -2.344  1.00  0.00     0.116 C 
BRANCH  19  20
ATOM     20  N   UNL     1      -4.094   1.888  -2.684  1.00  0.00    -0.352 N 
ATOM     21  C   UNL     1      -4.901   2.793  -3.331  1.00  0.00     0.251 C 
ATOM     22  H   UNL     1      -3.210   2.227  -2.412  1.00  0.00     0.163 HD
ATOM     23  O   UNL     1      -4.478   3.912  -3.606  1.00  0.00    -0.269 OA
BRANCH  21  24
ATOM     24  C   UNL     1      -6.269   2.405  -3.736  1.00  0.00     0.039 A 
ATOM     25  C   UNL     1      -6.695   2.701  -5.034  1.00  0.00     0.014 A 
ATOM     26  C   UNL     1      -7.121   1.734  -2.854  1.00  0.00     0.014 A 
ATOM     27  C   UNL     1      -7.945   2.258  -5.472  1.00  0.00     0.010 A 
ATOM     28  C   UNL     1      -8.334   1.231  -3.314  1.00  0.00     0.010 A 
ATOM     29  C   UNL     1      -8.757   1.484  -4.628  1.00  0.00    -0.014 A 
BRANCH  29  30
ATOM     30  C   UNL     1     -10.050   0.926  -5.097  1.00  0.00     0.031 A 
ATOM     31  C   UNL     1     -11.338   1.369  -4.463  1.00  0.00     0.074 A 
ATOM     32  C   UNL     1     -10.060  -0.033  -6.042  1.00  0.00     0.049 A 
ATOM     33  N   UNL     1     -12.558   0.944  -4.677  1.00  0.00    -0.248 NA
ATOM     34  C   UNL     1     -11.237   2.410  -3.430  1.00  0.00     0.031 C 
ATOM     35  C   UNL     1      -8.876  -0.575  -6.709  1.00  0.00     0.029 A 
ATOM     36  N   UNL     1     -11.104  -0.727  -6.601  1.00  0.00    -0.354 N 
ATOM     37  C   UNL     1     -13.364   1.653  -3.798  1.00  0.00     0.074 A 
ATOM     38  C   UNL     1     -12.489   2.492  -3.006  1.00  0.00     0.031 C 
ATOM     39  C   UNL     1      -9.261  -1.496  -7.607  1.00  0.00     0.029 A 
ATOM     40  C   UNL     1     -10.713  -1.637  -7.552  1.00  0.00     0.049 A 
ATOM     41  H   UNL     1     -12.044  -0.587  -6.344  1.00  0.00     0.167 HD
ATOM     42  C   UNL     1     -14.713   1.628  -3.677  1.00  0.00     0.037 A 
ATOM     43  C   UNL     1     -11.443  -2.490  -8.294  1.00  0.00     0.037 A 
ATOM     44  C   UNL     1     -15.582   0.805  -4.476  1.00  0.00     0.049 A 
ATOM     45  C   UNL     1     -12.937  -2.523  -8.122  1.00  0.00     0.074 A 
ATOM     46  C   UNL     1     -16.965   0.743  -4.467  1.00  0.00     0.029 A 
ATOM     47  N   UNL     1     -15.149  -0.108  -5.428  1.00  0.00    -0.354 N 
ATOM     48  N   UNL     1     -13.696  -1.806  -7.330  1.00  0.00    -0.248 NA
ATOM     49  C   UNL     1     -13.676  -3.486  -8.951  1.00  0.00     0.031 C 
ATOM     50  C   UNL     1     -17.366  -0.239  -5.380  1.00  0.00     0.029 A 
ATOM     51  C   UNL     1     -16.236  -0.754  -5.995  1.00  0.00     0.049 A 
ATOM     52  H   UNL     1     -14.207  -0.272  -5.665  1.00  0.00     0.167 HD
ATOM     53  C   UNL     1     -15.001  -2.204  -7.586  1.00  0.00     0.074 A 
ATOM     54  C   UNL     1     -14.931  -3.223  -8.613  1.00  0.00     0.031 C 
ATOM     55  C   UNL     1     -16.152  -1.762  -7.023  1.00  0.00     0.037 A 
BRANCH  42  56
ATOM     56  C   UNL     1     -15.325   2.519  -2.634  1.00  0.00     0.064 A 
ATOM     57  C   UNL     1     -15.305   3.918  -2.757  1.00  0.00     0.173 A 
ATOM     58  C   UNL     1     -15.935   1.972  -1.496  1.00  0.00     0.173 A 
ATOM     59  F   UNL     1     -14.722   4.494  -3.820  1.00  0.00    -0.203 F 
ATOM     60  C   UNL     1     -15.831   4.734  -1.759  1.00  0.00     0.198 A 
ATOM     61  C   UNL     1     -16.491   2.791  -0.516  1.00  0.00     0.198 A 
ATOM     62  F   UNL     1     -15.989   0.642  -1.330  1.00  0.00    -0.203 F 
ATOM     63  F   UNL     1     -15.738   6.067  -1.868  1.00  0.00    -0.200 F 
ATOM     64  C   UNL     1     -16.427   4.170  -0.642  1.00  0.00     0.200 A 
ATOM     65  F   UNL     1     -17.078   2.245   0.558  1.00  0.00    -0.200 F 
ATOM     66  F   UNL     1     -16.929   4.957   0.320  1.00  0.00    -0.200 F 
ENDBRANCH  42  56
BRANCH  43  67
ATOM     67  C   UNL     1     -10.773  -3.352  -9.302  1.00  0.00     0.064 A 
ATOM     68  C   UNL     1     -10.932  -3.101 -10.672  1.00  0.00     0.173 A 
ATOM     69  C   UNL     1      -9.954  -4.425  -8.924  1.00  0.00     0.173 A 
ATOM     70  F   UNL     1     -11.724  -2.098 -11.080  1.00  0.00    -0.203 F 
ATOM     71  C   UNL     1     -10.306  -3.898 -11.627  1.00  0.00     0.198 A 
ATOM     72  C   UNL     1      -9.308  -5.206  -9.880  1.00  0.00     0.198 A 
ATOM     73  F   UNL     1      -9.767  -4.704  -7.626  1.00  0.00    -0.203 F 
ATOM     74  F   UNL     1     -10.503  -3.657 -12.930  1.00  0.00    -0.200 F 
ATOM     75  C   UNL     1      -9.489  -4.945 -11.231  1.00  0.00     0.200 A 
ATOM     76  F   UNL     1      -8.509  -6.210  -9.494  1.00  0.00    -0.200 F 
ATOM     77  F   UNL     1      -8.879  -5.707 -12.150  1.00  0.00    -0.200 F 
ENDBRANCH  43  67
BRANCH  55  78
ATOM     78  C   UNL     1     -17.436  -2.349  -7.532  1.00  0.00     0.064 A 
ATOM     79  C   UNL     1     -17.818  -3.665  -7.229  1.00  0.00     0.173 A 
ATOM     80  C   UNL     1     -18.316  -1.570  -8.300  1.00  0.00     0.173 A 
ATOM     81  F   UNL     1     -17.005  -4.455  -6.513  1.00  0.00    -0.203 F 
ATOM     82  C   UNL     1     -19.022  -4.186  -7.697  1.00  0.00     0.198 A 
ATOM     83  C   UNL     1     -19.532  -2.085  -8.740  1.00  0.00     0.198 A 
ATOM     84  F   UNL     1     -18.000  -0.304  -8.613  1.00  0.00    -0.203 F 
ATOM     85  F   UNL     1     -19.345  -5.459  -7.434  1.00  0.00    -0.200 F 
ATOM     86  C   UNL     1     -19.881  -3.393  -8.444  1.00  0.00     0.200 A 
ATOM     87  F   UNL     1     -20.366  -1.314  -9.452  1.00  0.00    -0.200 F 
ATOM     88  F   UNL     1     -21.043  -3.894  -8.886  1.00  0.00    -0.200 F 
ENDBRANCH  55  78
ENDBRANCH  29  30
ENDBRANCH  21  24
ENDBRANCH  19  20
ENDBRANCH  18  19
ENDBRANCH   1  18
TORSDOF 14
