REMARK SMILES O=C(NCCCCNC(=O)[C@@H]1CCCN1S(=O)(=O)c1ccc2c3c(cccc13)C(=O)N2)c1ccc(-c2c3nc(c(-c4c(F)c(F)c(F)c(F)c4F)c4ccc([nH]4)c(-c4c(F)c(F)c(F)c(F)c4F)c4nc(c(-c5c(F)c(F)c(F)c(F)c5F)c5ccc2[nH]5)C=C4)C=C3)cc1
REMARK SMILES IDX 5 1 4 2 3 3 1 4 2 5 32 7 33 8 94 9 34 10 93 11 35 12 36 13
REMARK SMILES IDX 37 14 87 15 38 16 92 17 86 18 88 19 39 20 91 21 85 22 84 23
REMARK SMILES IDX 40 25 72 26 52 27 71 28 53 29 56 30 70 31 89 32 54 33 55 34
REMARK SMILES IDX 69 36 90 37 57 38 41 39 42 40 50 41 43 42 44 43 48 44 51 45
REMARK SMILES IDX 45 46 46 47 49 48 47 49 73 50 74 51 82 52 75 53 76 54 80 55
REMARK SMILES IDX 83 56 77 57 78 58 81 59 79 60 58 61 59 62 67 63 60 64 61 65
REMARK SMILES IDX 65 66 68 67 62 68 63 69 66 70 64 71 6 72 7 73 8 74 9 75
REMARK SMILES IDX 10 77 11 78 12 79 15 80 13 81 14 82 16 83 17 84 18 85 19 86
REMARK SMILES IDX 20 87 28 88 21 89 23 90 27 91 22 92 24 93 26 94 31 95 25 96
REMARK SMILES IDX 29 97 30 99
REMARK H PARENT 3 6 88 24 56 35 8 76 31 98
REMARK Flexibility Score: inf
ROOT
ATOM      1  C   UNL     1       4.482  -0.147  -3.223  1.00  0.00     0.023 C 
ENDROOT
BRANCH   1   2
ATOM      2  C   UNL     1       3.747   0.334  -1.212  1.00  0.00     0.116 C 
BRANCH   2   3
ATOM      3  N   UNL     1       2.275   0.608  -0.619  1.00  0.00    -0.352 N 
ATOM      4  O   UNL     1       0.520   0.359   0.799  1.00  0.00    -0.269 OA
ATOM      5  C   UNL     1       1.691   0.120   0.525  1.00  0.00     0.251 C 
ATOM      6  H   UNL     1       1.712   1.213  -1.153  1.00  0.00     0.163 HD
BRANCH   5   7
ATOM      7  C   UNL     1       2.500  -0.692   1.450  1.00  0.00     0.039 A 
ATOM      8  C   UNL     1       3.571  -0.096   2.121  1.00  0.00     0.014 A 
ATOM      9  C   UNL     1       2.173  -2.033   1.664  1.00  0.00     0.014 A 
ATOM     10  C   UNL     1       4.340  -0.857   2.996  1.00  0.00     0.010 A 
ATOM     11  C   UNL     1       2.917  -2.782   2.577  1.00  0.00     0.010 A 
ATOM     12  C   UNL     1       3.995  -2.194   3.260  1.00  0.00    -0.014 A 
BRANCH  12  13
ATOM     13  C   UNL     1       4.668  -2.905   4.373  1.00  0.00     0.031 A 
ATOM     14  C   UNL     1       5.601  -4.049   4.131  1.00  0.00     0.074 A 
ATOM     15  C   UNL     1       4.404  -2.495   5.629  1.00  0.00     0.049 A 
ATOM     16  N   UNL     1       6.307  -4.727   5.000  1.00  0.00    -0.248 NA
ATOM     17  C   UNL     1       5.755  -4.500   2.742  1.00  0.00     0.031 C 
ATOM     18  C   UNL     1       3.475  -1.416   5.972  1.00  0.00     0.029 A 
ATOM     19  N   UNL     1       4.889  -2.915   6.840  1.00  0.00    -0.354 N 
ATOM     20  C   UNL     1       6.991  -5.686   4.267  1.00  0.00     0.074 A 
ATOM     21  C   UNL     1       6.581  -5.529   2.887  1.00  0.00     0.031 C 
ATOM     22  C   UNL     1       3.488  -1.230   7.298  1.00  0.00     0.029 A 
ATOM     23  C   UNL     1       4.387  -2.207   7.905  1.00  0.00     0.049 A 
ATOM     24  H   UNL     1       5.534  -3.652   6.938  1.00  0.00     0.167 HD
ATOM     25  C   UNL     1       7.887  -6.598   4.714  1.00  0.00     0.037 A 
ATOM     26  C   UNL     1       4.619  -2.329   9.226  1.00  0.00     0.037 A 
ATOM     27  C   UNL     1       8.278  -6.737   6.095  1.00  0.00     0.049 A 
ATOM     28  C   UNL     1       5.599  -3.362   9.699  1.00  0.00     0.074 A 
ATOM     29  C   UNL     1       9.223  -7.588   6.640  1.00  0.00     0.029 A 
ATOM     30  N   UNL     1       7.731  -6.020   7.152  1.00  0.00    -0.354 N 
ATOM     31  N   UNL     1       6.309  -4.206   8.989  1.00  0.00    -0.248 NA
ATOM     32  C   UNL     1       5.817  -3.463  11.147  1.00  0.00     0.031 C 
ATOM     33  C   UNL     1       9.192  -7.443   8.030  1.00  0.00     0.029 A 
ATOM     34  C   UNL     1       8.285  -6.445   8.350  1.00  0.00     0.049 A 
ATOM     35  H   UNL     1       7.049  -5.315   7.064  1.00  0.00     0.167 HD
ATOM     36  C   UNL     1       7.068  -4.928   9.898  1.00  0.00     0.074 A 
ATOM     37  C   UNL     1       6.743  -4.412  11.213  1.00  0.00     0.031 C 
ATOM     38  C   UNL     1       7.952  -5.926   9.657  1.00  0.00     0.037 A 
BRANCH  25  39
ATOM     39  C   UNL     1       8.500  -7.532   3.708  1.00  0.00     0.064 A 
ATOM     40  C   UNL     1       9.386  -7.077   2.719  1.00  0.00     0.173 A 
ATOM     41  C   UNL     1       8.247  -8.912   3.771  1.00  0.00     0.173 A 
ATOM     42  F   UNL     1       9.670  -5.770   2.615  1.00  0.00    -0.203 F 
ATOM     43  C   UNL     1       9.966  -7.961   1.811  1.00  0.00     0.198 A 
ATOM     44  C   UNL     1       8.857  -9.797   2.885  1.00  0.00     0.198 A 
ATOM     45  F   UNL     1       7.422  -9.408   4.705  1.00  0.00    -0.203 F 
ATOM     46  F   UNL     1      10.772  -7.495   0.847  1.00  0.00    -0.200 F 
ATOM     47  C   UNL     1       9.708  -9.320   1.900  1.00  0.00     0.200 A 
ATOM     48  F   UNL     1       8.625 -11.113   2.989  1.00  0.00    -0.200 F 
ATOM     49  F   UNL     1      10.279 -10.171   1.036  1.00  0.00    -0.200 F 
ENDBRANCH  25  39
BRANCH  26  50
ATOM     50  C   UNL     1       3.922  -1.411  10.162  1.00  0.00     0.064 A 
ATOM     51  C   UNL     1       4.616  -0.386  10.818  1.00  0.00     0.173 A 
ATOM     52  C   UNL     1       2.530  -1.476  10.341  1.00  0.00     0.173 A 
ATOM     53  F   UNL     1       5.947  -0.291  10.690  1.00  0.00    -0.203 F 
ATOM     54  C   UNL     1       3.944   0.546  11.607  1.00  0.00     0.198 A 
ATOM     55  C   UNL     1       1.857  -0.526  11.106  1.00  0.00     0.198 A 
ATOM     56  F   UNL     1       1.819  -2.433   9.727  1.00  0.00    -0.203 F 
ATOM     57  F   UNL     1       4.633   1.511  12.233  1.00  0.00    -0.200 F 
ATOM     58  C   UNL     1       2.565   0.484  11.738  1.00  0.00     0.200 A 
ATOM     59  F   UNL     1       0.522  -0.576  11.210  1.00  0.00    -0.200 F 
ATOM     60  F   UNL     1       1.917   1.402  12.470  1.00  0.00    -0.200 F 
ENDBRANCH  26  50
BRANCH  38  61
ATOM     61  C   UNL     1       8.654  -6.542  10.833  1.00  0.00     0.064 A 
ATOM     62  C   UNL     1       7.984  -7.395  11.722  1.00  0.00     0.173 A 
ATOM     63  C   UNL     1      10.038  -6.375  11.001  1.00  0.00     0.173 A 
ATOM     64  F   UNL     1       6.659  -7.577  11.614  1.00  0.00    -0.203 F 
ATOM     65  C   UNL     1       8.675  -8.062  12.730  1.00  0.00     0.198 A 
ATOM     66  C   UNL     1      10.730  -7.068  11.989  1.00  0.00     0.198 A 
ATOM     67  F   UNL     1      10.727  -5.573  10.174  1.00  0.00    -0.203 F 
ATOM     68  F   UNL     1       8.011  -8.859  13.580  1.00  0.00    -0.200 F 
ATOM     69  C   UNL     1      10.048  -7.911  12.853  1.00  0.00     0.200 A 
ATOM     70  F   UNL     1      12.060  -6.937  12.092  1.00  0.00    -0.200 F 
ATOM     71  F   UNL     1      10.716  -8.582  13.801  1.00  0.00    -0.200 F 
ENDBRANCH  38  61
ENDBRANCH  12  13
ENDBRANCH   5   7
ENDBRANCH   2   3
ENDBRANCH   1   2
BRANCH   1  72
ATOM     72  C   UNL     1       4.342   0.447  -4.817  1.00  0.00     0.023 C 
BRANCH  72  73
ATOM     73  C   UNL     1       5.043   1.703  -5.334  1.00  0.00     0.116 C 
BRANCH  73  74
ATOM     74  N   UNL     1       6.422   1.946  -4.924  1.00  0.00    -0.355 N 
ATOM     75  C   UNL     1       7.059   3.182  -4.891  1.00  0.00     0.238 C 
ATOM     76  H   UNL     1       6.950   1.164  -4.646  1.00  0.00     0.163 HD
ATOM     77  O   UNL     1       8.251   3.258  -4.601  1.00  0.00    -0.273 OA
BRANCH  75  78
ATOM     78  C   UNL     1       6.218   4.388  -5.265  1.00  0.00     0.162 C 
ATOM     79  C   UNL     1       6.806   5.790  -5.242  1.00  0.00     0.032 C 
ATOM     80  N   UNL     1       4.924   4.563  -4.545  1.00  0.00    -0.185 NA
ATOM     81  C   UNL     1       5.573   6.637  -5.582  1.00  0.00     0.019 C 
ATOM     82  C   UNL     1       4.359   5.802  -5.152  1.00  0.00     0.103 C 
BRANCH  80  83
ATOM     83  S   UNL     1       4.857   4.515  -2.837  1.00  0.00     0.244 S 
ATOM     84  O   UNL     1       5.701   5.573  -2.328  1.00  0.00    -0.207 OA
ATOM     85  O   UNL     1       3.452   4.479  -2.484  1.00  0.00    -0.207 OA
BRANCH  83  86
ATOM     86  C   UNL     1       5.562   2.964  -2.320  1.00  0.00     0.090 A 
ATOM     87  C   UNL     1       6.929   2.942  -1.820  1.00  0.00     0.024 A 
ATOM     88  C   UNL     1       4.788   1.786  -2.373  1.00  0.00     0.005 A 
ATOM     89  C   UNL     1       7.705   1.795  -1.388  1.00  0.00     0.028 A 
ATOM     90  C   UNL     1       5.763   0.520  -1.701  1.00  0.00     0.019 A 
ATOM     91  C   UNL     1       3.102   1.344  -2.879  1.00  0.00     0.010 A 
ATOM     92  C   UNL     1       7.062   0.574  -1.341  1.00  0.00     0.050 A 
ATOM     93  C   UNL     1       5.263  -1.139  -1.542  1.00  0.00     0.050 A 
ATOM     94  C   UNL     1       2.540  -0.369  -2.704  1.00  0.00     0.002 A 
ATOM     95  N   UNL     1       7.454  -0.741  -1.008  1.00  0.00    -0.321 N 
ATOM     96  C   UNL     1       3.598  -1.652  -1.946  1.00  0.00     0.014 A 
ATOM     97  C   UNL     1       6.470  -1.796  -1.081  1.00  0.00     0.256 C 
ATOM     98  H   UNL     1       8.379  -0.934  -0.733  1.00  0.00     0.170 HD
ATOM     99  O   UNL     1       6.703  -2.967  -0.815  1.00  0.00    -0.269 OA
ENDBRANCH  83  86
ENDBRANCH  80  83
ENDBRANCH  75  78
ENDBRANCH  73  74
ENDBRANCH  72  73
ENDBRANCH   1  72
TORSDOF 13
