REMARK SMILES Cc1cc(N2CCC[C@H]2C2CCCC2)cc(C(=O)NCCCCNC(=O)c2ccc(-c3c4nc(c(-c5c(F)c(F)c(F)c(F)c5F)c5ccc([nH]5)c(-c5c(F)c(F)c(F)c(F)c5F)c5nc(c(-c6c(F)c(F)c(F)c(F)c6F)c6ccc3[nH]6)C=C5)C=C4)cc2)c1N
REMARK SMILES IDX 21 1 20 2 19 3 17 4 18 5 16 7 1 8 2 9 3 10 90 11 4 12 15 13
REMARK SMILES IDX 91 14 5 17 6 18 9 19 7 20 8 21 10 22 11 23 14 24 12 25 13 26
REMARK SMILES IDX 22 27 23 28 24 29 25 30 26 32 27 33 28 34 89 35 29 36 88 37
REMARK SMILES IDX 30 38 31 39 32 40 82 41 33 42 87 43 81 44 83 45 34 46 86 47
REMARK SMILES IDX 80 48 79 49 35 51 67 52 47 53 66 54 48 55 51 56 65 57 84 58
REMARK SMILES IDX 49 59 50 60 64 62 85 63 52 64 36 65 37 66 45 67 38 68 39 69
REMARK SMILES IDX 43 70 46 71 40 72 41 73 44 74 42 75 68 76 69 77 77 78 70 79
REMARK SMILES IDX 71 80 75 81 78 82 72 83 73 84 76 85 74 86 53 87 54 88 62 89
REMARK SMILES IDX 55 90 56 91 60 92 63 93 57 94 58 95 61 96 59 97
REMARK H PARENT 19 6 91 15 91 16 24 31 83 50 51 61
REMARK Flexibility Score: inf
ROOT
ATOM      1  C   UNL     1      -3.257  -3.888  -1.455  1.00  0.00     0.023 C 
ENDROOT
BRANCH   1   2
ATOM      2  C   UNL     1      -2.323  -3.712  -0.251  1.00  0.00     0.116 C 
BRANCH   2   3
ATOM      3  N   UNL     1      -0.944  -3.631  -0.688  1.00  0.00    -0.352 N 
ATOM      4  C   UNL     1      -0.043  -2.603  -0.800  1.00  0.00     0.253 C 
ATOM      5  O   UNL     1       1.085  -2.930  -1.185  1.00  0.00    -0.269 OA
ATOM      6  H   UNL     1      -0.574  -4.500  -0.963  1.00  0.00     0.163 HD
BRANCH   4   7
ATOM      7  C   UNL     1      -0.322  -1.164  -0.465  1.00  0.00     0.065 A 
ATOM      8  C   UNL     1       1.671   1.955   0.558  1.00  0.00     0.046 C 
ATOM      9  C   UNL     1       0.543   1.023   0.204  1.00  0.00    -0.025 A 
ATOM     10  C   UNL     1      -0.761   1.538   0.127  1.00  0.00     0.031 A 
ATOM     11  C   UNL     1       0.772  -0.338  -0.082  1.00  0.00     0.047 A 
ATOM     12  C   UNL     1      -1.846   0.752  -0.279  1.00  0.00     0.038 A 
ATOM     13  C   UNL     1      -1.596  -0.586  -0.620  1.00  0.00     0.042 A 
BRANCH  11  14
ATOM     14  N   UNL     1       2.043  -0.878   0.165  1.00  0.00    -0.398 N 
ATOM     15  H   UNL     1       2.786  -0.289   0.429  1.00  0.00     0.156 HD
ATOM     16  H   UNL     1       2.192  -1.847   0.075  1.00  0.00     0.156 HD
ENDBRANCH  11  14
BRANCH  12  17
ATOM     17  N   UNL     1      -3.146   1.272  -0.376  1.00  0.00    -0.368 N 
ATOM     18  C   UNL     1      -3.288   2.435  -1.273  1.00  0.00     0.117 C 
ATOM     19  C   UNL     1      -3.861   1.550   0.903  1.00  0.00     0.085 C 
ATOM     20  C   UNL     1      -3.594   3.604  -0.345  1.00  0.00     0.024 C 
ATOM     21  C   UNL     1      -4.454   2.965   0.724  1.00  0.00     0.027 C 
BRANCH  19  22
ATOM     22  C   UNL     1      -4.982   0.545   1.228  1.00  0.00     0.011 C 
ATOM     23  C   UNL     1      -6.035   0.329   0.134  1.00  0.00     0.006 C 
ATOM     24  C   UNL     1      -4.504  -0.863   1.585  1.00  0.00     0.006 C 
ATOM     25  C   UNL     1      -6.710  -0.967   0.546  1.00  0.00     0.000 C 
ATOM     26  C   UNL     1      -5.565  -1.823   1.057  1.00  0.00     0.000 C 
ENDBRANCH  19  22
ENDBRANCH  12  17
ENDBRANCH   4   7
ENDBRANCH   2   3
ENDBRANCH   1   2
BRANCH   1  27
ATOM     27  C   UNL     1      -3.873  -5.285  -1.565  1.00  0.00     0.023 C 
BRANCH  27  28
ATOM     28  C   UNL     1      -4.833  -5.678  -0.444  1.00  0.00     0.116 C 
BRANCH  28  29
ATOM     29  N   UNL     1      -6.085  -4.937  -0.440  1.00  0.00    -0.352 N 
ATOM     30  C   UNL     1      -7.349  -5.353  -0.085  1.00  0.00     0.251 C 
ATOM     31  H   UNL     1      -6.018  -4.000  -0.735  1.00  0.00     0.163 HD
ATOM     32  O   UNL     1      -8.290  -4.562  -0.098  1.00  0.00    -0.269 OA
BRANCH  30  33
ATOM     33  C   UNL     1      -7.594  -6.782   0.203  1.00  0.00     0.039 A 
ATOM     34  C   UNL     1      -8.606  -7.424  -0.516  1.00  0.00     0.014 A 
ATOM     35  C   UNL     1      -6.769  -7.509   1.062  1.00  0.00     0.014 A 
ATOM     36  C   UNL     1      -8.698  -8.815  -0.485  1.00  0.00     0.010 A 
ATOM     37  C   UNL     1      -6.813  -8.900   1.035  1.00  0.00     0.010 A 
ATOM     38  C   UNL     1      -7.750  -9.566   0.228  1.00  0.00    -0.014 A 
BRANCH  38  39
ATOM     39  C   UNL     1      -7.662 -11.038   0.059  1.00  0.00     0.031 A 
ATOM     40  C   UNL     1      -7.900 -11.957   1.218  1.00  0.00     0.074 A 
ATOM     41  C   UNL     1      -7.272 -11.538  -1.131  1.00  0.00     0.049 A 
ATOM     42  N   UNL     1      -7.786 -13.259   1.277  1.00  0.00    -0.248 NA
ATOM     43  C   UNL     1      -8.289 -11.327   2.489  1.00  0.00     0.031 C 
ATOM     44  C   UNL     1      -6.944 -10.743  -2.318  1.00  0.00     0.029 A 
ATOM     45  N   UNL     1      -7.072 -12.834  -1.539  1.00  0.00    -0.354 N 
ATOM     46  C   UNL     1      -8.068 -13.603   2.591  1.00  0.00     0.074 A 
ATOM     47  C   UNL     1      -8.318 -12.369   3.307  1.00  0.00     0.031 C 
ATOM     48  C   UNL     1      -6.611 -11.567  -3.323  1.00  0.00     0.029 A 
ATOM     49  C   UNL     1      -6.666 -12.945  -2.846  1.00  0.00     0.049 A 
ATOM     50  H   UNL     1      -7.207 -13.611  -0.949  1.00  0.00     0.167 HD
ATOM     51  C   UNL     1      -8.129 -14.837   3.145  1.00  0.00     0.037 A 
ATOM     52  C   UNL     1      -6.368 -14.034  -3.579  1.00  0.00     0.037 A 
ATOM     53  C   UNL     1      -7.911 -16.063   2.425  1.00  0.00     0.049 A 
ATOM     54  C   UNL     1      -6.477 -15.394  -2.948  1.00  0.00     0.074 A 
ATOM     55  C   UNL     1      -8.016 -17.365   2.882  1.00  0.00     0.029 A 
ATOM     56  N   UNL     1      -7.543 -16.138   1.089  1.00  0.00    -0.354 N 
ATOM     57  N   UNL     1      -6.812 -15.710  -1.722  1.00  0.00    -0.248 NA
ATOM     58  C   UNL     1      -6.172 -16.549  -3.805  1.00  0.00     0.031 C 
ATOM     59  C   UNL     1      -7.683 -18.227   1.831  1.00  0.00     0.029 A 
ATOM     60  C   UNL     1      -7.405 -17.463   0.709  1.00  0.00     0.049 A 
ATOM     61  H   UNL     1      -7.401 -15.363   0.498  1.00  0.00     0.167 HD
ATOM     62  C   UNL     1      -6.782 -17.096  -1.664  1.00  0.00     0.074 A 
ATOM     63  C   UNL     1      -6.406 -17.562  -2.983  1.00  0.00     0.031 C 
ATOM     64  C   UNL     1      -7.041 -17.909  -0.611  1.00  0.00     0.037 A 
BRANCH  51  65
ATOM     65  C   UNL     1      -8.453 -14.918   4.607  1.00  0.00     0.064 A 
ATOM     66  C   UNL     1      -9.741 -14.637   5.088  1.00  0.00     0.173 A 
ATOM     67  C   UNL     1      -7.473 -15.299   5.534  1.00  0.00     0.173 A 
ATOM     68  F   UNL     1     -10.709 -14.255   4.242  1.00  0.00    -0.203 F 
ATOM     69  C   UNL     1     -10.027 -14.704   6.449  1.00  0.00     0.198 A 
ATOM     70  C   UNL     1      -7.769 -15.390   6.892  1.00  0.00     0.198 A 
ATOM     71  F   UNL     1      -6.227 -15.582   5.125  1.00  0.00    -0.203 F 
ATOM     72  F   UNL     1     -11.250 -14.382   6.891  1.00  0.00    -0.200 F 
ATOM     73  C   UNL     1      -9.043 -15.085   7.349  1.00  0.00     0.200 A 
ATOM     74  F   UNL     1      -6.820 -15.767   7.760  1.00  0.00    -0.200 F 
ATOM     75  F   UNL     1      -9.319 -15.149   8.658  1.00  0.00    -0.200 F 
ENDBRANCH  51  65
BRANCH  52  76
ATOM     76  C   UNL     1      -5.974 -13.884  -5.002  1.00  0.00     0.064 A 
ATOM     77  C   UNL     1      -6.852 -14.254  -6.031  1.00  0.00     0.173 A 
ATOM     78  C   UNL     1      -4.724 -13.364  -5.365  1.00  0.00     0.173 A 
ATOM     79  F   UNL     1      -8.051 -14.775  -5.731  1.00  0.00    -0.203 F 
ATOM     80  C   UNL     1      -6.488 -14.124  -7.369  1.00  0.00     0.198 A 
ATOM     81  C   UNL     1      -4.370 -13.213  -6.704  1.00  0.00     0.198 A 
ATOM     82  F   UNL     1      -3.851 -12.991  -4.417  1.00  0.00    -0.203 F 
ATOM     83  F   UNL     1      -7.332 -14.519  -8.332  1.00  0.00    -0.200 F 
ATOM     84  C   UNL     1      -5.249 -13.598  -7.705  1.00  0.00     0.200 A 
ATOM     85  F   UNL     1      -3.176 -12.695  -7.025  1.00  0.00    -0.200 F 
ATOM     86  F   UNL     1      -4.901 -13.469  -8.992  1.00  0.00    -0.200 F 
ENDBRANCH  52  76
BRANCH  64  87
ATOM     87  C   UNL     1      -6.958 -19.386  -0.850  1.00  0.00     0.064 A 
ATOM     88  C   UNL     1      -5.724 -20.040  -0.974  1.00  0.00     0.173 A 
ATOM     89  C   UNL     1      -8.126 -20.160  -0.914  1.00  0.00     0.173 A 
ATOM     90  F   UNL     1      -4.581 -19.338  -0.937  1.00  0.00    -0.203 F 
ATOM     91  C   UNL     1      -5.663 -21.416  -1.171  1.00  0.00     0.198 A 
ATOM     92  C   UNL     1      -8.060 -21.539  -1.088  1.00  0.00     0.198 A 
ATOM     93  F   UNL     1      -9.329 -19.579  -0.798  1.00  0.00    -0.203 F 
ATOM     94  F   UNL     1      -4.475 -22.017  -1.324  1.00  0.00    -0.200 F 
ATOM     95  C   UNL     1      -6.830 -22.165  -1.221  1.00  0.00     0.200 A 
ATOM     96  F   UNL     1      -9.187 -22.263  -1.127  1.00  0.00    -0.200 F 
ATOM     97  F   UNL     1      -6.768 -23.491  -1.404  1.00  0.00    -0.200 F 
ENDBRANCH  64  87
ENDBRANCH  38  39
ENDBRANCH  30  33
ENDBRANCH  28  29
ENDBRANCH  27  28
ENDBRANCH   1  27
TORSDOF 14
