REMARK SMILES CN(C(=O)c1cccn1CC(=O)NCCCCNC(=O)c1ccc(-c2c3nc(c(-c4c(F)c(F)c(F)c(F)c4F)c4ccc([nH]4)c(-c4c(F)c(F)c(F)c(F)c4F)c4nc(c(-c5c(F)c(F)c(F)c(F)c5F)c5ccc2[nH]5)C=C4)C=C3)cc1)C1CCC(C)(C)CC1
REMARK SMILES IDX 14 1 13 2 11 3 12 4 10 6 9 7 5 8 6 9 7 10 8 11 3 12 4 13
REMARK SMILES IDX 2 14 1 15 84 16 85 17 91 18 86 19 90 20 87 21 88 22 89 23
REMARK SMILES IDX 15 24 16 25 17 26 18 27 19 28 20 30 21 31 22 32 83 33 23 34
REMARK SMILES IDX 82 35 24 36 25 37 26 38 76 39 27 40 81 41 75 42 77 43 28 44
REMARK SMILES IDX 80 45 74 46 73 47 29 49 61 50 41 51 60 52 42 53 45 54 59 55
REMARK SMILES IDX 78 56 43 57 44 58 58 60 79 61 46 62 30 63 31 64 39 65 32 66
REMARK SMILES IDX 33 67 37 68 40 69 34 70 35 71 38 72 36 73 62 74 63 75 71 76
REMARK SMILES IDX 64 77 65 78 69 79 72 80 66 81 67 82 70 83 68 84 47 85 48 86
REMARK SMILES IDX 56 87 49 88 50 89 54 90 57 91 51 92 52 93 55 94 53 95
REMARK H PARENT 13 5 18 29 77 48 45 59
REMARK Flexibility Score: inf
ROOT
ATOM      1  C   UNL     1       2.287  -2.849  -2.313  1.00  0.00     0.116 C 
ENDROOT
BRANCH   1   2
ATOM      2  N   UNL     1       1.797  -3.935  -3.135  1.00  0.00    -0.355 N 
ATOM      3  C   UNL     1       0.546  -4.119  -3.655  1.00  0.00     0.239 C 
ATOM      4  O   UNL     1       0.327  -5.167  -4.266  1.00  0.00    -0.273 OA
ATOM      5  H   UNL     1       2.454  -4.637  -3.349  1.00  0.00     0.163 HD
BRANCH   3   6
ATOM      6  C   UNL     1      -0.507  -3.033  -3.543  1.00  0.00     0.222 C 
BRANCH   6   7
ATOM      7  N   UNL     1      -0.998  -2.820  -2.185  1.00  0.00    -0.334 N 
ATOM      8  C   UNL     1      -1.009  -1.623  -1.479  1.00  0.00     0.107 A 
ATOM      9  C   UNL     1      -1.655  -1.893  -0.277  1.00  0.00     0.033 A 
ATOM     10  C   UNL     1      -1.929  -3.277  -0.212  1.00  0.00     0.020 A 
ATOM     11  C   UNL     1      -1.530  -3.822  -1.407  1.00  0.00     0.087 A 
BRANCH   8  12
ATOM     12  C   UNL     1      -0.454  -0.359  -1.961  1.00  0.00     0.270 C 
ATOM     13  O   UNL     1      -0.615  -0.018  -3.131  1.00  0.00    -0.267 OA
BRANCH  12  14
ATOM     14  N   UNL     1       0.338   0.412  -1.078  1.00  0.00    -0.337 N 
ATOM     15  C   UNL     1       0.892  -0.172   0.143  1.00  0.00     0.147 C 
BRANCH  14  16
ATOM     16  C   UNL     1       0.927   1.691  -1.579  1.00  0.00     0.085 C 
ATOM     17  C   UNL     1      -0.099   2.710  -2.127  1.00  0.00     0.026 C 
ATOM     18  C   UNL     1       1.839   2.446  -0.580  1.00  0.00     0.026 C 
ATOM     19  C   UNL     1      -0.896   3.413  -1.030  1.00  0.00     0.008 C 
ATOM     20  C   UNL     1       1.061   3.135   0.546  1.00  0.00     0.008 C 
ATOM     21  C   UNL     1      -0.021   4.106   0.036  1.00  0.00    -0.035 C 
ATOM     22  C   UNL     1      -0.922   4.522   1.214  1.00  0.00     0.011 C 
ATOM     23  C   UNL     1       0.645   5.377  -0.524  1.00  0.00     0.011 C 
ENDBRANCH  14  16
ENDBRANCH  12  14
ENDBRANCH   8  12
ENDBRANCH   6   7
ENDBRANCH   3   6
ENDBRANCH   1   2
BRANCH   1  24
ATOM     24  C   UNL     1       2.363  -3.252  -0.840  1.00  0.00     0.023 C 
BRANCH  24  25
ATOM     25  C   UNL     1       3.475  -4.246  -0.489  1.00  0.00     0.023 C 
BRANCH  25  26
ATOM     26  C   UNL     1       4.878  -3.699  -0.728  1.00  0.00     0.116 C 
BRANCH  26  27
ATOM     27  N   UNL     1       5.140  -2.510   0.072  1.00  0.00    -0.352 N 
ATOM     28  C   UNL     1       6.260  -1.713   0.083  1.00  0.00     0.251 C 
ATOM     29  H   UNL     1       4.419  -2.242   0.687  1.00  0.00     0.163 HD
ATOM     30  O   UNL     1       6.489  -0.979   1.031  1.00  0.00    -0.269 OA
BRANCH  28  31
ATOM     31  C   UNL     1       7.189  -1.750  -1.060  1.00  0.00     0.039 A 
ATOM     32  C   UNL     1       8.567  -1.748  -0.814  1.00  0.00     0.014 A 
ATOM     33  C   UNL     1       6.691  -1.721  -2.366  1.00  0.00     0.014 A 
ATOM     34  C   UNL     1       9.446  -1.774  -1.888  1.00  0.00     0.010 A 
ATOM     35  C   UNL     1       7.559  -1.809  -3.436  1.00  0.00     0.010 A 
ATOM     36  C   UNL     1       8.934  -1.824  -3.192  1.00  0.00    -0.014 A 
BRANCH  36  37
ATOM     37  C   UNL     1       9.863  -1.964  -4.326  1.00  0.00     0.031 A 
ATOM     38  C   UNL     1      10.392  -3.424  -4.439  1.00  0.00     0.074 A 
ATOM     39  C   UNL     1      10.070  -0.801  -5.026  1.00  0.00     0.049 A 
ATOM     40  N   UNL     1      11.497  -3.889  -4.939  1.00  0.00    -0.248 NA
ATOM     41  C   UNL     1       9.582  -4.537  -3.856  1.00  0.00     0.031 C 
ATOM     42  C   UNL     1       9.386   0.494  -4.761  1.00  0.00     0.029 A 
ATOM     43  N   UNL     1      10.877  -0.446  -6.083  1.00  0.00    -0.354 N 
ATOM     44  C   UNL     1      11.448  -5.308  -4.892  1.00  0.00     0.074 A 
ATOM     45  C   UNL     1      10.285  -5.642  -4.130  1.00  0.00     0.031 C 
ATOM     46  C   UNL     1       9.868   1.479  -5.549  1.00  0.00     0.029 A 
ATOM     47  C   UNL     1      10.911   0.946  -6.395  1.00  0.00     0.049 A 
ATOM     48  H   UNL     1      11.396  -1.109  -6.592  1.00  0.00     0.167 HD
ATOM     49  C   UNL     1      12.321  -6.109  -5.580  1.00  0.00     0.037 A 
ATOM     50  C   UNL     1      11.782   1.616  -7.217  1.00  0.00     0.037 A 
ATOM     51  C   UNL     1      13.246  -5.297  -6.291  1.00  0.00     0.049 A 
ATOM     52  C   UNL     1      12.600   0.546  -7.798  1.00  0.00     0.074 A 
ATOM     53  C   UNL     1      14.353  -4.612  -5.873  1.00  0.00     0.029 A 
ATOM     54  N   UNL     1      12.845  -4.817  -7.513  1.00  0.00    -0.354 N 
ATOM     55  N   UNL     1      12.184  -0.300  -8.690  1.00  0.00    -0.248 NA
ATOM     56  C   UNL     1      13.927   0.303  -7.222  1.00  0.00     0.031 C 
ATOM     57  C   UNL     1      14.255  -3.405  -6.589  1.00  0.00     0.029 A 
ATOM     58  C   UNL     1      13.294  -3.523  -7.600  1.00  0.00     0.049 A 
ATOM     59  H   UNL     1      12.334  -5.307  -8.197  1.00  0.00     0.167 HD
ATOM     60  C   UNL     1      13.064  -1.342  -8.535  1.00  0.00     0.074 A 
ATOM     61  C   UNL     1      14.240  -0.804  -7.886  1.00  0.00     0.031 C 
ATOM     62  C   UNL     1      12.602  -2.617  -8.482  1.00  0.00     0.037 A 
BRANCH  49  63
ATOM     63  C   UNL     1      12.393  -7.583  -5.887  1.00  0.00     0.064 A 
ATOM     64  C   UNL     1      13.655  -8.127  -6.252  1.00  0.00     0.173 A 
ATOM     65  C   UNL     1      11.273  -8.348  -6.222  1.00  0.00     0.173 A 
ATOM     66  F   UNL     1      14.795  -7.506  -5.910  1.00  0.00    -0.203 F 
ATOM     67  C   UNL     1      13.773  -9.266  -7.046  1.00  0.00     0.198 A 
ATOM     68  C   UNL     1      11.399  -9.523  -6.979  1.00  0.00     0.198 A 
ATOM     69  F   UNL     1      10.039  -7.927  -5.915  1.00  0.00    -0.203 F 
ATOM     70  F   UNL     1      14.977  -9.649  -7.495  1.00  0.00    -0.200 F 
ATOM     71  C   UNL     1      12.639  -9.951  -7.430  1.00  0.00     0.200 A 
ATOM     72  F   UNL     1      10.300 -10.200  -7.340  1.00  0.00    -0.200 F 
ATOM     73  F   UNL     1      12.737 -11.002  -8.257  1.00  0.00    -0.200 F 
ENDBRANCH  49  63
BRANCH  50  74
ATOM     74  C   UNL     1      12.211   3.038  -7.525  1.00  0.00     0.064 A 
ATOM     75  C   UNL     1      11.560   4.211  -7.126  1.00  0.00     0.173 A 
ATOM     76  C   UNL     1      13.447   3.267  -8.201  1.00  0.00     0.173 A 
ATOM     77  F   UNL     1      10.326   4.173  -6.614  1.00  0.00    -0.203 F 
ATOM     78  C   UNL     1      12.163   5.480  -7.259  1.00  0.00     0.198 A 
ATOM     79  C   UNL     1      14.073   4.511  -8.277  1.00  0.00     0.198 A 
ATOM     80  F   UNL     1      14.109   2.275  -8.813  1.00  0.00    -0.203 F 
ATOM     81  F   UNL     1      11.507   6.576  -6.851  1.00  0.00    -0.200 F 
ATOM     82  C   UNL     1      13.438   5.622  -7.784  1.00  0.00     0.200 A 
ATOM     83  F   UNL     1      15.301   4.606  -8.807  1.00  0.00    -0.200 F 
ATOM     84  F   UNL     1      14.041   6.817  -7.828  1.00  0.00    -0.200 F 
ENDBRANCH  50  74
BRANCH  62  85
ATOM     85  C   UNL     1      11.216  -2.807  -9.081  1.00  0.00     0.064 A 
ATOM     86  C   UNL     1      11.003  -2.526 -10.440  1.00  0.00     0.173 A 
ATOM     87  C   UNL     1      10.067  -3.140  -8.343  1.00  0.00     0.173 A 
ATOM     88  F   UNL     1      12.045  -2.219 -11.227  1.00  0.00    -0.203 F 
ATOM     89  C   UNL     1       9.726  -2.554 -11.010  1.00  0.00     0.198 A 
ATOM     90  C   UNL     1       8.788  -3.175  -8.908  1.00  0.00     0.198 A 
ATOM     91  F   UNL     1      10.150  -3.447  -7.052  1.00  0.00    -0.203 F 
ATOM     92  F   UNL     1       9.571  -2.274 -12.310  1.00  0.00    -0.200 F 
ATOM     93  C   UNL     1       8.618  -2.876 -10.244  1.00  0.00     0.200 A 
ATOM     94  F   UNL     1       7.728  -3.504  -8.152  1.00  0.00    -0.200 F 
ATOM     95  F   UNL     1       7.396  -2.914 -10.793  1.00  0.00    -0.200 F 
ENDBRANCH  62  85
ENDBRANCH  36  37
ENDBRANCH  28  31
ENDBRANCH  26  27
ENDBRANCH  25  26
ENDBRANCH  24  25
ENDBRANCH   1  24
TORSDOF 15
