REMARK SMILES COc1c[nH]c(C[N@H+]2CCC[C@@H](c3ccc(C(=O)NCCCCNC(=O)c4ccc(-c5c6nc(c(-c7c(F)c(F)c(F)c(F)c7F)c7ccc([nH]7)c(-c7c(F)c(F)c(F)c(F)c7F)c7nc(c(-c8c(F)c(F)c(F)c(F)c8F)c8ccc5[nH]8)C=C7)C=C6)cc4)cc3)C2)cc1=O
REMARK SMILES IDX 20 1 19 2 17 3 18 4 16 6 13 7 14 8 91 9 15 10 90 11 12 12
REMARK SMILES IDX 8 13 9 14 92 15 10 17 11 18 7 19 6 20 3 21 4 22 94 23 5 24
REMARK SMILES IDX 93 25 95 26 2 28 1 29 21 30 22 31 23 32 24 33 25 34 26 36
REMARK SMILES IDX 27 37 28 38 89 39 29 40 88 41 30 42 31 43 32 44 82 45 33 46
REMARK SMILES IDX 87 47 81 48 83 49 34 50 86 51 80 52 79 53 35 55 67 56 47 57
REMARK SMILES IDX 66 58 48 59 51 60 65 61 84 62 49 63 50 64 64 66 85 67 52 68
REMARK SMILES IDX 36 69 37 70 45 71 38 72 39 73 43 74 46 75 40 76 41 77 44 78
REMARK SMILES IDX 42 79 68 80 69 81 77 82 70 83 71 84 75 85 78 86 72 87 73 88
REMARK SMILES IDX 76 89 74 90 53 91 54 92 62 93 55 94 56 95 60 96 63 97 57 98
REMARK SMILES IDX 58 99 61 100 59 101
REMARK H PARENT 19 5 8 16 5 27 24 35 83 54 51 65
REMARK Flexibility Score: inf
ROOT
ATOM      1  C   UNL     1      -6.597  -3.504   9.482  1.00  0.00     0.116 C 
ENDROOT
BRANCH   1   2
ATOM      2  N   UNL     1      -6.609  -2.161   8.943  1.00  0.00    -0.352 N 
ATOM      3  C   UNL     1      -5.595  -1.355   8.493  1.00  0.00     0.251 C 
ATOM      4  O   UNL     1      -5.901  -0.244   8.058  1.00  0.00    -0.269 OA
ATOM      5  H   UNL     1      -7.504  -1.753   8.891  1.00  0.00     0.163 HD
BRANCH   3   6
ATOM      6  C   UNL     1      -4.169  -1.787   8.447  1.00  0.00     0.039 A 
ATOM      7  C   UNL     1      -1.471  -2.579   8.130  1.00  0.00    -0.039 A 
ATOM      8  C   UNL     1      -2.040  -1.607   7.292  1.00  0.00     0.005 A 
ATOM      9  C   UNL     1      -2.245  -3.087   9.176  1.00  0.00     0.005 A 
ATOM     10  C   UNL     1      -3.376  -1.228   7.440  1.00  0.00     0.014 A 
ATOM     11  C   UNL     1      -3.571  -2.675   9.345  1.00  0.00     0.014 A 
BRANCH   7  12
ATOM     12  C   UNL     1      -0.054  -3.089   7.926  1.00  0.00     0.074 C 
ATOM     13  N   UNL     1       1.551  -3.947   6.181  1.00  0.00    -0.329 N 
ATOM     14  C   UNL     1       2.521  -2.910   6.555  1.00  0.00     0.262 C 
ATOM     15  C   UNL     1       0.175  -3.515   6.460  1.00  0.00     0.270 C 
ATOM     16  H   UNL     1       1.732  -4.761   6.767  1.00  0.00     0.348 HD
ATOM     17  C   UNL     1       2.390  -2.529   8.033  1.00  0.00     0.062 C 
ATOM     18  C   UNL     1       0.981  -2.047   8.360  1.00  0.00     0.020 C 
BRANCH  13  19
ATOM     19  C   UNL     1       1.731  -4.402   4.783  1.00  0.00     0.317 C 
BRANCH  19  20
ATOM     20  C   UNL     1       1.512  -3.356   3.693  1.00  0.00     0.074 A 
ATOM     21  C   UNL     1       0.872  -1.210   1.915  1.00  0.00     0.182 A 
ATOM     22  C   UNL     1      -0.058  -1.905   2.584  1.00  0.00     0.133 A 
ATOM     23  C   UNL     1       2.294  -1.692   2.070  1.00  0.00     0.223 A 
ATOM     24  N   UNL     1       0.218  -2.977   3.387  1.00  0.00    -0.357 N 
ATOM     25  C   UNL     1       2.549  -2.790   3.047  1.00  0.00     0.083 A 
ATOM     26  O   UNL     1       3.241  -1.208   1.456  1.00  0.00    -0.286 OA
ATOM     27  H   UNL     1      -0.531  -3.497   3.759  1.00  0.00     0.166 HD
BRANCH  21  28
ATOM     28  O   UNL     1       0.512  -0.083   1.201  1.00  0.00    -0.491 OA
ATOM     29  C   UNL     1       1.123   0.021  -0.079  1.00  0.00     0.278 C 
ENDBRANCH  21  28
ENDBRANCH  19  20
ENDBRANCH  13  19
ENDBRANCH   7  12
ENDBRANCH   3   6
ENDBRANCH   1   2
BRANCH   1  30
ATOM     30  C   UNL     1      -6.569  -3.467  11.011  1.00  0.00     0.023 C 
BRANCH  30  31
ATOM     31  C   UNL     1      -7.912  -3.126  11.659  1.00  0.00     0.023 C 
BRANCH  31  32
ATOM     32  C   UNL     1      -9.020  -4.134  11.392  1.00  0.00     0.116 C 
BRANCH  32  33
ATOM     33  N   UNL     1      -8.684  -5.485  11.814  1.00  0.00    -0.352 N 
ATOM     34  C   UNL     1      -9.531  -6.484  12.230  1.00  0.00     0.251 C 
ATOM     35  H   UNL     1      -7.726  -5.713  11.801  1.00  0.00     0.163 HD
ATOM     36  O   UNL     1      -9.088  -7.541  12.653  1.00  0.00    -0.269 OA
BRANCH  34  37
ATOM     37  C   UNL     1     -10.988  -6.242  12.204  1.00  0.00     0.039 A 
ATOM     38  C   UNL     1     -11.732  -6.520  13.352  1.00  0.00     0.014 A 
ATOM     39  C   UNL     1     -11.606  -5.711  11.069  1.00  0.00     0.014 A 
ATOM     40  C   UNL     1     -13.090  -6.205  13.383  1.00  0.00     0.010 A 
ATOM     41  C   UNL     1     -12.942  -5.330  11.127  1.00  0.00     0.010 A 
ATOM     42  C   UNL     1     -13.697  -5.578  12.283  1.00  0.00    -0.014 A 
BRANCH  42  43
ATOM     43  C   UNL     1     -15.124  -5.177  12.329  1.00  0.00     0.031 A 
ATOM     44  C   UNL     1     -16.121  -5.827  11.414  1.00  0.00     0.074 A 
ATOM     45  C   UNL     1     -15.507  -4.189  13.160  1.00  0.00     0.049 A 
ATOM     46  N   UNL     1     -17.405  -5.602  11.297  1.00  0.00    -0.248 NA
ATOM     47  C   UNL     1     -15.604  -6.846  10.487  1.00  0.00     0.031 C 
ATOM     48  C   UNL     1     -14.617  -3.437  14.047  1.00  0.00     0.029 A 
ATOM     49  N   UNL     1     -16.745  -3.645  13.392  1.00  0.00    -0.354 N 
ATOM     50  C   UNL     1     -17.843  -6.439  10.279  1.00  0.00     0.074 A 
ATOM     51  C   UNL     1     -16.680  -7.133   9.771  1.00  0.00     0.031 C 
ATOM     52  C   UNL     1     -15.342  -2.550  14.747  1.00  0.00     0.029 A 
ATOM     53  C   UNL     1     -16.741  -2.653  14.342  1.00  0.00     0.049 A 
ATOM     54  H   UNL     1     -17.559  -3.938  12.922  1.00  0.00     0.167 HD
ATOM     55  C   UNL     1     -19.105  -6.630   9.828  1.00  0.00     0.037 A 
ATOM     56  C   UNL     1     -17.754  -1.917  14.834  1.00  0.00     0.037 A 
ATOM     57  C   UNL     1     -20.262  -5.958  10.357  1.00  0.00     0.049 A 
ATOM     58  C   UNL     1     -19.152  -2.171  14.338  1.00  0.00     0.074 A 
ATOM     59  C   UNL     1     -21.592  -6.125  10.012  1.00  0.00     0.029 A 
ATOM     60  N   UNL     1     -20.224  -4.987  11.347  1.00  0.00    -0.354 N 
ATOM     61  N   UNL     1     -19.566  -3.024  13.434  1.00  0.00    -0.248 NA
ATOM     62  C   UNL     1     -20.224  -1.370  14.944  1.00  0.00     0.031 C 
ATOM     63  C   UNL     1     -22.355  -5.229  10.767  1.00  0.00     0.029 A 
ATOM     64  C   UNL     1     -21.506  -4.537  11.617  1.00  0.00     0.049 A 
ATOM     65  H   UNL     1     -19.407  -4.666  11.793  1.00  0.00     0.167 HD
ATOM     66  C   UNL     1     -20.947  -2.888  13.384  1.00  0.00     0.074 A 
ATOM     67  C   UNL     1     -21.301  -1.877  14.359  1.00  0.00     0.031 C 
ATOM     68  C   UNL     1     -21.841  -3.542  12.603  1.00  0.00     0.037 A 
BRANCH  55  69
ATOM     69  C   UNL     1     -19.300  -7.616   8.713  1.00  0.00     0.064 A 
ATOM     70  C   UNL     1     -19.133  -8.995   8.914  1.00  0.00     0.173 A 
ATOM     71  C   UNL     1     -19.686  -7.182   7.436  1.00  0.00     0.173 A 
ATOM     72  F   UNL     1     -18.751  -9.460  10.113  1.00  0.00    -0.203 F 
ATOM     73  C   UNL     1     -19.316  -9.899   7.872  1.00  0.00     0.198 A 
ATOM     74  C   UNL     1     -19.898  -8.092   6.404  1.00  0.00     0.198 A 
ATOM     75  F   UNL     1     -19.864  -5.875   7.190  1.00  0.00    -0.203 F 
ATOM     76  F   UNL     1     -19.099 -11.206   8.076  1.00  0.00    -0.200 F 
ATOM     77  C   UNL     1     -19.705  -9.449   6.620  1.00  0.00     0.200 A 
ATOM     78  F   UNL     1     -20.286  -7.657   5.197  1.00  0.00    -0.200 F 
ATOM     79  F   UNL     1     -19.886 -10.321   5.619  1.00  0.00    -0.200 F 
ENDBRANCH  55  69
BRANCH  56  80
ATOM     80  C   UNL     1     -17.491  -0.907  15.892  1.00  0.00     0.064 A 
ATOM     81  C   UNL     1     -17.927  -1.115  17.208  1.00  0.00     0.173 A 
ATOM     82  C   UNL     1     -16.802   0.281  15.612  1.00  0.00     0.173 A 
ATOM     83  F   UNL     1     -18.606  -2.229  17.519  1.00  0.00    -0.203 F 
ATOM     84  C   UNL     1     -17.702  -0.164  18.200  1.00  0.00     0.198 A 
ATOM     85  C   UNL     1     -16.553   1.220  16.611  1.00  0.00     0.198 A 
ATOM     86  F   UNL     1     -16.357   0.524  14.370  1.00  0.00    -0.203 F 
ATOM     87  F   UNL     1     -18.167  -0.369  19.439  1.00  0.00    -0.200 F 
ATOM     88  C   UNL     1     -17.011   1.001  17.902  1.00  0.00     0.200 A 
ATOM     89  F   UNL     1     -15.873   2.338  16.323  1.00  0.00    -0.200 F 
ATOM     90  F   UNL     1     -16.791   1.915  18.857  1.00  0.00    -0.200 F 
ENDBRANCH  56  80
BRANCH  68  91
ATOM     91  C   UNL     1     -23.292  -3.219  12.802  1.00  0.00     0.064 A 
ATOM     92  C   UNL     1     -23.842  -2.002  12.376  1.00  0.00     0.173 A 
ATOM     93  C   UNL     1     -24.151  -4.159  13.392  1.00  0.00     0.173 A 
ATOM     94  F   UNL     1     -23.059  -1.065  11.819  1.00  0.00    -0.203 F 
ATOM     95  C   UNL     1     -25.195  -1.726  12.558  1.00  0.00     0.198 A 
ATOM     96  C   UNL     1     -25.508  -3.892  13.546  1.00  0.00     0.198 A 
ATOM     97  F   UNL     1     -23.674  -5.342  13.810  1.00  0.00    -0.203 F 
ATOM     98  F   UNL     1     -25.690  -0.538  12.187  1.00  0.00    -0.200 F 
ATOM     99  C   UNL     1     -26.027  -2.674  13.136  1.00  0.00     0.200 A 
ATOM    100  F   UNL     1     -26.312  -4.814  14.093  1.00  0.00    -0.200 F 
ATOM    101  F   UNL     1     -27.330  -2.409  13.304  1.00  0.00    -0.200 F 
ENDBRANCH  68  91
ENDBRANCH  42  43
ENDBRANCH  34  37
ENDBRANCH  32  33
ENDBRANCH  31  32
ENDBRANCH  30  31
ENDBRANCH   1  30
TORSDOF 15
