REMARK SMILES C[C@@H](CC(=O)NCCCCNC(=O)c1ccc(-c2c3nc(c(-c4c(F)c(F)c(F)c(F)c4F)c4ccc([nH]4)c(-c4c(F)c(F)c(F)c(F)c4F)c4nc(c(-c5c(F)c(F)c(F)c(F)c5F)c5ccc2[nH]5)C=C4)C=C3)cc1)NC(=O)/C=C/c1cc(Cl)cc(Cl)c1
REMARK SMILES IDX 7 1 6 2 4 3 5 4 3 6 2 7 1 8 77 9 78 10 79 12 80 13 81 14
REMARK SMILES IDX 82 15 83 16 89 17 84 18 87 19 85 20 86 21 88 22 8 23 9 24
REMARK SMILES IDX 10 25 11 26 12 27 13 29 14 30 15 31 76 32 16 33 75 34 17 35
REMARK SMILES IDX 18 36 19 37 69 38 20 39 74 40 68 41 70 42 21 43 73 44 67 45
REMARK SMILES IDX 66 46 22 48 54 49 34 50 53 51 35 52 38 53 52 54 71 55 36 56
REMARK SMILES IDX 37 57 51 59 72 60 39 61 23 62 24 63 32 64 25 65 26 66 30 67
REMARK SMILES IDX 33 68 27 69 28 70 31 71 29 72 55 73 56 74 64 75 57 76 58 77
REMARK SMILES IDX 62 78 65 79 59 80 60 81 63 82 61 83 40 84 41 85 49 86 42 87
REMARK SMILES IDX 43 88 47 89 50 90 44 91 45 92 48 93 46 94
REMARK H PARENT 6 5 77 11 11 28 70 47 38 58
REMARK Flexibility Score: inf
ROOT
ATOM      1  C   UNL     1       1.569  -0.142   2.362  1.00  0.00     0.116 C 
ENDROOT
BRANCH   1   2
ATOM      2  N   UNL     1       0.555  -1.153   2.589  1.00  0.00    -0.356 N 
ATOM      3  C   UNL     1       0.074  -2.106   1.745  1.00  0.00     0.222 C 
ATOM      4  O   UNL     1      -0.966  -2.686   2.059  1.00  0.00    -0.275 OA
ATOM      5  H   UNL     1       0.155  -1.149   3.488  1.00  0.00     0.163 HD
BRANCH   3   6
ATOM      6  C   UNL     1       0.818  -2.476   0.479  1.00  0.00     0.124 C 
BRANCH   6   7
ATOM      7  C   UNL     1       0.384  -1.772  -0.816  1.00  0.00     0.088 C 
ATOM      8  C   UNL     1       0.744  -0.290  -0.839  1.00  0.00     0.031 C 
BRANCH   7   9
ATOM      9  N   UNL     1      -1.036  -1.919  -1.121  1.00  0.00    -0.350 N 
ATOM     10  C   UNL     1      -1.698  -1.982  -2.310  1.00  0.00     0.244 C 
ATOM     11  H   UNL     1      -1.616  -1.985  -0.329  1.00  0.00     0.164 HD
ATOM     12  O   UNL     1      -2.929  -1.983  -2.311  1.00  0.00    -0.270 OA
BRANCH  10  13
ATOM     13  C   UNL     1      -0.989  -2.150  -3.609  1.00  0.00     0.072 C 
ATOM     14  C   UNL     1       0.184  -1.604  -3.950  1.00  0.00     0.014 C 
BRANCH  14  15
ATOM     15  C   UNL     1       0.909  -1.818  -5.195  1.00  0.00    -0.023 A 
ATOM     16  C   UNL     1       2.063  -2.610  -5.159  1.00  0.00     0.028 A 
ATOM     17  C   UNL     1       0.575  -1.119  -6.355  1.00  0.00     0.028 A 
ATOM     18  C   UNL     1       2.888  -2.683  -6.278  1.00  0.00     0.043 A 
ATOM     19  C   UNL     1       1.413  -1.201  -7.467  1.00  0.00     0.043 A 
ATOM     20  Cl  UNL     1       4.330  -3.619  -6.208  1.00  0.00    -0.084 Cl
ATOM     21  C   UNL     1       2.572  -1.976  -7.434  1.00  0.00     0.041 A 
ATOM     22  Cl  UNL     1       1.037  -0.294  -8.880  1.00  0.00    -0.084 Cl
ENDBRANCH  14  15
ENDBRANCH  10  13
ENDBRANCH   7   9
ENDBRANCH   6   7
ENDBRANCH   3   6
ENDBRANCH   1   2
BRANCH   1  23
ATOM     23  C   UNL     1       0.912   1.225   2.152  1.00  0.00     0.023 C 
BRANCH  23  24
ATOM     24  C   UNL     1       0.450   1.917   3.424  1.00  0.00     0.023 C 
BRANCH  24  25
ATOM     25  C   UNL     1       1.567   2.254   4.388  1.00  0.00     0.116 C 
BRANCH  25  26
ATOM     26  N   UNL     1       2.587   3.119   3.813  1.00  0.00    -0.352 N 
ATOM     27  C   UNL     1       3.228   4.179   4.411  1.00  0.00     0.251 C 
ATOM     28  H   UNL     1       2.849   2.921   2.884  1.00  0.00     0.163 HD
ATOM     29  O   UNL     1       3.996   4.892   3.782  1.00  0.00    -0.269 OA
BRANCH  27  30
ATOM     30  C   UNL     1       2.925   4.459   5.827  1.00  0.00     0.039 A 
ATOM     31  C   UNL     1       2.506   5.739   6.189  1.00  0.00     0.014 A 
ATOM     32  C   UNL     1       2.942   3.419   6.760  1.00  0.00     0.014 A 
ATOM     33  C   UNL     1       2.030   5.959   7.481  1.00  0.00     0.010 A 
ATOM     34  C   UNL     1       2.372   3.615   8.008  1.00  0.00     0.010 A 
ATOM     35  C   UNL     1       1.922   4.889   8.385  1.00  0.00    -0.014 A 
BRANCH  35  36
ATOM     36  C   UNL     1       1.369   5.080   9.747  1.00  0.00     0.031 A 
ATOM     37  C   UNL     1       2.242   4.814  10.941  1.00  0.00     0.074 A 
ATOM     38  C   UNL     1       0.075   5.413   9.908  1.00  0.00     0.049 A 
ATOM     39  N   UNL     1       1.937   4.835  12.213  1.00  0.00    -0.248 NA
ATOM     40  C   UNL     1       3.637   4.431  10.667  1.00  0.00     0.031 C 
ATOM     41  C   UNL     1      -0.888   5.630   8.826  1.00  0.00     0.029 A 
ATOM     42  N   UNL     1      -0.658   5.619  11.049  1.00  0.00    -0.354 N 
ATOM     43  C   UNL     1       3.089   4.443  12.881  1.00  0.00     0.074 A 
ATOM     44  C   UNL     1       4.079   4.129  11.877  1.00  0.00     0.031 C 
ATOM     45  C   UNL     1      -2.075   5.970   9.355  1.00  0.00     0.029 A 
ATOM     46  C   UNL     1      -1.965   5.964  10.810  1.00  0.00     0.049 A 
ATOM     47  H   UNL     1      -0.281   5.528  11.955  1.00  0.00     0.167 HD
ATOM     48  C   UNL     1       3.312   4.384  14.214  1.00  0.00     0.037 A 
ATOM     49  C   UNL     1      -2.959   6.247  11.673  1.00  0.00     0.037 A 
ATOM     50  C   UNL     1       2.339   4.747  15.208  1.00  0.00     0.049 A 
ATOM     51  C   UNL     1      -2.675   6.212  13.151  1.00  0.00     0.074 A 
ATOM     52  C   UNL     1       2.483   4.793  16.583  1.00  0.00     0.029 A 
ATOM     53  N   UNL     1       1.037   5.136  14.927  1.00  0.00    -0.354 N 
ATOM     54  N   UNL     1      -1.561   5.910  13.772  1.00  0.00    -0.248 NA
ATOM     55  C   UNL     1      -3.784   6.568  14.046  1.00  0.00     0.031 C 
ATOM     56  C   UNL     1       1.258   5.180  17.136  1.00  0.00     0.029 A 
ATOM     57  C   UNL     1       0.363   5.415  16.104  1.00  0.00     0.049 A 
ATOM     58  H   UNL     1       0.650   5.205  14.024  1.00  0.00     0.167 HD
ATOM     59  C   UNL     1      -1.825   6.064  15.126  1.00  0.00     0.074 A 
ATOM     60  C   UNL     1      -3.202   6.502  15.235  1.00  0.00     0.031 C 
ATOM     61  C   UNL     1      -1.004   5.861  16.185  1.00  0.00     0.037 A 
BRANCH  48  62
ATOM     62  C   UNL     1       4.667   3.925  14.667  1.00  0.00     0.064 A 
ATOM     63  C   UNL     1       5.812   4.714  14.473  1.00  0.00     0.173 A 
ATOM     64  C   UNL     1       4.823   2.689  15.309  1.00  0.00     0.173 A 
ATOM     65  F   UNL     1       5.719   5.897  13.847  1.00  0.00    -0.203 F 
ATOM     66  C   UNL     1       7.067   4.266  14.875  1.00  0.00     0.198 A 
ATOM     67  C   UNL     1       6.076   2.258  15.738  1.00  0.00     0.198 A 
ATOM     68  F   UNL     1       3.761   1.896  15.520  1.00  0.00    -0.203 F 
ATOM     69  F   UNL     1       8.153   5.011  14.626  1.00  0.00    -0.200 F 
ATOM     70  C   UNL     1       7.197   3.042  15.513  1.00  0.00     0.200 A 
ATOM     71  F   UNL     1       6.200   1.079  16.363  1.00  0.00    -0.200 F 
ATOM     72  F   UNL     1       8.406   2.613  15.901  1.00  0.00    -0.200 F 
ENDBRANCH  48  62
BRANCH  49  73
ATOM     73  C   UNL     1      -4.300   6.634  11.163  1.00  0.00     0.064 A 
ATOM     74  C   UNL     1      -4.755   7.955  11.279  1.00  0.00     0.173 A 
ATOM     75  C   UNL     1      -5.150   5.701  10.554  1.00  0.00     0.173 A 
ATOM     76  F   UNL     1      -3.985   8.878  11.871  1.00  0.00    -0.203 F 
ATOM     77  C   UNL     1      -6.019   8.323  10.822  1.00  0.00     0.198 A 
ATOM     78  C   UNL     1      -6.404   6.076  10.075  1.00  0.00     0.198 A 
ATOM     79  F   UNL     1      -4.758   4.426  10.413  1.00  0.00    -0.203 F 
ATOM     80  F   UNL     1      -6.446   9.583  10.984  1.00  0.00    -0.200 F 
ATOM     81  C   UNL     1      -6.840   7.385  10.216  1.00  0.00     0.200 A 
ATOM     82  F   UNL     1      -7.190   5.170   9.479  1.00  0.00    -0.200 F 
ATOM     83  F   UNL     1      -8.055   7.740   9.775  1.00  0.00    -0.200 F 
ENDBRANCH  49  73
BRANCH  61  84
ATOM     84  C   UNL     1      -1.561   6.143  17.548  1.00  0.00     0.064 A 
ATOM     85  C   UNL     1      -2.496   5.288  18.149  1.00  0.00     0.173 A 
ATOM     86  C   UNL     1      -1.122   7.259  18.275  1.00  0.00     0.173 A 
ATOM     87  F   UNL     1      -2.956   4.217  17.486  1.00  0.00    -0.203 F 
ATOM     88  C   UNL     1      -2.990   5.555  19.423  1.00  0.00     0.198 A 
ATOM     89  C   UNL     1      -1.597   7.507  19.559  1.00  0.00     0.198 A 
ATOM     90  F   UNL     1      -0.223   8.101  17.745  1.00  0.00    -0.203 F 
ATOM     91  F   UNL     1      -3.916   4.750  19.962  1.00  0.00    -0.200 F 
ATOM     92  C   UNL     1      -2.535   6.659  20.129  1.00  0.00     0.200 A 
ATOM     93  F   UNL     1      -1.148   8.567  20.245  1.00  0.00    -0.200 F 
ATOM     94  F   UNL     1      -3.007   6.910  21.358  1.00  0.00    -0.200 F 
ENDBRANCH  61  84
ENDBRANCH  35  36
ENDBRANCH  27  30
ENDBRANCH  25  26
ENDBRANCH  24  25
ENDBRANCH  23  24
ENDBRANCH   1  23
TORSDOF 15
