REMARK SMILES CCOc1ccc(-c2nc(C(=O)NCCCCNC(=O)c3ccc(-c4c5nc(c(-c6c(F)c(F)c(F)c(F)c6F)c6ccc([nH]6)c(-c6c(F)c(F)c(F)c(F)c6F)c6nc(c(-c7c(F)c(F)c(F)c(F)c7F)c7ccc4[nH]7)C=C6)C=C5)cc3)cc(=O)[nH]2)cc1
REMARK SMILES IDX 15 1 14 2 13 3 11 4 12 5 10 7 8 8 9 9 87 10 85 11 84 13
REMARK SMILES IDX 86 14 7 15 4 16 5 17 89 18 6 19 88 20 3 21 2 22 1 23 16 24
REMARK SMILES IDX 17 25 18 26 19 27 20 29 21 30 22 31 83 32 23 33 82 34 24 35
REMARK SMILES IDX 25 36 26 37 76 38 27 39 81 40 75 41 77 42 28 43 80 44 74 45
REMARK SMILES IDX 73 46 29 48 61 49 41 50 60 51 42 52 45 53 59 54 78 55 43 56
REMARK SMILES IDX 44 57 58 59 79 60 46 61 30 62 31 63 39 64 32 65 33 66 37 67
REMARK SMILES IDX 40 68 34 69 35 70 38 71 36 72 62 73 63 74 71 75 64 76 65 77
REMARK SMILES IDX 69 78 72 79 66 80 67 81 70 82 68 83 47 84 48 85 56 86 49 87
REMARK SMILES IDX 50 88 54 89 57 90 51 91 52 92 55 93 53 94
REMARK H PARENT 13 6 87 12 18 28 77 47 45 58
REMARK Flexibility Score: inf
ROOT
ATOM      1  C   UNL     1      12.698   1.696  -2.583  1.00  0.00     0.023 C 
ENDROOT
BRANCH   1   2
ATOM      2  C   UNL     1      11.620   2.673  -3.031  1.00  0.00     0.116 C 
BRANCH   2   3
ATOM      3  N   UNL     1      10.577   2.071  -3.840  1.00  0.00    -0.351 N 
ATOM      4  C   UNL     1       9.212   2.094  -3.766  1.00  0.00     0.270 C 
ATOM      5  O   UNL     1       8.606   1.463  -4.637  1.00  0.00    -0.268 OA
ATOM      6  H   UNL     1      10.922   1.540  -4.594  1.00  0.00     0.163 HD
BRANCH   4   7
ATOM      7  C   UNL     1       8.447   2.799  -2.659  1.00  0.00     0.136 A 
ATOM      8  C   UNL     1       6.456   2.974  -1.529  1.00  0.00     0.141 A 
ATOM      9  N   UNL     1       7.178   2.317  -2.379  1.00  0.00    -0.225 NA
ATOM     10  N   UNL     1       6.948   4.014  -0.787  1.00  0.00    -0.306 N 
ATOM     11  C   UNL     1       8.196   4.506  -0.983  1.00  0.00     0.251 A 
ATOM     12  H   UNL     1       6.378   4.417  -0.092  1.00  0.00     0.171 HD
ATOM     13  C   UNL     1       8.923   3.926  -2.114  1.00  0.00     0.105 A 
ATOM     14  O   UNL     1       8.695   5.371  -0.281  1.00  0.00    -0.269 OA
BRANCH   8  15
ATOM     15  C   UNL     1       5.026   2.660  -1.314  1.00  0.00     0.018 A 
ATOM     16  C   UNL     1       2.316   2.101  -1.011  1.00  0.00     0.119 A 
ATOM     17  C   UNL     1       2.744   3.425  -1.024  1.00  0.00     0.047 A 
ATOM     18  C   UNL     1       3.226   1.060  -1.204  1.00  0.00     0.047 A 
ATOM     19  C   UNL     1       4.101   3.707  -1.172  1.00  0.00     0.016 A 
ATOM     20  C   UNL     1       4.586   1.337  -1.351  1.00  0.00     0.016 A 
BRANCH  16  21
ATOM     21  O   UNL     1       0.974   1.857  -0.937  1.00  0.00    -0.494 OA
BRANCH  21  22
ATOM     22  C   UNL     1       0.579   1.334   0.338  1.00  0.00     0.226 C 
ATOM     23  C   UNL     1       0.612  -0.186   0.347  1.00  0.00     0.049 C 
ENDBRANCH  21  22
ENDBRANCH  16  21
ENDBRANCH   8  15
ENDBRANCH   4   7
ENDBRANCH   2   3
ENDBRANCH   1   2
BRANCH   1  24
ATOM     24  C   UNL     1      13.598   1.136  -3.677  1.00  0.00     0.023 C 
BRANCH  24  25
ATOM     25  C   UNL     1      14.238   2.162  -4.606  1.00  0.00     0.116 C 
BRANCH  25  26
ATOM     26  N   UNL     1      14.989   3.201  -3.910  1.00  0.00    -0.352 N 
ATOM     27  C   UNL     1      16.290   3.612  -4.091  1.00  0.00     0.251 C 
ATOM     28  H   UNL     1      14.492   3.679  -3.208  1.00  0.00     0.163 HD
ATOM     29  O   UNL     1      16.788   4.452  -3.349  1.00  0.00    -0.269 OA
BRANCH  27  30
ATOM     30  C   UNL     1      17.102   2.992  -5.156  1.00  0.00     0.039 A 
ATOM     31  C   UNL     1      18.340   2.437  -4.823  1.00  0.00     0.014 A 
ATOM     32  C   UNL     1      16.603   2.883  -6.456  1.00  0.00     0.014 A 
ATOM     33  C   UNL     1      19.023   1.667  -5.765  1.00  0.00     0.010 A 
ATOM     34  C   UNL     1      17.245   2.050  -7.367  1.00  0.00     0.010 A 
ATOM     35  C   UNL     1      18.446   1.410  -7.019  1.00  0.00    -0.014 A 
BRANCH  35  36
ATOM     36  C   UNL     1      19.041   0.423  -7.957  1.00  0.00     0.031 A 
ATOM     37  C   UNL     1      19.516   0.858  -9.314  1.00  0.00     0.074 A 
ATOM     38  C   UNL     1      19.059  -0.882  -7.617  1.00  0.00     0.049 A 
ATOM     39  N   UNL     1      19.961   0.129 -10.306  1.00  0.00    -0.248 NA
ATOM     40  C   UNL     1      19.463   2.300  -9.606  1.00  0.00     0.031 C 
ATOM     41  C   UNL     1      18.582  -1.434  -6.346  1.00  0.00     0.029 A 
ATOM     42  N   UNL     1      19.476  -1.988  -8.318  1.00  0.00    -0.354 N 
ATOM     43  C   UNL     1      20.220   1.017 -11.341  1.00  0.00     0.074 A 
ATOM     44  C   UNL     1      19.850   2.335 -10.873  1.00  0.00     0.031 C 
ATOM     45  C   UNL     1      18.749  -2.766  -6.351  1.00  0.00     0.029 A 
ATOM     46  C   UNL     1      19.292  -3.172  -7.643  1.00  0.00     0.049 A 
ATOM     47  H   UNL     1      19.869  -1.938  -9.219  1.00  0.00     0.167 HD
ATOM     48  C   UNL     1      20.734   0.753 -12.564  1.00  0.00     0.037 A 
ATOM     49  C   UNL     1      19.513  -4.444  -8.030  1.00  0.00     0.037 A 
ATOM     50  C   UNL     1      21.133  -0.556 -13.010  1.00  0.00     0.049 A 
ATOM     51  C   UNL     1      20.053  -4.702  -9.413  1.00  0.00     0.074 A 
ATOM     52  C   UNL     1      21.758  -0.907 -14.193  1.00  0.00     0.029 A 
ATOM     53  N   UNL     1      20.932  -1.729 -12.299  1.00  0.00    -0.354 N 
ATOM     54  N   UNL     1      20.396  -3.844 -10.342  1.00  0.00    -0.248 NA
ATOM     55  C   UNL     1      20.232  -6.108  -9.804  1.00  0.00     0.031 C 
ATOM     56  C   UNL     1      21.872  -2.299 -14.230  1.00  0.00     0.029 A 
ATOM     57  C   UNL     1      21.375  -2.811 -13.043  1.00  0.00     0.049 A 
ATOM     58  H   UNL     1      20.535  -1.785 -11.400  1.00  0.00     0.167 HD
ATOM     59  C   UNL     1      20.851  -4.601 -11.413  1.00  0.00     0.074 A 
ATOM     60  C   UNL     1      20.767  -5.989 -11.011  1.00  0.00     0.031 C 
ATOM     61  C   UNL     1      21.293  -4.186 -12.625  1.00  0.00     0.037 A 
BRANCH  48  62
ATOM     62  C   UNL     1      20.902   1.893 -13.525  1.00  0.00     0.064 A 
ATOM     63  C   UNL     1      21.891   2.870 -13.345  1.00  0.00     0.173 A 
ATOM     64  C   UNL     1      20.124   1.952 -14.692  1.00  0.00     0.173 A 
ATOM     65  F   UNL     1      22.656   2.863 -12.243  1.00  0.00    -0.203 F 
ATOM     66  C   UNL     1      22.089   3.871 -14.293  1.00  0.00     0.198 A 
ATOM     67  C   UNL     1      20.344   2.936 -15.651  1.00  0.00     0.198 A 
ATOM     68  F   UNL     1      19.168   1.036 -14.914  1.00  0.00    -0.203 F 
ATOM     69  F   UNL     1      23.022   4.810 -14.089  1.00  0.00    -0.200 F 
ATOM     70  C   UNL     1      21.324   3.895 -15.450  1.00  0.00     0.200 A 
ATOM     71  F   UNL     1      19.615   2.948 -16.775  1.00  0.00    -0.200 F 
ATOM     72  F   UNL     1      21.532   4.845 -16.373  1.00  0.00    -0.200 F 
ENDBRANCH  48  62
BRANCH  49  73
ATOM     73  C   UNL     1      19.212  -5.580  -7.117  1.00  0.00     0.064 A 
ATOM     74  C   UNL     1      20.235  -6.414  -6.642  1.00  0.00     0.173 A 
ATOM     75  C   UNL     1      17.895  -5.891  -6.744  1.00  0.00     0.173 A 
ATOM     76  F   UNL     1      21.508  -6.173  -6.988  1.00  0.00    -0.203 F 
ATOM     77  C   UNL     1      19.950  -7.535  -5.865  1.00  0.00     0.198 A 
ATOM     78  C   UNL     1      17.616  -6.992  -5.936  1.00  0.00     0.198 A 
ATOM     79  F   UNL     1      16.877  -5.128  -7.166  1.00  0.00    -0.203 F 
ATOM     80  F   UNL     1      20.941  -8.354  -5.486  1.00  0.00    -0.200 F 
ATOM     81  C   UNL     1      18.641  -7.821  -5.509  1.00  0.00     0.200 A 
ATOM     82  F   UNL     1      16.350  -7.256  -5.582  1.00  0.00    -0.200 F 
ATOM     83  F   UNL     1      18.367  -8.904  -4.769  1.00  0.00    -0.200 F 
ENDBRANCH  49  73
BRANCH  61  84
ATOM     84  C   UNL     1      21.738  -5.238 -13.598  1.00  0.00     0.064 A 
ATOM     85  C   UNL     1      20.818  -6.088 -14.230  1.00  0.00     0.173 A 
ATOM     86  C   UNL     1      23.091  -5.358 -13.949  1.00  0.00     0.173 A 
ATOM     87  F   UNL     1      19.515  -6.025 -13.916  1.00  0.00    -0.203 F 
ATOM     88  C   UNL     1      21.239  -7.030 -15.164  1.00  0.00     0.198 A 
ATOM     89  C   UNL     1      23.504  -6.278 -14.908  1.00  0.00     0.198 A 
ATOM     90  F   UNL     1      24.011  -4.565 -13.378  1.00  0.00    -0.203 F 
ATOM     91  F   UNL     1      20.348  -7.860 -15.724  1.00  0.00    -0.200 F 
ATOM     92  C   UNL     1      22.579  -7.117 -15.511  1.00  0.00     0.200 A 
ATOM     93  F   UNL     1      24.797  -6.348 -15.254  1.00  0.00    -0.200 F 
ATOM     94  F   UNL     1      22.980  -8.013 -16.423  1.00  0.00    -0.200 F 
ENDBRANCH  61  84
ENDBRANCH  35  36
ENDBRANCH  27  30
ENDBRANCH  25  26
ENDBRANCH  24  25
ENDBRANCH   1  24
TORSDOF 14
