REMARK SMILES O=C(NCCCCNC(=O)C1(c2ccccc2)CCN(S(=O)(=O)c2cccs2)CC1)c1ccc(-c2c3nc(c(-c4c(F)c(F)c(F)c(F)c4F)c4ccc([nH]4)c(-c4c(F)c(F)c(F)c(F)c4F)c4nc(c(-c5c(F)c(F)c(F)c(F)c5F)c5ccc2[nH]5)C=C4)C=C3)cc1
REMARK SMILES IDX 5 1 4 2 3 3 1 4 2 5 31 7 32 8 93 9 33 10 92 11 34 12 35 13
REMARK SMILES IDX 36 14 86 15 37 16 91 17 85 18 87 19 38 20 90 21 84 22 83 23
REMARK SMILES IDX 39 25 71 26 51 27 70 28 52 29 55 30 69 31 88 32 53 33 54 34
REMARK SMILES IDX 68 36 89 37 56 38 40 39 41 40 49 41 42 42 43 43 47 44 50 45
REMARK SMILES IDX 44 46 45 47 48 48 46 49 72 50 73 51 81 52 74 53 75 54 79 55
REMARK SMILES IDX 82 56 76 57 77 58 80 59 78 60 57 61 58 62 66 63 59 64 60 65
REMARK SMILES IDX 64 66 67 67 61 68 62 69 65 70 63 71 6 72 7 73 8 74 9 75
REMARK SMILES IDX 10 77 11 78 18 79 30 80 19 81 29 82 20 83 12 84 13 85 17 86
REMARK SMILES IDX 14 87 16 88 15 89 21 90 22 91 23 92 24 93 25 94 28 95 26 96
REMARK SMILES IDX 27 97
REMARK H PARENT 3 6 87 24 55 35 8 76
REMARK Flexibility Score: inf
ROOT
ATOM      1  C   UNL     1       5.244   0.121   2.246  1.00  0.00     0.023 C 
ENDROOT
BRANCH   1   2
ATOM      2  C   UNL     1       4.771  -0.374   0.882  1.00  0.00     0.116 C 
BRANCH   2   3
ATOM      3  N   UNL     1       3.325  -0.540   0.781  1.00  0.00    -0.352 N 
ATOM      4  O   UNL     1       1.234  -0.162   0.013  1.00  0.00    -0.269 OA
ATOM      5  C   UNL     1       2.438   0.045  -0.092  1.00  0.00     0.251 C 
ATOM      6  H   UNL     1       2.927  -1.161   1.432  1.00  0.00     0.163 HD
BRANCH   5   7
ATOM      7  C   UNL     1       2.950   0.965  -1.125  1.00  0.00     0.039 A 
ATOM      8  C   UNL     1       4.002   0.574  -1.957  1.00  0.00     0.014 A 
ATOM      9  C   UNL     1       2.414   2.251  -1.211  1.00  0.00     0.014 A 
ATOM     10  C   UNL     1       4.630   1.521  -2.757  1.00  0.00     0.010 A 
ATOM     11  C   UNL     1       2.990   3.175  -2.082  1.00  0.00     0.010 A 
ATOM     12  C   UNL     1       4.127   2.829  -2.832  1.00  0.00    -0.014 A 
BRANCH  12  13
ATOM     13  C   UNL     1       4.760   3.821  -3.733  1.00  0.00     0.031 A 
ATOM     14  C   UNL     1       5.387   5.070  -3.184  1.00  0.00     0.074 A 
ATOM     15  C   UNL     1       4.729   3.604  -5.060  1.00  0.00     0.049 A 
ATOM     16  N   UNL     1       5.874   6.103  -3.825  1.00  0.00    -0.248 NA
ATOM     17  C   UNL     1       5.467   5.179  -1.720  1.00  0.00     0.031 C 
ATOM     18  C   UNL     1       4.154   2.421  -5.703  1.00  0.00     0.029 A 
ATOM     19  N   UNL     1       5.171   4.372  -6.105  1.00  0.00    -0.354 N 
ATOM     20  C   UNL     1       6.290   6.996  -2.847  1.00  0.00     0.074 A 
ATOM     21  C   UNL     1       5.978   6.393  -1.568  1.00  0.00     0.031 C 
ATOM     22  C   UNL     1       4.279   2.541  -7.031  1.00  0.00     0.029 A 
ATOM     23  C   UNL     1       4.872   3.838  -7.333  1.00  0.00     0.049 A 
ATOM     24  H   UNL     1       5.654   5.222  -5.987  1.00  0.00     0.167 HD
ATOM     25  C   UNL     1       6.877   8.208  -3.009  1.00  0.00     0.037 A 
ATOM     26  C   UNL     1       5.010   4.354  -8.568  1.00  0.00     0.037 A 
ATOM     27  C   UNL     1       7.181   8.790  -4.292  1.00  0.00     0.049 A 
ATOM     28  C   UNL     1       5.614   5.718  -8.725  1.00  0.00     0.074 A 
ATOM     29  C   UNL     1       7.811   9.991  -4.569  1.00  0.00     0.029 A 
ATOM     30  N   UNL     1       6.860   8.217  -5.517  1.00  0.00    -0.354 N 
ATOM     31  N   UNL     1       6.031   6.545  -7.797  1.00  0.00    -0.248 NA
ATOM     32  C   UNL     1       5.768   6.222 -10.095  1.00  0.00     0.031 C 
ATOM     33  C   UNL     1       7.809  10.176  -5.955  1.00  0.00     0.029 A 
ATOM     34  C   UNL     1       7.247   9.057  -6.549  1.00  0.00     0.049 A 
ATOM     35  H   UNL     1       6.422   7.343  -5.634  1.00  0.00     0.167 HD
ATOM     36  C   UNL     1       6.525   7.654  -8.469  1.00  0.00     0.074 A 
ATOM     37  C   UNL     1       6.354   7.393  -9.884  1.00  0.00     0.031 C 
ATOM     38  C   UNL     1       7.079   8.780  -7.955  1.00  0.00     0.037 A 
BRANCH  25  39
ATOM     39  C   UNL     1       7.183   9.005  -1.770  1.00  0.00     0.064 A 
ATOM     40  C   UNL     1       8.156   8.600  -0.843  1.00  0.00     0.173 A 
ATOM     41  C   UNL     1       6.495  10.201  -1.511  1.00  0.00     0.173 A 
ATOM     42  F   UNL     1       8.841   7.462  -1.035  1.00  0.00    -0.203 F 
ATOM     43  C   UNL     1       8.393   9.335   0.317  1.00  0.00     0.198 A 
ATOM     44  C   UNL     1       6.761  10.953  -0.369  1.00  0.00     0.198 A 
ATOM     45  F   UNL     1       5.563  10.645  -2.367  1.00  0.00    -0.203 F 
ATOM     46  F   UNL     1       9.278   8.890   1.220  1.00  0.00    -0.200 F 
ATOM     47  C   UNL     1       7.699  10.512   0.551  1.00  0.00     0.200 A 
ATOM     48  F   UNL     1       6.101  12.099  -0.154  1.00  0.00    -0.200 F 
ATOM     49  F   UNL     1       7.926  11.216   1.669  1.00  0.00    -0.200 F 
ENDBRANCH  25  39
BRANCH  26  50
ATOM     50  C   UNL     1       4.542   3.563  -9.733  1.00  0.00     0.064 A 
ATOM     51  C   UNL     1       5.453   2.977 -10.620  1.00  0.00     0.173 A 
ATOM     52  C   UNL     1       3.175   3.316  -9.938  1.00  0.00     0.173 A 
ATOM     53  F   UNL     1       6.768   3.194 -10.471  1.00  0.00    -0.203 F 
ATOM     54  C   UNL     1       5.014   2.174 -11.671  1.00  0.00     0.198 A 
ATOM     55  C   UNL     1       2.740   2.490 -10.970  1.00  0.00     0.198 A 
ATOM     56  F   UNL     1       2.265   3.844  -9.105  1.00  0.00    -0.203 F 
ATOM     57  F   UNL     1       5.903   1.643 -12.521  1.00  0.00    -0.200 F 
ATOM     58  C   UNL     1       3.660   1.922 -11.839  1.00  0.00     0.200 A 
ATOM     59  F   UNL     1       1.433   2.230 -11.112  1.00  0.00    -0.200 F 
ATOM     60  F   UNL     1       3.241   1.131 -12.836  1.00  0.00    -0.200 F 
ENDBRANCH  26  50
BRANCH  38  61
ATOM     61  C   UNL     1       7.596   9.803  -8.925  1.00  0.00     0.064 A 
ATOM     62  C   UNL     1       6.735  10.620  -9.670  1.00  0.00     0.173 A 
ATOM     63  C   UNL     1       8.977  10.019  -9.046  1.00  0.00     0.173 A 
ATOM     64  F   UNL     1       5.407  10.442  -9.604  1.00  0.00    -0.203 F 
ATOM     65  C   UNL     1       7.240  11.613 -10.507  1.00  0.00     0.198 A 
ATOM     66  C   UNL     1       9.477  11.031  -9.859  1.00  0.00     0.198 A 
ATOM     67  F   UNL     1       9.843   9.264  -8.351  1.00  0.00    -0.203 F 
ATOM     68  F   UNL     1       6.401  12.363 -11.235  1.00  0.00    -0.200 F 
ATOM     69  C   UNL     1       8.608  11.826 -10.591  1.00  0.00     0.200 A 
ATOM     70  F   UNL     1      10.798  11.245  -9.925  1.00  0.00    -0.200 F 
ATOM     71  F   UNL     1       9.090  12.796 -11.379  1.00  0.00    -0.200 F 
ENDBRANCH  38  61
ENDBRANCH  12  13
ENDBRANCH   5   7
ENDBRANCH   2   3
ENDBRANCH   1   2
BRANCH   1  72
ATOM     72  C   UNL     1       4.801  -0.700   3.452  1.00  0.00     0.023 C 
BRANCH  72  73
ATOM     73  C   UNL     1       5.008  -2.202   3.342  1.00  0.00     0.116 C 
BRANCH  73  74
ATOM     74  N   UNL     1       6.380  -2.655   3.423  1.00  0.00    -0.355 N 
ATOM     75  C   UNL     1       6.933  -3.851   3.777  1.00  0.00     0.230 C 
ATOM     76  H   UNL     1       7.041  -1.970   3.174  1.00  0.00     0.163 HD
ATOM     77  O   UNL     1       8.087  -4.022   3.356  1.00  0.00    -0.274 OA
BRANCH  75  78
ATOM     78  C   UNL     1       6.291  -4.926   4.732  1.00  0.00     0.077 C 
ATOM     79  C   UNL     1       6.752  -6.343   4.241  1.00  0.00     0.038 C 
ATOM     80  C   UNL     1       4.760  -5.069   4.742  1.00  0.00     0.038 C 
ATOM     81  C   UNL     1       6.201  -6.709   2.858  1.00  0.00     0.104 C 
ATOM     82  C   UNL     1       4.190  -5.343   3.367  1.00  0.00     0.104 C 
ATOM     83  N   UNL     1       4.710  -6.577   2.761  1.00  0.00    -0.197 NA
BRANCH  78  84
ATOM     84  C   UNL     1       6.852  -4.654   6.161  1.00  0.00    -0.032 A 
ATOM     85  C   UNL     1       6.075  -4.084   7.186  1.00  0.00     0.005 A 
ATOM     86  C   UNL     1       8.201  -4.930   6.465  1.00  0.00     0.005 A 
ATOM     87  C   UNL     1       6.606  -3.847   8.460  1.00  0.00     0.000 A 
ATOM     88  C   UNL     1       8.731  -4.696   7.739  1.00  0.00     0.000 A 
ATOM     89  C   UNL     1       7.930  -4.160   8.739  1.00  0.00     0.000 A 
ENDBRANCH  78  84
BRANCH  83  90
ATOM     90  S   UNL     1       4.189  -6.760   1.104  1.00  0.00     0.252 S 
ATOM     91  O   UNL     1       4.952  -5.799   0.324  1.00  0.00    -0.206 OA
ATOM     92  O   UNL     1       4.188  -8.164   0.779  1.00  0.00    -0.206 OA
BRANCH  90  93
ATOM     93  C   UNL     1       2.516  -6.133   0.951  1.00  0.00     0.135 A 
ATOM     94  C   UNL     1       2.054  -4.830   0.841  1.00  0.00     0.033 A 
ATOM     95  S   UNL     1       1.230  -7.253   0.931  1.00  0.00    -0.131 S 
ATOM     96  C   UNL     1       0.637  -4.754   0.754  1.00  0.00     0.013 A 
ATOM     97  C   UNL     1       0.063  -6.006   0.765  1.00  0.00     0.066 A 
ENDBRANCH  90  93
ENDBRANCH  83  90
ENDBRANCH  75  78
ENDBRANCH  73  74
ENDBRANCH  72  73
ENDBRANCH   1  72
TORSDOF 14
