REMARK SMILES CC1(C)CC[C@@]2(C(=O)NCCCCNC(=O)c3ccc(-c4c5nc(c(-c6c(F)c(F)c(F)c(F)c6F)c6ccc([nH]6)c(-c6c(F)c(F)c(F)c(F)c6F)c6nc(c(-c7c(F)c(F)c(F)c(F)c7F)c7ccc4[nH]7)C=C6)C=C5)cc3)CC[C@@]3(C)C(=CC[C@H]4[C@@]5(C)CC[C@H](O)C(C)(C)[C@@H]5CC[C@]43C)[C@@H]2C1
REMARK SMILES IDX 12 1 11 2 10 3 9 4 7 5 8 6 6 8 1 9 2 10 3 11 4 12 103 13
REMARK SMILES IDX 5 14 102 15 84 16 80 17 82 18 85 19 81 20 83 21 100 22 86 23
REMARK SMILES IDX 87 24 99 25 101 26 88 27 98 28 89 29 90 30 97 31 91 32 94 33
REMARK SMILES IDX 92 34 95 35 96 36 93 37 13 39 14 40 15 41 16 43 17 44 18 45
REMARK SMILES IDX 79 46 19 47 78 48 20 49 21 50 22 51 72 52 23 53 77 54 71 55
REMARK SMILES IDX 73 56 24 57 76 58 70 59 69 60 25 62 57 63 37 64 56 65 38 66
REMARK SMILES IDX 41 67 55 68 74 69 39 70 40 71 54 73 75 74 42 75 26 76 27 77
REMARK SMILES IDX 35 78 28 79 29 80 33 81 36 82 30 83 31 84 34 85 32 86 58 87
REMARK SMILES IDX 59 88 67 89 60 90 61 91 65 92 68 93 62 94 63 95 66 96 64 97
REMARK SMILES IDX 43 98 44 99 52 100 45 101 46 102 50 103 53 104 47 105 48 106
REMARK SMILES IDX 51 107 49 108
REMARK H PARENT 9 7 93 38 14 42 73 61 41 72
REMARK Flexibility Score: inf
ROOT
ATOM      1  C   UNL     1      -0.607  -1.611  -4.246  1.00  0.00     0.023 C 
ENDROOT
BRANCH   1   2
ATOM      2  C   UNL     1       0.124  -2.698  -3.438  1.00  0.00     0.023 C 
BRANCH   2   3
ATOM      3  C   UNL     1       0.457  -2.507  -1.948  1.00  0.00     0.116 C 
BRANCH   3   4
ATOM      4  N   UNL     1      -0.531  -2.099  -0.972  1.00  0.00    -0.356 N 
ATOM      5  C   UNL     1      -0.709  -2.629   0.304  1.00  0.00     0.226 C 
ATOM      6  O   UNL     1      -0.611  -3.837   0.518  1.00  0.00    -0.274 OA
ATOM      7  H   UNL     1      -1.139  -1.371  -1.237  1.00  0.00     0.163 HD
BRANCH   5   8
ATOM      8  C   UNL     1      -0.848  -1.592   1.491  1.00  0.00     0.056 C 
ATOM      9  C   UNL     1       2.450   0.752   1.663  1.00  0.00     0.011 C 
ATOM     10  C   UNL     1       1.724  -0.222   0.718  1.00  0.00    -0.035 C 
ATOM     11  C   UNL     1       2.667  -0.364  -0.516  1.00  0.00     0.011 C 
ATOM     12  C   UNL     1       1.677  -1.594   1.417  1.00  0.00     0.007 C 
ATOM     13  C   UNL     1       0.302   0.387   0.317  1.00  0.00     0.015 C 
ATOM     14  C   UNL     1       0.460  -1.750   2.302  1.00  0.00     0.018 C 
ATOM     15  C   UNL     1      -1.028  -0.126   1.036  1.00  0.00     0.031 C 
ATOM     16  C   UNL     1      -2.434  -0.069   0.288  1.00  0.00    -0.064 C 
ATOM     17  C   UNL     1      -1.982  -1.905   2.490  1.00  0.00     0.018 C 
ATOM     18  C   UNL     1      -3.717  -0.636   1.004  1.00  0.00    -0.006 C 
ATOM     19  C   UNL     1      -2.520   0.341  -0.988  1.00  0.00    -0.027 C 
ATOM     20  C   UNL     1      -3.368  -1.867   1.874  1.00  0.00     0.013 C 
ATOM     21  C   UNL     1      -4.128   0.511   1.989  1.00  0.00     0.017 C 
ATOM     22  C   UNL     1      -5.000  -0.999  -0.014  1.00  0.00    -0.020 C 
ATOM     23  C   UNL     1      -3.557  -0.139  -1.958  1.00  0.00     0.032 C 
ATOM     24  C   UNL     1      -4.524  -1.263  -1.481  1.00  0.00     0.006 C 
ATOM     25  C   UNL     1      -5.981  -2.157   0.453  1.00  0.00     0.008 C 
ATOM     26  C   UNL     1      -5.948   0.260  -0.133  1.00  0.00     0.012 C 
ATOM     27  C   UNL     1      -4.297  -2.775  -2.021  1.00  0.00    -0.025 C 
ATOM     28  C   UNL     1      -6.284  -3.292  -0.571  1.00  0.00     0.005 C 
ATOM     29  C   UNL     1      -4.807  -2.724  -3.490  1.00  0.00     0.012 C 
ATOM     30  C   UNL     1      -2.861  -3.262  -2.042  1.00  0.00     0.010 C 
ATOM     31  C   UNL     1      -4.976  -3.852  -1.113  1.00  0.00     0.003 C 
ATOM     32  C   UNL     1      -2.595  -4.676  -2.562  1.00  0.00     0.033 C 
ATOM     33  C   UNL     1      -4.883  -5.357  -1.634  1.00  0.00    -0.006 C 
ATOM     34  C   UNL     1      -3.370  -5.722  -1.781  1.00  0.00     0.120 C 
ATOM     35  C   UNL     1      -5.619  -5.651  -2.954  1.00  0.00     0.014 C 
ATOM     36  C   UNL     1      -5.464  -6.336  -0.587  1.00  0.00     0.014 C 
BRANCH  34  37
ATOM     37  O   UNL     1      -3.188  -6.989  -2.416  1.00  0.00    -0.393 OA
ATOM     38  H   UNL     1      -3.534  -6.950  -3.321  1.00  0.00     0.210 HD
ENDBRANCH  34  37
ENDBRANCH   5   8
ENDBRANCH   3   4
ENDBRANCH   2   3
ENDBRANCH   1   2
BRANCH   1  39
ATOM     39  C   UNL     1      -0.079  -0.196  -4.094  1.00  0.00     0.116 C 
BRANCH  39  40
ATOM     40  N   UNL     1       1.194  -0.050  -4.771  1.00  0.00    -0.352 N 
ATOM     41  C   UNL     1       1.418   0.021  -6.129  1.00  0.00     0.251 C 
ATOM     42  H   UNL     1       1.990   0.005  -4.195  1.00  0.00     0.163 HD
ATOM     43  O   UNL     1       2.516  -0.265  -6.587  1.00  0.00    -0.269 OA
BRANCH  41  44
ATOM     44  C   UNL     1       0.318   0.427  -7.037  1.00  0.00     0.039 A 
ATOM     45  C   UNL     1       0.121  -0.259  -8.239  1.00  0.00     0.014 A 
ATOM     46  C   UNL     1      -0.490   1.520  -6.720  1.00  0.00     0.014 A 
ATOM     47  C   UNL     1      -0.908   0.133  -9.103  1.00  0.00     0.010 A 
ATOM     48  C   UNL     1      -1.569   1.851  -7.535  1.00  0.00     0.010 A 
ATOM     49  C   UNL     1      -1.776   1.179  -8.749  1.00  0.00    -0.014 A 
BRANCH  49  50
ATOM     50  C   UNL     1      -2.874   1.628  -9.646  1.00  0.00     0.031 A 
ATOM     51  C   UNL     1      -2.879   3.040 -10.174  1.00  0.00     0.074 A 
ATOM     52  C   UNL     1      -3.900   0.800  -9.926  1.00  0.00     0.049 A 
ATOM     53  N   UNL     1      -3.792   3.664 -10.876  1.00  0.00    -0.248 NA
ATOM     54  C   UNL     1      -1.716   3.876  -9.832  1.00  0.00     0.031 C 
ATOM     55  C   UNL     1      -4.037  -0.571  -9.436  1.00  0.00     0.029 A 
ATOM     56  N   UNL     1      -5.031   0.997 -10.680  1.00  0.00    -0.354 N 
ATOM     57  C   UNL     1      -3.325   4.964 -11.032  1.00  0.00     0.074 A 
ATOM     58  C   UNL     1      -2.083   5.060 -10.299  1.00  0.00     0.031 C 
ATOM     59  C   UNL     1      -5.171  -1.102  -9.923  1.00  0.00     0.029 A 
ATOM     60  C   UNL     1      -5.862  -0.096 -10.724  1.00  0.00     0.049 A 
ATOM     61  H   UNL     1      -5.227   1.842 -11.146  1.00  0.00     0.167 HD
ATOM     62  C   UNL     1      -3.867   5.979 -11.748  1.00  0.00     0.037 A 
ATOM     63  C   UNL     1      -7.050  -0.264 -11.337  1.00  0.00     0.037 A 
ATOM     64  C   UNL     1      -5.082   5.864 -12.510  1.00  0.00     0.049 A 
ATOM     65  C   UNL     1      -7.630   0.877 -12.130  1.00  0.00     0.074 A 
ATOM     66  C   UNL     1      -5.682   6.806 -13.326  1.00  0.00     0.029 A 
ATOM     67  N   UNL     1      -5.882   4.731 -12.550  1.00  0.00    -0.354 N 
ATOM     68  N   UNL     1      -7.146   2.080 -12.327  1.00  0.00    -0.248 NA
ATOM     69  C   UNL     1      -8.921   0.637 -12.790  1.00  0.00     0.031 C 
ATOM     70  C   UNL     1      -6.871   6.260 -13.821  1.00  0.00     0.029 A 
ATOM     71  C   UNL     1      -6.984   4.959 -13.358  1.00  0.00     0.049 A 
ATOM     72  H   UNL     1      -5.694   3.890 -12.075  1.00  0.00     0.167 HD
ATOM     73  C   UNL     1      -8.055   2.728 -13.152  1.00  0.00     0.074 A 
ATOM     74  C   UNL     1      -9.112   1.780 -13.434  1.00  0.00     0.031 C 
ATOM     75  C   UNL     1      -8.020   3.996 -13.632  1.00  0.00     0.037 A 
BRANCH  62  76
ATOM     76  C   UNL     1      -3.143   7.297 -11.749  1.00  0.00     0.064 A 
ATOM     77  C   UNL     1      -1.893   7.452 -12.370  1.00  0.00     0.173 A 
ATOM     78  C   UNL     1      -3.716   8.426 -11.145  1.00  0.00     0.173 A 
ATOM     79  F   UNL     1      -1.295   6.404 -12.955  1.00  0.00    -0.203 F 
ATOM     80  C   UNL     1      -1.229   8.676 -12.352  1.00  0.00     0.198 A 
ATOM     81  C   UNL     1      -3.064   9.658 -11.159  1.00  0.00     0.198 A 
ATOM     82  F   UNL     1      -4.911   8.339 -10.542  1.00  0.00    -0.203 F 
ATOM     83  F   UNL     1      -0.010   8.783 -12.899  1.00  0.00    -0.200 F 
ATOM     84  C   UNL     1      -1.817   9.779 -11.753  1.00  0.00     0.200 A 
ATOM     85  F   UNL     1      -3.641  10.726 -10.592  1.00  0.00    -0.200 F 
ATOM     86  F   UNL     1      -1.179  10.957 -11.742  1.00  0.00    -0.200 F 
ENDBRANCH  62  76
BRANCH  63  87
ATOM     87  C   UNL     1      -7.756  -1.571 -11.249  1.00  0.00     0.064 A 
ATOM     88  C   UNL     1      -7.896  -2.389 -12.379  1.00  0.00     0.173 A 
ATOM     89  C   UNL     1      -8.309  -2.027 -10.044  1.00  0.00     0.173 A 
ATOM     90  F   UNL     1      -7.403  -1.988 -13.561  1.00  0.00    -0.203 F 
ATOM     91  C   UNL     1      -8.577  -3.603 -12.312  1.00  0.00     0.198 A 
ATOM     92  C   UNL     1      -8.964  -3.256  -9.970  1.00  0.00     0.198 A 
ATOM     93  F   UNL     1      -8.200  -1.286  -8.931  1.00  0.00    -0.203 F 
ATOM     94  F   UNL     1      -8.736  -4.342 -13.418  1.00  0.00    -0.200 F 
ATOM     95  C   UNL     1      -9.105  -4.038 -11.106  1.00  0.00     0.200 A 
ATOM     96  F   UNL     1      -9.460  -3.679  -8.800  1.00  0.00    -0.200 F 
ATOM     97  F   UNL     1      -9.757  -5.207 -11.040  1.00  0.00    -0.200 F 
ENDBRANCH  63  87
BRANCH  75  98
ATOM     98  C   UNL     1      -9.141   4.422 -14.535  1.00  0.00     0.064 A 
ATOM     99  C   UNL     1     -10.434   4.652 -14.044  1.00  0.00     0.173 A 
ATOM    100  C   UNL     1      -8.903   4.654 -15.899  1.00  0.00     0.173 A 
ATOM    101  F   UNL     1     -10.715   4.431 -12.751  1.00  0.00    -0.203 F 
ATOM    102  C   UNL     1     -11.455   5.076 -14.891  1.00  0.00     0.198 A 
ATOM    103  C   UNL     1      -9.918   5.109 -16.735  1.00  0.00     0.198 A 
ATOM    104  F   UNL     1      -7.681   4.457 -16.416  1.00  0.00    -0.203 F 
ATOM    105  F   UNL     1     -12.694   5.245 -14.410  1.00  0.00    -0.200 F 
ATOM    106  C   UNL     1     -11.194   5.313 -16.232  1.00  0.00     0.200 A 
ATOM    107  F   UNL     1      -9.660   5.353 -18.027  1.00  0.00    -0.200 F 
ATOM    108  F   UNL     1     -12.175   5.733 -17.043  1.00  0.00    -0.200 F 
ENDBRANCH  75  98
ENDBRANCH  49  50
ENDBRANCH  41  44
ENDBRANCH  39  40
ENDBRANCH   1  39
TORSDOF 12
