REMARK SMILES Cc1cc([C@@H]([NH2+]CC[NH+](C)C)C(=O)NCCCCNC(=O)c2ccc(-c3c4nc(c(-c5c(F)c(F)c(F)c(F)c5F)c5ccc([nH]5)c(-c5c(F)c(F)c(F)c(F)c5F)c5nc(c(-c6c(F)c(F)c(F)c(F)c6F)c6ccc3[nH]6)C=C5)C=C4)cc2)ccc1Br
REMARK SMILES IDX 15 1 14 2 12 3 13 4 5 6 4 7 1 8 2 9 3 10 87 11 86 12 88 13
REMARK SMILES IDX 85 14 6 15 7 18 8 19 9 20 10 21 11 22 16 24 17 25 18 26
REMARK SMILES IDX 19 27 20 28 21 30 22 31 23 32 84 33 24 34 83 35 25 36 26 37
REMARK SMILES IDX 27 38 77 39 28 40 82 41 76 42 78 43 29 44 81 45 75 46 74 47
REMARK SMILES IDX 30 49 62 50 42 51 61 52 43 53 46 54 60 55 79 56 44 57 45 58
REMARK SMILES IDX 59 60 80 61 47 62 31 63 32 64 40 65 33 66 34 67 38 68 41 69
REMARK SMILES IDX 35 70 36 71 39 72 37 73 63 74 64 75 72 76 65 77 66 78 70 79
REMARK SMILES IDX 73 80 67 81 68 82 71 83 69 84 48 85 49 86 57 87 50 88 51 89
REMARK SMILES IDX 55 90 58 91 52 92 53 93 56 94 54 95
REMARK H PARENT 14 5 6 16 6 17 9 23 19 29 78 48 46 59
REMARK Flexibility Score: inf
ROOT
ATOM      1  C   UNL     1       4.216   3.335   0.865  1.00  0.00     0.116 C 
ENDROOT
BRANCH   1   2
ATOM      2  N   UNL     1       4.802   2.238   1.602  1.00  0.00    -0.351 N 
ATOM      3  C   UNL     1       4.850   0.911   1.281  1.00  0.00     0.283 C 
ATOM      4  O   UNL     1       5.315   0.148   2.138  1.00  0.00    -0.268 OA
ATOM      5  H   UNL     1       5.227   2.482   2.455  1.00  0.00     0.163 HD
BRANCH   3   6
ATOM      6  C   UNL     1       4.380   0.354  -0.089  1.00  0.00     0.304 C 
BRANCH   6   7
ATOM      7  C   UNL     1       2.868   0.184  -0.208  1.00  0.00     0.019 A 
ATOM      8  C   UNL     1       0.363  -2.650   0.318  1.00  0.00     0.045 C 
ATOM      9  C   UNL     1       0.904  -1.276   0.038  1.00  0.00    -0.036 A 
ATOM     10  C   UNL     1       2.289  -1.054   0.131  1.00  0.00     0.015 A 
ATOM     11  C   UNL     1       0.077  -0.204  -0.321  1.00  0.00     0.020 A 
ATOM     12  C   UNL     1       0.633   1.022  -0.682  1.00  0.00     0.016 A 
ATOM     13  Br  UNL     1      -1.815  -0.351  -0.342  1.00  0.00    -0.051 Br
ATOM     14  C   UNL     1       2.018   1.195  -0.671  1.00  0.00     0.011 A 
ENDBRANCH   6   7
BRANCH   6  15
ATOM     15  N   UNL     1       4.967   1.082  -1.236  1.00  0.00    -0.328 N 
ATOM     16  H   UNL     1       4.769   2.076  -1.122  1.00  0.00     0.347 HD
ATOM     17  H   UNL     1       4.547   0.695  -2.081  1.00  0.00     0.347 HD
BRANCH  15  18
ATOM     18  C   UNL     1       6.423   0.911  -1.366  1.00  0.00     0.323 C 
BRANCH  18  19
ATOM     19  C   UNL     1       7.024  -0.522  -1.418  1.00  0.00     0.323 C 
BRANCH  19  20
ATOM     20  N   UNL     1       6.760  -1.347  -2.616  1.00  0.00    -0.335 N 
ATOM     21  C   UNL     1       7.515  -2.603  -2.501  1.00  0.00     0.332 C 
ATOM     22  C   UNL     1       5.351  -1.667  -2.834  1.00  0.00     0.332 C 
ATOM     23  H   UNL     1       7.055  -0.790  -3.418  1.00  0.00     0.347 HD
ENDBRANCH  19  20
ENDBRANCH  18  19
ENDBRANCH  15  18
ENDBRANCH   6  15
ENDBRANCH   3   6
ENDBRANCH   1   2
BRANCH   1  24
ATOM     24  C   UNL     1       2.794   3.614   1.349  1.00  0.00     0.023 C 
BRANCH  24  25
ATOM     25  C   UNL     1       2.707   4.545   2.553  1.00  0.00     0.023 C 
BRANCH  25  26
ATOM     26  C   UNL     1       3.261   5.939   2.307  1.00  0.00     0.116 C 
BRANCH  26  27
ATOM     27  N   UNL     1       2.647   6.624   1.179  1.00  0.00    -0.352 N 
ATOM     28  C   UNL     1       2.451   7.975   1.014  1.00  0.00     0.251 C 
ATOM     29  H   UNL     1       2.334   6.050   0.444  1.00  0.00     0.163 HD
ATOM     30  O   UNL     1       1.829   8.408   0.057  1.00  0.00    -0.269 OA
BRANCH  28  31
ATOM     31  C   UNL     1       2.975   8.894   2.044  1.00  0.00     0.039 A 
ATOM     32  C   UNL     1       2.129   9.873   2.567  1.00  0.00     0.014 A 
ATOM     33  C   UNL     1       4.281   8.753   2.521  1.00  0.00     0.014 A 
ATOM     34  C   UNL     1       2.584  10.685   3.605  1.00  0.00     0.010 A 
ATOM     35  C   UNL     1       4.697   9.494   3.618  1.00  0.00     0.010 A 
ATOM     36  C   UNL     1       3.863  10.486   4.152  1.00  0.00    -0.014 A 
BRANCH  36  37
ATOM     37  C   UNL     1       4.367  11.351   5.245  1.00  0.00     0.031 A 
ATOM     38  C   UNL     1       5.559  12.236   5.002  1.00  0.00     0.074 A 
ATOM     39  C   UNL     1       3.781  11.311   6.457  1.00  0.00     0.049 A 
ATOM     40  N   UNL     1       6.164  13.056   5.823  1.00  0.00    -0.248 NA
ATOM     41  C   UNL     1       6.177  12.166   3.667  1.00  0.00     0.031 C 
ATOM     42  C   UNL     1       2.664  10.441   6.830  1.00  0.00     0.029 A 
ATOM     43  N   UNL     1       4.045  12.022   7.599  1.00  0.00    -0.354 N 
ATOM     44  C   UNL     1       7.236  13.579   5.111  1.00  0.00     0.074 A 
ATOM     45  C   UNL     1       7.244  12.935   3.818  1.00  0.00     0.031 C 
ATOM     46  C   UNL     1       2.316  10.695   8.102  1.00  0.00     0.029 A 
ATOM     47  C   UNL     1       3.199  11.725   8.640  1.00  0.00     0.049 A 
ATOM     48  H   UNL     1       4.771  12.683   7.667  1.00  0.00     0.167 HD
ATOM     49  C   UNL     1       8.114  14.537   5.489  1.00  0.00     0.037 A 
ATOM     50  C   UNL     1       3.142  12.239   9.883  1.00  0.00     0.037 A 
ATOM     51  C   UNL     1       8.075  15.204   6.762  1.00  0.00     0.049 A 
ATOM     52  C   UNL     1       4.101  13.336  10.261  1.00  0.00     0.074 A 
ATOM     53  C   UNL     1       8.879  16.229   7.227  1.00  0.00     0.029 A 
ATOM     54  N   UNL     1       7.171  14.911   7.774  1.00  0.00    -0.354 N 
ATOM     55  N   UNL     1       5.061  13.880   9.553  1.00  0.00    -0.248 NA
ATOM     56  C   UNL     1       3.952  13.907  11.606  1.00  0.00     0.031 C 
ATOM     57  C   UNL     1       8.486  16.531   8.536  1.00  0.00     0.029 A 
ATOM     58  C   UNL     1       7.404  15.732   8.865  1.00  0.00     0.049 A 
ATOM     59  H   UNL     1       6.469  14.223   7.723  1.00  0.00     0.167 HD
ATOM     60  C   UNL     1       5.605  14.879  10.349  1.00  0.00     0.074 A 
ATOM     61  C   UNL     1       4.855  14.876  11.588  1.00  0.00     0.031 C 
ATOM     62  C   UNL     1       6.632  15.723  10.082  1.00  0.00     0.037 A 
BRANCH  49  63
ATOM     63  C   UNL     1       9.178  14.930   4.505  1.00  0.00     0.064 A 
ATOM     64  C   UNL     1       8.868  15.618   3.321  1.00  0.00     0.173 A 
ATOM     65  C   UNL     1      10.526  14.636   4.758  1.00  0.00     0.173 A 
ATOM     66  F   UNL     1       7.593  15.909   3.022  1.00  0.00    -0.203 F 
ATOM     67  C   UNL     1       9.865  15.971   2.414  1.00  0.00     0.198 A 
ATOM     68  C   UNL     1      11.523  15.020   3.865  1.00  0.00     0.198 A 
ATOM     69  F   UNL     1      10.878  13.981   5.874  1.00  0.00    -0.203 F 
ATOM     70  F   UNL     1       9.538  16.579   1.265  1.00  0.00    -0.200 F 
ATOM     71  C   UNL     1      11.191  15.679   2.691  1.00  0.00     0.200 A 
ATOM     72  F   UNL     1      12.806  14.747   4.139  1.00  0.00    -0.200 F 
ATOM     73  F   UNL     1      12.150  16.026   1.821  1.00  0.00    -0.200 F 
ENDBRANCH  49  63
BRANCH  50  74
ATOM     74  C   UNL     1       2.110  11.763  10.842  1.00  0.00     0.064 A 
ATOM     75  C   UNL     1       1.054  12.597  11.238  1.00  0.00     0.173 A 
ATOM     76  C   UNL     1       2.167  10.477  11.397  1.00  0.00     0.173 A 
ATOM     77  F   UNL     1       0.966  13.842  10.748  1.00  0.00    -0.203 F 
ATOM     78  C   UNL     1       0.115  12.175  12.176  1.00  0.00     0.198 A 
ATOM     79  C   UNL     1       1.210  10.045  12.312  1.00  0.00     0.198 A 
ATOM     80  F   UNL     1       3.151   9.636  11.044  1.00  0.00    -0.203 F 
ATOM     81  F   UNL     1      -0.850  13.013  12.579  1.00  0.00    -0.200 F 
ATOM     82  C   UNL     1       0.191  10.898  12.710  1.00  0.00     0.200 A 
ATOM     83  F   UNL     1       1.278   8.804  12.814  1.00  0.00    -0.200 F 
ATOM     84  F   UNL     1      -0.711  10.492  13.614  1.00  0.00    -0.200 F 
ENDBRANCH  50  74
BRANCH  62  85
ATOM     85  C   UNL     1       6.965  16.748  11.127  1.00  0.00     0.064 A 
ATOM     86  C   UNL     1       7.551  16.394  12.351  1.00  0.00     0.173 A 
ATOM     87  C   UNL     1       6.707  18.107  10.889  1.00  0.00     0.173 A 
ATOM     88  F   UNL     1       7.807  15.107  12.630  1.00  0.00    -0.203 F 
ATOM     89  C   UNL     1       7.829  17.359  13.315  1.00  0.00     0.198 A 
ATOM     90  C   UNL     1       7.018  19.072  11.841  1.00  0.00     0.198 A 
ATOM     91  F   UNL     1       6.157  18.499   9.730  1.00  0.00    -0.203 F 
ATOM     92  F   UNL     1       8.330  16.991  14.502  1.00  0.00    -0.200 F 
ATOM     93  C   UNL     1       7.567  18.697  13.058  1.00  0.00     0.200 A 
ATOM     94  F   UNL     1       6.779  20.366  11.585  1.00  0.00    -0.200 F 
ATOM     95  F   UNL     1       7.835  19.623  13.988  1.00  0.00    -0.200 F 
ENDBRANCH  62  85
ENDBRANCH  36  37
ENDBRANCH  28  31
ENDBRANCH  26  27
ENDBRANCH  25  26
ENDBRANCH  24  25
ENDBRANCH   1  24
TORSDOF 16
