REMARK SMILES Cc1noc(C)c1[C@H](C)NC(=O)c1cccc(C(=O)NCCCCNC(=O)c2ccc(-c3c4nc(c(-c5c(F)c(F)c(F)c(F)c5F)c5ccc([nH]5)c(-c5c(F)c(F)c(F)c(F)c5F)c5nc(c(-c6c(F)c(F)c(F)c(F)c6F)c6ccc3[nH]6)C=C5)C=C4)cc2)n1
REMARK SMILES IDX 22 1 21 2 20 3 18 4 19 5 17 7 13 8 14 9 91 10 15 11 16 12
REMARK SMILES IDX 11 13 10 14 12 16 8 17 9 18 7 19 1 20 2 21 3 22 4 23 5 24
REMARK SMILES IDX 6 25 23 26 24 27 25 28 26 29 27 31 28 32 29 33 90 34 30 35
REMARK SMILES IDX 89 36 31 37 32 38 33 39 83 40 34 41 88 42 82 43 84 44 35 45
REMARK SMILES IDX 87 46 81 47 80 48 36 50 68 51 48 52 67 53 49 54 52 55 66 56
REMARK SMILES IDX 85 57 50 58 51 59 65 61 86 62 53 63 37 64 38 65 46 66 39 67
REMARK SMILES IDX 40 68 44 69 47 70 41 71 42 72 45 73 43 74 69 75 70 76 78 77
REMARK SMILES IDX 71 78 72 79 76 80 79 81 73 82 74 83 77 84 75 85 54 86 55 87
REMARK SMILES IDX 63 88 56 89 57 90 61 91 64 92 58 93 59 94 62 95 60 96
REMARK H PARENT 20 6 10 15 25 30 84 49 52 60
REMARK Flexibility Score: inf
ROOT
ATOM      1  C   UNL     1       7.037   6.402   2.455  1.00  0.00     0.023 C 
ENDROOT
BRANCH   1   2
ATOM      2  C   UNL     1       6.802   4.890   2.562  1.00  0.00     0.116 C 
BRANCH   2   3
ATOM      3  N   UNL     1       5.924   4.557   3.665  1.00  0.00    -0.351 N 
ATOM      4  C   UNL     1       4.560   4.357   3.743  1.00  0.00     0.269 C 
ATOM      5  O   UNL     1       4.137   3.955   4.829  1.00  0.00    -0.268 OA
ATOM      6  H   UNL     1       6.390   4.454   4.526  1.00  0.00     0.163 HD
BRANCH   4   7
ATOM      7  C   UNL     1       3.597   4.611   2.605  1.00  0.00     0.129 A 
ATOM      8  C   UNL     1       1.430   4.336   1.816  1.00  0.00     0.129 A 
ATOM      9  C   UNL     1       1.671   5.186   0.747  1.00  0.00     0.034 A 
ATOM     10  N   UNL     1       2.367   4.038   2.746  1.00  0.00    -0.237 NA
ATOM     11  C   UNL     1       2.928   5.724   0.579  1.00  0.00     0.005 A 
ATOM     12  C   UNL     1       3.894   5.445   1.531  1.00  0.00     0.034 A 
BRANCH   8  13
ATOM     13  C   UNL     1       0.035   3.829   2.015  1.00  0.00     0.270 C 
ATOM     14  N   UNL     1      -0.680   3.321   0.943  1.00  0.00    -0.344 N 
ATOM     15  H   UNL     1      -1.661   3.392   1.002  1.00  0.00     0.164 HD
ATOM     16  O   UNL     1      -0.520   3.933   3.105  1.00  0.00    -0.267 OA
BRANCH  14  17
ATOM     17  C   UNL     1      -0.153   2.694  -0.265  1.00  0.00     0.115 C 
ATOM     18  C   UNL     1       0.089   1.214   0.040  1.00  0.00     0.036 C 
BRANCH  17  19
ATOM     19  C   UNL     1      -1.074   2.980  -1.424  1.00  0.00     0.040 A 
ATOM     20  C   UNL     1      -1.068   5.633  -1.557  1.00  0.00     0.071 C 
ATOM     21  C   UNL     1      -1.434   4.261  -1.976  1.00  0.00     0.086 A 
ATOM     22  N   UNL     1      -2.211   4.136  -3.056  1.00  0.00    -0.085 NA
ATOM     23  O   UNL     1      -2.400   2.793  -3.231  1.00  0.00    -0.361 OA
ATOM     24  C   UNL     1      -1.734   2.102  -2.273  1.00  0.00     0.139 A 
ATOM     25  C   UNL     1      -1.870   0.636  -2.389  1.00  0.00     0.091 C 
ENDBRANCH  17  19
ENDBRANCH  14  17
ENDBRANCH   8  13
ENDBRANCH   4   7
ENDBRANCH   2   3
ENDBRANCH   1   2
BRANCH   1  26
ATOM     26  C   UNL     1       8.136   6.960   3.356  1.00  0.00     0.023 C 
BRANCH  26  27
ATOM     27  C   UNL     1       9.519   6.372   3.123  1.00  0.00     0.116 C 
BRANCH  27  28
ATOM     28  N   UNL     1       9.976   6.468   1.746  1.00  0.00    -0.352 N 
ATOM     29  C   UNL     1      11.276   6.470   1.285  1.00  0.00     0.251 C 
ATOM     30  H   UNL     1       9.273   6.540   1.061  1.00  0.00     0.163 HD
ATOM     31  O   UNL     1      11.523   6.635   0.106  1.00  0.00    -0.269 OA
BRANCH  29  32
ATOM     32  C   UNL     1      12.366   6.322   2.272  1.00  0.00     0.039 A 
ATOM     33  C   UNL     1      13.368   7.293   2.311  1.00  0.00     0.014 A 
ATOM     34  C   UNL     1      12.351   5.273   3.194  1.00  0.00     0.014 A 
ATOM     35  C   UNL     1      14.320   7.253   3.330  1.00  0.00     0.010 A 
ATOM     36  C   UNL     1      13.257   5.275   4.248  1.00  0.00     0.010 A 
ATOM     37  C   UNL     1      14.245   6.268   4.328  1.00  0.00    -0.014 A 
BRANCH  37  38
ATOM     38  C   UNL     1      15.194   6.255   5.467  1.00  0.00     0.031 A 
ATOM     39  C   UNL     1      16.161   5.117   5.622  1.00  0.00     0.074 A 
ATOM     40  C   UNL     1      15.136   7.231   6.393  1.00  0.00     0.049 A 
ATOM     41  N   UNL     1      17.012   4.878   6.587  1.00  0.00    -0.248 NA
ATOM     42  C   UNL     1      16.151   4.095   4.562  1.00  0.00     0.031 C 
ATOM     43  C   UNL     1      14.209   8.364   6.375  1.00  0.00     0.029 A 
ATOM     44  N   UNL     1      15.869   7.421   7.538  1.00  0.00    -0.354 N 
ATOM     45  C   UNL     1      17.629   3.680   6.255  1.00  0.00     0.074 A 
ATOM     46  C   UNL     1      17.017   3.210   5.032  1.00  0.00     0.031 C 
ATOM     47  C   UNL     1      14.444   9.142   7.444  1.00  0.00     0.029 A 
ATOM     48  C   UNL     1      15.512   8.547   8.240  1.00  0.00     0.049 A 
ATOM     49  H   UNL     1      16.582   6.809   7.829  1.00  0.00     0.167 HD
ATOM     50  C   UNL     1      18.637   3.045   6.898  1.00  0.00     0.037 A 
ATOM     51  C   UNL     1      15.995   9.037   9.397  1.00  0.00     0.037 A 
ATOM     52  C   UNL     1      19.258   3.526   8.102  1.00  0.00     0.049 A 
ATOM     53  C   UNL     1      17.108   8.305  10.095  1.00  0.00     0.074 A 
ATOM     54  C   UNL     1      20.307   2.972   8.815  1.00  0.00     0.029 A 
ATOM     55  N   UNL     1      18.887   4.683   8.771  1.00  0.00    -0.354 N 
ATOM     56  N   UNL     1      17.721   7.201   9.744  1.00  0.00    -0.248 NA
ATOM     57  C   UNL     1      17.602   8.891  11.349  1.00  0.00     0.031 C 
ATOM     58  C   UNL     1      20.553   3.780   9.930  1.00  0.00     0.029 A 
ATOM     59  C   UNL     1      19.682   4.857   9.891  1.00  0.00     0.049 A 
ATOM     60  H   UNL     1      18.165   5.291   8.490  1.00  0.00     0.167 HD
ATOM     61  C   UNL     1      18.691   6.978  10.712  1.00  0.00     0.074 A 
ATOM     62  C   UNL     1      18.593   8.069  11.659  1.00  0.00     0.031 C 
ATOM     63  C   UNL     1      19.581   5.961  10.809  1.00  0.00     0.037 A 
BRANCH  50  64
ATOM     64  C   UNL     1      19.140   1.766   6.296  1.00  0.00     0.064 A 
ATOM     65  C   UNL     1      19.879   1.764   5.103  1.00  0.00     0.173 A 
ATOM     66  C   UNL     1      18.909   0.536   6.928  1.00  0.00     0.173 A 
ATOM     67  F   UNL     1      20.114   2.913   4.452  1.00  0.00    -0.203 F 
ATOM     68  C   UNL     1      20.346   0.574   4.551  1.00  0.00     0.198 A 
ATOM     69  C   UNL     1      19.401  -0.649   6.388  1.00  0.00     0.198 A 
ATOM     70  F   UNL     1      18.210   0.484   8.072  1.00  0.00    -0.203 F 
ATOM     71  F   UNL     1      21.008   0.592   3.387  1.00  0.00    -0.200 F 
ATOM     72  C   UNL     1      20.113  -0.630   5.198  1.00  0.00     0.200 A 
ATOM     73  F   UNL     1      19.184  -1.812   7.018  1.00  0.00    -0.200 F 
ATOM     74  F   UNL     1      20.567  -1.775   4.669  1.00  0.00    -0.200 F 
ENDBRANCH  50  64
BRANCH  51  75
ATOM     75  C   UNL     1      15.453  10.303   9.957  1.00  0.00     0.064 A 
ATOM     76  C   UNL     1      16.233  11.468   9.976  1.00  0.00     0.173 A 
ATOM     77  C   UNL     1      14.164  10.370  10.503  1.00  0.00     0.173 A 
ATOM     78  F   UNL     1      17.480  11.447   9.483  1.00  0.00    -0.203 F 
ATOM     79  C   UNL     1      15.753  12.646  10.544  1.00  0.00     0.198 A 
ATOM     80  C   UNL     1      13.675  11.557  11.047  1.00  0.00     0.198 A 
ATOM     81  F   UNL     1      13.377   9.285  10.504  1.00  0.00    -0.203 F 
ATOM     82  F   UNL     1      16.538  13.731  10.594  1.00  0.00    -0.200 F 
ATOM     83  C   UNL     1      14.473  12.691  11.075  1.00  0.00     0.200 A 
ATOM     84  F   UNL     1      12.434  11.600  11.549  1.00  0.00    -0.200 F 
ATOM     85  F   UNL     1      14.013  13.823  11.624  1.00  0.00    -0.200 F 
ENDBRANCH  51  75
BRANCH  63  86
ATOM     86  C   UNL     1      20.550   6.006  11.953  1.00  0.00     0.064 A 
ATOM     87  C   UNL     1      20.148   5.731  13.268  1.00  0.00     0.173 A 
ATOM     88  C   UNL     1      21.904   6.291  11.723  1.00  0.00     0.173 A 
ATOM     89  F   UNL     1      18.860   5.469  13.539  1.00  0.00    -0.203 F 
ATOM     90  C   UNL     1      21.064   5.761  14.315  1.00  0.00     0.198 A 
ATOM     91  C   UNL     1      22.822   6.294  12.769  1.00  0.00     0.198 A 
ATOM     92  F   UNL     1      22.338   6.555  10.481  1.00  0.00    -0.203 F 
ATOM     93  F   UNL     1      20.651   5.539  15.571  1.00  0.00    -0.200 F 
ATOM     94  C   UNL     1      22.400   6.036  14.064  1.00  0.00     0.200 A 
ATOM     95  F   UNL     1      24.115   6.549  12.523  1.00  0.00    -0.200 F 
ATOM     96  F   UNL     1      23.282   6.059  15.074  1.00  0.00    -0.200 F 
ENDBRANCH  63  86
ENDBRANCH  37  38
ENDBRANCH  29  32
ENDBRANCH  27  28
ENDBRANCH  26  27
ENDBRANCH   1  26
TORSDOF 14
