REMARK SMILES O=Cc1cc(Cl)c(OCc2ccc(C(=O)NCCCCNC(=O)c3ccc(-c4c5nc(c(-c6c(F)c(F)c(F)c(F)c6F)c6ccc([nH]6)c(-c6c(F)c(F)c(F)c(F)c6F)c6nc(c(-c7c(F)c(F)c(F)c(F)c7F)c7ccc4[nH]7)C=C6)C=C5)cc3)cc2)c(Cl)c1
REMARK SMILES IDX 17 1 16 2 14 3 15 4 13 6 10 7 11 8 88 9 12 10 87 11 9 12
REMARK SMILES IDX 8 13 7 14 3 15 4 16 91 17 5 18 89 19 6 20 90 21 2 22 1 23
REMARK SMILES IDX 18 24 19 25 20 26 21 27 22 28 23 30 24 31 25 32 86 33 26 34
REMARK SMILES IDX 85 35 27 36 28 37 29 38 79 39 30 40 84 41 78 42 80 43 31 44
REMARK SMILES IDX 83 45 77 46 76 47 32 49 64 50 44 51 63 52 45 53 48 54 62 55
REMARK SMILES IDX 81 56 46 57 47 58 61 60 82 61 49 62 33 63 34 64 42 65 35 66
REMARK SMILES IDX 36 67 40 68 43 69 37 70 38 71 41 72 39 73 65 74 66 75 74 76
REMARK SMILES IDX 67 77 68 78 72 79 75 80 69 81 70 82 73 83 71 84 50 85 51 86
REMARK SMILES IDX 59 87 52 88 53 89 57 90 60 91 54 92 55 93 58 94 56 95
REMARK H PARENT 16 5 21 29 80 48 48 59
REMARK Flexibility Score: inf
ROOT
ATOM      1  C   UNL     1      -1.475   0.644   7.321  1.00  0.00     0.116 C 
ENDROOT
BRANCH   1   2
ATOM      2  N   UNL     1      -1.375   2.067   7.595  1.00  0.00    -0.352 N 
ATOM      3  C   UNL     1      -0.295   2.916   7.554  1.00  0.00     0.251 C 
ATOM      4  O   UNL     1      -0.481   4.118   7.729  1.00  0.00    -0.269 OA
ATOM      5  H   UNL     1      -2.224   2.495   7.853  1.00  0.00     0.163 HD
BRANCH   3   6
ATOM      6  C   UNL     1       1.071   2.427   7.240  1.00  0.00     0.039 A 
ATOM      7  C   UNL     1       3.605   1.510   6.429  1.00  0.00    -0.011 A 
ATOM      8  C   UNL     1       3.136   2.759   6.004  1.00  0.00     0.008 A 
ATOM      9  C   UNL     1       2.843   0.784   7.356  1.00  0.00     0.008 A 
ATOM     10  C   UNL     1       1.874   3.212   6.403  1.00  0.00     0.014 A 
ATOM     11  C   UNL     1       1.592   1.245   7.766  1.00  0.00     0.014 A 
BRANCH   7  12
ATOM     12  C   UNL     1       4.921   0.942   5.948  1.00  0.00     0.265 C 
BRANCH  12  13
ATOM     13  O   UNL     1       5.243   1.195   4.581  1.00  0.00    -0.486 OA
BRANCH  13  14
ATOM     14  C   UNL     1       4.454   0.823   3.527  1.00  0.00     0.157 A 
ATOM     15  C   UNL     1       2.995   0.378   1.145  1.00  0.00     0.017 A 
ATOM     16  C   UNL     1       2.732  -0.377   2.288  1.00  0.00     0.036 A 
ATOM     17  C   UNL     1       4.000   1.335   1.161  1.00  0.00     0.036 A 
ATOM     18  C   UNL     1       3.475  -0.181   3.465  1.00  0.00     0.085 A 
ATOM     19  C   UNL     1       4.712   1.555   2.344  1.00  0.00     0.085 A 
ATOM     20  Cl  UNL     1       3.148  -1.330   4.712  1.00  0.00    -0.080 Cl
ATOM     21  Cl  UNL     1       5.943   2.778   2.294  1.00  0.00    -0.080 Cl
BRANCH  15  22
ATOM     22  C   UNL     1       2.226   0.148  -0.093  1.00  0.00     0.260 C 
ATOM     23  O   UNL     1       1.267  -0.612  -0.120  1.00  0.00    -0.298 OA
ENDBRANCH  15  22
ENDBRANCH  13  14
ENDBRANCH  12  13
ENDBRANCH   7  12
ENDBRANCH   3   6
ENDBRANCH   1   2
BRANCH   1  24
ATOM     24  C   UNL     1      -1.619  -0.160   8.615  1.00  0.00     0.023 C 
BRANCH  24  25
ATOM     25  C   UNL     1      -2.989  -0.043   9.288  1.00  0.00     0.023 C 
BRANCH  25  26
ATOM     26  C   UNL     1      -4.155  -0.603   8.482  1.00  0.00     0.116 C 
BRANCH  26  27
ATOM     27  N   UNL     1      -4.015  -2.018   8.178  1.00  0.00    -0.352 N 
ATOM     28  C   UNL     1      -4.987  -2.992   8.126  1.00  0.00     0.251 C 
ATOM     29  H   UNL     1      -3.099  -2.322   7.983  1.00  0.00     0.163 HD
ATOM     30  O   UNL     1      -4.682  -4.162   7.960  1.00  0.00    -0.269 OA
BRANCH  28  31
ATOM     31  C   UNL     1      -6.405  -2.614   8.315  1.00  0.00     0.039 A 
ATOM     32  C   UNL     1      -7.182  -3.358   9.206  1.00  0.00     0.014 A 
ATOM     33  C   UNL     1      -6.957  -1.524   7.637  1.00  0.00     0.014 A 
ATOM     34  C   UNL     1      -8.495  -2.966   9.471  1.00  0.00     0.010 A 
ATOM     35  C   UNL     1      -8.243  -1.095   7.952  1.00  0.00     0.010 A 
ATOM     36  C   UNL     1      -9.023  -1.809   8.875  1.00  0.00    -0.014 A 
BRANCH  36  37
ATOM     37  C   UNL     1     -10.383  -1.323   9.214  1.00  0.00     0.031 A 
ATOM     38  C   UNL     1     -11.459  -1.297   8.166  1.00  0.00     0.074 A 
ATOM     39  C   UNL     1     -10.628  -0.839  10.447  1.00  0.00     0.049 A 
ATOM     40  N   UNL     1     -12.683  -0.840   8.247  1.00  0.00    -0.248 NA
ATOM     41  C   UNL     1     -11.105  -1.830   6.841  1.00  0.00     0.031 C 
ATOM     42  C   UNL     1      -9.650  -0.762  11.535  1.00  0.00     0.029 A 
ATOM     43  N   UNL     1     -11.770  -0.306  10.990  1.00  0.00    -0.354 N 
ATOM     44  C   UNL     1     -13.237  -1.016   6.986  1.00  0.00     0.074 A 
ATOM     45  C   UNL     1     -12.203  -1.577   6.144  1.00  0.00     0.031 C 
ATOM     46  C   UNL     1     -10.239  -0.231  12.619  1.00  0.00     0.029 A 
ATOM     47  C   UNL     1     -11.623   0.102  12.294  1.00  0.00     0.049 A 
ATOM     48  H   UNL     1     -12.616  -0.224  10.493  1.00  0.00     0.167 HD
ATOM     49  C   UNL     1     -14.500  -0.753   6.575  1.00  0.00     0.037 A 
ATOM     50  C   UNL     1     -12.503   0.686  13.129  1.00  0.00     0.037 A 
ATOM     51  C   UNL     1     -15.535  -0.224   7.424  1.00  0.00     0.049 A 
ATOM     52  C   UNL     1     -13.902   0.958  12.647  1.00  0.00     0.074 A 
ATOM     53  C   UNL     1     -16.864   0.013   7.118  1.00  0.00     0.029 A 
ATOM     54  N   UNL     1     -15.356   0.148   8.748  1.00  0.00    -0.354 N 
ATOM     55  N   UNL     1     -14.435   0.719  11.474  1.00  0.00    -0.248 NA
ATOM     56  C   UNL     1     -14.826   1.574  13.611  1.00  0.00     0.031 C 
ATOM     57  C   UNL     1     -17.480   0.568   8.245  1.00  0.00     0.029 A 
ATOM     58  C   UNL     1     -16.546   0.632   9.267  1.00  0.00     0.049 A 
ATOM     59  H   UNL     1     -14.509   0.080   9.245  1.00  0.00     0.167 HD
ATOM     60  C   UNL     1     -15.758   1.127  11.565  1.00  0.00     0.074 A 
ATOM     61  C   UNL     1     -15.953   1.616  12.914  1.00  0.00     0.031 C 
ATOM     62  C   UNL     1     -16.726   1.102  10.616  1.00  0.00     0.037 A 
BRANCH  49  63
ATOM     63  C   UNL     1     -14.840  -1.042   5.143  1.00  0.00     0.064 A 
ATOM     64  C   UNL     1     -14.957  -2.356   4.667  1.00  0.00     0.173 A 
ATOM     65  C   UNL     1     -15.101   0.006   4.247  1.00  0.00     0.173 A 
ATOM     66  F   UNL     1     -14.707  -3.393   5.481  1.00  0.00    -0.203 F 
ATOM     67  C   UNL     1     -15.302  -2.611   3.342  1.00  0.00     0.198 A 
ATOM     68  C   UNL     1     -15.473  -0.253   2.931  1.00  0.00     0.198 A 
ATOM     69  F   UNL     1     -15.009   1.282   4.652  1.00  0.00    -0.203 F 
ATOM     70  F   UNL     1     -15.368  -3.874   2.900  1.00  0.00    -0.200 F 
ATOM     71  C   UNL     1     -15.567  -1.560   2.478  1.00  0.00     0.200 A 
ATOM     72  F   UNL     1     -15.742   0.764   2.099  1.00  0.00    -0.200 F 
ATOM     73  F   UNL     1     -15.910  -1.807   1.206  1.00  0.00    -0.200 F 
ENDBRANCH  49  63
BRANCH  50  74
ATOM     74  C   UNL     1     -12.097   1.034  14.515  1.00  0.00     0.064 A 
ATOM     75  C   UNL     1     -12.622   0.339  15.614  1.00  0.00     0.173 A 
ATOM     76  C   UNL     1     -11.192   2.074  14.773  1.00  0.00     0.173 A 
ATOM     77  F   UNL     1     -13.507  -0.650  15.419  1.00  0.00    -0.203 F 
ATOM     78  C   UNL     1     -12.278   0.687  16.918  1.00  0.00     0.198 A 
ATOM     79  C   UNL     1     -10.827   2.402  16.077  1.00  0.00     0.198 A 
ATOM     80  F   UNL     1     -10.657   2.766  13.757  1.00  0.00    -0.203 F 
ATOM     81  F   UNL     1     -12.833   0.039  17.951  1.00  0.00    -0.200 F 
ATOM     82  C   UNL     1     -11.377   1.715  17.148  1.00  0.00     0.200 A 
ATOM     83  F   UNL     1      -9.946   3.388  16.295  1.00  0.00    -0.200 F 
ATOM     84  F   UNL     1     -11.046   2.050  18.403  1.00  0.00    -0.200 F 
ENDBRANCH  50  74
BRANCH  62  85
ATOM     85  C   UNL     1     -18.091   1.581  11.013  1.00  0.00     0.064 A 
ATOM     86  C   UNL     1     -18.362   2.941  11.220  1.00  0.00     0.173 A 
ATOM     87  C   UNL     1     -19.150   0.670  11.149  1.00  0.00     0.173 A 
ATOM     88  F   UNL     1     -17.379   3.848  11.117  1.00  0.00    -0.203 F 
ATOM     89  C   UNL     1     -19.639   3.369  11.572  1.00  0.00     0.198 A 
ATOM     90  C   UNL     1     -20.431   1.105  11.472  1.00  0.00     0.198 A 
ATOM     91  F   UNL     1     -18.943  -0.642  10.955  1.00  0.00    -0.203 F 
ATOM     92  F   UNL     1     -19.866   4.668  11.809  1.00  0.00    -0.200 F 
ATOM     93  C   UNL     1     -20.674   2.453  11.690  1.00  0.00     0.200 A 
ATOM     94  F   UNL     1     -21.432   0.220  11.574  1.00  0.00    -0.200 F 
ATOM     95  F   UNL     1     -21.904   2.868  12.021  1.00  0.00    -0.200 F 
ENDBRANCH  62  85
ENDBRANCH  36  37
ENDBRANCH  28  31
ENDBRANCH  26  27
ENDBRANCH  25  26
ENDBRANCH  24  25
ENDBRANCH   1  24
TORSDOF 15
