REMARK SMILES CC(C)c1cc(C(=O)NCCCCNC(=O)c2ccc(-c3c4nc(c(-c5c(F)c(F)c(F)c(F)c5F)c5ccc([nH]5)c(-c5c(F)c(F)c(F)c(F)c5F)c5nc(c(-c6c(F)c(F)c(F)c(F)c6F)c6ccc3[nH]6)C=C5)C=C4)cc2)ccc1[N+](=O)[O-]
REMARK SMILES IDX 12 1 11 2 10 3 9 4 7 5 8 6 6 8 4 9 5 10 82 11 81 12 80 13
REMARK SMILES IDX 2 14 1 15 3 16 83 17 84 18 85 19 13 20 14 21 15 22 16 24
REMARK SMILES IDX 17 25 18 26 79 27 19 28 78 29 20 30 21 31 22 32 72 33 23 34
REMARK SMILES IDX 77 35 71 36 73 37 24 38 76 39 70 40 69 41 25 43 57 44 37 45
REMARK SMILES IDX 56 46 38 47 41 48 55 49 74 50 39 51 40 52 54 54 75 55 42 56
REMARK SMILES IDX 26 57 27 58 35 59 28 60 29 61 33 62 36 63 30 64 31 65 34 66
REMARK SMILES IDX 32 67 58 68 59 69 67 70 60 71 61 72 65 73 68 74 62 75 63 76
REMARK SMILES IDX 66 77 64 78 43 79 44 80 52 81 45 82 46 83 50 84 53 85 47 86
REMARK SMILES IDX 48 87 51 88 49 89
REMARK H PARENT 9 7 14 23 73 42 41 53
REMARK Flexibility Score: inf
ROOT
ATOM      1  C   UNL     1      -7.528   1.627   1.544  1.00  0.00     0.023 C 
ENDROOT
BRANCH   1   2
ATOM      2  C   UNL     1      -6.510   0.521   1.291  1.00  0.00     0.023 C 
BRANCH   2   3
ATOM      3  C   UNL     1      -5.899   0.466  -0.105  1.00  0.00     0.116 C 
BRANCH   3   4
ATOM      4  N   UNL     1      -5.131   1.643  -0.473  1.00  0.00    -0.352 N 
ATOM      5  C   UNL     1      -3.901   1.751  -1.083  1.00  0.00     0.251 C 
ATOM      6  O   UNL     1      -3.425   2.867  -1.276  1.00  0.00    -0.269 OA
ATOM      7  H   UNL     1      -5.559   2.501  -0.251  1.00  0.00     0.163 HD
BRANCH   5   8
ATOM      8  C   UNL     1      -3.107   0.548  -1.449  1.00  0.00     0.040 A 
ATOM      9  C   UNL     1      -0.896  -0.555  -1.423  1.00  0.00     0.033 A 
ATOM     10  C   UNL     1      -1.715   0.586  -1.246  1.00  0.00     0.025 A 
ATOM     11  C   UNL     1      -1.566  -1.742  -1.767  1.00  0.00     0.272 A 
ATOM     12  C   UNL     1      -2.934  -1.769  -2.084  1.00  0.00     0.087 A 
ATOM     13  C   UNL     1      -3.689  -0.605  -1.974  1.00  0.00     0.021 A 
BRANCH   9  14
ATOM     14  C   UNL     1       0.607  -0.355  -1.248  1.00  0.00     0.020 C 
ATOM     15  C   UNL     1       0.981  -0.136   0.221  1.00  0.00     0.013 C 
ATOM     16  C   UNL     1       1.546  -1.391  -1.874  1.00  0.00     0.013 C 
ENDBRANCH   9  14
BRANCH  11  17
ATOM     17  N   UNL     1      -0.923  -3.039  -1.711  1.00  0.00     0.063 N 
ATOM     18  O   UNL     1      -0.764  -3.532  -0.587  1.00  0.00    -0.258 OA
ATOM     19  O   UNL     1      -0.639  -3.575  -2.790  1.00  0.00    -0.258 OA
ENDBRANCH  11  17
ENDBRANCH   5   8
ENDBRANCH   3   4
ENDBRANCH   2   3
ENDBRANCH   1   2
BRANCH   1  20
ATOM     20  C   UNL     1      -8.646   1.757   0.516  1.00  0.00     0.116 C 
BRANCH  20  21
ATOM     21  N   UNL     1      -9.425   0.540   0.338  1.00  0.00    -0.352 N 
ATOM     22  C   UNL     1     -10.781   0.333   0.430  1.00  0.00     0.251 C 
ATOM     23  H   UNL     1      -8.898  -0.261   0.117  1.00  0.00     0.163 HD
ATOM     24  O   UNL     1     -11.233  -0.804   0.329  1.00  0.00    -0.269 OA
BRANCH  22  25
ATOM     25  C   UNL     1     -11.696   1.464   0.699  1.00  0.00     0.039 A 
ATOM     26  C   UNL     1     -12.698   1.301   1.660  1.00  0.00     0.014 A 
ATOM     27  C   UNL     1     -11.561   2.683   0.032  1.00  0.00     0.014 A 
ATOM     28  C   UNL     1     -13.499   2.388   2.019  1.00  0.00     0.010 A 
ATOM     29  C   UNL     1     -12.298   3.788   0.453  1.00  0.00     0.010 A 
ATOM     30  C   UNL     1     -13.268   3.655   1.458  1.00  0.00    -0.014 A 
BRANCH  30  31
ATOM     31  C   UNL     1     -14.011   4.851   1.936  1.00  0.00     0.031 A 
ATOM     32  C   UNL     1     -14.900   5.624   1.002  1.00  0.00     0.074 A 
ATOM     33  C   UNL     1     -13.831   5.280   3.201  1.00  0.00     0.049 A 
ATOM     34  N   UNL     1     -15.591   6.714   1.229  1.00  0.00    -0.248 NA
ATOM     35  C   UNL     1     -15.007   5.124  -0.377  1.00  0.00     0.031 C 
ATOM     36  C   UNL     1     -12.947   4.655   4.188  1.00  0.00     0.029 A 
ATOM     37  N   UNL     1     -14.376   6.345   3.875  1.00  0.00    -0.354 N 
ATOM     38  C   UNL     1     -16.204   7.031   0.024  1.00  0.00     0.074 A 
ATOM     39  C   UNL     1     -15.757   6.056  -0.947  1.00  0.00     0.031 C 
ATOM     40  C   UNL     1     -13.033   5.328   5.346  1.00  0.00     0.029 A 
ATOM     41  C   UNL     1     -13.945   6.455   5.175  1.00  0.00     0.049 A 
ATOM     42  H   UNL     1     -15.015   6.972   3.465  1.00  0.00     0.167 HD
ATOM     43  C   UNL     1     -17.080   8.030  -0.242  1.00  0.00     0.037 A 
ATOM     44  C   UNL     1     -14.248   7.363   6.122  1.00  0.00     0.037 A 
ATOM     45  C   UNL     1     -17.538   8.988   0.730  1.00  0.00     0.049 A 
ATOM     46  C   UNL     1     -15.220   8.464   5.797  1.00  0.00     0.074 A 
ATOM     47  C   UNL     1     -18.472   9.997   0.574  1.00  0.00     0.029 A 
ATOM     48  N   UNL     1     -17.089   9.060   2.041  1.00  0.00    -0.354 N 
ATOM     49  N   UNL     1     -15.856   8.705   4.677  1.00  0.00    -0.248 NA
ATOM     50  C   UNL     1     -15.522   9.417   6.874  1.00  0.00     0.031 C 
ATOM     51  C   UNL     1     -18.550  10.712   1.774  1.00  0.00     0.029 A 
ATOM     52  C   UNL     1     -17.707  10.113   2.696  1.00  0.00     0.049 A 
ATOM     53  H   UNL     1     -16.428   8.452   2.446  1.00  0.00     0.167 HD
ATOM     54  C   UNL     1     -16.650   9.817   4.920  1.00  0.00     0.074 A 
ATOM     55  C   UNL     1     -16.434  10.190   6.302  1.00  0.00     0.031 C 
ATOM     56  C   UNL     1     -17.481  10.474   4.073  1.00  0.00     0.037 A 
BRANCH  43  57
ATOM     57  C   UNL     1     -17.609   8.134  -1.645  1.00  0.00     0.064 A 
ATOM     58  C   UNL     1     -18.486   7.174  -2.174  1.00  0.00     0.173 A 
ATOM     59  C   UNL     1     -17.271   9.228  -2.455  1.00  0.00     0.173 A 
ATOM     60  F   UNL     1     -18.834   6.103  -1.445  1.00  0.00    -0.203 F 
ATOM     61  C   UNL     1     -18.980   7.290  -3.471  1.00  0.00     0.198 A 
ATOM     62  C   UNL     1     -17.792   9.357  -3.740  1.00  0.00     0.198 A 
ATOM     63  F   UNL     1     -16.442  10.178  -1.998  1.00  0.00    -0.203 F 
ATOM     64  F   UNL     1     -19.775   6.334  -3.971  1.00  0.00    -0.200 F 
ATOM     65  C   UNL     1     -18.639   8.385  -4.250  1.00  0.00     0.200 A 
ATOM     66  F   UNL     1     -17.474  10.424  -4.487  1.00  0.00    -0.200 F 
ATOM     67  F   UNL     1     -19.123   8.500  -5.494  1.00  0.00    -0.200 F 
ENDBRANCH  43  57
BRANCH  44  68
ATOM     68  C   UNL     1     -13.643   7.258   7.477  1.00  0.00     0.064 A 
ATOM     69  C   UNL     1     -14.428   6.937   8.594  1.00  0.00     0.173 A 
ATOM     70  C   UNL     1     -12.275   7.489   7.687  1.00  0.00     0.173 A 
ATOM     71  F   UNL     1     -15.745   6.728   8.448  1.00  0.00    -0.203 F 
ATOM     72  C   UNL     1     -13.874   6.876   9.871  1.00  0.00     0.198 A 
ATOM     73  C   UNL     1     -11.717   7.396   8.960  1.00  0.00     0.198 A 
ATOM     74  F   UNL     1     -11.479   7.794   6.652  1.00  0.00    -0.203 F 
ATOM     75  F   UNL     1     -14.658   6.620  10.927  1.00  0.00    -0.200 F 
ATOM     76  C   UNL     1     -12.518   7.100  10.052  1.00  0.00     0.200 A 
ATOM     77  F   UNL     1     -10.403   7.598   9.129  1.00  0.00    -0.200 F 
ATOM     78  F   UNL     1     -11.985   7.040  11.280  1.00  0.00    -0.200 F 
ENDBRANCH  44  68
BRANCH  56  79
ATOM     79  C   UNL     1     -18.238  11.646   4.628  1.00  0.00     0.064 A 
ATOM     80  C   UNL     1     -17.595  12.847   4.964  1.00  0.00     0.173 A 
ATOM     81  C   UNL     1     -19.629  11.575   4.807  1.00  0.00     0.173 A 
ATOM     82  F   UNL     1     -16.265  12.962   4.827  1.00  0.00    -0.203 F 
ATOM     83  C   UNL     1     -18.310  13.920   5.491  1.00  0.00     0.198 A 
ATOM     84  C   UNL     1     -20.345  12.662   5.301  1.00  0.00     0.198 A 
ATOM     85  F   UNL     1     -20.295  10.454   4.495  1.00  0.00    -0.203 F 
ATOM     86  F   UNL     1     -17.665  15.035   5.861  1.00  0.00    -0.200 F 
ATOM     87  C   UNL     1     -19.684  13.829   5.653  1.00  0.00     0.200 A 
ATOM     88  F   UNL     1     -21.675  12.577   5.442  1.00  0.00    -0.200 F 
ATOM     89  F   UNL     1     -20.371  14.863   6.157  1.00  0.00    -0.200 F 
ENDBRANCH  56  79
ENDBRANCH  30  31
ENDBRANCH  22  25
ENDBRANCH  20  21
ENDBRANCH   1  20
TORSDOF 13
