REMARK SMILES Cc1csc(CNC(=O)NC[C@H]2CC[C@@H](C(=O)NCCCCNC(=O)c3ccc(-c4c5nc(c(-c6c(F)c(F)c(F)c(F)c6F)c6ccc([nH]6)c(-c6c(F)c(F)c(F)c(F)c6F)c6nc(c(-c7c(F)c(F)c(F)c(F)c7F)c7ccc4[nH]7)C=C6)C=C5)cc3)CC2)n1
REMARK SMILES IDX 19 1 18 2 16 3 17 4 15 6 12 7 13 8 90 9 14 10 89 11 11 12
REMARK SMILES IDX 10 13 7 14 8 15 9 17 6 19 5 20 1 21 2 22 3 23 91 24 4 25
REMARK SMILES IDX 20 26 21 27 22 28 23 29 24 30 25 32 26 33 27 34 88 35 28 36
REMARK SMILES IDX 87 37 29 38 30 39 31 40 81 41 32 42 86 43 80 44 82 45 33 46
REMARK SMILES IDX 85 47 79 48 78 49 34 51 66 52 46 53 65 54 47 55 50 56 64 57
REMARK SMILES IDX 83 58 48 59 49 60 63 62 84 63 51 64 35 65 36 66 44 67 37 68
REMARK SMILES IDX 38 69 42 70 45 71 39 72 40 73 43 74 41 75 67 76 68 77 76 78
REMARK SMILES IDX 69 79 70 80 74 81 77 82 71 83 72 84 75 85 73 86 52 87 53 88
REMARK SMILES IDX 61 89 54 90 55 91 59 92 62 93 56 94 57 95 60 96 58 97
REMARK H PARENT 18 5 7 16 10 18 23 31 82 50 50 61
REMARK Flexibility Score: inf
ROOT
ATOM      1  C   UNL     1      -0.791   5.482   4.330  1.00  0.00     0.116 C 
ENDROOT
BRANCH   1   2
ATOM      2  N   UNL     1      -0.191   6.091   5.493  1.00  0.00    -0.356 N 
ATOM      3  C   UNL     1       0.992   6.721   5.695  1.00  0.00     0.223 C 
ATOM      4  O   UNL     1       1.102   7.302   6.783  1.00  0.00    -0.275 OA
ATOM      5  H   UNL     1      -0.752   6.039   6.299  1.00  0.00     0.163 HD
BRANCH   3   6
ATOM      6  C   UNL     1       2.178   6.744   4.715  1.00  0.00     0.078 C 
ATOM      7  C   UNL     1       2.081   5.474   1.972  1.00  0.00     0.008 C 
ATOM      8  C   UNL     1       1.589   6.919   2.190  1.00  0.00     0.006 C 
ATOM      9  C   UNL     1       2.336   4.648   3.241  1.00  0.00     0.006 C 
ATOM     10  C   UNL     1       2.053   7.610   3.466  1.00  0.00     0.014 C 
ATOM     11  C   UNL     1       2.848   5.403   4.451  1.00  0.00     0.014 C 
BRANCH   7  12
ATOM     12  C   UNL     1       1.085   4.706   1.070  1.00  0.00     0.121 C 
BRANCH  12  13
ATOM     13  N   UNL     1       1.185   5.104  -0.316  1.00  0.00    -0.338 N 
ATOM     14  N   UNL     1       1.236   3.089  -1.535  1.00  0.00    -0.332 N 
ATOM     15  C   UNL     1       1.018   4.402  -1.444  1.00  0.00     0.315 C 
ATOM     16  H   UNL     1       0.817   2.682  -2.327  1.00  0.00     0.165 HD
ATOM     17  O   UNL     1       0.659   5.011  -2.453  1.00  0.00    -0.249 OA
ATOM     18  H   UNL     1       1.415   6.052  -0.454  1.00  0.00     0.165 HD
BRANCH  14  19
ATOM     19  C   UNL     1       1.957   2.133  -0.717  1.00  0.00     0.185 C 
BRANCH  19  20
ATOM     20  C   UNL     1       1.048   0.997  -0.336  1.00  0.00     0.112 A 
ATOM     21  C   UNL     1      -2.286  -0.302   0.104  1.00  0.00     0.067 C 
ATOM     22  C   UNL     1      -0.808  -0.175   0.015  1.00  0.00     0.049 A 
ATOM     23  C   UNL     1       0.113  -1.201   0.078  1.00  0.00     0.090 A 
ATOM     24  N   UNL     1      -0.257   1.083  -0.168  1.00  0.00    -0.245 NA
ATOM     25  S   UNL     1       1.698  -0.586  -0.133  1.00  0.00    -0.125 S 
ENDBRANCH  19  20
ENDBRANCH  14  19
ENDBRANCH  12  13
ENDBRANCH   7  12
ENDBRANCH   3   6
ENDBRANCH   1   2
BRANCH   1  26
ATOM     26  C   UNL     1      -0.922   3.962   4.432  1.00  0.00     0.023 C 
BRANCH  26  27
ATOM     27  C   UNL     1      -2.342   3.448   4.628  1.00  0.00     0.023 C 
BRANCH  27  28
ATOM     28  C   UNL     1      -3.333   3.836   3.535  1.00  0.00     0.116 C 
BRANCH  28  29
ATOM     29  N   UNL     1      -3.002   3.379   2.192  1.00  0.00    -0.352 N 
ATOM     30  C   UNL     1      -3.886   3.069   1.179  1.00  0.00     0.251 C 
ATOM     31  H   UNL     1      -2.044   3.282   1.985  1.00  0.00     0.163 HD
ATOM     32  O   UNL     1      -3.508   2.716   0.072  1.00  0.00    -0.269 OA
BRANCH  30  33
ATOM     33  C   UNL     1      -5.329   3.091   1.480  1.00  0.00     0.039 A 
ATOM     34  C   UNL     1      -6.053   1.905   1.344  1.00  0.00     0.014 A 
ATOM     35  C   UNL     1      -5.920   4.237   2.014  1.00  0.00     0.014 A 
ATOM     36  C   UNL     1      -7.353   1.838   1.842  1.00  0.00     0.010 A 
ATOM     37  C   UNL     1      -7.186   4.146   2.578  1.00  0.00     0.010 A 
ATOM     38  C   UNL     1      -7.906   2.942   2.512  1.00  0.00    -0.014 A 
BRANCH  38  39
ATOM     39  C   UNL     1      -9.234   2.860   3.165  1.00  0.00     0.031 A 
ATOM     40  C   UNL     1     -10.356   3.725   2.672  1.00  0.00     0.074 A 
ATOM     41  C   UNL     1      -9.404   2.069   4.243  1.00  0.00     0.049 A 
ATOM     42  N   UNL     1     -11.548   3.905   3.180  1.00  0.00    -0.248 NA
ATOM     43  C   UNL     1     -10.090   4.520   1.462  1.00  0.00     0.031 C 
ATOM     44  C   UNL     1      -8.376   1.215   4.842  1.00  0.00     0.029 A 
ATOM     45  N   UNL     1     -10.505   1.866   5.037  1.00  0.00    -0.354 N 
ATOM     46  C   UNL     1     -12.164   4.845   2.366  1.00  0.00     0.074 A 
ATOM     47  C   UNL     1     -11.201   5.235   1.359  1.00  0.00     0.031 C 
ATOM     48  C   UNL     1      -8.901   0.566   5.895  1.00  0.00     0.029 A 
ATOM     49  C   UNL     1     -10.289   0.984   6.067  1.00  0.00     0.049 A 
ATOM     50  H   UNL     1     -11.370   2.312   4.882  1.00  0.00     0.167 HD
ATOM     51  C   UNL     1     -13.429   5.321   2.437  1.00  0.00     0.037 A 
ATOM     52  C   UNL     1     -11.117   0.567   7.043  1.00  0.00     0.037 A 
ATOM     53  C   UNL     1     -14.395   4.907   3.417  1.00  0.00     0.049 A 
ATOM     54  C   UNL     1     -12.525   1.099   7.084  1.00  0.00     0.074 A 
ATOM     55  C   UNL     1     -15.708   5.317   3.564  1.00  0.00     0.029 A 
ATOM     56  N   UNL     1     -14.153   3.970   4.411  1.00  0.00    -0.354 N 
ATOM     57  N   UNL     1     -13.105   1.967   6.291  1.00  0.00    -0.248 NA
ATOM     58  C   UNL     1     -13.395   0.588   8.153  1.00  0.00     0.031 C 
ATOM     59  C   UNL     1     -16.259   4.638   4.657  1.00  0.00     0.029 A 
ATOM     60  C   UNL     1     -15.296   3.784   5.170  1.00  0.00     0.049 A 
ATOM     61  H   UNL     1     -13.297   3.507   4.555  1.00  0.00     0.167 HD
ATOM     62  C   UNL     1     -14.411   2.084   6.745  1.00  0.00     0.074 A 
ATOM     63  C   UNL     1     -14.543   1.189   7.875  1.00  0.00     0.031 C 
ATOM     64  C   UNL     1     -15.411   2.866   6.272  1.00  0.00     0.037 A 
BRANCH  51  65
ATOM     65  C   UNL     1     -13.842   6.329   1.409  1.00  0.00     0.064 A 
ATOM     66  C   UNL     1     -14.069   5.956   0.076  1.00  0.00     0.173 A 
ATOM     67  C   UNL     1     -14.042   7.671   1.762  1.00  0.00     0.173 A 
ATOM     68  F   UNL     1     -13.873   4.687  -0.312  1.00  0.00    -0.203 F 
ATOM     69  C   UNL     1     -14.461   6.896  -0.873  1.00  0.00     0.198 A 
ATOM     70  C   UNL     1     -14.459   8.604   0.815  1.00  0.00     0.198 A 
ATOM     71  F   UNL     1     -13.839   8.077   3.024  1.00  0.00    -0.203 F 
ATOM     72  F   UNL     1     -14.632   6.525  -2.149  1.00  0.00    -0.200 F 
ATOM     73  C   UNL     1     -14.663   8.217  -0.501  1.00  0.00     0.200 A 
ATOM     74  F   UNL     1     -14.662   9.878   1.176  1.00  0.00    -0.200 F 
ATOM     75  F   UNL     1     -15.047   9.119  -1.414  1.00  0.00    -0.200 F 
ENDBRANCH  51  65
BRANCH  52  76
ATOM     76  C   UNL     1     -10.656  -0.422   8.050  1.00  0.00     0.064 A 
ATOM     77  C   UNL     1     -11.155  -1.733   8.046  1.00  0.00     0.173 A 
ATOM     78  C   UNL     1      -9.737  -0.076   9.050  1.00  0.00     0.173 A 
ATOM     79  F   UNL     1     -12.052  -2.104   7.122  1.00  0.00    -0.203 F 
ATOM     80  C   UNL     1     -10.774  -2.651   9.023  1.00  0.00     0.198 A 
ATOM     81  C   UNL     1      -9.338  -1.003  10.011  1.00  0.00     0.198 A 
ATOM     82  F   UNL     1      -9.226   1.163   9.093  1.00  0.00    -0.203 F 
ATOM     83  F   UNL     1     -11.307  -3.880   9.027  1.00  0.00    -0.200 F 
ATOM     84  C   UNL     1      -9.864  -2.286  10.003  1.00  0.00     0.200 A 
ATOM     85  F   UNL     1      -8.450  -0.650  10.951  1.00  0.00    -0.200 F 
ATOM     86  F   UNL     1      -9.503  -3.167  10.946  1.00  0.00    -0.200 F 
ENDBRANCH  52  76
BRANCH  64  87
ATOM     87  C   UNL     1     -16.745   2.751   6.943  1.00  0.00     0.064 A 
ATOM     88  C   UNL     1     -16.984   3.321   8.201  1.00  0.00     0.173 A 
ATOM     89  C   UNL     1     -17.806   2.099   6.299  1.00  0.00     0.173 A 
ATOM     90  F   UNL     1     -15.993   3.941   8.861  1.00  0.00    -0.203 F 
ATOM     91  C   UNL     1     -18.237   3.226   8.800  1.00  0.00     0.198 A 
ATOM     92  C   UNL     1     -19.063   2.026   6.891  1.00  0.00     0.198 A 
ATOM     93  F   UNL     1     -17.625   1.542   5.092  1.00  0.00    -0.203 F 
ATOM     94  F   UNL     1     -18.435   3.745  10.020  1.00  0.00    -0.200 F 
ATOM     95  C   UNL     1     -19.276   2.584   8.142  1.00  0.00     0.200 A 
ATOM     96  F   UNL     1     -20.069   1.413   6.251  1.00  0.00    -0.200 F 
ATOM     97  F   UNL     1     -20.483   2.498   8.719  1.00  0.00    -0.200 F 
ENDBRANCH  64  87
ENDBRANCH  38  39
ENDBRANCH  30  33
ENDBRANCH  28  29
ENDBRANCH  27  28
ENDBRANCH  26  27
ENDBRANCH   1  26
TORSDOF 15
