REMARK SMILES COc1cc(C(=O)N[C@H]2CCCC[C@H]2C(=O)NCCCCNC(=O)c2ccc(-c3c4nc(c(-c5c(F)c(F)c(F)c(F)c5F)c5ccc([nH]5)c(-c5c(F)c(F)c(F)c(F)c5F)c5nc(c(-c6c(F)c(F)c(F)c(F)c6F)c6ccc3[nH]6)C=C5)C=C4)cc2)cc(Cl)c1OC
REMARK SMILES IDX 19 1 18 2 17 3 15 4 16 5 14 7 9 8 10 9 11 10 13 11 12 12
REMARK SMILES IDX 8 13 6 14 7 15 5 17 3 18 4 19 91 20 89 21 88 22 90 23 2 24
REMARK SMILES IDX 1 25 92 26 93 27 20 28 21 29 22 30 23 31 24 33 25 34 26 35
REMARK SMILES IDX 87 36 27 37 86 38 28 39 29 40 30 41 80 42 31 43 85 44 79 45
REMARK SMILES IDX 81 46 32 47 84 48 78 49 77 50 33 52 65 53 45 54 64 55 46 56
REMARK SMILES IDX 49 57 63 58 82 59 47 60 48 61 62 63 83 64 50 65 34 66 35 67
REMARK SMILES IDX 43 68 36 69 37 70 41 71 44 72 38 73 39 74 42 75 40 76 66 77
REMARK SMILES IDX 67 78 75 79 68 80 69 81 73 82 76 83 70 84 71 85 74 86 72 87
REMARK SMILES IDX 51 88 52 89 60 90 53 91 54 92 58 93 61 94 55 95 56 96 59 97
REMARK SMILES IDX 57 98
REMARK H PARENT 17 6 8 16 22 32 81 51 49 62
REMARK Flexibility Score: inf
ROOT
ATOM      1  C   UNL     1       5.413  -4.661  -8.578  1.00  0.00     0.023 C 
ENDROOT
BRANCH   1   2
ATOM      2  C   UNL     1       4.713  -5.758  -7.784  1.00  0.00     0.116 C 
BRANCH   2   3
ATOM      3  N   UNL     1       5.379  -5.999  -6.519  1.00  0.00    -0.356 N 
ATOM      4  C   UNL     1       4.952  -5.821  -5.240  1.00  0.00     0.225 C 
ATOM      5  O   UNL     1       5.789  -5.960  -4.343  1.00  0.00    -0.275 OA
ATOM      6  H   UNL     1       6.295  -6.352  -6.599  1.00  0.00     0.163 HD
BRANCH   4   7
ATOM      7  C   UNL     1       3.504  -5.495  -4.881  1.00  0.00     0.101 C 
ATOM      8  C   UNL     1       3.079  -4.005  -4.992  1.00  0.00     0.094 C 
ATOM      9  C   UNL     1       1.553  -3.816  -4.857  1.00  0.00     0.026 C 
ATOM     10  C   UNL     1       0.737  -4.846  -5.626  1.00  0.00     0.002 C 
ATOM     11  C   UNL     1       2.536  -6.563  -5.423  1.00  0.00     0.015 C 
ATOM     12  C   UNL     1       1.077  -6.245  -5.142  1.00  0.00     0.001 C 
BRANCH   8  13
ATOM     13  N   UNL     1       3.534  -3.264  -6.164  1.00  0.00    -0.349 N 
ATOM     14  C   UNL     1       4.552  -2.368  -6.401  1.00  0.00     0.251 C 
ATOM     15  O   UNL     1       4.453  -1.726  -7.452  1.00  0.00    -0.269 OA
ATOM     16  H   UNL     1       2.992  -3.445  -6.965  1.00  0.00     0.164 HD
BRANCH  14  17
ATOM     17  C   UNL     1       5.788  -2.175  -5.572  1.00  0.00     0.045 A 
ATOM     18  C   UNL     1       8.059  -1.226  -5.509  1.00  0.00     0.163 A 
ATOM     19  C   UNL     1       6.842  -1.451  -6.172  1.00  0.00     0.064 A 
ATOM     20  C   UNL     1       8.233  -1.707  -4.199  1.00  0.00     0.179 A 
ATOM     21  C   UNL     1       7.210  -2.460  -3.614  1.00  0.00     0.087 A 
ATOM     22  C   UNL     1       6.005  -2.682  -4.295  1.00  0.00     0.038 A 
ATOM     23  Cl  UNL     1       7.357  -3.222  -2.066  1.00  0.00    -0.080 Cl
BRANCH  18  24
ATOM     24  O   UNL     1       9.126  -0.551  -6.048  1.00  0.00    -0.493 OA
ATOM     25  C   UNL     1       9.035  -0.116  -7.398  1.00  0.00     0.278 C 
ENDBRANCH  18  24
BRANCH  20  26
ATOM     26  O   UNL     1       9.460  -1.488  -3.621  1.00  0.00    -0.491 OA
ATOM     27  C   UNL     1       9.417  -0.904  -2.321  1.00  0.00     0.278 C 
ENDBRANCH  20  26
ENDBRANCH  14  17
ENDBRANCH   8  13
ENDBRANCH   4   7
ENDBRANCH   2   3
ENDBRANCH   1   2
BRANCH   1  28
ATOM     28  C   UNL     1       6.668  -5.076  -9.321  1.00  0.00     0.023 C 
BRANCH  28  29
ATOM     29  C   UNL     1       6.457  -6.139 -10.379  1.00  0.00     0.116 C 
BRANCH  29  30
ATOM     30  N   UNL     1       5.458  -5.781 -11.379  1.00  0.00    -0.352 N 
ATOM     31  C   UNL     1       5.565  -5.766 -12.750  1.00  0.00     0.251 C 
ATOM     32  H   UNL     1       4.582  -5.511 -11.022  1.00  0.00     0.163 HD
ATOM     33  O   UNL     1       4.647  -5.344 -13.446  1.00  0.00    -0.269 OA
BRANCH  31  34
ATOM     34  C   UNL     1       6.821  -6.223 -13.376  1.00  0.00     0.039 A 
ATOM     35  C   UNL     1       7.427  -5.425 -14.348  1.00  0.00     0.014 A 
ATOM     36  C   UNL     1       7.440  -7.393 -12.934  1.00  0.00     0.014 A 
ATOM     37  C   UNL     1       8.703  -5.754 -14.806  1.00  0.00     0.010 A 
ATOM     38  C   UNL     1       8.752  -7.651 -13.300  1.00  0.00     0.010 A 
ATOM     39  C   UNL     1       9.397  -6.839 -14.246  1.00  0.00    -0.014 A 
BRANCH  39  40
ATOM     40  C   UNL     1      10.792  -7.162 -14.639  1.00  0.00     0.031 A 
ATOM     41  C   UNL     1      11.102  -8.511 -15.228  1.00  0.00     0.074 A 
ATOM     42  C   UNL     1      11.785  -6.290 -14.377  1.00  0.00     0.049 A 
ATOM     43  N   UNL     1      12.261  -9.040 -15.526  1.00  0.00    -0.248 NA
ATOM     44  C   UNL     1       9.958  -9.406 -15.472  1.00  0.00     0.031 C 
ATOM     45  C   UNL     1      11.623  -4.983 -13.736  1.00  0.00     0.029 A 
ATOM     46  N   UNL     1      13.137  -6.381 -14.601  1.00  0.00    -0.354 N 
ATOM     47  C   UNL     1      11.987 -10.333 -15.949  1.00  0.00     0.074 A 
ATOM     48  C   UNL     1      10.561 -10.532 -15.819  1.00  0.00     0.031 C 
ATOM     49  C   UNL     1      12.823  -4.386 -13.642  1.00  0.00     0.029 A 
ATOM     50  C   UNL     1      13.843  -5.280 -14.180  1.00  0.00     0.049 A 
ATOM     51  H   UNL     1      13.560  -7.163 -15.024  1.00  0.00     0.167 HD
ATOM     52  C   UNL     1      12.844 -11.263 -16.431  1.00  0.00     0.037 A 
ATOM     53  C   UNL     1      15.165  -5.027 -14.219  1.00  0.00     0.037 A 
ATOM     54  C   UNL     1      14.249 -11.034 -16.625  1.00  0.00     0.049 A 
ATOM     55  C   UNL     1      16.088  -6.056 -14.815  1.00  0.00     0.074 A 
ATOM     56  C   UNL     1      15.185 -11.868 -17.210  1.00  0.00     0.029 A 
ATOM     57  N   UNL     1      14.919  -9.880 -16.245  1.00  0.00    -0.354 N 
ATOM     58  N   UNL     1      15.804  -7.240 -15.299  1.00  0.00    -0.248 NA
ATOM     59  C   UNL     1      17.515  -5.709 -14.878  1.00  0.00     0.031 C 
ATOM     60  C   UNL     1      16.431 -11.235 -17.148  1.00  0.00     0.029 A 
ATOM     61  C   UNL     1      16.262  -9.989 -16.565  1.00  0.00     0.049 A 
ATOM     62  H   UNL     1      14.502  -9.101 -15.812  1.00  0.00     0.167 HD
ATOM     63  C   UNL     1      17.007  -7.768 -15.748  1.00  0.00     0.074 A 
ATOM     64  C   UNL     1      18.023  -6.768 -15.493  1.00  0.00     0.031 C 
ATOM     65  C   UNL     1      17.252  -8.974 -16.316  1.00  0.00     0.037 A 
BRANCH  52  66
ATOM     66  C   UNL     1      12.284 -12.605 -16.799  1.00  0.00     0.064 A 
ATOM     67  C   UNL     1      11.445 -12.776 -17.910  1.00  0.00     0.173 A 
ATOM     68  C   UNL     1      12.625 -13.743 -16.052  1.00  0.00     0.173 A 
ATOM     69  F   UNL     1      11.078 -11.717 -18.648  1.00  0.00    -0.203 F 
ATOM     70  C   UNL     1      10.945 -14.032 -18.244  1.00  0.00     0.198 A 
ATOM     71  C   UNL     1      12.149 -15.002 -16.408  1.00  0.00     0.198 A 
ATOM     72  F   UNL     1      13.427 -13.636 -14.982  1.00  0.00    -0.203 F 
ATOM     73  F   UNL     1      10.106 -14.162 -19.281  1.00  0.00    -0.200 F 
ATOM     74  C   UNL     1      11.304 -15.145 -17.499  1.00  0.00     0.200 A 
ATOM     75  F   UNL     1      12.505 -16.079 -15.694  1.00  0.00    -0.200 F 
ATOM     76  F   UNL     1      10.830 -16.354 -17.828  1.00  0.00    -0.200 F 
ENDBRANCH  52  66
BRANCH  53  77
ATOM     77  C   UNL     1      15.695  -3.737 -13.704  1.00  0.00     0.064 A 
ATOM     78  C   UNL     1      16.223  -2.776 -14.579  1.00  0.00     0.173 A 
ATOM     79  C   UNL     1      15.704  -3.444 -12.333  1.00  0.00     0.173 A 
ATOM     80  F   UNL     1      16.255  -3.018 -15.898  1.00  0.00    -0.203 F 
ATOM     81  C   UNL     1      16.763  -1.584 -14.100  1.00  0.00     0.198 A 
ATOM     82  C   UNL     1      16.220  -2.240 -11.857  1.00  0.00     0.198 A 
ATOM     83  F   UNL     1      15.206  -4.327 -11.454  1.00  0.00    -0.203 F 
ATOM     84  F   UNL     1      17.308  -0.707 -14.954  1.00  0.00    -0.200 F 
ATOM     85  C   UNL     1      16.758  -1.315 -12.739  1.00  0.00     0.200 A 
ATOM     86  F   UNL     1      16.200  -1.978 -10.543  1.00  0.00    -0.200 F 
ATOM     87  F   UNL     1      17.279  -0.170 -12.279  1.00  0.00    -0.200 F 
ENDBRANCH  53  77
BRANCH  65  88
ATOM     88  C   UNL     1      18.662  -9.264 -16.734  1.00  0.00     0.064 A 
ATOM     89  C   UNL     1      19.665  -9.536 -15.793  1.00  0.00     0.173 A 
ATOM     90  C   UNL     1      19.000  -9.322 -18.094  1.00  0.00     0.173 A 
ATOM     91  F   UNL     1      19.393  -9.479 -14.480  1.00  0.00    -0.203 F 
ATOM     92  C   UNL     1      20.963  -9.833 -16.199  1.00  0.00     0.198 A 
ATOM     93  C   UNL     1      20.291  -9.648 -18.497  1.00  0.00     0.198 A 
ATOM     94  F   UNL     1      18.073  -9.078 -19.033  1.00  0.00    -0.203 F 
ATOM     95  F   UNL     1      21.917 -10.047 -15.282  1.00  0.00    -0.200 F 
ATOM     96  C   UNL     1      21.273  -9.897 -17.549  1.00  0.00     0.200 A 
ATOM     97  F   UNL     1      20.586  -9.723 -19.802  1.00  0.00    -0.200 F 
ATOM     98  F   UNL     1      22.521 -10.193 -17.938  1.00  0.00    -0.200 F 
ENDBRANCH  65  88
ENDBRANCH  39  40
ENDBRANCH  31  34
ENDBRANCH  29  30
ENDBRANCH  28  29
ENDBRANCH   1  28
TORSDOF 15
