REMARK SMILES O=C(NCCCCNC(=O)c1ccc(C(F)(F)F)nc1NC[C@@H]1CCOC1)c1ccc(-c2c3nc(c(-c4c(F)c(F)c(F)c(F)c4F)c4ccc([nH]4)c(-c4c(F)c(F)c(F)c(F)c4F)c4nc(c(-c5c(F)c(F)c(F)c(F)c5F)c5ccc2[nH]5)C=C4)C=C3)cc1
REMARK SMILES IDX 6 1 5 2 4 3 3 4 1 5 2 6 28 8 29 9 90 10 30 11 89 12 31 13
REMARK SMILES IDX 32 14 33 15 83 16 34 17 88 18 82 19 84 20 35 21 87 22 81 23
REMARK SMILES IDX 80 24 36 26 68 27 48 28 67 29 49 30 52 31 66 32 85 33 50 34
REMARK SMILES IDX 51 35 65 37 86 38 53 39 37 40 38 41 46 42 39 43 40 44 44 45
REMARK SMILES IDX 47 46 41 47 42 48 45 49 43 50 69 51 70 52 78 53 71 54 72 55
REMARK SMILES IDX 76 56 79 57 73 58 74 59 77 60 75 61 54 62 55 63 63 64 56 65
REMARK SMILES IDX 57 66 61 67 64 68 58 69 59 70 62 71 60 72 7 73 8 74 9 75
REMARK SMILES IDX 10 77 11 78 12 79 20 80 13 81 19 82 14 83 21 84 22 86 23 87
REMARK SMILES IDX 24 88 27 89 25 90 26 91 15 92 16 93 17 94 18 95
REMARK H PARENT 3 7 84 25 52 36 8 76 21 85
REMARK Flexibility Score: inf
ROOT
ATOM      1  C   UNL     1       4.568  -1.551   3.376  1.00  0.00     0.023 C 
ENDROOT
BRANCH   1   2
ATOM      2  C   UNL     1       5.046  -0.492   2.383  1.00  0.00     0.023 C 
BRANCH   2   3
ATOM      3  C   UNL     1       4.686  -0.762   0.927  1.00  0.00     0.116 C 
BRANCH   3   4
ATOM      4  N   UNL     1       3.250  -0.828   0.705  1.00  0.00    -0.352 N 
ATOM      5  O   UNL     1       1.226  -0.145  -0.014  1.00  0.00    -0.269 OA
ATOM      6  C   UNL     1       2.448  -0.037  -0.078  1.00  0.00     0.251 C 
ATOM      7  H   UNL     1       2.784  -1.547   1.190  1.00  0.00     0.163 HD
BRANCH   6   8
ATOM      8  C   UNL     1       3.049   0.965  -0.982  1.00  0.00     0.039 A 
ATOM      9  C   UNL     1       4.133   0.637  -1.801  1.00  0.00     0.014 A 
ATOM     10  C   UNL     1       2.504   2.251  -1.019  1.00  0.00     0.014 A 
ATOM     11  C   UNL     1       4.757   1.626  -2.555  1.00  0.00     0.010 A 
ATOM     12  C   UNL     1       3.082   3.223  -1.836  1.00  0.00     0.010 A 
ATOM     13  C   UNL     1       4.231   2.926  -2.588  1.00  0.00    -0.014 A 
BRANCH  13  14
ATOM     14  C   UNL     1       4.851   3.966  -3.445  1.00  0.00     0.031 A 
ATOM     15  C   UNL     1       5.463   5.194  -2.837  1.00  0.00     0.074 A 
ATOM     16  C   UNL     1       4.817   3.819  -4.782  1.00  0.00     0.049 A 
ATOM     17  N   UNL     1       5.946   6.258  -3.426  1.00  0.00    -0.248 NA
ATOM     18  C   UNL     1       5.530   5.236  -1.369  1.00  0.00     0.031 C 
ATOM     19  C   UNL     1       4.252   2.668  -5.487  1.00  0.00     0.029 A 
ATOM     20  N   UNL     1       5.248   4.648  -5.787  1.00  0.00    -0.354 N 
ATOM     21  C   UNL     1       6.351   7.107  -2.404  1.00  0.00     0.074 A 
ATOM     22  C   UNL     1       6.031   6.445  -1.157  1.00  0.00     0.031 C 
ATOM     23  C   UNL     1       4.369   2.863  -6.808  1.00  0.00     0.029 A 
ATOM     24  C   UNL     1       4.955   4.178  -7.042  1.00  0.00     0.049 A 
ATOM     25  H   UNL     1       5.721   5.496  -5.623  1.00  0.00     0.167 HD
ATOM     26  C   UNL     1       6.935   8.326  -2.503  1.00  0.00     0.037 A 
ATOM     27  C   UNL     1       5.099   4.758  -8.249  1.00  0.00     0.037 A 
ATOM     28  C   UNL     1       7.245   8.973  -3.753  1.00  0.00     0.049 A 
ATOM     29  C   UNL     1       5.700   6.131  -8.335  1.00  0.00     0.074 A 
ATOM     30  C   UNL     1       7.873  10.188  -3.964  1.00  0.00     0.029 A 
ATOM     31  N   UNL     1       6.931   8.465  -5.007  1.00  0.00    -0.354 N 
ATOM     32  N   UNL     1       6.114   6.912  -7.367  1.00  0.00    -0.248 NA
ATOM     33  C   UNL     1       5.858   6.704  -9.678  1.00  0.00     0.031 C 
ATOM     34  C   UNL     1       7.877  10.447  -5.338  1.00  0.00     0.029 A 
ATOM     35  C   UNL     1       7.322   9.358  -5.992  1.00  0.00     0.049 A 
ATOM     36  H   UNL     1       6.495   7.597  -5.171  1.00  0.00     0.167 HD
ATOM     37  C   UNL     1       6.609   8.053  -7.982  1.00  0.00     0.074 A 
ATOM     38  C   UNL     1       6.443   7.863  -9.409  1.00  0.00     0.031 C 
ATOM     39  C   UNL     1       7.162   9.152  -7.412  1.00  0.00     0.037 A 
BRANCH  26  40
ATOM     40  C   UNL     1       7.236   9.057  -1.224  1.00  0.00     0.064 A 
ATOM     41  C   UNL     1       8.204   8.604  -0.315  1.00  0.00     0.173 A 
ATOM     42  C   UNL     1       6.546  10.238  -0.905  1.00  0.00     0.173 A 
ATOM     43  F   UNL     1       8.890   7.478  -0.565  1.00  0.00    -0.203 F 
ATOM     44  C   UNL     1       8.434   9.274   0.884  1.00  0.00     0.198 A 
ATOM     45  C   UNL     1       6.805  10.927   0.277  1.00  0.00     0.198 A 
ATOM     46  F   UNL     1       5.618  10.727  -1.741  1.00  0.00    -0.203 F 
ATOM     47  F   UNL     1       9.314   8.781   1.768  1.00  0.00    -0.200 F 
ATOM     48  C   UNL     1       7.738  10.437   1.177  1.00  0.00     0.200 A 
ATOM     49  F   UNL     1       6.144  12.060   0.549  1.00  0.00    -0.200 F 
ATOM     50  F   UNL     1       7.958  11.079   2.333  1.00  0.00    -0.200 F 
ENDBRANCH  26  40
BRANCH  27  51
ATOM     51  C   UNL     1       4.646   4.026  -9.459  1.00  0.00     0.064 A 
ATOM     52  C   UNL     1       5.568   3.501 -10.372  1.00  0.00     0.173 A 
ATOM     53  C   UNL     1       3.283   3.787  -9.692  1.00  0.00     0.173 A 
ATOM     54  F   UNL     1       6.880   3.716 -10.198  1.00  0.00    -0.203 F 
ATOM     55  C   UNL     1       5.143   2.765 -11.477  1.00  0.00     0.198 A 
ATOM     56  C   UNL     1       2.862   3.026 -10.779  1.00  0.00     0.198 A 
ATOM     57  F   UNL     1       2.362   4.260  -8.839  1.00  0.00    -0.203 F 
ATOM     58  F   UNL     1       6.043   2.293 -12.350  1.00  0.00    -0.200 F 
ATOM     59  C   UNL     1       3.792   2.519 -11.673  1.00  0.00     0.200 A 
ATOM     60  F   UNL     1       1.557   2.772 -10.952  1.00  0.00    -0.200 F 
ATOM     61  F   UNL     1       3.387   1.792 -12.723  1.00  0.00    -0.200 F 
ENDBRANCH  27  51
BRANCH  39  62
ATOM     62  C   UNL     1       7.686  10.223  -8.325  1.00  0.00     0.064 A 
ATOM     63  C   UNL     1       6.832  11.076  -9.038  1.00  0.00     0.173 A 
ATOM     64  C   UNL     1       9.069  10.447  -8.420  1.00  0.00     0.173 A 
ATOM     65  F   UNL     1       5.504  10.893  -8.995  1.00  0.00    -0.203 F 
ATOM     66  C   UNL     1       7.344  12.110  -9.818  1.00  0.00     0.198 A 
ATOM     67  C   UNL     1       9.575  11.501  -9.175  1.00  0.00     0.198 A 
ATOM     68  F   UNL     1       9.928   9.661  -7.755  1.00  0.00    -0.203 F 
ATOM     69  F   UNL     1       6.512  12.895 -10.517  1.00  0.00    -0.200 F 
ATOM     70  C   UNL     1       8.713  12.329  -9.876  1.00  0.00     0.200 A 
ATOM     71  F   UNL     1      10.896  11.719  -9.216  1.00  0.00    -0.200 F 
ATOM     72  F   UNL     1       9.201  13.340 -10.609  1.00  0.00    -0.200 F 
ENDBRANCH  39  62
ENDBRANCH  13  14
ENDBRANCH   6   8
ENDBRANCH   3   4
ENDBRANCH   2   3
ENDBRANCH   1   2
BRANCH   1  73
ATOM     73  C   UNL     1       4.971  -2.985   3.045  1.00  0.00     0.116 C 
BRANCH  73  74
ATOM     74  N   UNL     1       6.413  -3.164   3.009  1.00  0.00    -0.352 N 
ATOM     75  C   UNL     1       7.193  -4.049   3.716  1.00  0.00     0.255 C 
ATOM     76  H   UNL     1       6.899  -2.569   2.394  1.00  0.00     0.163 HD
ATOM     77  O   UNL     1       8.416  -3.929   3.700  1.00  0.00    -0.269 OA
BRANCH  75  78
ATOM     78  C   UNL     1       6.566  -5.135   4.498  1.00  0.00     0.082 A 
ATOM     79  C   UNL     1       5.606  -5.955   3.896  1.00  0.00     0.020 A 
ATOM     80  C   UNL     1       6.958  -5.381   5.819  1.00  0.00     0.139 A 
ATOM     81  C   UNL     1       4.972  -6.931   4.652  1.00  0.00     0.034 A 
ATOM     82  N   UNL     1       6.329  -6.331   6.551  1.00  0.00    -0.226 NA
ATOM     83  C   UNL     1       5.337  -7.083   5.987  1.00  0.00     0.146 A 
BRANCH  80  84
ATOM     84  N   UNL     1       7.935  -4.615   6.430  1.00  0.00    -0.369 N 
ATOM     85  H   UNL     1       8.316  -3.856   5.932  1.00  0.00     0.162 HD
BRANCH  84  86
ATOM     86  C   UNL     1       8.424  -4.880   7.774  1.00  0.00     0.120 C 
BRANCH  86  87
ATOM     87  C   UNL     1       9.940  -5.165   7.725  1.00  0.00     0.036 C 
ATOM     88  C   UNL     1      10.284  -6.537   8.277  1.00  0.00     0.036 C 
ATOM     89  C   UNL     1      10.705  -4.278   8.694  1.00  0.00     0.165 C 
ATOM     90  C   UNL     1      10.331  -6.304   9.774  1.00  0.00     0.160 C 
ATOM     91  O   UNL     1      10.655  -4.921   9.974  1.00  0.00    -0.381 OA
ENDBRANCH  86  87
ENDBRANCH  84  86
ENDBRANCH  80  84
BRANCH  83  92
ATOM     92  C   UNL     1       4.621  -8.112   6.852  1.00  0.00     0.433 C 
ATOM     93  F   UNL     1       5.426  -9.144   7.230  1.00  0.00    -0.165 F 
ATOM     94  F   UNL     1       4.109  -7.586   8.001  1.00  0.00    -0.165 F 
ATOM     95  F   UNL     1       3.558  -8.694   6.218  1.00  0.00    -0.165 F 
ENDBRANCH  83  92
ENDBRANCH  75  78
ENDBRANCH  73  74
ENDBRANCH   1  73
TORSDOF 15
