REMARK SMILES O=C(NCCCCNC(=O)[C@H]1CC=CC[C@@H]1C(=O)N[C@@H]1CCCN(c2ccccc2F)C1=O)c1ccc(-c2c3nc(c(-c4c(F)c(F)c(F)c(F)c4F)c4ccc([nH]4)c(-c4c(F)c(F)c(F)c(F)c4F)c4nc(c(-c5c(F)c(F)c(F)c(F)c5F)c5ccc2[nH]5)C=C4)C=C3)cc1
REMARK SMILES IDX 6 1 5 2 4 3 3 4 1 5 2 6 34 8 35 9 96 10 36 11 95 12 37 13
REMARK SMILES IDX 38 14 39 15 89 16 40 17 94 18 88 19 90 20 41 21 93 22 87 23
REMARK SMILES IDX 86 24 42 26 74 27 54 28 73 29 55 30 58 31 72 32 91 33 56 34
REMARK SMILES IDX 57 35 71 37 92 38 59 39 43 40 44 41 52 42 45 43 46 44 50 45
REMARK SMILES IDX 53 46 47 47 48 48 51 49 49 50 75 51 76 52 84 53 77 54 78 55
REMARK SMILES IDX 82 56 85 57 79 58 80 59 83 60 81 61 60 62 61 63 69 64 62 65
REMARK SMILES IDX 63 66 67 67 70 68 64 69 65 70 68 71 66 72 7 73 8 74 9 75
REMARK SMILES IDX 10 77 11 78 12 79 16 80 13 81 15 82 14 83 17 84 18 85 19 86
REMARK SMILES IDX 20 88 21 89 32 90 22 91 24 92 33 93 23 94 25 95 26 96 30 97
REMARK SMILES IDX 27 98 29 99 31 100 28 101
REMARK H PARENT 3 7 90 25 58 36 8 76 19 87
REMARK Flexibility Score: inf
ROOT
ATOM      1  C   UNL     1       4.663 -14.299   4.887  1.00  0.00     0.023 C 
ENDROOT
BRANCH   1   2
ATOM      2  C   UNL     1       5.534 -15.496   5.278  1.00  0.00     0.023 C 
BRANCH   2   3
ATOM      3  C   UNL     1       7.036 -15.388   5.008  1.00  0.00     0.116 C 
BRANCH   3   4
ATOM      4  N   UNL     1       7.704 -14.293   5.707  1.00  0.00    -0.352 N 
ATOM      5  O   UNL     1       9.043 -13.276   7.222  1.00  0.00    -0.269 OA
ATOM      6  C   UNL     1       8.627 -14.319   6.727  1.00  0.00     0.251 C 
ATOM      7  H   UNL     1       7.454 -13.392   5.399  1.00  0.00     0.163 HD
BRANCH   6   8
ATOM      8  C   UNL     1       9.075 -15.616   7.266  1.00  0.00     0.039 A 
ATOM      9  C   UNL     1       9.518 -16.619   6.405  1.00  0.00     0.014 A 
ATOM     10  C   UNL     1       8.979 -15.851   8.640  1.00  0.00     0.014 A 
ATOM     11  C   UNL     1       9.650 -17.914   6.885  1.00  0.00     0.010 A 
ATOM     12  C   UNL     1       9.216 -17.134   9.137  1.00  0.00     0.010 A 
ATOM     13  C   UNL     1       9.494 -18.189   8.254  1.00  0.00    -0.014 A 
BRANCH  13  14
ATOM     14  C   UNL     1       9.651 -19.584   8.735  1.00  0.00     0.031 A 
ATOM     15  C   UNL     1       8.499 -20.331   9.349  1.00  0.00     0.074 A 
ATOM     16  C   UNL     1      10.837 -20.195   8.558  1.00  0.00     0.049 A 
ATOM     17  N   UNL     1       8.464 -21.558   9.808  1.00  0.00    -0.248 NA
ATOM     18  C   UNL     1       7.221 -19.613   9.470  1.00  0.00     0.031 C 
ATOM     19  C   UNL     1      12.020 -19.568   7.964  1.00  0.00     0.029 A 
ATOM     20  N   UNL     1      11.239 -21.477   8.827  1.00  0.00    -0.354 N 
ATOM     21  C   UNL     1       7.176 -21.749  10.291  1.00  0.00     0.074 A 
ATOM     22  C   UNL     1       6.461 -20.508  10.088  1.00  0.00     0.031 C 
ATOM     23  C   UNL     1      12.992 -20.483   7.853  1.00  0.00     0.029 A 
ATOM     24  C   UNL     1      12.529 -21.737   8.438  1.00  0.00     0.049 A 
ATOM     25  H   UNL     1      10.659 -22.146   9.258  1.00  0.00     0.167 HD
ATOM     26  C   UNL     1       6.643 -22.864  10.846  1.00  0.00     0.037 A 
ATOM     27  C   UNL     1      13.269 -22.855   8.552  1.00  0.00     0.037 A 
ATOM     28  C   UNL     1       7.358 -24.104  11.020  1.00  0.00     0.049 A 
ATOM     29  C   UNL     1      12.663 -24.065   9.198  1.00  0.00     0.074 A 
ATOM     30  C   UNL     1       6.897 -25.297  11.548  1.00  0.00     0.029 A 
ATOM     31  N   UNL     1       8.684 -24.309  10.667  1.00  0.00    -0.354 N 
ATOM     32  N   UNL     1      11.447 -24.230   9.657  1.00  0.00    -0.248 NA
ATOM     33  C   UNL     1      13.534 -25.236   9.356  1.00  0.00     0.031 C 
ATOM     34  C   UNL     1       7.956 -26.210  11.557  1.00  0.00     0.029 A 
ATOM     35  C   UNL     1       9.064 -25.603  10.987  1.00  0.00     0.049 A 
ATOM     36  H   UNL     1       9.269 -23.636  10.250  1.00  0.00     0.167 HD
ATOM     37  C   UNL     1      11.402 -25.523  10.156  1.00  0.00     0.074 A 
ATOM     38  C   UNL     1      12.709 -26.106   9.923  1.00  0.00     0.031 C 
ATOM     39  C   UNL     1      10.371 -26.164  10.757  1.00  0.00     0.037 A 
BRANCH  26  40
ATOM     40  C   UNL     1       5.221 -22.804  11.325  1.00  0.00     0.064 A 
ATOM     41  C   UNL     1       4.933 -22.844  12.698  1.00  0.00     0.173 A 
ATOM     42  C   UNL     1       4.141 -22.784  10.430  1.00  0.00     0.173 A 
ATOM     43  F   UNL     1       5.928 -22.872  13.597  1.00  0.00    -0.203 F 
ATOM     44  C   UNL     1       3.618 -22.878  13.157  1.00  0.00     0.198 A 
ATOM     45  C   UNL     1       2.826 -22.793  10.893  1.00  0.00     0.198 A 
ATOM     46  F   UNL     1       4.360 -22.735   9.108  1.00  0.00    -0.203 F 
ATOM     47  F   UNL     1       3.369 -22.947  14.472  1.00  0.00    -0.200 F 
ATOM     48  C   UNL     1       2.566 -22.849  12.254  1.00  0.00     0.200 A 
ATOM     49  F   UNL     1       1.810 -22.743  10.020  1.00  0.00    -0.200 F 
ATOM     50  F   UNL     1       1.301 -22.873  12.696  1.00  0.00    -0.200 F 
ENDBRANCH  26  40
BRANCH  27  51
ATOM     51  C   UNL     1      14.659 -22.854   8.034  1.00  0.00     0.064 A 
ATOM     52  C   UNL     1      15.659 -22.079   8.640  1.00  0.00     0.173 A 
ATOM     53  C   UNL     1      14.992 -23.561   6.872  1.00  0.00     0.173 A 
ATOM     54  F   UNL     1      15.384 -21.377   9.749  1.00  0.00    -0.203 F 
ATOM     55  C   UNL     1      16.930 -21.982   8.081  1.00  0.00     0.198 A 
ATOM     56  C   UNL     1      16.273 -23.486   6.330  1.00  0.00     0.198 A 
ATOM     57  F   UNL     1      14.072 -24.328   6.268  1.00  0.00    -0.203 F 
ATOM     58  F   UNL     1      17.851 -21.191   8.649  1.00  0.00    -0.200 F 
ATOM     59  C   UNL     1      17.237 -22.686   6.927  1.00  0.00     0.200 A 
ATOM     60  F   UNL     1      16.571 -24.181   5.224  1.00  0.00    -0.200 F 
ATOM     61  F   UNL     1      18.459 -22.591   6.387  1.00  0.00    -0.200 F 
ENDBRANCH  27  51
BRANCH  39  62
ATOM     62  C   UNL     1      10.609 -27.575  11.205  1.00  0.00     0.064 A 
ATOM     63  C   UNL     1      10.007 -28.647  10.529  1.00  0.00     0.173 A 
ATOM     64  C   UNL     1      11.381 -27.860  12.340  1.00  0.00     0.173 A 
ATOM     65  F   UNL     1       9.254 -28.423   9.441  1.00  0.00    -0.203 F 
ATOM     66  C   UNL     1      10.159 -29.953  10.983  1.00  0.00     0.198 A 
ATOM     67  C   UNL     1      11.552 -29.171  12.776  1.00  0.00     0.198 A 
ATOM     68  F   UNL     1      11.988 -26.868  13.009  1.00  0.00    -0.203 F 
ATOM     69  F   UNL     1       9.552 -30.959  10.339  1.00  0.00    -0.200 F 
ATOM     70  C   UNL     1      10.934 -30.214  12.103  1.00  0.00     0.200 A 
ATOM     71  F   UNL     1      12.320 -29.424  13.845  1.00  0.00    -0.200 F 
ATOM     72  F   UNL     1      11.089 -31.474  12.532  1.00  0.00    -0.200 F 
ENDBRANCH  39  62
ENDBRANCH  13  14
ENDBRANCH   6   8
ENDBRANCH   3   4
ENDBRANCH   2   3
ENDBRANCH   1   2
BRANCH   1  73
ATOM     73  C   UNL     1       5.061 -13.586   3.606  1.00  0.00     0.116 C 
BRANCH  73  74
ATOM     74  N   UNL     1       4.828 -14.290   2.369  1.00  0.00    -0.356 N 
ATOM     75  C   UNL     1       5.062 -13.855   1.092  1.00  0.00     0.224 C 
ATOM     76  H   UNL     1       4.453 -15.197   2.454  1.00  0.00     0.163 HD
ATOM     77  O   UNL     1       4.682 -14.600   0.181  1.00  0.00    -0.275 OA
BRANCH  75  78
ATOM     78  C   UNL     1       5.665 -12.459   0.782  1.00  0.00     0.095 C 
ATOM     79  C   UNL     1       6.811 -11.986   1.699  1.00  0.00     0.041 C 
ATOM     80  C   UNL     1       6.233 -12.430  -0.673  1.00  0.00     0.095 C 
ATOM     81  C   UNL     1       8.019 -12.867   1.562  1.00  0.00    -0.030 C 
ATOM     82  C   UNL     1       7.397 -13.448  -0.800  1.00  0.00     0.041 C 
ATOM     83  C   UNL     1       8.268 -13.548   0.432  1.00  0.00    -0.030 C 
BRANCH  80  84
ATOM     84  C   UNL     1       6.737 -11.010  -0.952  1.00  0.00     0.224 C 
ATOM     85  O   UNL     1       7.923 -10.696  -0.828  1.00  0.00    -0.275 OA
ATOM     86  N   UNL     1       5.863  -9.974  -1.133  1.00  0.00    -0.344 N 
ATOM     87  H   UNL     1       5.801  -9.303  -0.415  1.00  0.00     0.164 HD
BRANCH  86  88
ATOM     88  C   UNL     1       5.012  -9.784  -2.307  1.00  0.00     0.172 C 
ATOM     89  C   UNL     1       3.765 -10.645  -2.420  1.00  0.00     0.037 C 
ATOM     90  C   UNL     1       5.955  -9.713  -3.527  1.00  0.00     0.249 C 
ATOM     91  C   UNL     1       3.369 -10.801  -3.879  1.00  0.00     0.025 C 
ATOM     92  N   UNL     1       5.758 -10.656  -4.529  1.00  0.00    -0.308 N 
ATOM     93  O   UNL     1       6.860  -8.874  -3.550  1.00  0.00    -0.272 OA
ATOM     94  C   UNL     1       4.526 -11.427  -4.647  1.00  0.00     0.126 C 
BRANCH  92  95
ATOM     95  C   UNL     1       6.870 -11.049  -5.334  1.00  0.00     0.080 A 
ATOM     96  C   UNL     1       6.751 -11.168  -6.720  1.00  0.00     0.029 A 
ATOM     97  C   UNL     1       8.104 -11.368  -4.743  1.00  0.00     0.146 A 
ATOM     98  C   UNL     1       7.851 -11.568  -7.490  1.00  0.00     0.002 A 
ATOM     99  C   UNL     1       9.192 -11.789  -5.500  1.00  0.00     0.041 A 
ATOM    100  F   UNL     1       8.232 -11.382  -3.411  1.00  0.00    -0.205 F 
ATOM    101  C   UNL     1       9.067 -11.882  -6.881  1.00  0.00     0.003 A 
ENDBRANCH  92  95
ENDBRANCH  86  88
ENDBRANCH  80  84
ENDBRANCH  75  78
ENDBRANCH  73  74
ENDBRANCH   1  73
TORSDOF 14
