REMARK SMILES O=C(NCCCCNC(=O)[C@@]1(Cl)C=CC=C(c2ccccc2)[C@H]1Cl)c1ccc(-c2c3nc(c(-c4c(F)c(F)c(F)c(F)c4F)c4ccc([nH]4)c(-c4c(F)c(F)c(F)c(F)c4F)c4nc(c(-c5c(F)c(F)c(F)c(F)c5F)c5ccc2[nH]5)C=C4)C=C3)cc1
REMARK SMILES IDX 5 1 4 2 3 3 1 4 2 5 25 7 26 8 87 9 27 10 86 11 28 12 29 13
REMARK SMILES IDX 30 14 80 15 31 16 85 17 79 18 81 19 32 20 84 21 78 22 77 23
REMARK SMILES IDX 33 25 65 26 45 27 64 28 46 29 49 30 63 31 82 32 47 33 48 34
REMARK SMILES IDX 62 36 83 37 50 38 34 39 35 40 43 41 36 42 37 43 41 44 44 45
REMARK SMILES IDX 38 46 39 47 42 48 40 49 66 50 67 51 75 52 68 53 69 54 73 55
REMARK SMILES IDX 76 56 70 57 71 58 74 59 72 60 51 61 52 62 60 63 53 64 54 65
REMARK SMILES IDX 58 66 61 67 55 68 56 69 59 70 57 71 6 72 7 73 8 74 9 75
REMARK SMILES IDX 10 77 11 78 12 79 13 80 23 81 14 82 16 83 24 84 15 85 17 86
REMARK SMILES IDX 18 87 22 88 19 89 21 90 20 91
REMARK H PARENT 3 6 81 24 49 35 8 76
REMARK Flexibility Score: inf
ROOT
ATOM      1  C   UNL     1       4.844  -1.250  -2.437  1.00  0.00     0.023 C 
ENDROOT
BRANCH   1   2
ATOM      2  C   UNL     1       4.519  -0.383  -1.224  1.00  0.00     0.116 C 
BRANCH   2   3
ATOM      3  N   UNL     1       3.101  -0.104  -1.062  1.00  0.00    -0.352 N 
ATOM      4  O   UNL     1       1.167   0.214   0.062  1.00  0.00    -0.269 OA
ATOM      5  C   UNL     1       2.380   0.039   0.099  1.00  0.00     0.251 C 
ATOM      6  H   UNL     1       2.588  -0.004  -1.897  1.00  0.00     0.163 HD
BRANCH   5   7
ATOM      7  C   UNL     1       3.072  -0.065   1.400  1.00  0.00     0.039 A 
ATOM      8  C   UNL     1       4.241   0.659   1.646  1.00  0.00     0.014 A 
ATOM      9  C   UNL     1       2.547  -0.917   2.376  1.00  0.00     0.014 A 
ATOM     10  C   UNL     1       4.955   0.431   2.817  1.00  0.00     0.010 A 
ATOM     11  C   UNL     1       3.231  -1.093   3.580  1.00  0.00     0.010 A 
ATOM     12  C   UNL     1       4.456  -0.444   3.796  1.00  0.00    -0.014 A 
BRANCH  12  13
ATOM     13  C   UNL     1       5.211  -0.628   5.059  1.00  0.00     0.031 A 
ATOM     14  C   UNL     1       5.862  -1.941   5.388  1.00  0.00     0.074 A 
ATOM     15  C   UNL     1       5.329   0.419   5.897  1.00  0.00     0.049 A 
ATOM     16  N   UNL     1       6.570  -2.270   6.440  1.00  0.00    -0.248 NA
ATOM     17  C   UNL     1       5.696  -3.030   4.413  1.00  0.00     0.031 C 
ATOM     18  C   UNL     1       4.729   1.737   5.680  1.00  0.00     0.029 A 
ATOM     19  N   UNL     1       6.001   0.549   7.084  1.00  0.00    -0.354 N 
ATOM     20  C   UNL     1       6.922  -3.601   6.262  1.00  0.00     0.074 A 
ATOM     21  C   UNL     1       6.330  -4.030   5.012  1.00  0.00     0.031 C 
ATOM     22  C   UNL     1       5.094   2.554   6.679  1.00  0.00     0.029 A 
ATOM     23  C   UNL     1       5.906   1.804   7.631  1.00  0.00     0.049 A 
ATOM     24  H   UNL     1       6.503  -0.187   7.503  1.00  0.00     0.167 HD
ATOM     25  C   UNL     1       7.679  -4.386   7.066  1.00  0.00     0.037 A 
ATOM     26  C   UNL     1       6.407   2.293   8.779  1.00  0.00     0.037 A 
ATOM     27  C   UNL     1       8.274  -3.948   8.302  1.00  0.00     0.049 A 
ATOM     28  C   UNL     1       7.226   1.393   9.658  1.00  0.00     0.074 A 
ATOM     29  C   UNL     1       9.071  -4.664   9.180  1.00  0.00     0.029 A 
ATOM     30  N   UNL     1       8.137  -2.675   8.837  1.00  0.00    -0.354 N 
ATOM     31  N   UNL     1       7.567   0.142   9.469  1.00  0.00    -0.248 NA
ATOM     32  C   UNL     1       7.727   1.972  10.911  1.00  0.00     0.031 C 
ATOM     33  C   UNL     1       9.386  -3.834  10.262  1.00  0.00     0.029 A 
ATOM     34  C   UNL     1       8.821  -2.589  10.039  1.00  0.00     0.049 A 
ATOM     35  H   UNL     1       7.628  -1.941   8.423  1.00  0.00     0.167 HD
ATOM     36  C   UNL     1       8.330  -0.215  10.570  1.00  0.00     0.074 A 
ATOM     37  C   UNL     1       8.422   0.961  11.412  1.00  0.00     0.031 C 
ATOM     38  C   UNL     1       8.898  -1.410  10.862  1.00  0.00     0.037 A 
BRANCH  25  39
ATOM     39  C   UNL     1       7.901  -5.809   6.641  1.00  0.00     0.064 A 
ATOM     40  C   UNL     1       8.761  -6.133   5.581  1.00  0.00     0.173 A 
ATOM     41  C   UNL     1       7.290  -6.863   7.337  1.00  0.00     0.173 A 
ATOM     42  F   UNL     1       9.360  -5.162   4.877  1.00  0.00    -0.203 F 
ATOM     43  C   UNL     1       8.986  -7.460   5.223  1.00  0.00     0.198 A 
ATOM     44  C   UNL     1       7.537  -8.190   6.991  1.00  0.00     0.198 A 
ATOM     45  F   UNL     1       6.464  -6.608   8.363  1.00  0.00    -0.203 F 
ATOM     46  F   UNL     1       9.785  -7.746   4.185  1.00  0.00    -0.200 F 
ATOM     47  C   UNL     1       8.381  -8.487   5.932  1.00  0.00     0.200 A 
ATOM     48  F   UNL     1       6.959  -9.181   7.684  1.00  0.00    -0.200 F 
ATOM     49  F   UNL     1       8.607  -9.763   5.591  1.00  0.00    -0.200 F 
ENDBRANCH  25  39
BRANCH  26  50
ATOM     50  C   UNL     1       6.143   3.705   9.154  1.00  0.00     0.064 A 
ATOM     51  C   UNL     1       7.168   4.659   9.141  1.00  0.00     0.173 A 
ATOM     52  C   UNL     1       4.855   4.132   9.511  1.00  0.00     0.173 A 
ATOM     53  F   UNL     1       8.419   4.293   8.824  1.00  0.00    -0.203 F 
ATOM     54  C   UNL     1       6.919   5.986   9.484  1.00  0.00     0.198 A 
ATOM     55  C   UNL     1       4.601   5.464   9.826  1.00  0.00     0.198 A 
ATOM     56  F   UNL     1       3.839   3.256   9.532  1.00  0.00    -0.203 F 
ATOM     57  F   UNL     1       7.924   6.871   9.499  1.00  0.00    -0.200 F 
ATOM     58  C   UNL     1       5.634   6.388   9.819  1.00  0.00     0.200 A 
ATOM     59  F   UNL     1       3.356   5.852  10.133  1.00  0.00    -0.200 F 
ATOM     60  F   UNL     1       5.393   7.667  10.139  1.00  0.00    -0.200 F 
ENDBRANCH  26  50
BRANCH  38  61
ATOM     61  C   UNL     1       9.682  -1.493  12.137  1.00  0.00     0.064 A 
ATOM     62  C   UNL     1       9.044  -1.527  13.386  1.00  0.00     0.173 A 
ATOM     63  C   UNL     1      11.082  -1.556  12.108  1.00  0.00     0.173 A 
ATOM     64  F   UNL     1       7.707  -1.450  13.464  1.00  0.00    -0.203 F 
ATOM     65  C   UNL     1       9.784  -1.594  14.563  1.00  0.00     0.198 A 
ATOM     66  C   UNL     1      11.817  -1.650  13.286  1.00  0.00     0.198 A 
ATOM     67  F   UNL     1      11.736  -1.531  10.938  1.00  0.00    -0.203 F 
ATOM     68  F   UNL     1       9.158  -1.577  15.748  1.00  0.00    -0.200 F 
ATOM     69  C   UNL     1      11.169  -1.661  14.512  1.00  0.00     0.200 A 
ATOM     70  F   UNL     1      13.155  -1.722  13.236  1.00  0.00    -0.200 F 
ATOM     71  F   UNL     1      11.879  -1.726  15.646  1.00  0.00    -0.200 F 
ENDBRANCH  38  61
ENDBRANCH  12  13
ENDBRANCH   5   7
ENDBRANCH   2   3
ENDBRANCH   1   2
BRANCH   1  72
ATOM     72  C   UNL     1       4.289  -0.763  -3.780  1.00  0.00     0.023 C 
BRANCH  72  73
ATOM     73  C   UNL     1       4.553   0.706  -4.088  1.00  0.00     0.116 C 
BRANCH  73  74
ATOM     74  N   UNL     1       5.959   0.993  -4.284  1.00  0.00    -0.354 N 
ATOM     75  C   UNL     1       6.750   1.288  -5.345  1.00  0.00     0.247 C 
ATOM     76  H   UNL     1       6.465   0.966  -3.439  1.00  0.00     0.163 HD
ATOM     77  O   UNL     1       7.872   1.697  -4.994  1.00  0.00    -0.273 OA
BRANCH  75  78
ATOM     78  C   UNL     1       6.422   1.153  -6.861  1.00  0.00     0.161 C 
ATOM     79  Cl  UNL     1       4.655   1.145  -7.241  1.00  0.00    -0.102 Cl
ATOM     80  C   UNL     1       6.883   2.473  -7.476  1.00  0.00     0.008 C 
ATOM     81  C   UNL     1       7.058  -0.123  -7.530  1.00  0.00     0.146 C 
ATOM     82  C   UNL     1       7.572   2.552  -8.620  1.00  0.00    -0.002 C 
ATOM     83  C   UNL     1       7.691   0.135  -8.897  1.00  0.00    -0.020 C 
ATOM     84  Cl  UNL     1       8.295  -0.968  -6.513  1.00  0.00    -0.115 Cl
ATOM     85  C   UNL     1       7.900   1.375  -9.375  1.00  0.00     0.006 C 
BRANCH  83  86
ATOM     86  C   UNL     1       8.071  -1.012  -9.744  1.00  0.00    -0.021 A 
ATOM     87  C   UNL     1       9.414  -1.190 -10.112  1.00  0.00     0.008 A 
ATOM     88  C   UNL     1       7.117  -1.929 -10.198  1.00  0.00     0.008 A 
ATOM     89  C   UNL     1       9.796  -2.266 -10.914  1.00  0.00     0.001 A 
ATOM     90  C   UNL     1       7.500  -3.005 -11.003  1.00  0.00     0.001 A 
ATOM     91  C   UNL     1       8.838  -3.174 -11.359  1.00  0.00     0.000 A 
ENDBRANCH  83  86
ENDBRANCH  75  78
ENDBRANCH  73  74
ENDBRANCH  72  73
ENDBRANCH   1  72
TORSDOF 12
