REMARK SMILES COc1ccc(CCc2nnc(NC(=O)[C@@H]3[C@@H](C(=O)NCCCCNC(=O)c4ccc(-c5c6nc(c(-c7c(F)c(F)c(F)c(F)c7F)c7ccc([nH]7)c(-c7c(F)c(F)c(F)c(F)c7F)c7nc(c(-c8c(F)c(F)c(F)c(F)c8F)c8ccc5[nH]8)C=C7)C=C6)cc4)C3(C)C)s2)cc1
REMARK SMILES IDX 18 1 19 2 20 3 17 5 16 6 91 7 92 8 93 9 14 10 13 11 15 13
REMARK SMILES IDX 12 14 9 15 10 16 94 17 11 18 8 19 7 20 6 21 3 22 4 23 96 24
REMARK SMILES IDX 5 25 95 26 2 27 1 28 21 29 22 30 23 31 24 32 25 33 26 34
REMARK SMILES IDX 27 36 28 37 29 38 90 39 30 40 89 41 31 42 32 43 33 44 83 45
REMARK SMILES IDX 34 46 88 47 82 48 84 49 35 50 87 51 81 52 80 53 36 55 68 56
REMARK SMILES IDX 48 57 67 58 49 59 52 60 66 61 85 62 50 63 51 64 65 66 86 67
REMARK SMILES IDX 53 68 37 69 38 70 46 71 39 72 40 73 44 74 47 75 41 76 42 77
REMARK SMILES IDX 45 78 43 79 69 80 70 81 78 82 71 83 72 84 76 85 79 86 73 87
REMARK SMILES IDX 74 88 77 89 75 90 54 91 55 92 63 93 56 94 57 95 61 96 64 97
REMARK SMILES IDX 58 98 59 99 62 100 60 101
REMARK H PARENT 20 4 13 12 25 35 84 54 52 65
REMARK Flexibility Score: inf
ROOT
ATOM      1  C   UNL     1      -2.145  -6.163  -3.550  1.00  0.00     0.224 C 
ATOM      2  O   UNL     1      -0.932  -6.152  -3.767  1.00  0.00    -0.275 OA
ATOM      3  N   UNL     1      -2.634  -5.119  -2.824  1.00  0.00    -0.356 N 
ATOM      4  H   UNL     1      -1.950  -4.445  -2.608  1.00  0.00     0.163 HD
ENDROOT
BRANCH   1   5
ATOM      5  C   UNL     1      -2.923  -7.276  -4.142  1.00  0.00     0.098 C 
ATOM      6  C   UNL     1      -4.395  -7.315  -4.472  1.00  0.00     0.098 C 
ATOM      7  C   UNL     1      -3.806  -8.286  -3.435  1.00  0.00    -0.011 C 
ATOM      8  C   UNL     1      -4.190  -8.089  -1.987  1.00  0.00     0.013 C 
ATOM      9  C   UNL     1      -3.629  -9.742  -3.791  1.00  0.00     0.013 C 
BRANCH   6  10
ATOM     10  C   UNL     1      -4.713  -7.632  -5.895  1.00  0.00     0.230 C 
ATOM     11  N   UNL     1      -4.665  -6.624  -6.829  1.00  0.00    -0.300 N 
ATOM     12  H   UNL     1      -4.661  -6.886  -7.778  1.00  0.00     0.172 HD
ATOM     13  O   UNL     1      -4.967  -8.778  -6.242  1.00  0.00    -0.274 OA
BRANCH  11  14
ATOM     14  C   UNL     1      -4.624  -5.289  -6.546  1.00  0.00     0.212 A 
ATOM     15  C   UNL     1      -4.891  -2.950  -6.782  1.00  0.00     0.119 A 
ATOM     16  N   UNL     1      -4.842  -3.323  -5.519  1.00  0.00    -0.142 NA
ATOM     17  S   UNL     1      -4.573  -4.239  -7.891  1.00  0.00    -0.080 S 
ATOM     18  N   UNL     1      -4.689  -4.683  -5.387  1.00  0.00    -0.120 NA
BRANCH  15  19
ATOM     19  C   UNL     1      -5.190  -1.549  -7.214  1.00  0.00     0.074 C 
BRANCH  19  20
ATOM     20  C   UNL     1      -6.295  -1.389  -8.268  1.00  0.00     0.043 C 
BRANCH  20  21
ATOM     21  C   UNL     1      -7.715  -1.750  -7.875  1.00  0.00    -0.047 A 
ATOM     22  C   UNL     1     -10.407  -2.439  -7.388  1.00  0.00     0.118 A 
ATOM     23  C   UNL     1      -9.407  -3.393  -7.256  1.00  0.00     0.046 A 
ATOM     24  C   UNL     1     -10.072  -1.128  -7.718  1.00  0.00     0.046 A 
ATOM     25  C   UNL     1      -8.078  -3.054  -7.516  1.00  0.00     0.007 A 
ATOM     26  C   UNL     1      -8.734  -0.788  -7.963  1.00  0.00     0.007 A 
BRANCH  22  27
ATOM     27  O   UNL     1     -11.683  -2.853  -7.126  1.00  0.00    -0.497 OA
ATOM     28  C   UNL     1     -12.600  -2.510  -8.162  1.00  0.00     0.278 C 
ENDBRANCH  22  27
ENDBRANCH  20  21
ENDBRANCH  19  20
ENDBRANCH  15  19
ENDBRANCH  11  14
ENDBRANCH   6  10
ENDBRANCH   1   5
BRANCH   3  29
ATOM     29  C   UNL     1      -3.940  -4.788  -2.301  1.00  0.00     0.116 C 
BRANCH  29  30
ATOM     30  C   UNL     1      -3.924  -4.740  -0.775  1.00  0.00     0.023 C 
BRANCH  30  31
ATOM     31  C   UNL     1      -3.222  -3.518  -0.193  1.00  0.00     0.023 C 
BRANCH  31  32
ATOM     32  C   UNL     1      -3.793  -2.183  -0.647  1.00  0.00     0.116 C 
BRANCH  32  33
ATOM     33  N   UNL     1      -5.220  -2.053  -0.383  1.00  0.00    -0.352 N 
ATOM     34  C   UNL     1      -5.895  -1.022   0.222  1.00  0.00     0.251 C 
ATOM     35  H   UNL     1      -5.777  -2.809  -0.680  1.00  0.00     0.163 HD
ATOM     36  O   UNL     1      -7.083  -1.127   0.504  1.00  0.00    -0.269 OA
BRANCH  34  37
ATOM     37  C   UNL     1      -5.157   0.210   0.560  1.00  0.00     0.039 A 
ATOM     38  C   UNL     1      -5.298   0.759   1.835  1.00  0.00     0.014 A 
ATOM     39  C   UNL     1      -4.290   0.788  -0.370  1.00  0.00     0.014 A 
ATOM     40  C   UNL     1      -4.511   1.852   2.201  1.00  0.00     0.010 A 
ATOM     41  C   UNL     1      -3.437   1.808   0.029  1.00  0.00     0.010 A 
ATOM     42  C   UNL     1      -3.547   2.359   1.315  1.00  0.00    -0.014 A 
BRANCH  42  43
ATOM     43  C   UNL     1      -2.663   3.489   1.695  1.00  0.00     0.031 A 
ATOM     44  C   UNL     1      -2.726   4.775   0.916  1.00  0.00     0.074 A 
ATOM     45  C   UNL     1      -1.773   3.342   2.696  1.00  0.00     0.049 A 
ATOM     46  N   UNL     1      -1.984   5.847   1.024  1.00  0.00    -0.248 NA
ATOM     47  C   UNL     1      -3.740   4.856  -0.149  1.00  0.00     0.031 C 
ATOM     48  C   UNL     1      -1.589   2.130   3.498  1.00  0.00     0.029 A 
ATOM     49  N   UNL     1      -0.848   4.218   3.206  1.00  0.00    -0.354 N 
ATOM     50  C   UNL     1      -2.438   6.720   0.045  1.00  0.00     0.074 A 
ATOM     51  C   UNL     1      -3.467   6.029  -0.699  1.00  0.00     0.031 C 
ATOM     52  C   UNL     1      -0.632   2.350   4.415  1.00  0.00     0.029 A 
ATOM     53  C   UNL     1      -0.104   3.699   4.238  1.00  0.00     0.049 A 
ATOM     54  H   UNL     1      -0.728   5.134   2.864  1.00  0.00     0.167 HD
ATOM     55  C   UNL     1      -2.059   7.998  -0.190  1.00  0.00     0.037 A 
ATOM     56  C   UNL     1       0.898   4.249   4.951  1.00  0.00     0.037 A 
ATOM     57  C   UNL     1      -1.051   8.691   0.566  1.00  0.00     0.049 A 
ATOM     58  C   UNL     1       1.323   5.662   4.640  1.00  0.00     0.074 A 
ATOM     59  C   UNL     1      -0.609   9.994   0.422  1.00  0.00     0.029 A 
ATOM     60  N   UNL     1      -0.333   8.136   1.614  1.00  0.00    -0.354 N 
ATOM     61  N   UNL     1       0.846   6.496   3.747  1.00  0.00    -0.248 NA
ATOM     62  C   UNL     1       2.422   6.213   5.445  1.00  0.00     0.031 C 
ATOM     63  C   UNL     1       0.407  10.215   1.356  1.00  0.00     0.029 A 
ATOM     64  C   UNL     1       0.557   9.069   2.120  1.00  0.00     0.049 A 
ATOM     65  H   UNL     1      -0.439   7.216   1.949  1.00  0.00     0.167 HD
ATOM     66  C   UNL     1       1.553   7.679   3.915  1.00  0.00     0.074 A 
ATOM     67  C   UNL     1       2.480   7.461   5.004  1.00  0.00     0.031 C 
ATOM     68  C   UNL     1       1.447   8.843   3.228  1.00  0.00     0.037 A 
BRANCH  55  69
ATOM     69  C   UNL     1      -2.755   8.740  -1.294  1.00  0.00     0.064 A 
ATOM     70  C   UNL     1      -4.100   9.126  -1.179  1.00  0.00     0.173 A 
ATOM     71  C   UNL     1      -2.060   9.121  -2.451  1.00  0.00     0.173 A 
ATOM     72  F   UNL     1      -4.814   8.773  -0.100  1.00  0.00    -0.203 F 
ATOM     73  C   UNL     1      -4.728   9.848  -2.190  1.00  0.00     0.198 A 
ATOM     74  C   UNL     1      -2.682   9.872  -3.445  1.00  0.00     0.198 A 
ATOM     75  F   UNL     1      -0.772   8.780  -2.610  1.00  0.00    -0.203 F 
ATOM     76  F   UNL     1      -6.024  10.167  -2.077  1.00  0.00    -0.200 F 
ATOM     77  C   UNL     1      -4.015  10.230  -3.317  1.00  0.00     0.200 A 
ATOM     78  F   UNL     1      -1.989  10.252  -4.527  1.00  0.00    -0.200 F 
ATOM     79  F   UNL     1      -4.616  10.940  -4.282  1.00  0.00    -0.200 F 
ENDBRANCH  55  69
BRANCH  56  80
ATOM     80  C   UNL     1       1.570   3.483   6.037  1.00  0.00     0.064 A 
ATOM     81  C   UNL     1       1.480   3.898   7.374  1.00  0.00     0.173 A 
ATOM     82  C   UNL     1       2.365   2.362   5.758  1.00  0.00     0.173 A 
ATOM     83  F   UNL     1       0.747   4.976   7.692  1.00  0.00    -0.203 F 
ATOM     84  C   UNL     1       2.196   3.253   8.380  1.00  0.00     0.198 A 
ATOM     85  C   UNL     1       3.051   1.694   6.771  1.00  0.00     0.198 A 
ATOM     86  F   UNL     1       2.482   1.916   4.498  1.00  0.00    -0.203 F 
ATOM     87  F   UNL     1       2.153   3.721   9.635  1.00  0.00    -0.200 F 
ATOM     88  C   UNL     1       2.980   2.150   8.078  1.00  0.00     0.200 A 
ATOM     89  F   UNL     1       3.795   0.619   6.477  1.00  0.00    -0.200 F 
ATOM     90  F   UNL     1       3.679   1.538   9.043  1.00  0.00    -0.200 F 
ENDBRANCH  56  80
BRANCH  68  91
ATOM     91  C   UNL     1       2.302   9.993   3.679  1.00  0.00     0.064 A 
ATOM     92  C   UNL     1       3.692  10.001   3.497  1.00  0.00     0.173 A 
ATOM     93  C   UNL     1       1.710  11.122   4.268  1.00  0.00     0.173 A 
ATOM     94  F   UNL     1       4.308   8.941   2.951  1.00  0.00    -0.203 F 
ATOM     95  C   UNL     1       4.462  11.082   3.918  1.00  0.00     0.198 A 
ATOM     96  C   UNL     1       2.478  12.216   4.653  1.00  0.00     0.198 A 
ATOM     97  F   UNL     1       0.382  11.170   4.455  1.00  0.00    -0.203 F 
ATOM     98  F   UNL     1       5.795  11.043   3.785  1.00  0.00    -0.200 F 
ATOM     99  C   UNL     1       3.854  12.191   4.487  1.00  0.00     0.200 A 
ATOM    100  F   UNL     1       1.887  13.294   5.185  1.00  0.00    -0.200 F 
ATOM    101  F   UNL     1       4.596  13.235   4.882  1.00  0.00    -0.200 F 
ENDBRANCH  68  91
ENDBRANCH  42  43
ENDBRANCH  34  37
ENDBRANCH  32  33
ENDBRANCH  31  32
ENDBRANCH  30  31
ENDBRANCH  29  30
ENDBRANCH   3  29
TORSDOF 17
