REMARK SMILES CCCc1cc2c(cc1Cl)C=C(C(=O)NCCCCNC(=O)c1ccc(-c3c4nc(c(-c5c(F)c(F)c(F)c(F)c5F)c5ccc([nH]5)c(-c5c(F)c(F)c(F)c(F)c5F)c5nc(c(-c6c(F)c(F)c(F)c(F)c6F)c6ccc3[nH]6)C=C5)C=C4)cc1)[C@H](C(F)(F)F)O2
REMARK SMILES IDX 17 1 16 2 15 3 13 4 14 5 12 7 4 8 5 9 9 10 6 11 8 12 10 13
REMARK SMILES IDX 7 14 91 15 11 16 86 17 3 18 2 19 1 20 87 21 88 22 89 23
REMARK SMILES IDX 90 24 18 25 19 26 20 27 21 28 22 30 23 31 24 32 85 33 25 34
REMARK SMILES IDX 84 35 26 36 27 37 28 38 78 39 29 40 83 41 77 42 79 43 30 44
REMARK SMILES IDX 82 45 76 46 75 47 31 49 63 50 43 51 62 52 44 53 47 54 61 55
REMARK SMILES IDX 80 56 45 57 46 58 60 60 81 61 48 62 32 63 33 64 41 65 34 66
REMARK SMILES IDX 35 67 39 68 42 69 36 70 37 71 40 72 38 73 64 74 65 75 73 76
REMARK SMILES IDX 66 77 67 78 71 79 74 80 68 81 69 82 72 83 70 84 49 85 50 86
REMARK SMILES IDX 58 87 51 88 52 89 56 90 59 91 53 92 54 93 57 94 55 95
REMARK H PARENT 15 6 20 29 79 48 47 59
REMARK Flexibility Score: inf
ROOT
ATOM      1  C   UNL     1      -0.139  -7.912   7.343  1.00  0.00     0.023 C 
ENDROOT
BRANCH   1   2
ATOM      2  C   UNL     1      -1.429  -7.218   6.912  1.00  0.00     0.116 C 
BRANCH   2   3
ATOM      3  N   UNL     1      -1.478  -5.853   7.396  1.00  0.00    -0.352 N 
ATOM      4  C   UNL     1      -1.279  -4.629   6.854  1.00  0.00     0.251 C 
ATOM      5  O   UNL     1      -1.499  -3.672   7.603  1.00  0.00    -0.270 OA
ATOM      6  H   UNL     1      -1.711  -5.804   8.351  1.00  0.00     0.163 HD
BRANCH   4   7
ATOM      7  C   UNL     1      -0.834  -4.382   5.452  1.00  0.00     0.067 C 
ATOM      8  C   UNL     1       0.133  -2.099   1.015  1.00  0.00    -0.026 A 
ATOM      9  C   UNL     1       0.329  -3.397   1.550  1.00  0.00     0.052 A 
ATOM     10  C   UNL     1      -0.519  -1.165   1.837  1.00  0.00     0.045 A 
ATOM     11  C   UNL     1      -0.082  -3.739   2.839  1.00  0.00     0.128 A 
ATOM     12  C   UNL     1      -0.919  -1.514   3.140  1.00  0.00     0.032 A 
ATOM     13  Cl  UNL     1      -0.938   0.440   1.364  1.00  0.00    -0.084 Cl
ATOM     14  C   UNL     1      -0.709  -2.798   3.641  1.00  0.00     0.019 A 
ATOM     15  O   UNL     1       0.114  -5.033   3.224  1.00  0.00    -0.475 OA
ATOM     16  C   UNL     1      -1.172  -3.175   4.966  1.00  0.00     0.025 C 
ATOM     17  C   UNL     1       0.031  -5.320   4.650  1.00  0.00     0.314 C 
BRANCH   8  18
ATOM     18  C   UNL     1       0.608  -1.944  -0.419  1.00  0.00     0.037 C 
BRANCH  18  19
ATOM     19  C   UNL     1       0.665  -0.602  -1.151  1.00  0.00     0.001 C 
ATOM     20  C   UNL     1       1.782   0.310  -0.667  1.00  0.00     0.004 C 
ENDBRANCH  18  19
ENDBRANCH   8  18
BRANCH  17  21
ATOM     21  C   UNL     1       1.451  -5.499   5.213  1.00  0.00     0.429 C 
ATOM     22  F   UNL     1       2.362  -4.716   4.595  1.00  0.00    -0.167 F 
ATOM     23  F   UNL     1       1.530  -5.231   6.535  1.00  0.00    -0.167 F 
ATOM     24  F   UNL     1       1.853  -6.787   5.051  1.00  0.00    -0.167 F 
ENDBRANCH  17  21
ENDBRANCH   4   7
ENDBRANCH   2   3
ENDBRANCH   1   2
BRANCH   1  25
ATOM     25  C   UNL     1      -0.130  -8.386   8.798  1.00  0.00     0.023 C 
BRANCH  25  26
ATOM     26  C   UNL     1      -1.194  -9.418   9.142  1.00  0.00     0.116 C 
BRANCH  26  27
ATOM     27  N   UNL     1      -1.165 -10.603   8.294  1.00  0.00    -0.352 N 
ATOM     28  C   UNL     1      -1.540 -11.885   8.624  1.00  0.00     0.251 C 
ATOM     29  H   UNL     1      -0.837 -10.470   7.376  1.00  0.00     0.163 HD
ATOM     30  O   UNL     1      -1.401 -12.810   7.833  1.00  0.00    -0.269 OA
BRANCH  28  31
ATOM     31  C   UNL     1      -2.063 -12.129   9.981  1.00  0.00     0.039 A 
ATOM     32  C   UNL     1      -3.096 -11.333  10.479  1.00  0.00     0.014 A 
ATOM     33  C   UNL     1      -1.427 -13.069  10.794  1.00  0.00     0.014 A 
ATOM     34  C   UNL     1      -3.367 -11.349  11.839  1.00  0.00     0.010 A 
ATOM     35  C   UNL     1      -1.764 -13.143  12.146  1.00  0.00     0.010 A 
ATOM     36  C   UNL     1      -2.694 -12.244  12.689  1.00  0.00    -0.014 A 
BRANCH  36  37
ATOM     37  C   UNL     1      -2.969 -12.199  14.147  1.00  0.00     0.031 A 
ATOM     38  C   UNL     1      -1.901 -11.774  15.117  1.00  0.00     0.074 A 
ATOM     39  C   UNL     1      -4.214 -12.466  14.582  1.00  0.00     0.049 A 
ATOM     40  N   UNL     1      -1.968 -11.668  16.421  1.00  0.00    -0.248 NA
ATOM     41  C   UNL     1      -0.586 -11.424  14.558  1.00  0.00     0.031 C 
ATOM     42  C   UNL     1      -5.335 -12.862  13.727  1.00  0.00     0.029 A 
ATOM     43  N   UNL     1      -4.757 -12.411  15.839  1.00  0.00    -0.354 N 
ATOM     44  C   UNL     1      -0.705 -11.268  16.837  1.00  0.00     0.074 A 
ATOM     45  C   UNL     1       0.117 -11.163  15.652  1.00  0.00     0.031 C 
ATOM     46  C   UNL     1      -6.446 -12.944  14.471  1.00  0.00     0.029 A 
ATOM     47  C   UNL     1      -6.103 -12.678  15.864  1.00  0.00     0.049 A 
ATOM     48  H   UNL     1      -4.233 -12.200  16.645  1.00  0.00     0.167 HD
ATOM     49  C   UNL     1      -0.277 -11.006  18.095  1.00  0.00     0.037 A 
ATOM     50  C   UNL     1      -6.965 -12.715  16.896  1.00  0.00     0.037 A 
ATOM     51  C   UNL     1      -1.110 -11.077  19.267  1.00  0.00     0.049 A 
ATOM     52  C   UNL     1      -6.456 -12.448  18.282  1.00  0.00     0.074 A 
ATOM     53  C   UNL     1      -0.770 -10.820  20.584  1.00  0.00     0.029 A 
ATOM     54  N   UNL     1      -2.454 -11.420  19.261  1.00  0.00    -0.354 N 
ATOM     55  N   UNL     1      -5.251 -12.104  18.665  1.00  0.00    -0.248 NA
ATOM     56  C   UNL     1      -7.419 -12.597  19.380  1.00  0.00     0.031 C 
ATOM     57  C   UNL     1      -1.900 -11.037  21.378  1.00  0.00     0.029 A 
ATOM     58  C   UNL     1      -2.954 -11.396  20.552  1.00  0.00     0.049 A 
ATOM     59  H   UNL     1      -2.975 -11.648  18.457  1.00  0.00     0.167 HD
ATOM     60  C   UNL     1      -5.308 -11.997  20.046  1.00  0.00     0.074 A 
ATOM     61  C   UNL     1      -6.674 -12.287  20.432  1.00  0.00     0.031 C 
ATOM     62  C   UNL     1      -4.314 -11.697  20.916  1.00  0.00     0.037 A 
BRANCH  49  63
ATOM     63  C   UNL     1       1.162 -10.625  18.281  1.00  0.00     0.064 A 
ATOM     64  C   UNL     1       1.635  -9.351  17.938  1.00  0.00     0.173 A 
ATOM     65  C   UNL     1       2.061 -11.522  18.878  1.00  0.00     0.173 A 
ATOM     66  F   UNL     1       0.818  -8.462  17.353  1.00  0.00    -0.203 F 
ATOM     67  C   UNL     1       2.960  -8.992  18.175  1.00  0.00     0.198 A 
ATOM     68  C   UNL     1       3.379 -11.152  19.134  1.00  0.00     0.198 A 
ATOM     69  F   UNL     1       1.656 -12.752  19.230  1.00  0.00    -0.203 F 
ATOM     70  F   UNL     1       3.399  -7.778  17.815  1.00  0.00    -0.200 F 
ATOM     71  C   UNL     1       3.828  -9.889  18.781  1.00  0.00     0.200 A 
ATOM     72  F   UNL     1       4.213 -12.017  19.729  1.00  0.00    -0.200 F 
ATOM     73  F   UNL     1       5.098  -9.537  19.022  1.00  0.00    -0.200 F 
ENDBRANCH  49  63
BRANCH  50  74
ATOM     74  C   UNL     1      -8.395 -13.019  16.642  1.00  0.00     0.064 A 
ATOM     75  C   UNL     1      -9.371 -12.023  16.762  1.00  0.00     0.173 A 
ATOM     76  C   UNL     1      -8.805 -14.294  16.226  1.00  0.00     0.173 A 
ATOM     77  F   UNL     1      -9.027 -10.794  17.174  1.00  0.00    -0.203 F 
ATOM     78  C   UNL     1     -10.708 -12.290  16.474  1.00  0.00     0.198 A 
ATOM     79  C   UNL     1     -10.137 -14.553  15.913  1.00  0.00     0.198 A 
ATOM     80  F   UNL     1      -7.905 -15.279  16.092  1.00  0.00    -0.203 F 
ATOM     81  F   UNL     1     -11.627 -11.326  16.615  1.00  0.00    -0.200 F 
ATOM     82  C   UNL     1     -11.088 -13.552  16.040  1.00  0.00     0.200 A 
ATOM     83  F   UNL     1     -10.496 -15.768  15.477  1.00  0.00    -0.200 F 
ATOM     84  F   UNL     1     -12.370 -13.803  15.743  1.00  0.00    -0.200 F 
ENDBRANCH  50  74
BRANCH  62  85
ATOM     85  C   UNL     1      -4.665 -11.670  22.371  1.00  0.00     0.064 A 
ATOM     86  C   UNL     1      -4.842 -12.857  23.096  1.00  0.00     0.173 A 
ATOM     87  C   UNL     1      -4.771 -10.453  23.058  1.00  0.00     0.173 A 
ATOM     88  F   UNL     1      -4.763 -14.044  22.476  1.00  0.00    -0.203 F 
ATOM     89  C   UNL     1      -5.126 -12.825  24.458  1.00  0.00     0.198 A 
ATOM     90  C   UNL     1      -5.034 -10.425  24.425  1.00  0.00     0.198 A 
ATOM     91  F   UNL     1      -4.605  -9.292  22.407  1.00  0.00    -0.203 F 
ATOM     92  F   UNL     1      -5.322 -13.970  25.126  1.00  0.00    -0.200 F 
ATOM     93  C   UNL     1      -5.215 -11.611  25.122  1.00  0.00     0.200 A 
ATOM     94  F   UNL     1      -5.111  -9.252  25.067  1.00  0.00    -0.200 F 
ATOM     95  F   UNL     1      -5.479 -11.583  26.435  1.00  0.00    -0.200 F 
ENDBRANCH  62  85
ENDBRANCH  36  37
ENDBRANCH  28  31
ENDBRANCH  26  27
ENDBRANCH  25  26
ENDBRANCH   1  25
TORSDOF 14
