REMARK SMILES COc1cccc(C(=O)N[C@H]2C=C[C@@H](C(=O)NCCCCNC(=O)c3ccc(-c4c5nc(c(-c6c(F)c(F)c(F)c(F)c6F)c6ccc([nH]6)c(-c6c(F)c(F)c(F)c(F)c6F)c6nc(c(-c7c(F)c(F)c(F)c(F)c7F)c7ccc4[nH]7)C=C6)C=C5)cc3)C2)c1
REMARK SMILES IDX 19 1 18 2 17 3 15 4 16 5 14 7 11 8 12 9 88 10 13 11 10 12
REMARK SMILES IDX 8 13 9 14 7 16 3 17 4 18 89 19 5 20 6 21 2 22 1 23 20 24
REMARK SMILES IDX 21 25 22 26 23 27 24 29 25 30 26 31 87 32 27 33 86 34 28 35
REMARK SMILES IDX 29 36 30 37 80 38 31 39 85 40 79 41 81 42 32 43 84 44 78 45
REMARK SMILES IDX 77 46 33 48 65 49 45 50 64 51 46 52 49 53 63 54 82 55 47 56
REMARK SMILES IDX 48 57 62 59 83 60 50 61 34 62 35 63 43 64 36 65 37 66 41 67
REMARK SMILES IDX 44 68 38 69 39 70 42 71 40 72 66 73 67 74 75 75 68 76 69 77
REMARK SMILES IDX 73 78 76 79 70 80 71 81 74 82 72 83 51 84 52 85 60 86 53 87
REMARK SMILES IDX 54 88 58 89 61 90 55 91 56 92 59 93 57 94
REMARK H PARENT 17 6 10 15 22 28 81 47 49 58
REMARK Flexibility Score: inf
ROOT
ATOM      1  C   UNL     1       6.923  -1.326   4.220  1.00  0.00     0.023 C 
ENDROOT
BRANCH   1   2
ATOM      2  C   UNL     1       5.596  -0.608   4.029  1.00  0.00     0.116 C 
BRANCH   2   3
ATOM      3  N   UNL     1       5.812   0.792   3.713  1.00  0.00    -0.356 N 
ATOM      4  C   UNL     1       5.578   1.489   2.564  1.00  0.00     0.227 C 
ATOM      5  O   UNL     1       5.918   2.675   2.537  1.00  0.00    -0.274 OA
ATOM      6  H   UNL     1       6.190   1.327   4.448  1.00  0.00     0.163 HD
BRANCH   4   7
ATOM      7  C   UNL     1       4.823   0.874   1.388  1.00  0.00     0.103 C 
ATOM      8  C   UNL     1       4.194  -1.409   0.720  1.00  0.00     0.106 C 
ATOM      9  C   UNL     1       3.204  -0.785   1.653  1.00  0.00    -0.006 C 
ATOM     10  C   UNL     1       5.386  -0.431   0.798  1.00  0.00     0.047 C 
ATOM     11  C   UNL     1       3.476   0.494   1.909  1.00  0.00    -0.016 C 
BRANCH   8  12
ATOM     12  N   UNL     1       4.530  -2.779   1.069  1.00  0.00    -0.346 N 
ATOM     13  C   UNL     1       3.737  -3.907   1.156  1.00  0.00     0.251 C 
ATOM     14  O   UNL     1       4.264  -5.007   1.299  1.00  0.00    -0.269 OA
ATOM     15  H   UNL     1       5.481  -2.928   1.279  1.00  0.00     0.164 HD
BRANCH  13  16
ATOM     16  C   UNL     1       2.260  -3.786   1.231  1.00  0.00     0.043 A 
ATOM     17  C   UNL     1       0.269  -2.525   0.733  1.00  0.00     0.119 A 
ATOM     18  C   UNL     1      -0.345  -3.068   1.865  1.00  0.00     0.046 A 
ATOM     19  C   UNL     1       1.535  -2.970   0.355  1.00  0.00     0.060 A 
ATOM     20  C   UNL     1       0.318  -4.017   2.647  1.00  0.00     0.005 A 
ATOM     21  C   UNL     1       1.632  -4.362   2.343  1.00  0.00     0.014 A 
BRANCH  17  22
ATOM     22  O   UNL     1      -0.425  -1.522   0.112  1.00  0.00    -0.497 OA
ATOM     23  C   UNL     1       0.343  -0.535  -0.576  1.00  0.00     0.278 C 
ENDBRANCH  17  22
ENDBRANCH  13  16
ENDBRANCH   8  12
ENDBRANCH   4   7
ENDBRANCH   2   3
ENDBRANCH   1   2
BRANCH   1  24
ATOM     24  C   UNL     1       7.617  -0.949   5.522  1.00  0.00     0.023 C 
BRANCH  24  25
ATOM     25  C   UNL     1       6.784  -1.223   6.765  1.00  0.00     0.116 C 
BRANCH  25  26
ATOM     26  N   UNL     1       6.402  -2.621   6.891  1.00  0.00    -0.352 N 
ATOM     27  C   UNL     1       6.464  -3.423   8.005  1.00  0.00     0.251 C 
ATOM     28  H   UNL     1       6.055  -3.047   6.074  1.00  0.00     0.163 HD
ATOM     29  O   UNL     1       6.264  -4.625   7.925  1.00  0.00    -0.269 OA
BRANCH  27  30
ATOM     30  C   UNL     1       6.805  -2.806   9.302  1.00  0.00     0.039 A 
ATOM     31  C   UNL     1       7.766  -3.417  10.107  1.00  0.00     0.014 A 
ATOM     32  C   UNL     1       6.202  -1.608   9.696  1.00  0.00     0.014 A 
ATOM     33  C   UNL     1       8.148  -2.802  11.298  1.00  0.00     0.010 A 
ATOM     34  C   UNL     1       6.661  -0.947  10.827  1.00  0.00     0.010 A 
ATOM     35  C   UNL     1       7.617  -1.551  11.655  1.00  0.00    -0.014 A 
BRANCH  35  36
ATOM     36  C   UNL     1       8.016  -0.890  12.921  1.00  0.00     0.031 A 
ATOM     37  C   UNL     1       6.990  -0.641  13.992  1.00  0.00     0.074 A 
ATOM     38  C   UNL     1       9.292  -0.495  13.095  1.00  0.00     0.049 A 
ATOM     39  N   UNL     1       7.139  -0.089  15.171  1.00  0.00    -0.248 NA
ATOM     40  C   UNL     1       5.604  -1.034  13.690  1.00  0.00     0.031 C 
ATOM     41  C   UNL     1      10.362  -0.626  12.105  1.00  0.00     0.029 A 
ATOM     42  N   UNL     1       9.906   0.092  14.172  1.00  0.00    -0.354 N 
ATOM     43  C   UNL     1       5.872  -0.065  15.738  1.00  0.00     0.074 A 
ATOM     44  C   UNL     1       4.953  -0.582  14.750  1.00  0.00     0.031 C 
ATOM     45  C   UNL     1      11.509  -0.173  12.635  1.00  0.00     0.029 A 
ATOM     46  C   UNL     1      11.249   0.311  13.987  1.00  0.00     0.049 A 
ATOM     47  H   UNL     1       9.429   0.334  14.999  1.00  0.00     0.167 HD
ATOM     48  C   UNL     1       5.511   0.321  16.985  1.00  0.00     0.037 A 
ATOM     49  C   UNL     1      12.165   0.838  14.821  1.00  0.00     0.037 A 
ATOM     50  C   UNL     1       6.434   0.813  17.972  1.00  0.00     0.049 A 
ATOM     51  C   UNL     1      11.739   1.254  16.204  1.00  0.00     0.074 A 
ATOM     52  C   UNL     1       6.183   1.183  19.281  1.00  0.00     0.029 A 
ATOM     53  N   UNL     1       7.790   1.009  17.754  1.00  0.00    -0.354 N 
ATOM     54  N   UNL     1      10.552   1.198  16.759  1.00  0.00    -0.248 NA
ATOM     55  C   UNL     1      12.786   1.791  17.081  1.00  0.00     0.031 C 
ATOM     56  C   UNL     1       7.376   1.653  19.838  1.00  0.00     0.029 A 
ATOM     57  C   UNL     1       8.385   1.514  18.899  1.00  0.00     0.049 A 
ATOM     58  H   UNL     1       8.260   0.817  16.910  1.00  0.00     0.167 HD
ATOM     59  C   UNL     1      10.716   1.659  18.059  1.00  0.00     0.074 A 
ATOM     60  C   UNL     1      12.122   1.970  18.213  1.00  0.00     0.031 C 
ATOM     61  C   UNL     1       9.789   1.812  19.037  1.00  0.00     0.037 A 
BRANCH  48  62
ATOM     62  C   UNL     1       4.056   0.218  17.348  1.00  0.00     0.064 A 
ATOM     63  C   UNL     1       3.412  -1.024  17.476  1.00  0.00     0.173 A 
ATOM     64  C   UNL     1       3.299   1.374  17.592  1.00  0.00     0.173 A 
ATOM     65  F   UNL     1       4.084  -2.161  17.239  1.00  0.00    -0.203 F 
ATOM     66  C   UNL     1       2.060  -1.102  17.801  1.00  0.00     0.198 A 
ATOM     67  C   UNL     1       1.957   1.290  17.952  1.00  0.00     0.198 A 
ATOM     68  F   UNL     1       3.863   2.587  17.486  1.00  0.00    -0.203 F 
ATOM     69  F   UNL     1       1.455  -2.296  17.857  1.00  0.00    -0.200 F 
ATOM     70  C   UNL     1       1.336   0.054  18.047  1.00  0.00     0.200 A 
ATOM     71  F   UNL     1       1.262   2.408  18.203  1.00  0.00    -0.200 F 
ATOM     72  F   UNL     1       0.037  -0.023  18.366  1.00  0.00    -0.200 F 
ENDBRANCH  48  62
BRANCH  49  73
ATOM     73  C   UNL     1      13.583   0.964  14.388  1.00  0.00     0.064 A 
ATOM     74  C   UNL     1      14.591   0.191  14.982  1.00  0.00     0.173 A 
ATOM     75  C   UNL     1      13.961   1.867  13.385  1.00  0.00     0.173 A 
ATOM     76  F   UNL     1      14.283  -0.676  15.958  1.00  0.00    -0.203 F 
ATOM     77  C   UNL     1      15.926   0.339  14.612  1.00  0.00     0.198 A 
ATOM     78  C   UNL     1      15.293   1.991  12.992  1.00  0.00     0.198 A 
ATOM     79  F   UNL     1      13.036   2.625  12.779  1.00  0.00    -0.203 F 
ATOM     80  F   UNL     1      16.875  -0.372  15.236  1.00  0.00    -0.200 F 
ATOM     81  C   UNL     1      16.275   1.235  13.614  1.00  0.00     0.200 A 
ATOM     82  F   UNL     1      15.623   2.846  12.015  1.00  0.00    -0.200 F 
ATOM     83  F   UNL     1      17.559   1.377  13.257  1.00  0.00    -0.200 F 
ENDBRANCH  49  73
BRANCH  61  84
ATOM     84  C   UNL     1      10.276   2.292  20.375  1.00  0.00     0.064 A 
ATOM     85  C   UNL     1      10.755   3.597  20.565  1.00  0.00     0.173 A 
ATOM     86  C   UNL     1      10.250   1.435  21.486  1.00  0.00     0.173 A 
ATOM     87  F   UNL     1      10.812   4.454  19.534  1.00  0.00    -0.203 F 
ATOM     88  C   UNL     1      11.232   4.011  21.806  1.00  0.00     0.198 A 
ATOM     89  C   UNL     1      10.690   1.865  22.734  1.00  0.00     0.198 A 
ATOM     90  F   UNL     1       9.790   0.181  21.363  1.00  0.00    -0.203 F 
ATOM     91  F   UNL     1      11.749   5.239  21.947  1.00  0.00    -0.200 F 
ATOM     92  C   UNL     1      11.193   3.147  22.891  1.00  0.00     0.200 A 
ATOM     93  F   UNL     1      10.634   1.034  23.785  1.00  0.00    -0.200 F 
ATOM     94  F   UNL     1      11.652   3.547  24.084  1.00  0.00    -0.200 F 
ENDBRANCH  61  84
ENDBRANCH  35  36
ENDBRANCH  27  30
ENDBRANCH  25  26
ENDBRANCH  24  25
ENDBRANCH   1  24
TORSDOF 14
