REMARK SMILES COc1ccccc1C[N@@H+](C)[C@@H](C)c1ccc(C(=O)NCCCCNC(=O)c2ccc(-c3c4nc(c(-c5c(F)c(F)c(F)c(F)c5F)c5ccc([nH]5)c(-c5c(F)c(F)c(F)c(F)c5F)c5nc(c(-c6c(F)c(F)c(F)c(F)c6F)c6ccc3[nH]6)C=C5)C=C4)cc2)o1
REMARK SMILES IDX 21 1 20 2 18 3 19 4 17 6 14 7 15 8 91 9 16 10 12 11 13 12
REMARK SMILES IDX 10 13 11 14 9 16 8 17 3 18 4 19 5 20 7 21 6 22 2 23 1 24
REMARK SMILES IDX 22 25 23 26 24 27 25 28 26 29 27 31 28 32 29 33 90 34 30 35
REMARK SMILES IDX 89 36 31 37 32 38 33 39 83 40 34 41 88 42 82 43 84 44 35 45
REMARK SMILES IDX 87 46 81 47 80 48 36 50 68 51 48 52 67 53 49 54 52 55 66 56
REMARK SMILES IDX 85 57 50 58 51 59 65 61 86 62 53 63 37 64 38 65 46 66 39 67
REMARK SMILES IDX 40 68 44 69 47 70 41 71 42 72 45 73 43 74 69 75 70 76 78 77
REMARK SMILES IDX 71 78 72 79 76 80 79 81 73 82 74 83 77 84 75 85 54 86 55 87
REMARK SMILES IDX 63 88 56 89 57 90 61 91 64 92 58 93 59 94 62 95 60 96
REMARK H PARENT 20 5 10 15 25 30 84 49 52 60
REMARK Flexibility Score: inf
ROOT
ATOM      1  C   UNL     1      -0.547  -7.093  -2.403  1.00  0.00     0.116 C 
ENDROOT
BRANCH   1   2
ATOM      2  N   UNL     1      -0.953  -5.768  -2.006  1.00  0.00    -0.349 N 
ATOM      3  C   UNL     1      -0.447  -4.942  -1.028  1.00  0.00     0.287 C 
ATOM      4  O   UNL     1      -1.214  -4.047  -0.661  1.00  0.00    -0.266 OA
ATOM      5  H   UNL     1      -1.710  -5.396  -2.514  1.00  0.00     0.163 HD
BRANCH   3   6
ATOM      6  C   UNL     1       0.904  -5.105  -0.525  1.00  0.00     0.191 A 
ATOM      7  C   UNL     1       2.808  -4.239   0.214  1.00  0.00     0.161 A 
ATOM      8  C   UNL     1       3.042  -5.583   0.027  1.00  0.00     0.053 A 
ATOM      9  O   UNL     1       1.503  -3.966  -0.049  1.00  0.00    -0.450 OA
ATOM     10  C   UNL     1       1.813  -6.143  -0.406  1.00  0.00     0.057 A 
BRANCH   7  11
ATOM     11  C   UNL     1       3.675  -3.106   0.683  1.00  0.00     0.248 C 
ATOM     12  C   UNL     1       2.989  -2.310   1.802  1.00  0.00     0.084 C 
BRANCH  11  13
ATOM     13  N   UNL     1       4.259  -2.326  -0.444  1.00  0.00    -0.325 N 
ATOM     14  C   UNL     1       5.526  -1.713  -0.024  1.00  0.00     0.333 C 
ATOM     15  H   UNL     1       4.392  -3.006  -1.193  1.00  0.00     0.348 HD
BRANCH  13  16
ATOM     16  C   UNL     1       3.387  -1.262  -0.985  1.00  0.00     0.303 C 
BRANCH  16  17
ATOM     17  C   UNL     1       2.254  -1.706  -1.879  1.00  0.00     0.048 A 
ATOM     18  C   UNL     1       0.919  -1.374  -1.604  1.00  0.00     0.127 A 
ATOM     19  C   UNL     1      -0.111  -1.778  -2.458  1.00  0.00     0.047 A 
ATOM     20  C   UNL     1       0.179  -2.504  -3.613  1.00  0.00     0.004 A 
ATOM     21  C   UNL     1       2.529  -2.436  -3.050  1.00  0.00     0.013 A 
ATOM     22  C   UNL     1       1.499  -2.835  -3.908  1.00  0.00     0.001 A 
BRANCH  18  23
ATOM     23  O   UNL     1       0.573  -0.793  -0.412  1.00  0.00    -0.496 OA
ATOM     24  C   UNL     1       0.457   0.620  -0.525  1.00  0.00     0.278 C 
ENDBRANCH  18  23
ENDBRANCH  16  17
ENDBRANCH  13  16
ENDBRANCH  11  13
ENDBRANCH   7  11
ENDBRANCH   3   6
ENDBRANCH   1   2
BRANCH   1  25
ATOM     25  C   UNL     1      -1.279  -8.109  -1.528  1.00  0.00     0.023 C 
BRANCH  25  26
ATOM     26  C   UNL     1      -2.715  -8.369  -1.999  1.00  0.00     0.023 C 
BRANCH  26  27
ATOM     27  C   UNL     1      -2.813  -9.038  -3.366  1.00  0.00     0.116 C 
BRANCH  27  28
ATOM     28  N   UNL     1      -2.079 -10.292  -3.429  1.00  0.00    -0.352 N 
ATOM     29  C   UNL     1      -2.434 -11.469  -4.040  1.00  0.00     0.251 C 
ATOM     30  H   UNL     1      -1.208 -10.298  -2.971  1.00  0.00     0.163 HD
ATOM     31  O   UNL     1      -1.770 -12.481  -3.882  1.00  0.00    -0.269 OA
BRANCH  29  32
ATOM     32  C   UNL     1      -3.651 -11.496  -4.872  1.00  0.00     0.039 A 
ATOM     33  C   UNL     1      -4.595 -12.501  -4.648  1.00  0.00     0.014 A 
ATOM     34  C   UNL     1      -3.868 -10.514  -5.842  1.00  0.00     0.014 A 
ATOM     35  C   UNL     1      -5.790 -12.486  -5.364  1.00  0.00     0.010 A 
ATOM     36  C   UNL     1      -5.088 -10.461  -6.503  1.00  0.00     0.010 A 
ATOM     37  C   UNL     1      -6.058 -11.448  -6.272  1.00  0.00    -0.014 A 
BRANCH  37  38
ATOM     38  C   UNL     1      -7.350 -11.380  -6.995  1.00  0.00     0.031 A 
ATOM     39  C   UNL     1      -7.380 -11.524  -8.489  1.00  0.00     0.074 A 
ATOM     40  C   UNL     1      -8.480 -11.122  -6.311  1.00  0.00     0.049 A 
ATOM     41  N   UNL     1      -8.395 -11.425  -9.310  1.00  0.00    -0.248 NA
ATOM     42  C   UNL     1      -6.094 -11.786  -9.154  1.00  0.00     0.031 C 
ATOM     43  C   UNL     1      -8.565 -10.913  -4.864  1.00  0.00     0.029 A 
ATOM     44  N   UNL     1      -9.775 -10.982  -6.742  1.00  0.00    -0.354 N 
ATOM     45  C   UNL     1      -7.868 -11.599 -10.582  1.00  0.00     0.074 A 
ATOM     46  C   UNL     1      -6.438 -11.753 -10.433  1.00  0.00     0.031 C 
ATOM     47  C   UNL     1      -9.845 -10.693  -4.526  1.00  0.00     0.029 A 
ATOM     48  C   UNL     1     -10.665 -10.709  -5.733  1.00  0.00     0.049 A 
ATOM     49  H   UNL     1     -10.040 -11.068  -7.686  1.00  0.00     0.167 HD
ATOM     50  C   UNL     1      -8.523 -11.651 -11.766  1.00  0.00     0.037 A 
ATOM     51  C   UNL     1     -11.993 -10.490  -5.781  1.00  0.00     0.037 A 
ATOM     52  C   UNL     1      -9.950 -11.523 -11.904  1.00  0.00     0.049 A 
ATOM     53  C   UNL     1     -12.695 -10.552  -7.110  1.00  0.00     0.074 A 
ATOM     54  C   UNL     1     -10.718 -11.619 -13.050  1.00  0.00     0.029 A 
ATOM     55  N   UNL     1     -10.823 -11.271 -10.856  1.00  0.00    -0.354 N 
ATOM     56  N   UNL     1     -12.198 -10.788  -8.300  1.00  0.00    -0.248 NA
ATOM     57  C   UNL     1     -14.147 -10.326  -7.102  1.00  0.00     0.031 C 
ATOM     58  C   UNL     1     -12.052 -11.381 -12.703  1.00  0.00     0.029 A 
ATOM     59  C   UNL     1     -12.121 -11.188 -11.332  1.00  0.00     0.049 A 
ATOM     60  H   UNL     1     -10.560 -11.166  -9.913  1.00  0.00     0.167 HD
ATOM     61  C   UNL     1     -13.274 -10.768  -9.175  1.00  0.00     0.074 A 
ATOM     62  C   UNL     1     -14.456 -10.512  -8.377  1.00  0.00     0.031 C 
ATOM     63  C   UNL     1     -13.285 -10.944 -10.519  1.00  0.00     0.037 A 
BRANCH  50  64
ATOM     64  C   UNL     1      -7.703 -11.863 -13.005  1.00  0.00     0.064 A 
ATOM     65  C   UNL     1      -7.074 -13.089 -13.269  1.00  0.00     0.173 A 
ATOM     66  C   UNL     1      -7.575 -10.842 -13.958  1.00  0.00     0.173 A 
ATOM     67  F   UNL     1      -7.155 -14.094 -12.384  1.00  0.00    -0.203 F 
ATOM     68  C   UNL     1      -6.324 -13.276 -14.427  1.00  0.00     0.198 A 
ATOM     69  C   UNL     1      -6.850 -11.042 -15.130  1.00  0.00     0.198 A 
ATOM     70  F   UNL     1      -8.159  -9.651 -13.758  1.00  0.00    -0.203 F 
ATOM     71  F   UNL     1      -5.691 -14.439 -14.633  1.00  0.00    -0.200 F 
ATOM     72  C   UNL     1      -6.219 -12.255 -15.360  1.00  0.00     0.200 A 
ATOM     73  F   UNL     1      -6.759 -10.059 -16.037  1.00  0.00    -0.200 F 
ATOM     74  F   UNL     1      -5.504 -12.439 -16.478  1.00  0.00    -0.200 F 
ENDBRANCH  50  64
BRANCH  51  75
ATOM     75  C   UNL     1     -12.748 -10.218  -4.531  1.00  0.00     0.064 A 
ATOM     76  C   UNL     1     -13.661 -11.154  -4.025  1.00  0.00     0.173 A 
ATOM     77  C   UNL     1     -12.584  -9.019  -3.823  1.00  0.00     0.173 A 
ATOM     78  F   UNL     1     -13.867 -12.308  -4.677  1.00  0.00    -0.203 F 
ATOM     79  C   UNL     1     -14.399 -10.891  -2.873  1.00  0.00     0.198 A 
ATOM     80  C   UNL     1     -13.301  -8.769  -2.654  1.00  0.00     0.198 A 
ATOM     81  F   UNL     1     -11.719  -8.093  -4.261  1.00  0.00    -0.203 F 
ATOM     82  F   UNL     1     -15.301 -11.782  -2.440  1.00  0.00    -0.200 F 
ATOM     83  C   UNL     1     -14.215  -9.700  -2.186  1.00  0.00     0.200 A 
ATOM     84  F   UNL     1     -13.110  -7.623  -1.986  1.00  0.00    -0.200 F 
ATOM     85  F   UNL     1     -14.925  -9.448  -1.077  1.00  0.00    -0.200 F 
ENDBRANCH  51  75
BRANCH  63  86
ATOM     86  C   UNL     1     -14.619 -10.906 -11.207  1.00  0.00     0.064 A 
ATOM     87  C   UNL     1     -15.329  -9.708 -11.370  1.00  0.00     0.173 A 
ATOM     88  C   UNL     1     -15.172 -12.078 -11.745  1.00  0.00     0.173 A 
ATOM     89  F   UNL     1     -14.850  -8.564 -10.860  1.00  0.00    -0.203 F 
ATOM     90  C   UNL     1     -16.557  -9.690 -12.026  1.00  0.00     0.198 A 
ATOM     91  C   UNL     1     -16.384 -12.050 -12.427  1.00  0.00     0.198 A 
ATOM     92  F   UNL     1     -14.528 -13.248 -11.622  1.00  0.00    -0.203 F 
ATOM     93  F   UNL     1     -17.242  -8.542 -12.129  1.00  0.00    -0.200 F 
ATOM     94  C   UNL     1     -17.080 -10.858 -12.560  1.00  0.00     0.200 A 
ATOM     95  F   UNL     1     -16.880 -13.178 -12.955  1.00  0.00    -0.200 F 
ATOM     96  F   UNL     1     -18.258 -10.836 -13.198  1.00  0.00    -0.200 F 
ENDBRANCH  63  86
ENDBRANCH  37  38
ENDBRANCH  29  32
ENDBRANCH  27  28
ENDBRANCH  26  27
ENDBRANCH  25  26
ENDBRANCH   1  25
TORSDOF 16
