REMARK SMILES CC1(C)C[C@@]([NH2+]CCN=[N+]=[N-])(C(=O)NCCCCNC(=O)c2ccc(-c3c4nc(c(-c5c(F)c(F)c(F)c(F)c5F)c5ccc([nH]5)c(-c5c(F)c(F)c(F)c(F)c5F)c5nc(c(-c6c(F)c(F)c(F)c(F)c6F)c6ccc3[nH]6)C=C5)C=C4)cc2)C(C)(C)O1
REMARK SMILES IDX 15 1 14 2 12 3 13 4 5 6 1 7 2 8 3 9 4 10 88 11 85 12 86 13
REMARK SMILES IDX 87 14 6 15 7 18 8 19 9 20 10 21 11 22 16 23 17 24 18 25
REMARK SMILES IDX 19 26 20 27 21 29 22 30 23 31 84 32 24 33 83 34 25 35 26 36
REMARK SMILES IDX 27 37 77 38 28 39 82 40 76 41 78 42 29 43 81 44 75 45 74 46
REMARK SMILES IDX 30 48 62 49 42 50 61 51 43 52 46 53 60 54 79 55 44 56 45 57
REMARK SMILES IDX 59 59 80 60 47 61 31 62 32 63 40 64 33 65 34 66 38 67 41 68
REMARK SMILES IDX 35 69 36 70 39 71 37 72 63 73 64 74 72 75 65 76 66 77 70 78
REMARK SMILES IDX 73 79 67 80 68 81 71 82 69 83 48 84 49 85 57 86 50 87 51 88
REMARK SMILES IDX 55 89 58 90 52 91 53 92 56 93 54 94
REMARK H PARENT 14 5 6 16 6 17 19 28 78 47 46 58
REMARK Flexibility Score: inf
ROOT
ATOM      1  C   UNL     1       1.707   2.584   4.027  1.00  0.00     0.116 C 
ENDROOT
BRANCH   1   2
ATOM      2  N   UNL     1       1.256   3.872   3.542  1.00  0.00    -0.351 N 
ATOM      3  C   UNL     1       0.806   4.301   2.332  1.00  0.00     0.284 C 
ATOM      4  O   UNL     1       0.821   5.532   2.189  1.00  0.00    -0.268 OA
ATOM      5  H   UNL     1       1.280   4.580   4.226  1.00  0.00     0.163 HD
BRANCH   3   6
ATOM      6  C   UNL     1       0.134   3.376   1.260  1.00  0.00     0.206 C 
ATOM      7  C   UNL     1       1.269   0.200  -0.397  1.00  0.00     0.042 C 
ATOM      8  C   UNL     1       0.343   1.396  -0.160  1.00  0.00     0.070 C 
ATOM      9  C   UNL     1      -1.083   1.002  -0.557  1.00  0.00     0.042 C 
ATOM     10  C   UNL     1       0.504   1.895   1.271  1.00  0.00     0.117 C 
ATOM     11  O   UNL     1       0.741   2.501  -0.974  1.00  0.00    -0.362 OA
ATOM     12  C   UNL     1       0.674   3.737  -0.192  1.00  0.00     0.127 C 
ATOM     13  C   UNL     1       2.125   4.260  -0.208  1.00  0.00     0.049 C 
ATOM     14  C   UNL     1      -0.210   4.712  -0.974  1.00  0.00     0.049 C 
BRANCH   6  15
ATOM     15  N   UNL     1      -1.367   3.473   1.356  1.00  0.00    -0.331 N 
ATOM     16  H   UNL     1      -1.734   2.522   1.373  1.00  0.00     0.347 HD
ATOM     17  H   UNL     1      -1.644   4.035   0.551  1.00  0.00     0.347 HD
BRANCH  15  18
ATOM     18  C   UNL     1      -1.928   4.181   2.514  1.00  0.00     0.267 C 
BRANCH  18  19
ATOM     19  C   UNL     1      -3.466   4.176   2.473  1.00  0.00     0.152 C 
BRANCH  19  20
ATOM     20  N   UNL     1      -3.980   2.807   2.649  1.00  0.00    -0.088 NA
ATOM     21  N   UNL     1      -4.301   2.209   1.605  1.00  0.00     0.001 N 
ATOM     22  N   UNL     1      -4.569   1.645   0.655  1.00  0.00    -0.003 NA
ENDBRANCH  19  20
ENDBRANCH  18  19
ENDBRANCH  15  18
ENDBRANCH   6  15
ENDBRANCH   3   6
ENDBRANCH   1   2
BRANCH   1  23
ATOM     23  C   UNL     1       3.226   2.478   3.873  1.00  0.00     0.023 C 
BRANCH  23  24
ATOM     24  C   UNL     1       3.995   3.242   4.954  1.00  0.00     0.023 C 
BRANCH  24  25
ATOM     25  C   UNL     1       3.671   2.809   6.379  1.00  0.00     0.116 C 
BRANCH  25  26
ATOM     26  N   UNL     1       3.868   1.384   6.598  1.00  0.00    -0.352 N 
ATOM     27  C   UNL     1       4.329   0.758   7.729  1.00  0.00     0.251 C 
ATOM     28  H   UNL     1       3.642   0.796   5.842  1.00  0.00     0.163 HD
ATOM     29  O   UNL     1       4.578  -0.442   7.729  1.00  0.00    -0.269 OA
BRANCH  27  30
ATOM     30  C   UNL     1       4.555   1.571   8.938  1.00  0.00     0.039 A 
ATOM     31  C   UNL     1       5.795   1.506   9.573  1.00  0.00     0.014 A 
ATOM     32  C   UNL     1       3.564   2.447   9.388  1.00  0.00     0.014 A 
ATOM     33  C   UNL     1       6.064   2.373  10.631  1.00  0.00     0.010 A 
ATOM     34  C   UNL     1       3.865   3.366  10.384  1.00  0.00     0.010 A 
ATOM     35  C   UNL     1       5.116   3.335  11.018  1.00  0.00    -0.014 A 
BRANCH  35  36
ATOM     36  C   UNL     1       5.416   4.318  12.088  1.00  0.00     0.031 A 
ATOM     37  C   UNL     1       4.604   4.323  13.352  1.00  0.00     0.074 A 
ATOM     38  C   UNL     1       6.379   5.239  11.894  1.00  0.00     0.049 A 
ATOM     39  N   UNL     1       4.676   5.131  14.379  1.00  0.00    -0.248 NA
ATOM     40  C   UNL     1       3.550   3.302  13.466  1.00  0.00     0.031 C 
ATOM     41  C   UNL     1       7.201   5.364  10.689  1.00  0.00     0.029 A 
ATOM     42  N   UNL     1       6.827   6.251  12.706  1.00  0.00    -0.354 N 
ATOM     43  C   UNL     1       3.675   4.723  15.250  1.00  0.00     0.074 A 
ATOM     44  C   UNL     1       2.967   3.639  14.606  1.00  0.00     0.031 C 
ATOM     45  C   UNL     1       8.072   6.372  10.852  1.00  0.00     0.029 A 
ATOM     46  C   UNL     1       7.841   6.994  12.153  1.00  0.00     0.049 A 
ATOM     47  H   UNL     1       6.456   6.428  13.601  1.00  0.00     0.167 HD
ATOM     48  C   UNL     1       3.391   5.193  16.487  1.00  0.00     0.037 A 
ATOM     49  C   UNL     1       8.504   8.061  12.638  1.00  0.00     0.037 A 
ATOM     50  C   UNL     1       4.111   6.262  17.128  1.00  0.00     0.049 A 
ATOM     51  C   UNL     1       8.150   8.579  14.007  1.00  0.00     0.074 A 
ATOM     52  C   UNL     1       3.940   6.775  18.401  1.00  0.00     0.029 A 
ATOM     53  N   UNL     1       5.136   6.989  16.538  1.00  0.00    -0.354 N 
ATOM     54  N   UNL     1       7.254   8.136  14.855  1.00  0.00    -0.248 NA
ATOM     55  C   UNL     1       8.906   9.743  14.489  1.00  0.00     0.031 C 
ATOM     56  C   UNL     1       4.816   7.853  18.559  1.00  0.00     0.029 A 
ATOM     57  C   UNL     1       5.583   7.968  17.411  1.00  0.00     0.049 A 
ATOM     58  H   UNL     1       5.491   6.833  15.634  1.00  0.00     0.167 HD
ATOM     59  C   UNL     1       7.361   8.942  15.981  1.00  0.00     0.074 A 
ATOM     60  C   UNL     1       8.421   9.891  15.713  1.00  0.00     0.031 C 
ATOM     61  C   UNL     1       6.647   8.900  17.133  1.00  0.00     0.037 A 
BRANCH  48  62
ATOM     62  C   UNL     1       2.249   4.557  17.228  1.00  0.00     0.064 A 
ATOM     63  C   UNL     1       2.312   3.232  17.687  1.00  0.00     0.173 A 
ATOM     64  C   UNL     1       1.089   5.293  17.515  1.00  0.00     0.173 A 
ATOM     65  F   UNL     1       3.392   2.478  17.430  1.00  0.00    -0.203 F 
ATOM     66  C   UNL     1       1.245   2.658  18.373  1.00  0.00     0.198 A 
ATOM     67  C   UNL     1       0.039   4.728  18.233  1.00  0.00     0.198 A 
ATOM     68  F   UNL     1       0.976   6.565  17.105  1.00  0.00    -0.203 F 
ATOM     69  F   UNL     1       1.306   1.373  18.750  1.00  0.00    -0.200 F 
ATOM     70  C   UNL     1       0.114   3.409  18.654  1.00  0.00     0.200 A 
ATOM     71  F   UNL     1      -1.047   5.460  18.517  1.00  0.00    -0.200 F 
ATOM     72  F   UNL     1      -0.908   2.858  19.323  1.00  0.00    -0.200 F 
ENDBRANCH  48  62
BRANCH  49  73
ATOM     73  C   UNL     1       9.581   8.700  11.836  1.00  0.00     0.064 A 
ATOM     74  C   UNL     1      10.919   8.646  12.251  1.00  0.00     0.173 A 
ATOM     75  C   UNL     1       9.296   9.389  10.647  1.00  0.00     0.173 A 
ATOM     76  F   UNL     1      11.241   8.015  13.390  1.00  0.00    -0.203 F 
ATOM     77  C   UNL     1      11.926   9.280  11.526  1.00  0.00     0.198 A 
ATOM     78  C   UNL     1      10.309   9.993   9.905  1.00  0.00     0.198 A 
ATOM     79  F   UNL     1       8.034   9.466  10.200  1.00  0.00    -0.203 F 
ATOM     80  F   UNL     1      13.187   9.259  11.977  1.00  0.00    -0.200 F 
ATOM     81  C   UNL     1      11.621   9.948  10.350  1.00  0.00     0.200 A 
ATOM     82  F   UNL     1      10.011  10.623   8.759  1.00  0.00    -0.200 F 
ATOM     83  F   UNL     1      12.589  10.555   9.651  1.00  0.00    -0.200 F 
ENDBRANCH  49  73
BRANCH  61  84
ATOM     84  C   UNL     1       7.016   9.880  18.211  1.00  0.00     0.064 A 
ATOM     85  C   UNL     1       6.766  11.254  18.081  1.00  0.00     0.173 A 
ATOM     86  C   UNL     1       7.592   9.429  19.409  1.00  0.00     0.173 A 
ATOM     87  F   UNL     1       6.230  11.740  16.951  1.00  0.00    -0.203 F 
ATOM     88  C   UNL     1       7.107  12.143  19.098  1.00  0.00     0.198 A 
ATOM     89  C   UNL     1       7.896  10.315  20.438  1.00  0.00     0.198 A 
ATOM     90  F   UNL     1       7.844   8.123  19.589  1.00  0.00    -0.203 F 
ATOM     91  F   UNL     1       6.911  13.458  18.929  1.00  0.00    -0.200 F 
ATOM     92  C   UNL     1       7.663  11.672  20.278  1.00  0.00     0.200 A 
ATOM     93  F   UNL     1       8.416   9.855  21.584  1.00  0.00    -0.200 F 
ATOM     94  F   UNL     1       7.981  12.528  21.259  1.00  0.00    -0.200 F 
ENDBRANCH  61  84
ENDBRANCH  35  36
ENDBRANCH  27  30
ENDBRANCH  25  26
ENDBRANCH  24  25
ENDBRANCH  23  24
ENDBRANCH   1  23
TORSDOF 15
