REMARK SMILES O=C(NCCCCNC(=O)c1ccc(-c2c3nc(c(-c4c(F)c(F)c(F)c(F)c4F)c4ccc([nH]4)c(-c4c(F)c(F)c(F)c(F)c4F)c4nc(c(-c5c(F)c(F)c(F)c(F)c5F)c5ccc2[nH]5)C=C4)C=C3)cc1)c1ccc(/C=C/c2ccnc(-c3cccc([N+](=O)[O-])c3)[n+]2[O-])cc1
REMARK SMILES IDX 4 1 3 2 1 3 2 4 74 6 75 7 97 8 76 9 96 10 77 11 78 12 79 13
REMARK SMILES IDX 80 14 81 15 94 16 82 17 84 18 95 19 83 20 85 21 86 22 93 23
REMARK SMILES IDX 87 24 89 25 88 26 90 27 91 28 92 29 5 30 6 31 7 32 8 33 9 34
REMARK SMILES IDX 10 36 11 37 12 38 73 39 13 40 72 41 14 42 15 43 16 44 66 45
REMARK SMILES IDX 17 46 71 47 65 48 67 49 18 50 70 51 64 52 63 53 19 55 51 56
REMARK SMILES IDX 31 57 50 58 32 59 35 60 49 61 68 62 33 63 34 64 48 66 69 67
REMARK SMILES IDX 36 68 20 69 21 70 29 71 22 72 23 73 27 74 30 75 24 76 25 77
REMARK SMILES IDX 28 78 26 79 52 80 53 81 61 82 54 83 55 84 59 85 62 86 56 87
REMARK SMILES IDX 57 88 60 89 58 90 37 91 38 92 46 93 39 94 40 95 44 96 47 97
REMARK SMILES IDX 41 98 42 99 45 100 43 101
REMARK H PARENT 3 5 8 35 67 54 35 65
REMARK Flexibility Score: inf
ROOT
ATOM      1  C   UNL     1       4.490   0.174   1.122  1.00  0.00     0.116 C 
ENDROOT
BRANCH   1   2
ATOM      2  N   UNL     1       3.047   0.014   1.019  1.00  0.00    -0.352 N 
ATOM      3  O   UNL     1       1.044  -0.028  -0.033  1.00  0.00    -0.269 OA
ATOM      4  C   UNL     1       2.268  -0.018  -0.112  1.00  0.00     0.251 C 
ATOM      5  H   UNL     1       2.566  -0.084   1.873  1.00  0.00     0.163 HD
BRANCH   4   6
ATOM      6  C   UNL     1       2.925  -0.020  -1.432  1.00  0.00     0.039 A 
ATOM      7  C   UNL     1       3.835  -1.025  -1.763  1.00  0.00     0.014 A 
ATOM      8  C   UNL     1       2.654   1.012  -2.328  1.00  0.00     0.014 A 
ATOM      9  C   UNL     1       4.547  -0.946  -2.961  1.00  0.00     0.009 A 
ATOM     10  C   UNL     1       3.366   1.082  -3.528  1.00  0.00     0.009 A 
ATOM     11  C   UNL     1       4.343   0.124  -3.847  1.00  0.00    -0.025 A 
BRANCH  11  12
ATOM     12  C   UNL     1       5.105   0.288  -5.098  1.00  0.00     0.012 C 
ATOM     13  C   UNL     1       6.188  -0.423  -5.452  1.00  0.00     0.053 C 
BRANCH  13  14
ATOM     14  C   UNL     1       6.911  -0.225  -6.719  1.00  0.00     0.134 A 
ATOM     15  C   UNL     1       7.153  -1.341  -7.522  1.00  0.00     0.100 A 
ATOM     16  N   UNL     1       7.382   1.043  -7.103  1.00  0.00    -0.228 N 
ATOM     17  C   UNL     1       7.823  -1.153  -8.705  1.00  0.00     0.259 A 
ATOM     18  C   UNL     1       8.077   1.137  -8.312  1.00  0.00     0.333 A 
ATOM     19  O   UNL     1       7.193   2.071  -6.362  1.00  0.00    -0.710 OA
ATOM     20  N   UNL     1       8.275   0.044  -9.116  1.00  0.00    -0.049 NA
BRANCH  18  21
ATOM     21  C   UNL     1       8.682   2.398  -8.747  1.00  0.00     0.076 A 
ATOM     22  C   UNL     1       8.380   2.946 -10.007  1.00  0.00     0.017 A 
ATOM     23  C   UNL     1       9.614   3.069  -7.936  1.00  0.00     0.102 A 
ATOM     24  C   UNL     1       8.970   4.138 -10.439  1.00  0.00     0.008 A 
ATOM     25  C   UNL     1      10.217   4.254  -8.379  1.00  0.00     0.270 A 
ATOM     26  C   UNL     1       9.893   4.796  -9.627  1.00  0.00     0.085 A 
BRANCH  25  27
ATOM     27  N   UNL     1      11.215   4.919  -7.533  1.00  0.00     0.062 N 
ATOM     28  O   UNL     1      11.646   6.019  -7.906  1.00  0.00    -0.258 OA
ATOM     29  O   UNL     1      11.584   4.332  -6.505  1.00  0.00    -0.258 OA
ENDBRANCH  25  27
ENDBRANCH  18  21
ENDBRANCH  13  14
ENDBRANCH  11  12
ENDBRANCH   4   6
ENDBRANCH   1   2
BRANCH   1  30
ATOM     30  C   UNL     1       4.888   1.384   1.962  1.00  0.00     0.023 C 
BRANCH  30  31
ATOM     31  C   UNL     1       4.436   1.344   3.420  1.00  0.00     0.023 C 
BRANCH  31  32
ATOM     32  C   UNL     1       4.811   0.083   4.190  1.00  0.00     0.116 C 
BRANCH  32  33
ATOM     33  N   UNL     1       6.245  -0.151   4.250  1.00  0.00    -0.352 N 
ATOM     34  C   UNL     1       7.039  -0.438   5.335  1.00  0.00     0.251 C 
ATOM     35  H   UNL     1       6.716  -0.097   3.387  1.00  0.00     0.163 HD
ATOM     36  O   UNL     1       8.258  -0.500   5.208  1.00  0.00    -0.269 OA
BRANCH  34  37
ATOM     37  C   UNL     1       6.428  -0.632   6.668  1.00  0.00     0.039 A 
ATOM     38  C   UNL     1       6.992   0.022   7.766  1.00  0.00     0.014 A 
ATOM     39  C   UNL     1       5.301  -1.440   6.835  1.00  0.00     0.014 A 
ATOM     40  C   UNL     1       6.378  -0.068   9.018  1.00  0.00     0.010 A 
ATOM     41  C   UNL     1       4.649  -1.471   8.065  1.00  0.00     0.010 A 
ATOM     42  C   UNL     1       5.177  -0.782   9.167  1.00  0.00    -0.014 A 
BRANCH  42  43
ATOM     43  C   UNL     1       4.452  -0.807  10.463  1.00  0.00     0.031 A 
ATOM     44  C   UNL     1       4.274  -2.102  11.205  1.00  0.00     0.074 A 
ATOM     45  C   UNL     1       3.887   0.322  10.933  1.00  0.00     0.049 A 
ATOM     46  N   UNL     1       3.599  -2.343  12.301  1.00  0.00    -0.248 NA
ATOM     47  C   UNL     1       4.916  -3.290  10.623  1.00  0.00     0.031 C 
ATOM     48  C   UNL     1       3.942   1.631  10.280  1.00  0.00     0.029 A 
ATOM     49  N   UNL     1       3.140   0.546  12.063  1.00  0.00    -0.354 N 
ATOM     50  C   UNL     1       3.719  -3.707  12.527  1.00  0.00     0.074 A 
ATOM     51  C   UNL     1       4.492  -4.251  11.431  1.00  0.00     0.031 C 
ATOM     52  C   UNL     1       3.273   2.523  11.027  1.00  0.00     0.029 A 
ATOM     53  C   UNL     1       2.712   1.845  12.192  1.00  0.00     0.049 A 
ATOM     54  H   UNL     1       2.931  -0.158  12.719  1.00  0.00     0.167 HD
ATOM     55  C   UNL     1       3.245  -4.437  13.565  1.00  0.00     0.037 A 
ATOM     56  C   UNL     1       1.948   2.422  13.138  1.00  0.00     0.037 A 
ATOM     57  C   UNL     1       2.505  -3.889  14.671  1.00  0.00     0.049 A 
ATOM     58  C   UNL     1       1.447   1.592  14.289  1.00  0.00     0.074 A 
ATOM     59  C   UNL     1       2.042  -4.536  15.804  1.00  0.00     0.029 A 
ATOM     60  N   UNL     1       2.120  -2.562  14.783  1.00  0.00    -0.354 N 
ATOM     61  N   UNL     1       1.624   0.316  14.526  1.00  0.00    -0.248 NA
ATOM     62  C   UNL     1       0.645   2.286  15.307  1.00  0.00     0.031 C 
ATOM     63  C   UNL     1       1.343  -3.608  16.583  1.00  0.00     0.029 A 
ATOM     64  C   UNL     1       1.409  -2.373  15.958  1.00  0.00     0.049 A 
ATOM     65  H   UNL     1       2.321  -1.857  14.126  1.00  0.00     0.167 HD
ATOM     66  C   UNL     1       0.981   0.058  15.729  1.00  0.00     0.074 A 
ATOM     67  C   UNL     1       0.420   1.314  16.180  1.00  0.00     0.031 C 
ATOM     68  C   UNL     1       0.865  -1.115  16.398  1.00  0.00     0.037 A 
BRANCH  55  69
ATOM     69  C   UNL     1       3.519  -5.912  13.557  1.00  0.00     0.064 A 
ATOM     70  C   UNL     1       4.807  -6.421  13.780  1.00  0.00     0.173 A 
ATOM     71  C   UNL     1       2.475  -6.829  13.366  1.00  0.00     0.173 A 
ATOM     72  F   UNL     1       5.842  -5.585  13.956  1.00  0.00    -0.203 F 
ATOM     73  C   UNL     1       5.045  -7.793  13.784  1.00  0.00     0.198 A 
ATOM     74  C   UNL     1       2.711  -8.201  13.399  1.00  0.00     0.198 A 
ATOM     75  F   UNL     1       1.223  -6.396  13.154  1.00  0.00    -0.203 F 
ATOM     76  F   UNL     1       6.292  -8.254  13.952  1.00  0.00    -0.200 F 
ATOM     77  C   UNL     1       3.997  -8.681  13.601  1.00  0.00     0.200 A 
ATOM     78  F   UNL     1       1.695  -9.059  13.233  1.00  0.00    -0.200 F 
ATOM     79  F   UNL     1       4.226 -10.002  13.612  1.00  0.00    -0.200 F 
ENDBRANCH  55  69
BRANCH  56  80
ATOM     80  C   UNL     1       1.628   3.870  13.050  1.00  0.00     0.064 A 
ATOM     81  C   UNL     1       2.199   4.787  13.944  1.00  0.00     0.173 A 
ATOM     82  C   UNL     1       0.750   4.367  12.076  1.00  0.00     0.173 A 
ATOM     83  F   UNL     1       3.028   4.356  14.906  1.00  0.00    -0.203 F 
ATOM     84  C   UNL     1       1.889   6.144  13.879  1.00  0.00     0.198 A 
ATOM     85  C   UNL     1       0.461   5.727  11.996  1.00  0.00     0.198 A 
ATOM     86  F   UNL     1       0.181   3.530  11.196  1.00  0.00    -0.203 F 
ATOM     87  F   UNL     1       2.416   6.992  14.772  1.00  0.00    -0.200 F 
ATOM     88  C   UNL     1       1.025   6.614  12.901  1.00  0.00     0.200 A 
ATOM     89  F   UNL     1      -0.365   6.179  11.042  1.00  0.00    -0.200 F 
ATOM     90  F   UNL     1       0.730   7.919  12.836  1.00  0.00    -0.200 F 
ENDBRANCH  56  80
BRANCH  68  91
ATOM     91  C   UNL     1       0.131  -1.091  17.706  1.00  0.00     0.064 A 
ATOM     92  C   UNL     1      -1.264  -0.955  17.764  1.00  0.00     0.173 A 
ATOM     93  C   UNL     1       0.828  -1.247  18.913  1.00  0.00     0.173 A 
ATOM     94  F   UNL     1      -1.973  -0.787  16.637  1.00  0.00    -0.203 F 
ATOM     95  C   UNL     1      -1.932  -0.955  18.985  1.00  0.00     0.198 A 
ATOM     96  C   UNL     1       0.154  -1.274  20.131  1.00  0.00     0.198 A 
ATOM     97  F   UNL     1       2.162  -1.386  18.911  1.00  0.00    -0.203 F 
ATOM     98  F   UNL     1      -3.260  -0.781  19.020  1.00  0.00    -0.200 F 
ATOM     99  C   UNL     1      -1.224  -1.121  20.167  1.00  0.00     0.200 A 
ATOM    100  F   UNL     1       0.838  -1.447  21.270  1.00  0.00    -0.200 F 
ATOM    101  F   UNL     1      -1.869  -1.128  21.341  1.00  0.00    -0.200 F 
ENDBRANCH  68  91
ENDBRANCH  42  43
ENDBRANCH  34  37
ENDBRANCH  32  33
ENDBRANCH  31  32
ENDBRANCH  30  31
ENDBRANCH   1  30
TORSDOF 15
