REMARK SMILES Cc1n[nH]c(C(=O)N[C@H](C(=O)NCCCCNC(=O)c2ccc(-c3c4nc(c(-c5c(F)c(F)c(F)c(F)c5F)c5ccc([nH]5)c(-c5c(F)c(F)c(F)c(F)c5F)c5nc(c(-c6c(F)c(F)c(F)c(F)c6F)c6ccc3[nH]6)C=C5)C=C4)cc2)C(C)C)n1
REMARK SMILES IDX 14 1 13 2 12 3 10 4 11 5 9 7 8 8 6 9 7 10 5 12 1 13 2 14
REMARK SMILES IDX 3 15 86 16 4 17 83 19 84 20 85 21 15 22 16 23 17 24 18 25
REMARK SMILES IDX 19 27 20 28 21 29 82 30 22 31 81 32 23 33 24 34 25 35 75 36
REMARK SMILES IDX 26 37 80 38 74 39 76 40 27 41 79 42 73 43 72 44 28 46 60 47
REMARK SMILES IDX 40 48 59 49 41 50 44 51 58 52 77 53 42 54 43 55 57 57 78 58
REMARK SMILES IDX 45 59 29 60 30 61 38 62 31 63 32 64 36 65 39 66 33 67 34 68
REMARK SMILES IDX 37 69 35 70 61 71 62 72 70 73 63 74 64 75 68 76 71 77 65 78
REMARK SMILES IDX 66 79 69 80 67 81 46 82 47 83 55 84 48 85 49 86 53 87 56 88
REMARK SMILES IDX 50 89 51 90 54 91 52 92
REMARK H PARENT 12 6 8 11 4 18 17 26 76 45 44 56
REMARK Flexibility Score: inf
ROOT
ATOM      1  C   UNL     1      -0.962   6.451   7.126  1.00  0.00     0.023 C 
ENDROOT
BRANCH   1   2
ATOM      2  C   UNL     1      -1.629   5.750   5.946  1.00  0.00     0.116 C 
BRANCH   2   3
ATOM      3  N   UNL     1      -0.691   5.181   4.997  1.00  0.00    -0.354 N 
ATOM      4  C   UNL     1      -0.394   3.913   4.623  1.00  0.00     0.242 C 
ATOM      5  O   UNL     1       0.355   3.809   3.640  1.00  0.00    -0.273 OA
ATOM      6  H   UNL     1      -0.157   5.860   4.525  1.00  0.00     0.163 HD
BRANCH   4   7
ATOM      7  C   UNL     1      -0.755   2.615   5.395  1.00  0.00     0.174 C 
BRANCH   7   8
ATOM      8  N   UNL     1       0.277   2.423   6.413  1.00  0.00    -0.337 N 
ATOM      9  C   UNL     1       1.561   1.913   6.358  1.00  0.00     0.289 C 
ATOM     10  O   UNL     1       2.123   1.869   7.458  1.00  0.00    -0.266 OA
ATOM     11  H   UNL     1       0.004   2.714   7.314  1.00  0.00     0.164 HD
BRANCH   9  12
ATOM     12  C   UNL     1       2.208   1.464   5.130  1.00  0.00     0.214 A 
ATOM     13  C   UNL     1       4.929   0.114   3.282  1.00  0.00     0.092 C 
ATOM     14  C   UNL     1       3.656   0.673   3.780  1.00  0.00     0.148 A 
ATOM     15  N   UNL     1       2.697   1.103   2.959  1.00  0.00    -0.159 NA
ATOM     16  N   UNL     1       3.384   0.847   5.111  1.00  0.00    -0.207 NA
ATOM     17  N   UNL     1       1.832   1.647   3.829  1.00  0.00    -0.255 N 
ATOM     18  H   UNL     1       1.016   2.127   3.559  1.00  0.00     0.192 HD
ENDBRANCH   9  12
ENDBRANCH   7   8
BRANCH   7  19
ATOM     19  C   UNL     1      -2.190   2.486   5.941  1.00  0.00     0.015 C 
ATOM     20  C   UNL     1      -3.214   2.755   4.831  1.00  0.00     0.010 C 
ATOM     21  C   UNL     1      -2.469   1.103   6.544  1.00  0.00     0.010 C 
ENDBRANCH   7  19
ENDBRANCH   4   7
ENDBRANCH   2   3
ENDBRANCH   1   2
BRANCH   1  22
ATOM     22  C   UNL     1      -0.259   7.778   6.807  1.00  0.00     0.023 C 
BRANCH  22  23
ATOM     23  C   UNL     1      -1.148   8.851   6.189  1.00  0.00     0.116 C 
BRANCH  23  24
ATOM     24  N   UNL     1      -2.284   9.231   7.033  1.00  0.00    -0.352 N 
ATOM     25  C   UNL     1      -3.320  10.101   6.722  1.00  0.00     0.251 C 
ATOM     26  H   UNL     1      -2.316   8.820   7.927  1.00  0.00     0.163 HD
ATOM     27  O   UNL     1      -3.994  10.632   7.584  1.00  0.00    -0.269 OA
BRANCH  25  28
ATOM     28  C   UNL     1      -3.610  10.337   5.297  1.00  0.00     0.039 A 
ATOM     29  C   UNL     1      -3.856  11.612   4.776  1.00  0.00     0.014 A 
ATOM     30  C   UNL     1      -3.575   9.219   4.474  1.00  0.00     0.014 A 
ATOM     31  C   UNL     1      -3.989  11.757   3.396  1.00  0.00     0.010 A 
ATOM     32  C   UNL     1      -3.509   9.388   3.123  1.00  0.00     0.010 A 
ATOM     33  C   UNL     1      -3.801  10.636   2.578  1.00  0.00    -0.014 A 
BRANCH  33  34
ATOM     34  C   UNL     1      -3.795  10.713   1.121  1.00  0.00     0.031 A 
ATOM     35  C   UNL     1      -2.711  11.560   0.544  1.00  0.00     0.074 A 
ATOM     36  C   UNL     1      -4.508   9.813   0.404  1.00  0.00     0.049 A 
ATOM     37  N   UNL     1      -2.822  12.550  -0.281  1.00  0.00    -0.248 NA
ATOM     38  C   UNL     1      -1.333  11.350   1.028  1.00  0.00     0.031 C 
ATOM     39  C   UNL     1      -5.367   8.730   0.912  1.00  0.00     0.029 A 
ATOM     40  N   UNL     1      -4.508   9.573  -0.934  1.00  0.00    -0.354 N 
ATOM     41  C   UNL     1      -1.519  12.958  -0.571  1.00  0.00     0.074 A 
ATOM     42  C   UNL     1      -0.667  12.316   0.393  1.00  0.00     0.031 C 
ATOM     43  C   UNL     1      -5.592   7.825  -0.063  1.00  0.00     0.029 A 
ATOM     44  C   UNL     1      -5.046   8.341  -1.301  1.00  0.00     0.049 A 
ATOM     45  H   UNL     1      -4.156  10.217  -1.590  1.00  0.00     0.167 HD
ATOM     46  C   UNL     1      -1.221  13.581  -1.745  1.00  0.00     0.037 A 
ATOM     47  C   UNL     1      -5.005   7.775  -2.533  1.00  0.00     0.037 A 
ATOM     48  C   UNL     1      -2.408  14.116  -2.361  1.00  0.00     0.049 A 
ATOM     49  C   UNL     1      -4.707   8.866  -3.495  1.00  0.00     0.074 A 
ATOM     50  C   UNL     1      -3.350  15.059  -2.000  1.00  0.00     0.029 A 
ATOM     51  N   UNL     1      -2.981  13.393  -3.378  1.00  0.00    -0.354 N 
ATOM     52  N   UNL     1      -5.519   9.860  -3.730  1.00  0.00    -0.248 NA
ATOM     53  C   UNL     1      -3.309   9.107  -3.814  1.00  0.00     0.031 C 
ATOM     54  C   UNL     1      -4.593  14.534  -2.463  1.00  0.00     0.029 A 
ATOM     55  C   UNL     1      -4.330  13.344  -3.144  1.00  0.00     0.049 A 
ATOM     56  H   UNL     1      -2.507  12.984  -4.138  1.00  0.00     0.167 HD
ATOM     57  C   UNL     1      -4.697  10.974  -3.819  1.00  0.00     0.074 A 
ATOM     58  C   UNL     1      -3.341  10.438  -3.931  1.00  0.00     0.031 C 
ATOM     59  C   UNL     1      -5.162  12.216  -3.494  1.00  0.00     0.037 A 
BRANCH  46  60
ATOM     60  C   UNL     1       0.058  13.368  -2.525  1.00  0.00     0.064 A 
ATOM     61  C   UNL     1       0.299  14.152  -3.672  1.00  0.00     0.173 A 
ATOM     62  C   UNL     1       0.891  12.236  -2.381  1.00  0.00     0.173 A 
ATOM     63  F   UNL     1      -0.441  15.242  -3.922  1.00  0.00    -0.203 F 
ATOM     64  C   UNL     1       1.238  13.780  -4.639  1.00  0.00     0.198 A 
ATOM     65  C   UNL     1       1.865  11.899  -3.320  1.00  0.00     0.198 A 
ATOM     66  F   UNL     1       0.729  11.348  -1.395  1.00  0.00    -0.203 F 
ATOM     67  F   UNL     1       1.337  14.482  -5.776  1.00  0.00    -0.200 F 
ATOM     68  C   UNL     1       2.014  12.649  -4.466  1.00  0.00     0.200 A 
ATOM     69  F   UNL     1       2.593  10.788  -3.141  1.00  0.00    -0.200 F 
ATOM     70  F   UNL     1       2.866  12.252  -5.420  1.00  0.00    -0.200 F 
ENDBRANCH  46  60
BRANCH  47  71
ATOM     71  C   UNL     1      -4.863   6.338  -2.877  1.00  0.00     0.064 A 
ATOM     72  C   UNL     1      -5.143   5.867  -4.171  1.00  0.00     0.173 A 
ATOM     73  C   UNL     1      -4.189   5.444  -2.022  1.00  0.00     0.173 A 
ATOM     74  F   UNL     1      -5.739   6.670  -5.064  1.00  0.00    -0.203 F 
ATOM     75  C   UNL     1      -4.756   4.588  -4.588  1.00  0.00     0.198 A 
ATOM     76  C   UNL     1      -3.808   4.166  -2.437  1.00  0.00     0.198 A 
ATOM     77  F   UNL     1      -3.804   5.824  -0.794  1.00  0.00    -0.203 F 
ATOM     78  F   UNL     1      -4.991   4.194  -5.848  1.00  0.00    -0.200 F 
ATOM     79  C   UNL     1      -4.080   3.742  -3.723  1.00  0.00     0.200 A 
ATOM     80  F   UNL     1      -3.123   3.373  -1.600  1.00  0.00    -0.200 F 
ATOM     81  F   UNL     1      -3.658   2.540  -4.139  1.00  0.00    -0.200 F 
ENDBRANCH  47  71
BRANCH  59  82
ATOM     82  C   UNL     1      -6.641  12.371  -3.254  1.00  0.00     0.064 A 
ATOM     83  C   UNL     1      -7.330  11.779  -2.180  1.00  0.00     0.173 A 
ATOM     84  C   UNL     1      -7.351  13.283  -4.042  1.00  0.00     0.173 A 
ATOM     85  F   UNL     1      -6.702  10.973  -1.320  1.00  0.00    -0.203 F 
ATOM     86  C   UNL     1      -8.672  12.062  -1.930  1.00  0.00     0.198 A 
ATOM     87  C   UNL     1      -8.682  13.592  -3.771  1.00  0.00     0.198 A 
ATOM     88  F   UNL     1      -6.733  13.924  -5.046  1.00  0.00    -0.203 F 
ATOM     89  F   UNL     1      -9.302  11.479  -0.898  1.00  0.00    -0.200 F 
ATOM     90  C   UNL     1      -9.345  12.976  -2.721  1.00  0.00     0.200 A 
ATOM     91  F   UNL     1      -9.314  14.515  -4.508  1.00  0.00    -0.200 F 
ATOM     92  F   UNL     1     -10.621  13.286  -2.454  1.00  0.00    -0.200 F 
ENDBRANCH  59  82
ENDBRANCH  33  34
ENDBRANCH  25  28
ENDBRANCH  23  24
ENDBRANCH  22  23
ENDBRANCH   1  22
TORSDOF 14
