REMARK SMILES C[C@H]([C@@H](C)O)[N@H+]1CC[C@@](C)(C(=O)NCCCCNC(=O)c2ccc(-c3c4nc(c(-c5c(F)c(F)c(F)c(F)c5F)c5ccc([nH]5)c(-c5c(F)c(F)c(F)c(F)c5F)c5nc(c(-c6c(F)c(F)c(F)c(F)c6F)c6ccc3[nH]6)C=C5)C=C4)cc2)C1
REMARK SMILES IDX 15 1 14 2 13 3 11 4 12 5 9 7 6 8 7 9 84 10 8 12 10 13 2 14
REMARK SMILES IDX 1 15 3 16 4 17 5 18 16 20 17 21 18 22 19 23 20 25 21 26
REMARK SMILES IDX 22 27 83 28 23 29 82 30 24 31 25 32 26 33 76 34 27 35 81 36
REMARK SMILES IDX 75 37 77 38 28 39 80 40 74 41 73 42 29 44 61 45 41 46 60 47
REMARK SMILES IDX 42 48 45 49 59 50 78 51 43 52 44 53 58 55 79 56 46 57 30 58
REMARK SMILES IDX 31 59 39 60 32 61 33 62 37 63 40 64 34 65 35 66 38 67 36 68
REMARK SMILES IDX 62 69 63 70 71 71 64 72 65 73 69 74 72 75 66 76 67 77 70 78
REMARK SMILES IDX 68 79 47 80 48 81 56 82 49 83 50 84 54 85 57 86 51 87 52 88
REMARK SMILES IDX 55 89 53 90
REMARK H PARENT 13 6 6 11 5 19 18 24 77 43 45 54
REMARK Flexibility Score: inf
ROOT
ATOM      1  C   UNL     1      -4.244  -3.226   3.020  1.00  0.00     0.023 C 
ENDROOT
BRANCH   1   2
ATOM      2  C   UNL     1      -4.655  -1.806   2.625  1.00  0.00     0.116 C 
BRANCH   2   3
ATOM      3  N   UNL     1      -3.563  -0.877   2.830  1.00  0.00    -0.355 N 
ATOM      4  C   UNL     1      -2.675  -0.323   1.956  1.00  0.00     0.231 C 
ATOM      5  O   UNL     1      -1.825   0.413   2.463  1.00  0.00    -0.274 OA
ATOM      6  H   UNL     1      -3.439  -0.597   3.766  1.00  0.00     0.163 HD
BRANCH   4   7
ATOM      7  C   UNL     1      -2.790  -0.527   0.426  1.00  0.00     0.100 C 
ATOM      8  N   UNL     1      -0.714  -1.211  -0.594  1.00  0.00    -0.330 N 
ATOM      9  C   UNL     1      -1.306  -2.367   0.040  1.00  0.00     0.263 C 
ATOM     10  C   UNL     1      -1.500  -0.015  -0.280  1.00  0.00     0.279 C 
ATOM     11  H   UNL     1      -0.796  -1.367  -1.599  1.00  0.00     0.348 HD
ATOM     12  C   UNL     1      -2.777  -2.000  -0.000  1.00  0.00     0.084 C 
ATOM     13  C   UNL     1      -4.033   0.234  -0.065  1.00  0.00     0.028 C 
BRANCH   8  14
ATOM     14  C   UNL     1       0.732  -1.121  -0.820  1.00  0.00     0.209 C 
ATOM     15  C   UNL     1       1.440  -2.486  -0.688  1.00  0.00     0.078 C 
BRANCH  14  16
ATOM     16  C   UNL     1       1.511  -0.013  -0.042  1.00  0.00     0.169 C 
ATOM     17  C   UNL     1       1.593  -0.232   1.465  1.00  0.00     0.045 C 
BRANCH  16  18
ATOM     18  O   UNL     1       2.842   0.126  -0.560  1.00  0.00    -0.387 OA
ATOM     19  H   UNL     1       3.335  -0.696  -0.410  1.00  0.00     0.211 HD
ENDBRANCH  16  18
ENDBRANCH  14  16
ENDBRANCH   8  14
ENDBRANCH   4   7
ENDBRANCH   2   3
ENDBRANCH   1   2
BRANCH   1  20
ATOM     20  C   UNL     1      -4.127  -3.462   4.526  1.00  0.00     0.023 C 
BRANCH  20  21
ATOM     21  C   UNL     1      -5.400  -3.200   5.320  1.00  0.00     0.116 C 
BRANCH  21  22
ATOM     22  N   UNL     1      -6.544  -3.958   4.837  1.00  0.00    -0.352 N 
ATOM     23  C   UNL     1      -7.569  -4.514   5.562  1.00  0.00     0.251 C 
ATOM     24  H   UNL     1      -6.590  -4.089   3.863  1.00  0.00     0.163 HD
ATOM     25  O   UNL     1      -8.411  -5.218   5.014  1.00  0.00    -0.269 OA
BRANCH  23  26
ATOM     26  C   UNL     1      -7.623  -4.292   7.019  1.00  0.00     0.039 A 
ATOM     27  C   UNL     1      -7.769  -5.395   7.862  1.00  0.00     0.014 A 
ATOM     28  C   UNL     1      -7.484  -3.006   7.548  1.00  0.00     0.014 A 
ATOM     29  C   UNL     1      -7.702  -5.217   9.244  1.00  0.00     0.010 A 
ATOM     30  C   UNL     1      -7.350  -2.839   8.922  1.00  0.00     0.010 A 
ATOM     31  C   UNL     1      -7.452  -3.943   9.781  1.00  0.00    -0.014 A 
BRANCH  31  32
ATOM     32  C   UNL     1      -7.279  -3.747  11.240  1.00  0.00     0.031 A 
ATOM     33  C   UNL     1      -8.268  -2.924  12.012  1.00  0.00     0.074 A 
ATOM     34  C   UNL     1      -6.188  -4.248  11.850  1.00  0.00     0.049 A 
ATOM     35  N   UNL     1      -8.250  -2.577  13.274  1.00  0.00    -0.248 NA
ATOM     36  C   UNL     1      -9.416  -2.396  11.259  1.00  0.00     0.031 C 
ATOM     37  C   UNL     1      -5.130  -5.018  11.193  1.00  0.00     0.029 A 
ATOM     38  N   UNL     1      -5.781  -4.174  13.158  1.00  0.00    -0.354 N 
ATOM     39  C   UNL     1      -9.371  -1.781  13.461  1.00  0.00     0.074 A 
ATOM     40  C   UNL     1     -10.021  -1.653  12.174  1.00  0.00     0.031 C 
ATOM     41  C   UNL     1      -4.205  -5.361  12.104  1.00  0.00     0.029 A 
ATOM     42  C   UNL     1      -4.587  -4.808  13.400  1.00  0.00     0.049 A 
ATOM     43  H   UNL     1      -6.296  -3.709  13.857  1.00  0.00     0.167 HD
ATOM     44  C   UNL     1      -9.829  -1.226  14.608  1.00  0.00     0.037 A 
ATOM     45  C   UNL     1      -3.878  -4.924  14.538  1.00  0.00     0.037 A 
ATOM     46  C   UNL     1      -9.194  -1.380  15.890  1.00  0.00     0.049 A 
ATOM     47  C   UNL     1      -4.411  -4.300  15.799  1.00  0.00     0.074 A 
ATOM     48  C   UNL     1      -9.617  -0.919  17.124  1.00  0.00     0.029 A 
ATOM     49  N   UNL     1      -7.995  -2.046  16.101  1.00  0.00    -0.354 N 
ATOM     50  N   UNL     1      -5.511  -3.613  15.981  1.00  0.00    -0.248 NA
ATOM     51  C   UNL     1      -3.603  -4.473  17.015  1.00  0.00     0.031 C 
ATOM     52  C   UNL     1      -8.654  -1.271  18.076  1.00  0.00     0.029 A 
ATOM     53  C   UNL     1      -7.652  -1.988  17.442  1.00  0.00     0.049 A 
ATOM     54  H   UNL     1      -7.467  -2.493  15.401  1.00  0.00     0.167 HD
ATOM     55  C   UNL     1      -5.542  -3.290  17.330  1.00  0.00     0.074 A 
ATOM     56  C   UNL     1      -4.356  -3.872  17.925  1.00  0.00     0.031 C 
ATOM     57  C   UNL     1      -6.468  -2.575  18.015  1.00  0.00     0.037 A 
BRANCH  44  58
ATOM     58  C   UNL     1     -11.083  -0.406  14.527  1.00  0.00     0.064 A 
ATOM     59  C   UNL     1     -12.334  -0.997  14.292  1.00  0.00     0.173 A 
ATOM     60  C   UNL     1     -11.038   0.984  14.715  1.00  0.00     0.173 A 
ATOM     61  F   UNL     1     -12.428  -2.320  14.093  1.00  0.00    -0.203 F 
ATOM     62  C   UNL     1     -13.489  -0.223  14.217  1.00  0.00     0.198 A 
ATOM     63  C   UNL     1     -12.200   1.750  14.668  1.00  0.00     0.198 A 
ATOM     64  F   UNL     1      -9.869   1.598  14.947  1.00  0.00    -0.203 F 
ATOM     65  F   UNL     1     -14.665  -0.804  13.941  1.00  0.00    -0.200 F 
ATOM     66  C   UNL     1     -13.422   1.148  14.412  1.00  0.00     0.200 A 
ATOM     67  F   UNL     1     -12.136   3.074  14.868  1.00  0.00    -0.200 F 
ATOM     68  F   UNL     1     -14.536   1.890  14.345  1.00  0.00    -0.200 F 
ENDBRANCH  44  58
BRANCH  45  69
ATOM     69  C   UNL     1      -2.603  -5.684  14.542  1.00  0.00     0.064 A 
ATOM     70  C   UNL     1      -2.511  -6.928  15.182  1.00  0.00     0.173 A 
ATOM     71  C   UNL     1      -1.455  -5.190  13.906  1.00  0.00     0.173 A 
ATOM     72  F   UNL     1      -3.578  -7.432  15.820  1.00  0.00    -0.203 F 
ATOM     73  C   UNL     1      -1.315  -7.642  15.200  1.00  0.00     0.198 A 
ATOM     74  C   UNL     1      -0.266  -5.917  13.903  1.00  0.00     0.198 A 
ATOM     75  F   UNL     1      -1.492  -4.007  13.276  1.00  0.00    -0.203 F 
ATOM     76  F   UNL     1      -1.245  -8.810  15.852  1.00  0.00    -0.200 F 
ATOM     77  C   UNL     1      -0.195  -7.139  14.556  1.00  0.00     0.200 A 
ATOM     78  F   UNL     1       0.811  -5.434  13.268  1.00  0.00    -0.200 F 
ATOM     79  F   UNL     1       0.954  -7.828  14.569  1.00  0.00    -0.200 F 
ENDBRANCH  45  69
BRANCH  57  80
ATOM     80  C   UNL     1      -6.247  -2.402  19.488  1.00  0.00     0.064 A 
ATOM     81  C   UNL     1      -5.257  -1.541  19.985  1.00  0.00     0.173 A 
ATOM     82  C   UNL     1      -7.061  -3.072  20.413  1.00  0.00     0.173 A 
ATOM     83  F   UNL     1      -4.442  -0.891  19.140  1.00  0.00    -0.203 F 
ATOM     84  C   UNL     1      -5.076  -1.375  21.355  1.00  0.00     0.198 A 
ATOM     85  C   UNL     1      -6.896  -2.882  21.782  1.00  0.00     0.198 A 
ATOM     86  F   UNL     1      -8.025  -3.902  19.988  1.00  0.00    -0.203 F 
ATOM     87  F   UNL     1      -4.096  -0.581  21.808  1.00  0.00    -0.200 F 
ATOM     88  C   UNL     1      -5.900  -2.039  22.252  1.00  0.00     0.200 A 
ATOM     89  F   UNL     1      -7.700  -3.516  22.647  1.00  0.00    -0.200 F 
ATOM     90  F   UNL     1      -5.729  -1.872  23.570  1.00  0.00    -0.200 F 
ENDBRANCH  57  80
ENDBRANCH  31  32
ENDBRANCH  23  26
ENDBRANCH  21  22
ENDBRANCH  20  21
ENDBRANCH   1  20
TORSDOF 14
