REMARK SMILES CCCn1nc(C(=O)NCCCCNC(=O)c2ccc(-c3c4nc(c(-c5c(F)c(F)c(F)c(F)c5F)c5ccc([nH]5)c(-c5c(F)c(F)c(F)c(F)c5F)c5nc(c(-c6c(F)c(F)c(F)c(F)c6F)c6ccc3[nH]6)C=C5)C=C4)cc2)c2c1CC[C@@H]([NH+]1CC[NH+](Cc3ccccn3)CC1)C2
REMARK SMILES IDX 11 1 10 2 9 3 7 4 8 5 6 7 4 8 5 9 81 10 80 11 82 12 98 13
REMARK SMILES IDX 83 14 84 15 3 16 2 17 1 18 85 19 86 20 97 21 87 23 96 24
REMARK SMILES IDX 88 25 89 27 90 28 91 29 95 30 92 31 94 32 93 33 12 34 13 35
REMARK SMILES IDX 14 36 15 37 16 39 17 40 18 41 79 42 19 43 78 44 20 45 21 46
REMARK SMILES IDX 22 47 72 48 23 49 77 50 71 51 73 52 24 53 76 54 70 55 69 56
REMARK SMILES IDX 25 58 57 59 37 60 56 61 38 62 41 63 55 64 74 65 39 66 40 67
REMARK SMILES IDX 54 69 75 70 42 71 26 72 27 73 35 74 28 75 29 76 33 77 36 78
REMARK SMILES IDX 30 79 31 80 34 81 32 82 58 83 59 84 67 85 60 86 61 87 65 88
REMARK SMILES IDX 68 89 62 90 63 91 66 92 64 93 43 94 44 95 52 96 45 97 46 98
REMARK SMILES IDX 50 99 53 100 47 101 48 102 51 103 49 104
REMARK H PARENT 9 6 85 22 88 26 14 38 73 57 41 68
REMARK Flexibility Score: inf
ROOT
ATOM      1  C   UNL     1      -2.009  -7.942  -0.431  1.00  0.00     0.023 C 
ENDROOT
BRANCH   1   2
ATOM      2  C   UNL     1      -0.507  -7.832  -0.091  1.00  0.00     0.116 C 
BRANCH   2   3
ATOM      3  N   UNL     1       0.331  -7.486  -1.236  1.00  0.00    -0.351 N 
ATOM      4  C   UNL     1       0.949  -6.355  -1.744  1.00  0.00     0.272 C 
ATOM      5  O   UNL     1       1.792  -6.623  -2.612  1.00  0.00    -0.267 OA
ATOM      6  H   UNL     1       0.504  -8.272  -1.803  1.00  0.00     0.163 HD
BRANCH   4   7
ATOM      7  C   UNL     1       0.661  -4.936  -1.377  1.00  0.00     0.153 A 
ATOM      8  N   UNL     1       0.877  -2.777  -1.564  1.00  0.00    -0.269 N 
ATOM      9  N   UNL     1       1.464  -3.958  -1.865  1.00  0.00    -0.167 NA
ATOM     10  C   UNL     1      -0.236  -2.953  -0.800  1.00  0.00     0.043 A 
ATOM     11  C   UNL     1      -0.403  -4.317  -0.670  1.00  0.00     0.012 A 
ATOM     12  C   UNL     1      -1.208  -1.936  -0.324  1.00  0.00     0.062 C 
ATOM     13  C   UNL     1      -1.592  -4.895  -0.018  1.00  0.00     0.105 C 
ATOM     14  C   UNL     1      -2.143  -2.555   0.717  1.00  0.00     0.072 C 
ATOM     15  C   UNL     1      -2.725  -3.916   0.321  1.00  0.00     0.189 C 
BRANCH   8  16
ATOM     16  C   UNL     1       1.390  -1.593  -2.239  1.00  0.00     0.144 C 
BRANCH  16  17
ATOM     17  C   UNL     1       1.080  -0.200  -1.681  1.00  0.00     0.020 C 
ATOM     18  C   UNL     1       1.694   0.065  -0.314  1.00  0.00     0.006 C 
ENDBRANCH  16  17
ENDBRANCH   8  16
BRANCH  15  19
ATOM     19  N   UNL     1      -3.799  -3.933  -0.673  1.00  0.00    -0.323 N 
ATOM     20  C   UNL     1      -3.545  -3.737  -2.091  1.00  0.00     0.324 C 
ATOM     21  C   UNL     1      -5.113  -3.505  -0.200  1.00  0.00     0.324 C 
ATOM     22  H   UNL     1      -3.820  -4.951  -0.739  1.00  0.00     0.348 HD
ATOM     23  C   UNL     1      -4.074  -2.421  -2.709  1.00  0.00     0.324 C 
ATOM     24  C   UNL     1      -6.002  -2.808  -1.252  1.00  0.00     0.324 C 
ATOM     25  N   UNL     1      -5.317  -1.886  -2.157  1.00  0.00    -0.321 N 
ATOM     26  H   UNL     1      -5.941  -1.831  -2.962  1.00  0.00     0.348 HD
BRANCH  25  27
ATOM     27  C   UNL     1      -5.288  -0.474  -1.751  1.00  0.00     0.319 C 
BRANCH  27  28
ATOM     28  C   UNL     1      -4.674  -0.093  -0.411  1.00  0.00     0.095 A 
ATOM     29  C   UNL     1      -3.469   0.610  -0.351  1.00  0.00     0.030 A 
ATOM     30  N   UNL     1      -5.371  -0.402   0.715  1.00  0.00    -0.255 NA
ATOM     31  C   UNL     1      -2.945   0.962   0.894  1.00  0.00     0.004 A 
ATOM     32  C   UNL     1      -4.836  -0.058   1.909  1.00  0.00     0.111 A 
ATOM     33  C   UNL     1      -3.634   0.612   2.049  1.00  0.00     0.020 A 
ENDBRANCH  27  28
ENDBRANCH  25  27
ENDBRANCH  15  19
ENDBRANCH   4   7
ENDBRANCH   2   3
ENDBRANCH   1   2
BRANCH   1  34
ATOM     34  C   UNL     1      -2.654  -9.329  -0.370  1.00  0.00     0.023 C 
BRANCH  34  35
ATOM     35  C   UNL     1      -2.939  -9.827   1.044  1.00  0.00     0.116 C 
BRANCH  35  36
ATOM     36  N   UNL     1      -4.015  -9.098   1.722  1.00  0.00    -0.352 N 
ATOM     37  C   UNL     1      -4.248  -9.047   3.083  1.00  0.00     0.251 C 
ATOM     38  H   UNL     1      -4.635  -8.592   1.149  1.00  0.00     0.163 HD
ATOM     39  O   UNL     1      -5.338  -8.739   3.552  1.00  0.00    -0.269 OA
BRANCH  37  40
ATOM     40  C   UNL     1      -3.123  -9.379   3.967  1.00  0.00     0.039 A 
ATOM     41  C   UNL     1      -3.191 -10.476   4.827  1.00  0.00     0.014 A 
ATOM     42  C   UNL     1      -1.939  -8.668   3.782  1.00  0.00     0.014 A 
ATOM     43  C   UNL     1      -2.017 -10.932   5.425  1.00  0.00     0.010 A 
ATOM     44  C   UNL     1      -0.768  -9.174   4.309  1.00  0.00     0.010 A 
ATOM     45  C   UNL     1      -0.794 -10.306   5.135  1.00  0.00    -0.014 A 
BRANCH  45  46
ATOM     46  C   UNL     1       0.465 -10.916   5.583  1.00  0.00     0.031 A 
ATOM     47  C   UNL     1       0.714 -12.350   5.215  1.00  0.00     0.074 A 
ATOM     48  C   UNL     1       1.498 -10.200   6.075  1.00  0.00     0.049 A 
ATOM     49  N   UNL     1       1.056 -13.329   5.993  1.00  0.00    -0.248 NA
ATOM     50  C   UNL     1       0.569 -12.743   3.805  1.00  0.00     0.031 C 
ATOM     51  C   UNL     1       1.606  -8.746   6.227  1.00  0.00     0.029 A 
ATOM     52  N   UNL     1       2.744 -10.638   6.420  1.00  0.00    -0.354 N 
ATOM     53  C   UNL     1       1.296 -14.433   5.171  1.00  0.00     0.074 A 
ATOM     54  C   UNL     1       0.909 -14.034   3.841  1.00  0.00     0.031 C 
ATOM     55  C   UNL     1       2.902  -8.410   6.397  1.00  0.00     0.029 A 
ATOM     56  C   UNL     1       3.683  -9.626   6.534  1.00  0.00     0.049 A 
ATOM     57  H   UNL     1       2.956 -11.587   6.573  1.00  0.00     0.167 HD
ATOM     58  C   UNL     1       1.935 -15.553   5.620  1.00  0.00     0.037 A 
ATOM     59  C   UNL     1       5.018  -9.764   6.701  1.00  0.00     0.037 A 
ATOM     60  C   UNL     1       1.948 -15.620   7.056  1.00  0.00     0.049 A 
ATOM     61  C   UNL     1       5.269 -11.118   7.243  1.00  0.00     0.074 A 
ATOM     62  C   UNL     1       0.979 -15.656   8.040  1.00  0.00     0.029 A 
ATOM     63  N   UNL     1       3.121 -15.366   7.722  1.00  0.00    -0.354 N 
ATOM     64  N   UNL     1       4.938 -11.498   8.445  1.00  0.00    -0.248 NA
ATOM     65  C   UNL     1       5.565 -12.193   6.308  1.00  0.00     0.031 C 
ATOM     66  C   UNL     1       1.528 -14.912   9.126  1.00  0.00     0.029 A 
ATOM     67  C   UNL     1       2.804 -14.505   8.739  1.00  0.00     0.049 A 
ATOM     68  H   UNL     1       4.011 -15.730   7.511  1.00  0.00     0.167 HD
ATOM     69  C   UNL     1       4.568 -12.825   8.303  1.00  0.00     0.074 A 
ATOM     70  C   UNL     1       5.096 -13.230   7.005  1.00  0.00     0.031 C 
ATOM     71  C   UNL     1       3.628 -13.386   9.120  1.00  0.00     0.037 A 
BRANCH  58  72
ATOM     72  C   UNL     1       2.797 -16.470   4.784  1.00  0.00     0.064 A 
ATOM     73  C   UNL     1       3.237 -17.700   5.322  1.00  0.00     0.173 A 
ATOM     74  C   UNL     1       3.450 -16.058   3.605  1.00  0.00     0.173 A 
ATOM     75  F   UNL     1       2.701 -18.183   6.453  1.00  0.00    -0.203 F 
ATOM     76  C   UNL     1       4.301 -18.416   4.766  1.00  0.00     0.198 A 
ATOM     77  C   UNL     1       4.477 -16.803   3.022  1.00  0.00     0.198 A 
ATOM     78  F   UNL     1       3.196 -14.872   3.037  1.00  0.00    -0.203 F 
ATOM     79  F   UNL     1       4.764 -19.511   5.385  1.00  0.00    -0.200 F 
ATOM     80  C   UNL     1       4.925 -17.964   3.619  1.00  0.00     0.200 A 
ATOM     81  F   UNL     1       5.082 -16.341   1.918  1.00  0.00    -0.200 F 
ATOM     82  F   UNL     1       5.983 -18.614   3.118  1.00  0.00    -0.200 F 
ENDBRANCH  58  72
BRANCH  59  83
ATOM     83  C   UNL     1       6.097  -8.861   6.254  1.00  0.00     0.064 A 
ATOM     84  C   UNL     1       7.374  -8.910   6.831  1.00  0.00     0.173 A 
ATOM     85  C   UNL     1       5.965  -8.093   5.080  1.00  0.00     0.173 A 
ATOM     86  F   UNL     1       7.592  -9.654   7.925  1.00  0.00    -0.203 F 
ATOM     87  C   UNL     1       8.460  -8.244   6.258  1.00  0.00     0.198 A 
ATOM     88  C   UNL     1       7.047  -7.419   4.515  1.00  0.00     0.198 A 
ATOM     89  F   UNL     1       4.803  -8.055   4.410  1.00  0.00    -0.203 F 
ATOM     90  F   UNL     1       9.678  -8.361   6.805  1.00  0.00    -0.200 F 
ATOM     91  C   UNL     1       8.298  -7.505   5.097  1.00  0.00     0.200 A 
ATOM     92  F   UNL     1       6.882  -6.733   3.376  1.00  0.00    -0.200 F 
ATOM     93  F   UNL     1       9.350  -6.910   4.520  1.00  0.00    -0.200 F 
ENDBRANCH  59  83
BRANCH  71  94
ATOM     94  C   UNL     1       3.223 -12.628  10.351  1.00  0.00     0.064 A 
ATOM     95  C   UNL     1       2.616 -11.361  10.325  1.00  0.00     0.173 A 
ATOM     96  C   UNL     1       3.329 -13.265  11.595  1.00  0.00     0.173 A 
ATOM     97  F   UNL     1       2.372 -10.736   9.167  1.00  0.00    -0.203 F 
ATOM     98  C   UNL     1       2.194 -10.735  11.495  1.00  0.00     0.198 A 
ATOM     99  C   UNL     1       2.871 -12.655  12.759  1.00  0.00     0.198 A 
ATOM    100  F   UNL     1       3.840 -14.504  11.675  1.00  0.00    -0.203 F 
ATOM    101  F   UNL     1       1.638  -9.516  11.443  1.00  0.00    -0.200 F 
ATOM    102  C   UNL     1       2.317 -11.385  12.711  1.00  0.00     0.200 A 
ATOM    103  F   UNL     1       2.943 -13.308  13.927  1.00  0.00    -0.200 F 
ATOM    104  F   UNL     1       1.878 -10.799  13.834  1.00  0.00    -0.200 F 
ENDBRANCH  71  94
ENDBRANCH  45  46
ENDBRANCH  37  40
ENDBRANCH  35  36
ENDBRANCH  34  35
ENDBRANCH   1  34
TORSDOF 16
