REMARK SMILES O=C(CN(CC(F)(F)F)c1nc(-c2ccccc2)cs1)NCCCCNC(=O)c1ccc(-c2c3nc(c(-c4c(F)c(F)c(F)c(F)c4F)c4ccc([nH]4)c(-c4c(F)c(F)c(F)c(F)c4F)c4nc(c(-c5c(F)c(F)c(F)c(F)c5F)c5ccc2[nH]5)C=C4)C=C3)cc1
REMARK SMILES IDX 23 1 22 2 21 3 1 4 2 5 3 7 4 8 5 9 6 10 7 11 8 12 9 13 10 14
REMARK SMILES IDX 11 15 20 16 12 17 19 18 13 19 14 20 18 21 15 22 17 23 16 24
REMARK SMILES IDX 24 25 25 26 26 27 27 28 28 30 29 31 30 32 91 33 31 34 90 35
REMARK SMILES IDX 32 36 33 37 34 38 84 39 35 40 89 41 83 42 85 43 36 44 88 45
REMARK SMILES IDX 82 46 81 47 37 49 69 50 49 51 68 52 50 53 53 54 67 55 86 56
REMARK SMILES IDX 51 57 52 58 66 60 87 61 54 62 38 63 39 64 47 65 40 66 41 67
REMARK SMILES IDX 45 68 48 69 42 70 43 71 46 72 44 73 70 74 71 75 79 76 72 77
REMARK SMILES IDX 73 78 77 79 80 80 74 81 75 82 78 83 76 84 55 85 56 86 64 87
REMARK SMILES IDX 57 88 58 89 62 90 65 91 59 92 60 93 63 94 61 95
REMARK H PARENT 21 6 26 29 85 48 53 59
REMARK Flexibility Score: inf
ROOT
ATOM      1  C   UNL     1       2.569   2.462   2.312  1.00  0.00     0.023 C 
ENDROOT
BRANCH   1   2
ATOM      2  C   UNL     1       2.196   2.233   0.847  1.00  0.00     0.116 C 
BRANCH   2   3
ATOM      3  N   UNL     1       2.886   1.109   0.247  1.00  0.00    -0.355 N 
ATOM      4  O   UNL     1       1.168  -0.390   0.522  1.00  0.00    -0.273 OA
ATOM      5  C   UNL     1       2.268  -0.110   0.049  1.00  0.00     0.239 C 
ATOM      6  H   UNL     1       3.824   1.219  -0.029  1.00  0.00     0.163 HD
BRANCH   5   7
ATOM      7  C   UNL     1       3.115  -1.155  -0.701  1.00  0.00     0.219 C 
BRANCH   7   8
ATOM      8  N   UNL     1       4.003  -0.595  -1.742  1.00  0.00    -0.330 N 
BRANCH   8   9
ATOM      9  C   UNL     1       5.452  -0.876  -1.666  1.00  0.00     0.234 C 
BRANCH   9  10
ATOM     10  C   UNL     1       6.004  -2.104  -2.410  1.00  0.00     0.406 C 
ATOM     11  F   UNL     1       6.297  -1.834  -3.700  1.00  0.00    -0.169 F 
ATOM     12  F   UNL     1       7.164  -2.505  -1.830  1.00  0.00    -0.169 F 
ATOM     13  F   UNL     1       5.156  -3.153  -2.374  1.00  0.00    -0.169 F 
ENDBRANCH   9  10
ENDBRANCH   8   9
BRANCH   8  14
ATOM     14  C   UNL     1       3.416  -0.064  -2.852  1.00  0.00     0.186 A 
ATOM     15  N   UNL     1       2.483   0.860  -2.781  1.00  0.00    -0.220 NA
ATOM     16  S   UNL     1       3.788  -0.548  -4.469  1.00  0.00    -0.105 S 
ATOM     17  C   UNL     1       2.028   1.208  -4.041  1.00  0.00     0.083 A 
ATOM     18  C   UNL     1       2.615   0.525  -5.083  1.00  0.00     0.097 A 
BRANCH  17  19
ATOM     19  C   UNL     1       1.060   2.271  -4.240  1.00  0.00     0.001 A 
ATOM     20  C   UNL     1      -0.033   2.107  -5.102  1.00  0.00     0.010 A 
ATOM     21  C   UNL     1       1.243   3.498  -3.591  1.00  0.00     0.010 A 
ATOM     22  C   UNL     1      -0.915   3.166  -5.328  1.00  0.00     0.001 A 
ATOM     23  C   UNL     1       0.366   4.559  -3.826  1.00  0.00     0.001 A 
ATOM     24  C   UNL     1      -0.709   4.393  -4.697  1.00  0.00     0.000 A 
ENDBRANCH  17  19
ENDBRANCH   8  14
ENDBRANCH   7   8
ENDBRANCH   5   7
ENDBRANCH   2   3
ENDBRANCH   1   2
BRANCH   1  25
ATOM     25  C   UNL     1       4.047   2.764   2.571  1.00  0.00     0.023 C 
BRANCH  25  26
ATOM     26  C   UNL     1       4.625   3.951   1.808  1.00  0.00     0.116 C 
BRANCH  26  27
ATOM     27  N   UNL     1       4.018   5.223   2.169  1.00  0.00    -0.352 N 
ATOM     28  C   UNL     1       4.611   6.412   2.520  1.00  0.00     0.251 C 
ATOM     29  H   UNL     1       3.033   5.233   2.161  1.00  0.00     0.163 HD
ATOM     30  O   UNL     1       3.920   7.352   2.910  1.00  0.00    -0.269 OA
BRANCH  28  31
ATOM     31  C   UNL     1       6.084   6.564   2.469  1.00  0.00     0.039 A 
ATOM     32  C   UNL     1       6.732   7.202   3.531  1.00  0.00     0.014 A 
ATOM     33  C   UNL     1       6.828   6.091   1.385  1.00  0.00     0.014 A 
ATOM     34  C   UNL     1       8.127   7.294   3.543  1.00  0.00     0.010 A 
ATOM     35  C   UNL     1       8.221   6.114   1.435  1.00  0.00     0.010 A 
ATOM     36  C   UNL     1       8.887   6.712   2.516  1.00  0.00    -0.014 A 
BRANCH  36  37
ATOM     37  C   UNL     1      10.374   6.704   2.565  1.00  0.00     0.031 A 
ATOM     38  C   UNL     1      11.176   7.413   1.507  1.00  0.00     0.074 A 
ATOM     39  C   UNL     1      11.007   6.003   3.527  1.00  0.00     0.049 A 
ATOM     40  N   UNL     1      12.475   7.460   1.344  1.00  0.00    -0.248 NA
ATOM     41  C   UNL     1      10.417   8.146   0.482  1.00  0.00     0.031 C 
ATOM     42  C   UNL     1      10.348   5.239   4.587  1.00  0.00     0.029 A 
ATOM     43  N   UNL     1      12.347   5.810   3.764  1.00  0.00    -0.354 N 
ATOM     44  C   UNL     1      12.686   8.212   0.195  1.00  0.00     0.074 A 
ATOM     45  C   UNL     1      11.382   8.556  -0.329  1.00  0.00     0.031 C 
ATOM     46  C   UNL     1      11.283   4.683   5.375  1.00  0.00     0.029 A 
ATOM     47  C   UNL     1      12.605   5.011   4.852  1.00  0.00     0.049 A 
ATOM     48  H   UNL     1      13.055   6.207   3.207  1.00  0.00     0.167 HD
ATOM     49  C   UNL     1      13.860   8.598  -0.361  1.00  0.00     0.037 A 
ATOM     50  C   UNL     1      13.775   4.582   5.364  1.00  0.00     0.037 A 
ATOM     51  C   UNL     1      15.157   8.273   0.175  1.00  0.00     0.049 A 
ATOM     52  C   UNL     1      15.064   5.007   4.712  1.00  0.00     0.074 A 
ATOM     53  C   UNL     1      16.402   8.672  -0.281  1.00  0.00     0.029 A 
ATOM     54  N   UNL     1      15.377   7.465   1.280  1.00  0.00    -0.354 N 
ATOM     55  N   UNL     1      15.250   5.778   3.669  1.00  0.00    -0.248 NA
ATOM     56  C   UNL     1      16.307   4.504   5.314  1.00  0.00     0.031 C 
ATOM     57  C   UNL     1      17.376   8.056   0.511  1.00  0.00     0.029 A 
ATOM     58  C   UNL     1      16.739   7.327   1.501  1.00  0.00     0.049 A 
ATOM     59  H   UNL     1      14.671   7.050   1.827  1.00  0.00     0.167 HD
ATOM     60  C   UNL     1      16.626   5.882   3.511  1.00  0.00     0.074 A 
ATOM     61  C   UNL     1      17.228   5.105   4.575  1.00  0.00     0.031 C 
ATOM     62  C   UNL     1      17.328   6.560   2.570  1.00  0.00     0.037 A 
BRANCH  49  63
ATOM     63  C   UNL     1      13.801   9.415  -1.621  1.00  0.00     0.064 A 
ATOM     64  C   UNL     1      13.326  10.736  -1.624  1.00  0.00     0.173 A 
ATOM     65  C   UNL     1      14.271   8.886  -2.833  1.00  0.00     0.173 A 
ATOM     66  F   UNL     1      12.857  11.287  -0.495  1.00  0.00    -0.203 F 
ATOM     67  C   UNL     1      13.295  11.484  -2.798  1.00  0.00     0.198 A 
ATOM     68  C   UNL     1      14.271   9.649  -3.998  1.00  0.00     0.198 A 
ATOM     69  F   UNL     1      14.743   7.632  -2.887  1.00  0.00    -0.203 F 
ATOM     70  F   UNL     1      12.789  12.725  -2.786  1.00  0.00    -0.200 F 
ATOM     71  C   UNL     1      13.775  10.944  -3.982  1.00  0.00     0.200 A 
ATOM     72  F   UNL     1      14.750   9.131  -5.137  1.00  0.00    -0.200 F 
ATOM     73  F   UNL     1      13.754  11.669  -5.108  1.00  0.00    -0.200 F 
ENDBRANCH  49  63
BRANCH  50  74
ATOM     74  C   UNL     1      13.788   3.713   6.572  1.00  0.00     0.064 A 
ATOM     75  C   UNL     1      14.302   4.181   7.790  1.00  0.00     0.173 A 
ATOM     76  C   UNL     1      13.308   2.396   6.531  1.00  0.00     0.173 A 
ATOM     77  F   UNL     1      14.794   5.426   7.874  1.00  0.00    -0.203 F 
ATOM     78  C   UNL     1      14.362   3.357   8.912  1.00  0.00     0.198 A 
ATOM     79  C   UNL     1      13.338   1.583   7.663  1.00  0.00     0.198 A 
ATOM     80  F   UNL     1      12.802   1.899   5.393  1.00  0.00    -0.203 F 
ATOM     81  F   UNL     1      14.910   3.812  10.046  1.00  0.00    -0.200 F 
ATOM     82  C   UNL     1      13.874   2.060   8.849  1.00  0.00     0.200 A 
ATOM     83  F   UNL     1      12.851   0.336   7.602  1.00  0.00    -0.200 F 
ATOM     84  F   UNL     1      13.930   1.268   9.928  1.00  0.00    -0.200 F 
ENDBRANCH  50  74
BRANCH  62  85
ATOM     85  C   UNL     1      18.827   6.533   2.671  1.00  0.00     0.064 A 
ATOM     86  C   UNL     1      19.567   5.372   2.404  1.00  0.00     0.173 A 
ATOM     87  C   UNL     1      19.535   7.699   3.002  1.00  0.00     0.173 A 
ATOM     88  F   UNL     1      18.939   4.226   2.097  1.00  0.00    -0.203 F 
ATOM     89  C   UNL     1      20.957   5.371   2.494  1.00  0.00     0.198 A 
ATOM     90  C   UNL     1      20.926   7.704   3.057  1.00  0.00     0.198 A 
ATOM     91  F   UNL     1      18.878   8.840   3.260  1.00  0.00    -0.203 F 
ATOM     92  F   UNL     1      21.639   4.236   2.288  1.00  0.00    -0.200 F 
ATOM     93  C   UNL     1      21.635   6.538   2.812  1.00  0.00     0.200 A 
ATOM     94  F   UNL     1      21.580   8.837   3.347  1.00  0.00    -0.200 F 
ATOM     95  F   UNL     1      22.973   6.538   2.889  1.00  0.00    -0.200 F 
ENDBRANCH  62  85
ENDBRANCH  36  37
ENDBRANCH  28  31
ENDBRANCH  26  27
ENDBRANCH  25  26
ENDBRANCH   1  25
TORSDOF 16
