REMARK SMILES Cc1ccc(-c2csc(NC(=O)[C@H]3[C@@H](C(=O)NCCCCNC(=O)c4ccc(-c5c6nc(c(-c7c(F)c(F)c(F)c(F)c7F)c7ccc([nH]7)c(-c7c(F)c(F)c(F)c(F)c7F)c7nc(c(-c8c(F)c(F)c(F)c(F)c8F)c8ccc5[nH]8)C=C7)C=C6)cc4)[C@H]4C=C[C@@H]3C4)c2C(=O)NC2CC2)cc1
REMARK SMILES IDX 18 1 17 2 15 3 16 4 14 6 13 7 91 8 88 9 90 10 92 11 89 12
REMARK SMILES IDX 11 13 10 14 12 16 9 17 6 18 7 19 93 20 8 21 5 22 1 23 2 24
REMARK SMILES IDX 3 25 101 26 4 27 100 28 94 29 95 30 96 31 97 33 98 34 99 35
REMARK SMILES IDX 19 36 20 37 21 38 22 39 23 40 24 42 25 43 26 44 87 45 27 46
REMARK SMILES IDX 86 47 28 48 29 49 30 50 80 51 31 52 85 53 79 54 81 55 32 56
REMARK SMILES IDX 84 57 78 58 77 59 33 61 65 62 45 63 64 64 46 65 49 66 63 67
REMARK SMILES IDX 82 68 47 69 48 70 62 72 83 73 50 74 34 75 35 76 43 77 36 78
REMARK SMILES IDX 37 79 41 80 44 81 38 82 39 83 42 84 40 85 66 86 67 87 75 88
REMARK SMILES IDX 68 89 69 90 73 91 76 92 70 93 71 94 74 95 72 96 51 97 52 98
REMARK SMILES IDX 60 99 53 100 54 101 58 102 61 103 55 104 56 105 59 106
REMARK SMILES IDX 57 107
REMARK H PARENT 17 5 10 15 96 32 22 41 81 60 49 71
REMARK Flexibility Score: inf
ROOT
ATOM      1  C   UNL     1      -4.331   1.493   0.193  1.00  0.00     0.116 C 
ENDROOT
BRANCH   1   2
ATOM      2  N   UNL     1      -5.079   1.327  -1.039  1.00  0.00    -0.356 N 
ATOM      3  C   UNL     1      -6.415   1.153  -1.268  1.00  0.00     0.224 C 
ATOM      4  O   UNL     1      -6.756   0.966  -2.437  1.00  0.00    -0.275 OA
ATOM      5  H   UNL     1      -4.527   1.341  -1.854  1.00  0.00     0.163 HD
BRANCH   3   6
ATOM      6  C   UNL     1      -7.409   1.333  -0.122  1.00  0.00     0.098 C 
ATOM      7  C   UNL     1      -8.604   0.309   0.054  1.00  0.00     0.099 C 
ATOM      8  C   UNL     1      -9.836   1.248  -0.085  1.00  0.00     0.025 C 
ATOM      9  C   UNL     1      -8.150   2.696  -0.294  1.00  0.00     0.025 C 
ATOM     10  C   UNL     1      -9.918   1.814  -1.476  1.00  0.00    -0.027 C 
ATOM     11  C   UNL     1      -9.331   2.499   0.652  1.00  0.00     0.017 C 
ATOM     12  C   UNL     1      -8.928   2.708  -1.593  1.00  0.00    -0.027 C 
BRANCH   7  13
ATOM     13  C   UNL     1      -8.510  -0.954  -0.803  1.00  0.00     0.229 C 
ATOM     14  N   UNL     1      -9.614  -1.641  -1.221  1.00  0.00    -0.317 N 
ATOM     15  H   UNL     1      -9.496  -2.141  -2.061  1.00  0.00     0.170 HD
ATOM     16  O   UNL     1      -7.406  -1.433  -1.091  1.00  0.00    -0.274 OA
BRANCH  14  17
ATOM     17  C   UNL     1     -10.870  -1.746  -0.654  1.00  0.00     0.108 A 
ATOM     18  C   UNL     1     -13.165  -1.954  -0.327  1.00  0.00     0.007 A 
ATOM     19  C   UNL     1     -12.696  -1.699   0.951  1.00  0.00     0.076 A 
ATOM     20  C   UNL     1     -12.074  -2.064  -1.290  1.00  0.00     0.082 A 
ATOM     21  S   UNL     1     -11.003  -1.696   1.040  1.00  0.00    -0.125 S 
BRANCH  18  22
ATOM     22  C   UNL     1     -14.609  -2.093  -0.481  1.00  0.00    -0.017 A 
ATOM     23  C   UNL     1     -18.719  -3.075  -1.284  1.00  0.00     0.044 C 
ATOM     24  C   UNL     1     -17.336  -2.637  -0.901  1.00  0.00    -0.051 A 
ATOM     25  C   UNL     1     -16.598  -3.411  -0.004  1.00  0.00     0.004 A 
ATOM     26  C   UNL     1     -16.722  -1.536  -1.520  1.00  0.00     0.004 A 
ATOM     27  C   UNL     1     -15.256  -3.123   0.224  1.00  0.00     0.009 A 
ATOM     28  C   UNL     1     -15.361  -1.262  -1.314  1.00  0.00     0.009 A 
ENDBRANCH  18  22
BRANCH  20  29
ATOM     29  C   UNL     1     -12.083  -2.201  -2.751  1.00  0.00     0.255 C 
ATOM     30  O   UNL     1     -11.504  -1.351  -3.439  1.00  0.00    -0.269 OA
ATOM     31  N   UNL     1     -12.583  -3.258  -3.472  1.00  0.00    -0.349 N 
ATOM     32  H   UNL     1     -12.445  -3.116  -4.436  1.00  0.00     0.164 HD
BRANCH  31  33
ATOM     33  C   UNL     1     -13.240  -4.497  -3.238  1.00  0.00     0.082 C 
ATOM     34  C   UNL     1     -13.783  -5.064  -1.976  1.00  0.00     0.027 C 
ATOM     35  C   UNL     1     -14.720  -4.455  -2.981  1.00  0.00     0.027 C 
ENDBRANCH  31  33
ENDBRANCH  20  29
ENDBRANCH  14  17
ENDBRANCH   7  13
ENDBRANCH   3   6
ENDBRANCH   1   2
BRANCH   1  36
ATOM     36  C   UNL     1      -3.692   0.182   0.670  1.00  0.00     0.023 C 
BRANCH  36  37
ATOM     37  C   UNL     1      -2.748  -0.490  -0.335  1.00  0.00     0.023 C 
BRANCH  37  38
ATOM     38  C   UNL     1      -1.523   0.332  -0.722  1.00  0.00     0.116 C 
BRANCH  38  39
ATOM     39  N   UNL     1      -0.366   0.168   0.147  1.00  0.00    -0.352 N 
ATOM     40  C   UNL     1       0.828   0.875   0.172  1.00  0.00     0.251 C 
ATOM     41  H   UNL     1      -0.441  -0.551   0.816  1.00  0.00     0.163 HD
ATOM     42  O   UNL     1       1.731   0.527   0.914  1.00  0.00    -0.269 OA
BRANCH  40  43
ATOM     43  C   UNL     1       0.955   2.138  -0.604  1.00  0.00     0.039 A 
ATOM     44  C   UNL     1       1.515   3.251   0.039  1.00  0.00     0.014 A 
ATOM     45  C   UNL     1       0.360   2.285  -1.852  1.00  0.00     0.014 A 
ATOM     46  C   UNL     1       1.243   4.531  -0.444  1.00  0.00     0.010 A 
ATOM     47  C   UNL     1       0.001   3.549  -2.276  1.00  0.00     0.010 A 
ATOM     48  C   UNL     1       0.382   4.668  -1.532  1.00  0.00    -0.014 A 
BRANCH  48  49
ATOM     49  C   UNL     1      -0.300   5.914  -1.860  1.00  0.00     0.031 A 
ATOM     50  C   UNL     1       0.063   6.700  -3.055  1.00  0.00     0.074 A 
ATOM     51  C   UNL     1      -1.369   6.289  -1.120  1.00  0.00     0.049 A 
ATOM     52  N   UNL     1      -0.133   7.973  -3.155  1.00  0.00    -0.248 NA
ATOM     53  C   UNL     1       0.690   6.117  -4.237  1.00  0.00     0.031 C 
ATOM     54  C   UNL     1      -2.361   7.307  -1.457  1.00  0.00     0.029 A 
ATOM     55  N   UNL     1      -1.683   5.920   0.199  1.00  0.00    -0.354 N 
ATOM     56  C   UNL     1       0.059   8.314  -4.471  1.00  0.00     0.074 A 
ATOM     57  C   UNL     1       0.643   7.145  -5.091  1.00  0.00     0.031 C 
ATOM     58  C   UNL     1      -2.974   7.704  -0.332  1.00  0.00     0.029 A 
ATOM     59  C   UNL     1      -2.299   7.055   0.776  1.00  0.00     0.049 A 
ATOM     60  H   UNL     1      -1.511   5.053   0.632  1.00  0.00     0.167 HD
ATOM     61  C   UNL     1      -0.430   9.494  -4.945  1.00  0.00     0.037 A 
ATOM     62  C   UNL     1      -1.754   7.703   1.845  1.00  0.00     0.037 A 
ATOM     63  C   UNL     1      -1.121  10.253  -3.912  1.00  0.00     0.049 A 
ATOM     64  C   UNL     1      -1.446   9.158   1.592  1.00  0.00     0.074 A 
ATOM     65  C   UNL     1      -2.461  10.373  -3.584  1.00  0.00     0.029 A 
ATOM     66  N   UNL     1      -0.406  10.764  -2.835  1.00  0.00    -0.354 N 
ATOM     67  N   UNL     1      -1.322   9.674   0.402  1.00  0.00    -0.248 NA
ATOM     68  C   UNL     1      -1.221  10.139   2.650  1.00  0.00     0.031 C 
ATOM     69  C   UNL     1      -2.553  10.942  -2.293  1.00  0.00     0.029 A 
ATOM     70  C   UNL     1      -1.269  11.177  -1.838  1.00  0.00     0.049 A 
ATOM     71  H   UNL     1       0.576  10.824  -2.789  1.00  0.00     0.167 HD
ATOM     72  C   UNL     1      -0.994  11.002   0.507  1.00  0.00     0.074 A 
ATOM     73  C   UNL     1      -0.961  11.248   1.935  1.00  0.00     0.031 C 
ATOM     74  C   UNL     1      -0.775  11.768  -0.604  1.00  0.00     0.037 A 
BRANCH  61  75
ATOM     75  C   UNL     1      -0.527   9.784  -6.419  1.00  0.00     0.064 A 
ATOM     76  C   UNL     1      -1.671  10.387  -6.980  1.00  0.00     0.173 A 
ATOM     77  C   UNL     1       0.483   9.439  -7.335  1.00  0.00     0.173 A 
ATOM     78  F   UNL     1      -2.679  10.827  -6.218  1.00  0.00    -0.203 F 
ATOM     79  C   UNL     1      -1.834  10.541  -8.358  1.00  0.00     0.198 A 
ATOM     80  C   UNL     1       0.301   9.550  -8.717  1.00  0.00     0.198 A 
ATOM     81  F   UNL     1       1.674   8.994  -6.907  1.00  0.00    -0.203 F 
ATOM     82  F   UNL     1      -2.951  11.109  -8.836  1.00  0.00    -0.200 F 
ATOM     83  C   UNL     1      -0.863  10.092  -9.229  1.00  0.00     0.200 A 
ATOM     84  F   UNL     1       1.255   9.114  -9.552  1.00  0.00    -0.200 F 
ATOM     85  F   UNL     1      -1.043  10.191 -10.553  1.00  0.00    -0.200 F 
ENDBRANCH  61  75
BRANCH  62  86
ATOM     86  C   UNL     1      -0.977   6.803   2.734  1.00  0.00     0.064 A 
ATOM     87  C   UNL     1      -1.673   5.791   3.422  1.00  0.00     0.173 A 
ATOM     88  C   UNL     1       0.409   6.662   2.598  1.00  0.00     0.173 A 
ATOM     89  F   UNL     1      -3.004   5.879   3.574  1.00  0.00    -0.203 F 
ATOM     90  C   UNL     1      -1.031   4.630   3.844  1.00  0.00     0.198 A 
ATOM     91  C   UNL     1       1.051   5.501   3.035  1.00  0.00     0.198 A 
ATOM     92  F   UNL     1       1.123   7.583   1.937  1.00  0.00    -0.203 F 
ATOM     93  F   UNL     1      -1.744   3.632   4.387  1.00  0.00    -0.200 F 
ATOM     94  C   UNL     1       0.327   4.473   3.623  1.00  0.00     0.200 A 
ATOM     95  F   UNL     1       2.361   5.335   2.797  1.00  0.00    -0.200 F 
ATOM     96  F   UNL     1       0.928   3.317   3.937  1.00  0.00    -0.200 F 
ENDBRANCH  62  86
BRANCH  74  97
ATOM     97  C   UNL     1      -0.195  13.164  -0.657  1.00  0.00     0.064 A 
ATOM     98  C   UNL     1       0.636  13.715   0.332  1.00  0.00     0.173 A 
ATOM     99  C   UNL     1      -0.356  13.961  -1.821  1.00  0.00     0.173 A 
ATOM    100  F   UNL     1       0.970  13.025   1.429  1.00  0.00    -0.203 F 
ATOM    101  C   UNL     1       1.211  14.984   0.195  1.00  0.00     0.198 A 
ATOM    102  C   UNL     1       0.268  15.198  -1.979  1.00  0.00     0.198 A 
ATOM    103  F   UNL     1      -1.102  13.554  -2.858  1.00  0.00    -0.203 F 
ATOM    104  F   UNL     1       1.963  15.479   1.188  1.00  0.00    -0.200 F 
ATOM    105  C   UNL     1       1.039  15.718  -0.963  1.00  0.00     0.200 A 
ATOM    106  F   UNL     1       0.132  15.869  -3.132  1.00  0.00    -0.200 F 
ATOM    107  F   UNL     1       1.632  16.910  -1.108  1.00  0.00    -0.200 F 
ENDBRANCH  74  97
ENDBRANCH  48  49
ENDBRANCH  40  43
ENDBRANCH  38  39
ENDBRANCH  37  38
ENDBRANCH  36  37
ENDBRANCH   1  36
TORSDOF 16
