REMARK SMILES CC(=O)Nc1ccc(/C(=C\c2ccc(S(C)(=O)=O)cc2)C(=O)NCCCCNC(=O)c2ccc(-c3c4nc(c(-c5c(F)c(F)c(F)c(F)c5F)c5ccc([nH]5)c(-c5c(F)c(F)c(F)c(F)c5F)c5nc(c(-c6c(F)c(F)c(F)c(F)c6F)c6ccc3[nH]6)C=C5)C=C4)cc2)cc1
REMARK SMILES IDX 25 1 24 2 23 3 21 4 22 5 9 7 10 8 8 9 5 10 6 11 95 12 7 13
REMARK SMILES IDX 94 14 4 15 1 16 2 17 3 18 11 20 12 21 20 22 13 23 19 24
REMARK SMILES IDX 14 25 15 26 16 27 17 28 18 29 26 30 27 31 28 32 29 33 30 35
REMARK SMILES IDX 31 36 32 37 93 38 33 39 92 40 34 41 35 42 36 43 86 44 37 45
REMARK SMILES IDX 91 46 85 47 87 48 38 49 90 50 84 51 83 52 39 54 71 55 51 56
REMARK SMILES IDX 70 57 52 58 55 59 69 60 88 61 53 62 54 63 68 65 89 66 56 67
REMARK SMILES IDX 40 68 41 69 49 70 42 71 43 72 47 73 50 74 44 75 45 76 48 77
REMARK SMILES IDX 46 78 72 79 73 80 81 81 74 82 75 83 79 84 82 85 76 86 77 87
REMARK SMILES IDX 80 88 78 89 57 90 58 91 66 92 59 93 60 94 64 95 67 96 61 97
REMARK SMILES IDX 62 98 65 99 63 100
REMARK H PARENT 23 6 4 19 28 34 87 53 55 64
REMARK Flexibility Score: inf
ROOT
ATOM      1  C   UNL     1       5.711   0.675  -8.418  1.00  0.00     0.023 C 
ENDROOT
BRANCH   1   2
ATOM      2  C   UNL     1       6.261  -0.489  -7.590  1.00  0.00     0.116 C 
BRANCH   2   3
ATOM      3  N   UNL     1       6.269  -0.153  -6.182  1.00  0.00    -0.352 N 
ATOM      4  C   UNL     1       5.447  -0.384  -5.125  1.00  0.00     0.251 C 
ATOM      5  O   UNL     1       5.882   0.075  -4.065  1.00  0.00    -0.269 OA
ATOM      6  H   UNL     1       7.064   0.369  -5.928  1.00  0.00     0.163 HD
BRANCH   4   7
ATOM      7  C   UNL     1       4.139  -1.179  -5.176  1.00  0.00     0.047 C 
ATOM      8  C   UNL     1       3.499  -1.317  -6.362  1.00  0.00     0.022 C 
BRANCH   7   9
ATOM      9  C   UNL     1       3.489  -1.622  -3.883  1.00  0.00    -0.013 A 
ATOM     10  C   UNL     1       1.875  -2.079  -1.570  1.00  0.00     0.041 A 
ATOM     11  C   UNL     1       1.889  -2.992  -2.624  1.00  0.00     0.027 A 
ATOM     12  C   UNL     1       2.792  -1.042  -1.601  1.00  0.00     0.027 A 
ATOM     13  C   UNL     1       2.712  -2.783  -3.747  1.00  0.00     0.011 A 
ATOM     14  C   UNL     1       3.552  -0.798  -2.750  1.00  0.00     0.011 A 
BRANCH  10  15
ATOM     15  N   UNL     1       0.934  -2.263  -0.544  1.00  0.00    -0.326 N 
ATOM     16  C   UNL     1       0.773   0.061   0.383  1.00  0.00     0.114 C 
ATOM     17  C   UNL     1       0.439  -1.408   0.402  1.00  0.00     0.221 C 
ATOM     18  O   UNL     1      -0.333  -1.854   1.255  1.00  0.00    -0.275 OA
ATOM     19  H   UNL     1       0.562  -3.174  -0.497  1.00  0.00     0.169 HD
ENDBRANCH  10  15
ENDBRANCH   7   9
BRANCH   8  20
ATOM     20  C   UNL     1       2.340  -2.149  -6.713  1.00  0.00    -0.025 A 
ATOM     21  C   UNL     1       2.590  -3.374  -7.356  1.00  0.00     0.009 A 
ATOM     22  C   UNL     1       1.031  -1.797  -6.375  1.00  0.00     0.009 A 
ATOM     23  C   UNL     1       1.551  -4.271  -7.598  1.00  0.00     0.021 A 
ATOM     24  C   UNL     1      -0.015  -2.693  -6.615  1.00  0.00     0.021 A 
ATOM     25  C   UNL     1       0.253  -3.929  -7.213  1.00  0.00     0.067 A 
BRANCH  25  26
ATOM     26  S   UNL     1      -1.036  -5.146  -7.367  1.00  0.00     0.175 S 
ATOM     27  C   UNL     1      -1.446  -5.120  -9.091  1.00  0.00     0.163 C 
ATOM     28  O   UNL     1      -0.441  -6.432  -7.060  1.00  0.00    -0.224 OA
ATOM     29  O   UNL     1      -2.185  -4.661  -6.626  1.00  0.00    -0.224 OA
ENDBRANCH  25  26
ENDBRANCH   8  20
ENDBRANCH   4   7
ENDBRANCH   2   3
ENDBRANCH   1   2
BRANCH   1  30
ATOM     30  C   UNL     1       6.670   1.863  -8.558  1.00  0.00     0.023 C 
BRANCH  30  31
ATOM     31  C   UNL     1       8.023   1.533  -9.178  1.00  0.00     0.116 C 
BRANCH  31  32
ATOM     32  N   UNL     1       7.916   0.862 -10.464  1.00  0.00    -0.352 N 
ATOM     33  C   UNL     1       8.757   0.945 -11.545  1.00  0.00     0.251 C 
ATOM     34  H   UNL     1       7.137   0.269 -10.573  1.00  0.00     0.163 HD
ATOM     35  O   UNL     1       8.469   0.394 -12.602  1.00  0.00    -0.269 OA
BRANCH  33  36
ATOM     36  C   UNL     1       9.994   1.742 -11.434  1.00  0.00     0.039 A 
ATOM     37  C   UNL     1      10.275   2.688 -12.421  1.00  0.00     0.014 A 
ATOM     38  C   UNL     1      10.849   1.580 -10.341  1.00  0.00     0.014 A 
ATOM     39  C   UNL     1      11.384   3.521 -12.278  1.00  0.00     0.010 A 
ATOM     40  C   UNL     1      11.912   2.458 -10.164  1.00  0.00     0.010 A 
ATOM     41  C   UNL     1      12.190   3.437 -11.131  1.00  0.00    -0.014 A 
BRANCH  41  42
ATOM     42  C   UNL     1      13.329   4.364 -10.923  1.00  0.00     0.031 A 
ATOM     43  C   UNL     1      14.732   3.830 -10.871  1.00  0.00     0.074 A 
ATOM     44  C   UNL     1      13.091   5.672 -10.711  1.00  0.00     0.049 A 
ATOM     45  N   UNL     1      15.851   4.465 -10.630  1.00  0.00    -0.248 NA
ATOM     46  C   UNL     1      14.898   2.385 -11.091  1.00  0.00     0.031 C 
ATOM     47  C   UNL     1      11.768   6.298 -10.685  1.00  0.00     0.029 A 
ATOM     48  N   UNL     1      13.954   6.710 -10.466  1.00  0.00    -0.354 N 
ATOM     49  C   UNL     1      16.846   3.497 -10.654  1.00  0.00     0.074 A 
ATOM     50  C   UNL     1      16.195   2.225 -10.877  1.00  0.00     0.031 C 
ATOM     51  C   UNL     1      11.908   7.614 -10.460  1.00  0.00     0.029 A 
ATOM     52  C   UNL     1      13.325   7.919 -10.288  1.00  0.00     0.049 A 
ATOM     53  H   UNL     1      14.931   6.600 -10.421  1.00  0.00     0.167 HD
ATOM     54  C   UNL     1      18.184   3.660 -10.528  1.00  0.00     0.037 A 
ATOM     55  C   UNL     1      13.836   9.133 -10.011  1.00  0.00     0.037 A 
ATOM     56  C   UNL     1      18.828   4.932 -10.332  1.00  0.00     0.049 A 
ATOM     57  C   UNL     1      15.328   9.286  -9.874  1.00  0.00     0.074 A 
ATOM     58  C   UNL     1      20.181   5.212 -10.255  1.00  0.00     0.029 A 
ATOM     59  N   UNL     1      18.160   6.139 -10.180  1.00  0.00    -0.354 N 
ATOM     60  N   UNL     1      16.266   8.376  -9.974  1.00  0.00    -0.248 NA
ATOM     61  C   UNL     1      15.831  10.638  -9.594  1.00  0.00     0.031 C 
ATOM     62  C   UNL     1      20.330   6.580 -10.008  1.00  0.00     0.029 A 
ATOM     63  C   UNL     1      19.073   7.163  -9.986  1.00  0.00     0.049 A 
ATOM     64  H   UNL     1      17.182   6.250 -10.205  1.00  0.00     0.167 HD
ATOM     65  C   UNL     1      17.469   9.046  -9.799  1.00  0.00     0.074 A 
ATOM     66  C   UNL     1      17.142  10.443  -9.602  1.00  0.00     0.031 C 
ATOM     67  C   UNL     1      18.730   8.550  -9.802  1.00  0.00     0.037 A 
BRANCH  54  68
ATOM     68  C   UNL     1      19.043   2.430 -10.601  1.00  0.00     0.064 A 
ATOM     69  C   UNL     1      19.206   1.717 -11.799  1.00  0.00     0.173 A 
ATOM     70  C   UNL     1      19.736   1.976  -9.470  1.00  0.00     0.173 A 
ATOM     71  F   UNL     1      18.555   2.100 -12.908  1.00  0.00    -0.203 F 
ATOM     72  C   UNL     1      20.006   0.578 -11.853  1.00  0.00     0.198 A 
ATOM     73  C   UNL     1      20.561   0.856  -9.535  1.00  0.00     0.198 A 
ATOM     74  F   UNL     1      19.620   2.623  -8.300  1.00  0.00    -0.203 F 
ATOM     75  F   UNL     1      20.103  -0.117 -12.995  1.00  0.00    -0.200 F 
ATOM     76  C   UNL     1      20.689   0.153 -10.723  1.00  0.00     0.200 A 
ATOM     77  F   UNL     1      21.231   0.455  -8.445  1.00  0.00    -0.200 F 
ATOM     78  F   UNL     1      21.463  -0.938 -10.778  1.00  0.00    -0.200 F 
ENDBRANCH  54  68
BRANCH  55  79
ATOM     79  C   UNL     1      12.934  10.306  -9.870  1.00  0.00     0.064 A 
ATOM     80  C   UNL     1      12.933  11.331 -10.826  1.00  0.00     0.173 A 
ATOM     81  C   UNL     1      12.060  10.430  -8.780  1.00  0.00     0.173 A 
ATOM     82  F   UNL     1      13.764  11.268 -11.877  1.00  0.00    -0.203 F 
ATOM     83  C   UNL     1      12.110  12.447 -10.685  1.00  0.00     0.198 A 
ATOM     84  C   UNL     1      11.216  11.531  -8.655  1.00  0.00     0.198 A 
ATOM     85  F   UNL     1      12.017   9.473  -7.841  1.00  0.00    -0.203 F 
ATOM     86  F   UNL     1      12.164  13.435 -11.589  1.00  0.00    -0.200 F 
ATOM     87  C   UNL     1      11.248  12.543  -9.603  1.00  0.00     0.200 A 
ATOM     88  F   UNL     1      10.374  11.613  -7.617  1.00  0.00    -0.200 F 
ATOM     89  F   UNL     1      10.454  13.614  -9.470  1.00  0.00    -0.200 F 
ENDBRANCH  55  79
BRANCH  67  90
ATOM     90  C   UNL     1      19.855   9.528  -9.624  1.00  0.00     0.064 A 
ATOM     91  C   UNL     1      20.108  10.145  -8.390  1.00  0.00     0.173 A 
ATOM     92  C   UNL     1      20.717   9.818 -10.693  1.00  0.00     0.173 A 
ATOM     93  F   UNL     1      19.304   9.913  -7.341  1.00  0.00    -0.203 F 
ATOM     94  C   UNL     1      21.168  11.036  -8.240  1.00  0.00     0.198 A 
ATOM     95  C   UNL     1      21.794  10.684 -10.530  1.00  0.00     0.198 A 
ATOM     96  F   UNL     1      20.523   9.248 -11.892  1.00  0.00    -0.203 F 
ATOM     97  F   UNL     1      21.362  11.651  -7.065  1.00  0.00    -0.200 F 
ATOM     98  C   UNL     1      22.014  11.298  -9.307  1.00  0.00     0.200 A 
ATOM     99  F   UNL     1      22.620  10.924 -11.559  1.00  0.00    -0.200 F 
ATOM    100  F   UNL     1      23.039  12.149  -9.158  1.00  0.00    -0.200 F 
ENDBRANCH  67  90
ENDBRANCH  41  42
ENDBRANCH  33  36
ENDBRANCH  31  32
ENDBRANCH  30  31
ENDBRANCH   1  30
TORSDOF 15
