REMARK SMILES CCOC[C@@H](O)C[C@@]1(C(=O)NCCCCNC(=O)c2ccc(-c3c4nc(c(-c5c(F)c(F)c(F)c(F)c5F)c5ccc([nH]5)c(-c5c(F)c(F)c(F)c(F)c5F)c5nc(c(-c6c(F)c(F)c(F)c(F)c6F)c6ccc3[nH]6)C=C5)C=C4)cc2)CC[C@H](C)C1
REMARK SMILES IDX 12 1 11 2 9 3 10 4 8 6 82 7 86 8 83 9 84 10 85 11 7 12 5 13
REMARK SMILES IDX 4 14 3 15 2 16 1 17 6 18 13 20 14 21 15 22 16 23 17 24 18 26
REMARK SMILES IDX 19 27 20 28 81 29 21 30 80 31 22 32 23 33 24 34 74 35 25 36
REMARK SMILES IDX 79 37 73 38 75 39 26 40 78 41 72 42 71 43 27 45 59 46 39 47
REMARK SMILES IDX 58 48 40 49 43 50 57 51 76 52 41 53 42 54 56 56 77 57 44 58
REMARK SMILES IDX 28 59 29 60 37 61 30 62 31 63 35 64 38 65 32 66 33 67 36 68
REMARK SMILES IDX 34 69 60 70 61 71 69 72 62 73 63 74 67 75 70 76 64 77 65 78
REMARK SMILES IDX 68 79 66 80 45 81 46 82 54 83 47 84 48 85 52 86 55 87 49 88
REMARK SMILES IDX 50 89 53 90 51 91
REMARK H PARENT 11 5 6 19 16 25 75 44 43 55
REMARK Flexibility Score: inf
ROOT
ATOM      1  C   UNL     1       2.204  -2.674   3.694  1.00  0.00     0.116 C 
ENDROOT
BRANCH   1   2
ATOM      2  N   UNL     1       3.490  -3.238   4.041  1.00  0.00    -0.356 N 
ATOM      3  C   UNL     1       4.749  -3.066   3.573  1.00  0.00     0.226 C 
ATOM      4  O   UNL     1       5.585  -3.816   4.093  1.00  0.00    -0.274 OA
ATOM      5  H   UNL     1       3.439  -3.888   4.778  1.00  0.00     0.163 HD
BRANCH   3   6
ATOM      6  C   UNL     1       5.166  -2.025   2.501  1.00  0.00     0.052 C 
ATOM      7  C   UNL     1       6.736  -2.104   2.386  1.00  0.00     0.017 C 
ATOM      8  C   UNL     1       5.097  -0.568   3.002  1.00  0.00     0.020 C 
ATOM      9  C   UNL     1       7.194  -0.761   1.810  1.00  0.00     0.004 C 
ATOM     10  C   UNL     1       6.018   0.196   2.038  1.00  0.00    -0.013 C 
ATOM     11  C   UNL     1       6.462   1.562   2.526  1.00  0.00     0.007 C 
BRANCH   6  12
ATOM     12  C   UNL     1       4.657  -2.328   1.053  1.00  0.00     0.051 C 
BRANCH  12  13
ATOM     13  C   UNL     1       3.228  -2.104   0.541  1.00  0.00     0.141 C 
BRANCH  13  14
ATOM     14  C   UNL     1       2.592  -0.715   0.693  1.00  0.00     0.191 C 
BRANCH  14  15
ATOM     15  O   UNL     1       1.170  -0.804   0.881  1.00  0.00    -0.379 OA
BRANCH  15  16
ATOM     16  C   UNL     1       0.366  -0.833  -0.294  1.00  0.00     0.157 C 
ATOM     17  C   UNL     1       0.450   0.449  -1.101  1.00  0.00     0.035 C 
ENDBRANCH  15  16
ENDBRANCH  14  15
ENDBRANCH  13  14
BRANCH  13  18
ATOM     18  O   UNL     1       3.274  -2.411  -0.868  1.00  0.00    -0.391 OA
ATOM     19  H   UNL     1       3.866  -1.787  -1.316  1.00  0.00     0.211 HD
ENDBRANCH  13  18
ENDBRANCH  12  13
ENDBRANCH   6  12
ENDBRANCH   3   6
ENDBRANCH   1   2
BRANCH   1  20
ATOM     20  C   UNL     1       1.378  -3.671   2.870  1.00  0.00     0.023 C 
BRANCH  20  21
ATOM     21  C   UNL     1       0.261  -4.387   3.615  1.00  0.00     0.023 C 
BRANCH  21  22
ATOM     22  C   UNL     1      -0.835  -3.467   4.130  1.00  0.00     0.116 C 
BRANCH  22  23
ATOM     23  N   UNL     1      -1.496  -2.669   3.104  1.00  0.00    -0.352 N 
ATOM     24  C   UNL     1      -2.822  -2.291   3.045  1.00  0.00     0.251 C 
ATOM     25  H   UNL     1      -0.927  -2.362   2.362  1.00  0.00     0.163 HD
ATOM     26  O   UNL     1      -3.264  -1.682   2.082  1.00  0.00    -0.269 OA
BRANCH  24  27
ATOM     27  C   UNL     1      -3.716  -2.681   4.159  1.00  0.00     0.039 A 
ATOM     28  C   UNL     1      -4.930  -3.309   3.874  1.00  0.00     0.014 A 
ATOM     29  C   UNL     1      -3.304  -2.506   5.481  1.00  0.00     0.014 A 
ATOM     30  C   UNL     1      -5.688  -3.842   4.920  1.00  0.00     0.010 A 
ATOM     31  C   UNL     1      -4.000  -3.132   6.505  1.00  0.00     0.010 A 
ATOM     32  C   UNL     1      -5.205  -3.800   6.239  1.00  0.00    -0.014 A 
BRANCH  32  33
ATOM     33  C   UNL     1      -5.947  -4.425   7.364  1.00  0.00     0.031 A 
ATOM     34  C   UNL     1      -6.416  -3.573   8.513  1.00  0.00     0.074 A 
ATOM     35  C   UNL     1      -6.124  -5.760   7.397  1.00  0.00     0.049 A 
ATOM     36  N   UNL     1      -7.004  -3.932   9.626  1.00  0.00    -0.248 NA
ATOM     37  C   UNL     1      -6.145  -2.130   8.420  1.00  0.00     0.031 C 
ATOM     38  C   UNL     1      -5.650  -6.707   6.386  1.00  0.00     0.029 A 
ATOM     39  N   UNL     1      -6.746  -6.555   8.327  1.00  0.00    -0.354 N 
ATOM     40  C   UNL     1      -7.136  -2.769  10.373  1.00  0.00     0.074 A 
ATOM     41  C   UNL     1      -6.513  -1.706   9.618  1.00  0.00     0.031 C 
ATOM     42  C   UNL     1      -6.035  -7.947   6.729  1.00  0.00     0.029 A 
ATOM     43  C   UNL     1      -6.753  -7.889   7.998  1.00  0.00     0.049 A 
ATOM     44  H   UNL     1      -7.150  -6.202   9.153  1.00  0.00     0.167 HD
ATOM     45  C   UNL     1      -7.751  -2.594  11.567  1.00  0.00     0.037 A 
ATOM     46  C   UNL     1      -7.291  -8.941   8.644  1.00  0.00     0.037 A 
ATOM     47  C   UNL     1      -8.428  -3.640  12.284  1.00  0.00     0.049 A 
ATOM     48  C   UNL     1      -8.021  -8.712   9.939  1.00  0.00     0.074 A 
ATOM     49  C   UNL     1      -9.162  -3.550  13.453  1.00  0.00     0.029 A 
ATOM     50  N   UNL     1      -8.462  -4.969  11.889  1.00  0.00    -0.354 N 
ATOM     51  N   UNL     1      -8.215  -7.593  10.595  1.00  0.00    -0.248 NA
ATOM     52  C   UNL     1      -8.619  -9.893  10.579  1.00  0.00     0.031 C 
ATOM     53  C   UNL     1      -9.615  -4.832  13.783  1.00  0.00     0.029 A 
ATOM     54  C   UNL     1      -9.197  -5.712  12.798  1.00  0.00     0.049 A 
ATOM     55  H   UNL     1      -8.028  -5.330  11.083  1.00  0.00     0.167 HD
ATOM     56  C   UNL     1      -8.986  -7.927  11.700  1.00  0.00     0.074 A 
ATOM     57  C   UNL     1      -9.232  -9.352  11.622  1.00  0.00     0.031 C 
ATOM     58  C   UNL     1      -9.449  -7.126  12.690  1.00  0.00     0.037 A 
BRANCH  45  59
ATOM     59  C   UNL     1      -7.730  -1.215  12.159  1.00  0.00     0.064 A 
ATOM     60  C   UNL     1      -8.452  -0.156  11.588  1.00  0.00     0.173 A 
ATOM     61  C   UNL     1      -6.987  -0.951  13.320  1.00  0.00     0.173 A 
ATOM     62  F   UNL     1      -9.166  -0.353  10.469  1.00  0.00    -0.203 F 
ATOM     63  C   UNL     1      -8.400   1.124  12.133  1.00  0.00     0.198 A 
ATOM     64  C   UNL     1      -6.964   0.323  13.881  1.00  0.00     0.198 A 
ATOM     65  F   UNL     1      -6.282  -1.928  13.910  1.00  0.00    -0.203 F 
ATOM     66  F   UNL     1      -9.048   2.132  11.533  1.00  0.00    -0.200 F 
ATOM     67  C   UNL     1      -7.662   1.361  13.282  1.00  0.00     0.200 A 
ATOM     68  F   UNL     1      -6.259   0.549  14.998  1.00  0.00    -0.200 F 
ATOM     69  F   UNL     1      -7.614   2.594  13.806  1.00  0.00    -0.200 F 
ENDBRANCH  45  59
BRANCH  46  70
ATOM     70  C   UNL     1      -7.218 -10.299   8.046  1.00  0.00     0.064 A 
ATOM     71  C   UNL     1      -8.367 -10.908   7.520  1.00  0.00     0.173 A 
ATOM     72  C   UNL     1      -6.016 -11.018   7.993  1.00  0.00     0.173 A 
ATOM     73  F   UNL     1      -9.544 -10.267   7.566  1.00  0.00    -0.203 F 
ATOM     74  C   UNL     1      -8.321 -12.194   6.986  1.00  0.00     0.198 A 
ATOM     75  C   UNL     1      -5.967 -12.295   7.436  1.00  0.00     0.198 A 
ATOM     76  F   UNL     1      -4.888 -10.478   8.477  1.00  0.00    -0.203 F 
ATOM     77  F   UNL     1      -9.444 -12.769   6.533  1.00  0.00    -0.200 F 
ATOM     78  C   UNL     1      -7.120 -12.885   6.941  1.00  0.00     0.200 A 
ATOM     79  F   UNL     1      -4.802 -12.956   7.383  1.00  0.00    -0.200 F 
ATOM     80  F   UNL     1      -7.076 -14.122   6.427  1.00  0.00    -0.200 F 
ENDBRANCH  46  70
BRANCH  58  81
ATOM     81  C   UNL     1     -10.311  -7.761  13.741  1.00  0.00     0.064 A 
ATOM     82  C   UNL     1      -9.777  -8.612  14.718  1.00  0.00     0.173 A 
ATOM     83  C   UNL     1     -11.685  -7.481  13.790  1.00  0.00     0.173 A 
ATOM     84  F   UNL     1      -8.471  -8.920  14.703  1.00  0.00    -0.203 F 
ATOM     85  C   UNL     1     -10.592  -9.182  15.692  1.00  0.00     0.198 A 
ATOM     86  C   UNL     1     -12.492  -8.030  14.782  1.00  0.00     0.198 A 
ATOM     87  F   UNL     1     -12.243  -6.667  12.881  1.00  0.00    -0.203 F 
ATOM     88  F   UNL     1     -10.069 -10.029  16.588  1.00  0.00    -0.200 F 
ATOM     89  C   UNL     1     -11.947  -8.885  15.727  1.00  0.00     0.200 A 
ATOM     90  F   UNL     1     -13.798  -7.733  14.822  1.00  0.00    -0.200 F 
ATOM     91  F   UNL     1     -12.729  -9.431  16.669  1.00  0.00    -0.200 F 
ENDBRANCH  58  81
ENDBRANCH  32  33
ENDBRANCH  24  27
ENDBRANCH  22  23
ENDBRANCH  21  22
ENDBRANCH  20  21
ENDBRANCH   1  20
TORSDOF 17
