REMARK SMILES Cc1ccc(N2C(=O)C[C@H](Sc3ccccc3C(=O)NCCCCNC(=O)c3ccc(-c4c5nc(c(-c6c(F)c(F)c(F)c(F)c6F)c6ccc([nH]6)c(-c6c(F)c(F)c(F)c(F)c6F)c6nc(c(-c7c(F)c(F)c(F)c(F)c7F)c7ccc4[nH]7)C=C6)C=C5)cc3)C2=O)cc1
REMARK SMILES IDX 22 1 21 2 20 3 18 4 19 5 17 7 12 8 13 9 14 10 16 11 15 12
REMARK SMILES IDX 11 13 10 14 6 15 7 16 91 17 8 18 9 19 92 20 5 21 1 22 2 23
REMARK SMILES IDX 3 24 94 25 4 26 93 27 23 28 24 29 25 30 26 31 27 33 28 34
REMARK SMILES IDX 29 35 90 36 30 37 89 38 31 39 32 40 33 41 83 42 34 43 88 44
REMARK SMILES IDX 82 45 84 46 35 47 87 48 81 49 80 50 36 52 68 53 48 54 67 55
REMARK SMILES IDX 49 56 52 57 66 58 85 59 50 60 51 61 65 63 86 64 53 65 37 66
REMARK SMILES IDX 38 67 46 68 39 69 40 70 44 71 47 72 41 73 42 74 45 75 43 76
REMARK SMILES IDX 69 77 70 78 78 79 71 80 72 81 76 82 79 83 73 84 74 85 77 86
REMARK SMILES IDX 75 87 54 88 55 89 63 90 56 91 57 92 61 93 64 94 58 95 59 96
REMARK SMILES IDX 62 97 60 98
REMARK H PARENT 20 6 25 32 84 51 52 62
REMARK Flexibility Score: inf
ROOT
ATOM      1  C   UNL     1      -3.932   4.981  -1.656  1.00  0.00     0.023 C 
ENDROOT
BRANCH   1   2
ATOM      2  C   UNL     1      -5.192   5.265  -0.837  1.00  0.00     0.116 C 
BRANCH   2   3
ATOM      3  N   UNL     1      -6.205   4.214  -0.845  1.00  0.00    -0.352 N 
ATOM      4  C   UNL     1      -6.679   3.334   0.108  1.00  0.00     0.252 C 
ATOM      5  O   UNL     1      -7.662   2.660  -0.193  1.00  0.00    -0.269 OA
ATOM      6  H   UNL     1      -6.646   4.110  -1.719  1.00  0.00     0.163 HD
BRANCH   4   7
ATOM      7  C   UNL     1      -6.021   3.158   1.432  1.00  0.00     0.053 A 
ATOM      8  C   UNL     1      -5.788   1.887   2.011  1.00  0.00     0.021 A 
ATOM      9  C   UNL     1      -5.102   1.820   3.240  1.00  0.00     0.016 A 
ATOM     10  C   UNL     1      -4.701   2.977   3.910  1.00  0.00     0.001 A 
ATOM     11  C   UNL     1      -5.704   4.308   2.175  1.00  0.00     0.015 A 
ATOM     12  C   UNL     1      -5.029   4.222   3.392  1.00  0.00     0.001 A 
BRANCH   8  13
ATOM     13  S   UNL     1      -6.587   0.346   1.528  1.00  0.00    -0.111 SA
BRANCH  13  14
ATOM     14  C   UNL     1      -5.461  -0.458   0.347  1.00  0.00     0.151 C 
ATOM     15  N   UNL     1      -3.223   0.108   0.007  1.00  0.00    -0.250 N 
ATOM     16  C   UNL     1      -3.930   0.764  -0.977  1.00  0.00     0.235 C 
ATOM     17  C   UNL     1      -4.049  -0.616   0.840  1.00  0.00     0.247 C 
ATOM     18  O   UNL     1      -3.525   1.552  -1.821  1.00  0.00    -0.274 OA
ATOM     19  C   UNL     1      -5.332   0.243  -0.982  1.00  0.00     0.126 C 
ATOM     20  O   UNL     1      -3.739  -1.262   1.833  1.00  0.00    -0.273 OA
BRANCH  15  21
ATOM     21  C   UNL     1      -1.808   0.118   0.095  1.00  0.00     0.052 A 
ATOM     22  C   UNL     1       2.517   0.008   0.030  1.00  0.00     0.044 C 
ATOM     23  C   UNL     1       1.020   0.062   0.093  1.00  0.00    -0.051 A 
ATOM     24  C   UNL     1       0.287  -1.076   0.440  1.00  0.00     0.005 A 
ATOM     25  C   UNL     1       0.331   1.228  -0.250  1.00  0.00     0.005 A 
ATOM     26  C   UNL     1      -1.111  -1.041   0.465  1.00  0.00     0.027 A 
ATOM     27  C   UNL     1      -1.067   1.251  -0.262  1.00  0.00     0.027 A 
ENDBRANCH  15  21
ENDBRANCH  13  14
ENDBRANCH   8  13
ENDBRANCH   4   7
ENDBRANCH   2   3
ENDBRANCH   1   2
BRANCH   1  28
ATOM     28  C   UNL     1      -4.132   4.651  -3.133  1.00  0.00     0.023 C 
BRANCH  28  29
ATOM     29  C   UNL     1      -4.825   5.719  -3.970  1.00  0.00     0.116 C 
BRANCH  29  30
ATOM     30  N   UNL     1      -3.976   6.811  -4.435  1.00  0.00    -0.352 N 
ATOM     31  C   UNL     1      -4.333   7.944  -5.158  1.00  0.00     0.251 C 
ATOM     32  H   UNL     1      -3.022   6.736  -4.206  1.00  0.00     0.163 HD
ATOM     33  O   UNL     1      -3.491   8.764  -5.489  1.00  0.00    -0.269 OA
BRANCH  31  34
ATOM     34  C   UNL     1      -5.771   8.214  -5.413  1.00  0.00     0.039 A 
ATOM     35  C   UNL     1      -6.281   9.474  -5.075  1.00  0.00     0.014 A 
ATOM     36  C   UNL     1      -6.635   7.182  -5.764  1.00  0.00     0.014 A 
ATOM     37  C   UNL     1      -7.644   9.609  -4.820  1.00  0.00     0.010 A 
ATOM     38  C   UNL     1      -7.965   7.282  -5.406  1.00  0.00     0.010 A 
ATOM     39  C   UNL     1      -8.450   8.472  -4.855  1.00  0.00    -0.014 A 
BRANCH  39  40
ATOM     40  C   UNL     1      -9.745   8.390  -4.184  1.00  0.00     0.031 A 
ATOM     41  C   UNL     1     -11.002   8.294  -4.952  1.00  0.00     0.074 A 
ATOM     42  C   UNL     1      -9.767   8.277  -2.836  1.00  0.00     0.049 A 
ATOM     43  N   UNL     1     -12.173   8.557  -4.476  1.00  0.00    -0.248 NA
ATOM     44  C   UNL     1     -11.028   7.941  -6.364  1.00  0.00     0.031 C 
ATOM     45  C   UNL     1     -10.889   7.869  -1.996  1.00  0.00     0.029 A 
ATOM     46  N   UNL     1      -8.789   8.713  -1.923  1.00  0.00    -0.354 N 
ATOM     47  C   UNL     1     -13.111   8.148  -5.398  1.00  0.00     0.074 A 
ATOM     48  C   UNL     1     -12.343   7.859  -6.586  1.00  0.00     0.031 C 
ATOM     49  C   UNL     1     -10.690   8.335  -0.752  1.00  0.00     0.029 A 
ATOM     50  C   UNL     1      -9.511   9.181  -0.801  1.00  0.00     0.049 A 
ATOM     51  H   UNL     1      -7.812   8.695  -2.040  1.00  0.00     0.167 HD
ATOM     52  C   UNL     1     -14.406   7.979  -4.991  1.00  0.00     0.037 A 
ATOM     53  C   UNL     1      -9.479  10.493  -0.426  1.00  0.00     0.037 A 
ATOM     54  C   UNL     1     -14.587   8.464  -3.620  1.00  0.00     0.049 A 
ATOM     55  C   UNL     1     -10.835  11.157  -0.387  1.00  0.00     0.074 A 
ATOM     56  C   UNL     1     -14.663   7.821  -2.394  1.00  0.00     0.029 A 
ATOM     57  N   UNL     1     -14.427   9.819  -3.343  1.00  0.00    -0.354 N 
ATOM     58  N   UNL     1     -11.882  10.704  -1.016  1.00  0.00    -0.248 NA
ATOM     59  C   UNL     1     -11.103  12.404   0.324  1.00  0.00     0.031 C 
ATOM     60  C   UNL     1     -14.494   8.793  -1.376  1.00  0.00     0.029 A 
ATOM     61  C   UNL     1     -14.335  10.028  -1.980  1.00  0.00     0.049 A 
ATOM     62  H   UNL     1     -14.385  10.529  -4.023  1.00  0.00     0.167 HD
ATOM     63  C   UNL     1     -12.930  11.569  -0.838  1.00  0.00     0.074 A 
ATOM     64  C   UNL     1     -12.398  12.606   0.027  1.00  0.00     0.031 C 
ATOM     65  C   UNL     1     -14.140  11.363  -1.436  1.00  0.00     0.037 A 
BRANCH  52  66
ATOM     66  C   UNL     1     -15.444   7.118  -5.702  1.00  0.00     0.064 A 
ATOM     67  C   UNL     1     -16.544   6.583  -4.989  1.00  0.00     0.173 A 
ATOM     68  C   UNL     1     -15.385   6.708  -7.047  1.00  0.00     0.173 A 
ATOM     69  F   UNL     1     -16.824   6.966  -3.737  1.00  0.00    -0.203 F 
ATOM     70  C   UNL     1     -17.413   5.629  -5.535  1.00  0.00     0.198 A 
ATOM     71  C   UNL     1     -16.227   5.725  -7.583  1.00  0.00     0.198 A 
ATOM     72  F   UNL     1     -14.564   7.287  -7.925  1.00  0.00    -0.203 F 
ATOM     73  F   UNL     1     -18.423   5.148  -4.795  1.00  0.00    -0.200 F 
ATOM     74  C   UNL     1     -17.231   5.172  -6.821  1.00  0.00     0.200 A 
ATOM     75  F   UNL     1     -16.053   5.327  -8.852  1.00  0.00    -0.200 F 
ATOM     76  F   UNL     1     -18.037   4.234  -7.335  1.00  0.00    -0.200 F 
ENDBRANCH  52  66
BRANCH  53  77
ATOM     77  C   UNL     1      -8.211  11.181  -0.784  1.00  0.00     0.064 A 
ATOM     78  C   UNL     1      -7.009  10.712  -0.220  1.00  0.00     0.173 A 
ATOM     79  C   UNL     1      -8.118  12.014  -1.905  1.00  0.00     0.173 A 
ATOM     80  F   UNL     1      -7.042   9.905   0.853  1.00  0.00    -0.203 F 
ATOM     81  C   UNL     1      -5.778  10.969  -0.819  1.00  0.00     0.198 A 
ATOM     82  C   UNL     1      -6.880  12.282  -2.494  1.00  0.00     0.198 A 
ATOM     83  F   UNL     1      -9.226  12.475  -2.503  1.00  0.00    -0.203 F 
ATOM     84  F   UNL     1      -4.665  10.411  -0.321  1.00  0.00    -0.200 F 
ATOM     85  C   UNL     1      -5.718  11.733  -1.971  1.00  0.00     0.200 A 
ATOM     86  F   UNL     1      -6.823  12.992  -3.630  1.00  0.00    -0.200 F 
ATOM     87  F   UNL     1      -4.548  11.904  -2.603  1.00  0.00    -0.200 F 
ENDBRANCH  53  77
BRANCH  65  88
ATOM     88  C   UNL     1     -15.280  12.351  -1.495  1.00  0.00     0.064 A 
ATOM     89  C   UNL     1     -15.110  13.745  -1.490  1.00  0.00     0.173 A 
ATOM     90  C   UNL     1     -16.605  11.900  -1.710  1.00  0.00     0.173 A 
ATOM     91  F   UNL     1     -13.893  14.299  -1.415  1.00  0.00    -0.203 F 
ATOM     92  C   UNL     1     -16.191  14.623  -1.625  1.00  0.00     0.198 A 
ATOM     93  C   UNL     1     -17.671  12.777  -1.902  1.00  0.00     0.198 A 
ATOM     94  F   UNL     1     -16.899  10.593  -1.767  1.00  0.00    -0.203 F 
ATOM     95  F   UNL     1     -15.981  15.945  -1.572  1.00  0.00    -0.200 F 
ATOM     96  C   UNL     1     -17.467  14.140  -1.842  1.00  0.00     0.200 A 
ATOM     97  F   UNL     1     -18.894  12.293  -2.164  1.00  0.00    -0.200 F 
ATOM     98  F   UNL     1     -18.492  14.985  -2.017  1.00  0.00    -0.200 F 
ENDBRANCH  65  88
ENDBRANCH  39  40
ENDBRANCH  31  34
ENDBRANCH  29  30
ENDBRANCH  28  29
ENDBRANCH   1  28
TORSDOF 14
