REMARK SMILES O=C(NCCCCNC(=O)c1c(-c2ccc(Cl)cc2)noc1CO[C@@H]1CCCCO1)c1ccc(-c2c3nc(c(-c4c(F)c(F)c(F)c(F)c4F)c4ccc([nH]4)c(-c4c(F)c(F)c(F)c(F)c4F)c4nc(c(-c5c(F)c(F)c(F)c(F)c5F)c5ccc2[nH]5)C=C4)C=C3)cc1
REMARK SMILES IDX 6 1 5 2 4 3 3 4 1 5 2 6 31 8 32 9 93 10 33 11 92 12 34 13
REMARK SMILES IDX 35 14 36 15 86 16 37 17 91 18 85 19 87 20 38 21 90 22 84 23
REMARK SMILES IDX 83 24 39 26 71 27 51 28 70 29 52 30 55 31 69 32 88 33 53 34
REMARK SMILES IDX 54 35 68 37 89 38 56 39 40 40 41 41 49 42 42 43 43 44 47 45
REMARK SMILES IDX 50 46 44 47 45 48 48 49 46 50 72 51 73 52 81 53 74 54 75 55
REMARK SMILES IDX 79 56 82 57 76 58 77 59 80 60 78 61 57 62 58 63 66 64 59 65
REMARK SMILES IDX 60 66 64 67 67 68 61 69 62 70 65 71 63 72 7 73 8 74 9 75
REMARK SMILES IDX 10 77 11 78 12 79 22 80 20 81 21 82 13 83 14 84 19 85 15 86
REMARK SMILES IDX 18 87 16 88 17 89 23 90 24 91 25 92 26 93 30 94 27 95 29 96
REMARK SMILES IDX 28 97
REMARK H PARENT 3 7 87 25 55 36 8 76
REMARK Flexibility Score: inf
ROOT
ATOM      1  C   UNL     1       3.880   0.625  -4.261  1.00  0.00     0.023 C 
ENDROOT
BRANCH   1   2
ATOM      2  C   UNL     1       4.341  -0.559  -3.404  1.00  0.00     0.023 C 
BRANCH   2   3
ATOM      3  C   UNL     1       4.309  -0.363  -1.890  1.00  0.00     0.116 C 
BRANCH   3   4
ATOM      4  N   UNL     1       2.992  -0.051  -1.370  1.00  0.00    -0.352 N 
ATOM      5  O   UNL     1       1.289  -0.062   0.102  1.00  0.00    -0.269 OA
ATOM      6  C   UNL     1       2.460  -0.345  -0.137  1.00  0.00     0.251 C 
ATOM      7  H   UNL     1       2.398   0.438  -1.984  1.00  0.00     0.163 HD
BRANCH   6   8
ATOM      8  C   UNL     1       3.269  -1.041   0.891  1.00  0.00     0.039 A 
ATOM      9  C   UNL     1       4.563  -0.626   1.219  1.00  0.00     0.014 A 
ATOM     10  C   UNL     1       2.692  -2.123   1.568  1.00  0.00     0.014 A 
ATOM     11  C   UNL     1       5.310  -1.348   2.152  1.00  0.00     0.010 A 
ATOM     12  C   UNL     1       3.430  -2.831   2.521  1.00  0.00     0.010 A 
ATOM     13  C   UNL     1       4.755  -2.465   2.797  1.00  0.00    -0.014 A 
BRANCH  13  14
ATOM     14  C   UNL     1       5.579  -3.247   3.747  1.00  0.00     0.031 A 
ATOM     15  C   UNL     1       6.232  -4.525   3.309  1.00  0.00     0.074 A 
ATOM     16  C   UNL     1       5.776  -2.786   4.995  1.00  0.00     0.049 A 
ATOM     17  N   UNL     1       7.040  -5.310   3.976  1.00  0.00    -0.248 NA
ATOM     18  C   UNL     1       5.936  -4.985   1.944  1.00  0.00     0.031 C 
ATOM     19  C   UNL     1       5.182  -1.571   5.551  1.00  0.00     0.029 A 
ATOM     20  N   UNL     1       6.550  -3.281   6.014  1.00  0.00    -0.354 N 
ATOM     21  C   UNL     1       7.335  -6.363   3.123  1.00  0.00     0.074 A 
ATOM     22  C   UNL     1       6.625  -6.117   1.885  1.00  0.00     0.031 C 
ATOM     23  C   UNL     1       5.642  -1.395   6.801  1.00  0.00     0.029 A 
ATOM     24  C   UNL     1       6.562  -2.482   7.128  1.00  0.00     0.049 A 
ATOM     25  H   UNL     1       7.049  -4.127   5.950  1.00  0.00     0.167 HD
ATOM     26  C   UNL     1       8.121  -7.441   3.353  1.00  0.00     0.037 A 
ATOM     27  C   UNL     1       7.258  -2.599   8.273  1.00  0.00     0.037 A 
ATOM     28  C   UNL     1       8.836  -7.694   4.574  1.00  0.00     0.049 A 
ATOM     29  C   UNL     1       8.204  -3.748   8.463  1.00  0.00     0.074 A 
ATOM     30  C   UNL     1       9.610  -8.790   4.915  1.00  0.00     0.029 A 
ATOM     31  N   UNL     1       8.877  -6.823   5.650  1.00  0.00    -0.354 N 
ATOM     32  N   UNL     1       8.457  -4.747   7.656  1.00  0.00    -0.248 NA
ATOM     33  C   UNL     1       8.970  -3.775   9.717  1.00  0.00     0.031 C 
ATOM     34  C   UNL     1      10.133  -8.575   6.197  1.00  0.00     0.029 A 
ATOM     35  C   UNL     1       9.685  -7.344   6.647  1.00  0.00     0.049 A 
ATOM     36  H   UNL     1       8.403  -5.962   5.699  1.00  0.00     0.167 HD
ATOM     37  C   UNL     1       9.407  -5.524   8.302  1.00  0.00     0.074 A 
ATOM     38  C   UNL     1       9.697  -4.874   9.564  1.00  0.00     0.031 C 
ATOM     39  C   UNL     1       9.978  -6.678   7.886  1.00  0.00     0.037 A 
BRANCH  26  40
ATOM     40  C   UNL     1       8.240  -8.442   2.250  1.00  0.00     0.064 A 
ATOM     41  C   UNL     1       9.206  -8.296   1.246  1.00  0.00     0.173 A 
ATOM     42  C   UNL     1       7.404  -9.566   2.212  1.00  0.00     0.173 A 
ATOM     43  F   UNL     1      10.015  -7.226   1.238  1.00  0.00    -0.203 F 
ATOM     44  C   UNL     1       9.328  -9.244   0.234  1.00  0.00     0.198 A 
ATOM     45  C   UNL     1       7.532 -10.514   1.201  1.00  0.00     0.198 A 
ATOM     46  F   UNL     1       6.461  -9.738   3.150  1.00  0.00    -0.203 F 
ATOM     47  F   UNL     1      10.247  -9.080  -0.728  1.00  0.00    -0.200 F 
ATOM     48  C   UNL     1       8.494 -10.352   0.214  1.00  0.00     0.200 A 
ATOM     49  F   UNL     1       6.721 -11.581   1.178  1.00  0.00    -0.200 F 
ATOM     50  F   UNL     1       8.610 -11.261  -0.764  1.00  0.00    -0.200 F 
ENDBRANCH  26  40
BRANCH  27  51
ATOM     51  C   UNL     1       7.120  -1.558   9.314  1.00  0.00     0.064 A 
ATOM     52  C   UNL     1       7.977  -0.451   9.331  1.00  0.00     0.173 A 
ATOM     53  C   UNL     1       6.123  -1.642  10.292  1.00  0.00     0.173 A 
ATOM     54  F   UNL     1       8.952  -0.344   8.417  1.00  0.00    -0.203 F 
ATOM     55  C   UNL     1       7.840   0.543  10.296  1.00  0.00     0.198 A 
ATOM     56  C   UNL     1       5.985  -0.646  11.255  1.00  0.00     0.198 A 
ATOM     57  F   UNL     1       5.289  -2.692  10.311  1.00  0.00    -0.203 F 
ATOM     58  F   UNL     1       8.674   1.591  10.299  1.00  0.00    -0.200 F 
ATOM     59  C   UNL     1       6.842   0.445  11.256  1.00  0.00     0.200 A 
ATOM     60  F   UNL     1       5.024  -0.743  12.184  1.00  0.00    -0.200 F 
ATOM     61  F   UNL     1       6.711   1.401  12.186  1.00  0.00    -0.200 F 
ENDBRANCH  27  51
BRANCH  39  62
ATOM     62  C   UNL     1      10.979  -7.308   8.799  1.00  0.00     0.064 A 
ATOM     63  C   UNL     1      10.579  -8.207   9.796  1.00  0.00     0.173 A 
ATOM     64  C   UNL     1      12.347  -7.038   8.655  1.00  0.00     0.173 A 
ATOM     65  F   UNL     1       9.278  -8.484   9.971  1.00  0.00    -0.203 F 
ATOM     66  C   UNL     1      11.517  -8.815  10.624  1.00  0.00     0.198 A 
ATOM     67  C   UNL     1      13.283  -7.649   9.485  1.00  0.00     0.198 A 
ATOM     68  F   UNL     1      12.770  -6.176   7.719  1.00  0.00    -0.203 F 
ATOM     69  F   UNL     1      11.115  -9.665  11.579  1.00  0.00    -0.200 F 
ATOM     70  C   UNL     1      12.867  -8.537  10.467  1.00  0.00     0.200 A 
ATOM     71  F   UNL     1      14.586  -7.374   9.339  1.00  0.00    -0.200 F 
ATOM     72  F   UNL     1      13.770  -9.119  11.269  1.00  0.00    -0.200 F 
ENDBRANCH  39  62
ENDBRANCH  13  14
ENDBRANCH   6   8
ENDBRANCH   3   4
ENDBRANCH   2   3
ENDBRANCH   1   2
BRANCH   1  73
ATOM     73  C   UNL     1       4.464   1.992  -3.909  1.00  0.00     0.116 C 
BRANCH  73  74
ATOM     74  N   UNL     1       5.915   1.999  -3.872  1.00  0.00    -0.352 N 
ATOM     75  C   UNL     1       6.828   2.756  -4.559  1.00  0.00     0.257 C 
ATOM     76  H   UNL     1       6.311   1.350  -3.247  1.00  0.00     0.163 HD
ATOM     77  O   UNL     1       8.020   2.502  -4.406  1.00  0.00    -0.269 OA
BRANCH  75  78
ATOM     78  C   UNL     1       6.382   3.808  -5.436  1.00  0.00     0.113 A 
ATOM     79  C   UNL     1       6.770   4.062  -6.786  1.00  0.00     0.127 A 
ATOM     80  C   UNL     1       5.592   4.890  -5.102  1.00  0.00     0.175 A 
ATOM     81  N   UNL     1       6.177   5.179  -7.239  1.00  0.00    -0.079 NA
ATOM     82  O   UNL     1       5.439   5.685  -6.191  1.00  0.00    -0.357 OA
BRANCH  79  83
ATOM     83  C   UNL     1       7.671   3.293  -7.647  1.00  0.00     0.005 A 
ATOM     84  C   UNL     1       7.670   1.891  -7.634  1.00  0.00     0.012 A 
ATOM     85  C   UNL     1       8.563   3.961  -8.502  1.00  0.00     0.012 A 
ATOM     86  C   UNL     1       8.557   1.172  -8.443  1.00  0.00     0.021 A 
ATOM     87  C   UNL     1       9.449   3.242  -9.311  1.00  0.00     0.021 A 
ATOM     88  C   UNL     1       9.444   1.851  -9.275  1.00  0.00     0.041 A 
ATOM     89  Cl  UNL     1      10.537   0.963 -10.263  1.00  0.00    -0.084 Cl
ENDBRANCH  79  83
BRANCH  80  90
ATOM     90  C   UNL     1       4.925   5.330  -3.857  1.00  0.00     0.242 C 
BRANCH  90  91
ATOM     91  O   UNL     1       5.236   6.678  -3.527  1.00  0.00    -0.345 OA
BRANCH  91  92
ATOM     92  C   UNL     1       6.605   7.014  -3.317  1.00  0.00     0.250 C 
ATOM     93  C   UNL     1       7.372   6.102  -2.352  1.00  0.00     0.062 C 
ATOM     94  O   UNL     1       6.685   8.362  -2.832  1.00  0.00    -0.353 OA
ATOM     95  C   UNL     1       6.821   6.208  -0.934  1.00  0.00     0.008 C 
ATOM     96  C   UNL     1       6.075   8.524  -1.550  1.00  0.00     0.163 C 
ATOM     97  C   UNL     1       6.769   7.667  -0.499  1.00  0.00     0.029 C 
ENDBRANCH  91  92
ENDBRANCH  90  91
ENDBRANCH  80  90
ENDBRANCH  75  78
ENDBRANCH  73  74
ENDBRANCH   1  73
TORSDOF 15
