REMARK SMILES Cc1coc2cc3c(cc12)[C@@H](C)[C@H](CCC(=O)N[C@@H](Cc1c[nH]c2ccccc12)C(=O)NCCCCNC(=O)c1ccc(-c2c4nc(c(-c5c(F)c(F)c(F)c(F)c5F)c5ccc([nH]5)c(-c5c(F)c(F)c(F)c(F)c5F)c5nc(c(-c6c(F)c(F)c(F)c(F)c6F)c6ccc2[nH]6)C=C5)C=C4)cc1)C(=O)O3
REMARK SMILES IDX 33 1 32 2 30 3 31 4 19 6 18 7 16 8 17 9 15 11 14 12 13 13
REMARK SMILES IDX 1 14 2 15 3 16 10 17 4 18 5 19 9 20 6 21 8 22 7 23 11 24
REMARK SMILES IDX 105 25 12 26 103 27 104 28 20 29 21 30 22 31 29 32 23 33
REMARK SMILES IDX 24 34 28 35 25 37 27 38 26 39 34 40 35 41 36 42 37 43 38 44
REMARK SMILES IDX 39 46 40 47 41 48 102 49 42 50 101 51 43 52 44 53 45 54
REMARK SMILES IDX 95 55 46 56 100 57 94 58 96 59 47 60 99 61 93 62 92 63 48 65
REMARK SMILES IDX 80 66 60 67 79 68 61 69 64 70 78 71 97 72 62 73 63 74 77 76
REMARK SMILES IDX 98 77 65 78 49 79 50 80 58 81 51 82 52 83 56 84 59 85 53 86
REMARK SMILES IDX 54 87 57 88 55 89 81 90 82 91 90 92 83 93 84 94 88 95 91 96
REMARK SMILES IDX 85 97 86 98 89 99 87 100 66 101 67 102 75 103 68 104 69 105
REMARK SMILES IDX 73 106 76 107 70 108 71 109 74 110 72 111
REMARK H PARENT 32 5 18 10 23 36 37 45 96 64 64 75
REMARK Flexibility Score: inf
ROOT
ATOM      1  C   UNL     1      -0.201  -8.047   3.406  1.00  0.00     0.116 C 
ENDROOT
BRANCH   1   2
ATOM      2  N   UNL     1       1.158  -9.020   3.245  1.00  0.00    -0.354 N 
ATOM      3  C   UNL     1       2.297  -9.066   2.467  1.00  0.00     0.242 C 
ATOM      4  O   UNL     1       2.868 -10.163   2.406  1.00  0.00    -0.273 OA
ATOM      5  H   UNL     1       1.136  -9.768   3.885  1.00  0.00     0.163 HD
BRANCH   3   6
ATOM      6  C   UNL     1       2.860  -7.847   1.654  1.00  0.00     0.175 C 
BRANCH   6   7
ATOM      7  N   UNL     1       2.758  -7.856   0.138  1.00  0.00    -0.344 N 
ATOM      8  C   UNL     1       3.512  -7.443  -0.940  1.00  0.00     0.220 C 
ATOM      9  O   UNL     1       2.912  -7.416  -2.025  1.00  0.00    -0.275 OA
ATOM     10  H   UNL     1       1.917  -8.275  -0.157  1.00  0.00     0.164 HD
BRANCH   8  11
ATOM     11  C   UNL     1       5.027  -7.025  -0.933  1.00  0.00     0.101 C 
BRANCH  11  12
ATOM     12  C   UNL     1       5.465  -5.458  -1.087  1.00  0.00     0.026 C 
BRANCH  12  13
ATOM     13  C   UNL     1       5.621  -4.632   0.262  1.00  0.00     0.107 C 
ATOM     14  C   UNL     1       0.640   0.600  -0.127  1.00  0.00     0.048 C 
ATOM     15  C   UNL     1       0.587  -0.822  -0.534  1.00  0.00    -0.005 A 
ATOM     16  C   UNL     1      -0.493  -1.486  -1.081  1.00  0.00     0.199 A 
ATOM     17  C   UNL     1       1.626  -1.793  -0.414  1.00  0.00     0.024 A 
ATOM     18  O   UNL     1      -0.212  -2.799  -1.269  1.00  0.00    -0.464 OA
ATOM     19  C   UNL     1       1.064  -2.994  -0.840  1.00  0.00     0.137 A 
ATOM     20  C   UNL     1       2.967  -1.788   0.046  1.00  0.00     0.020 A 
ATOM     21  C   UNL     1       1.694  -4.224  -0.746  1.00  0.00     0.095 A 
ATOM     22  C   UNL     1       3.652  -3.002   0.128  1.00  0.00    -0.001 A 
ATOM     23  C   UNL     1       2.942  -4.162  -0.130  1.00  0.00     0.138 A 
ATOM     24  C   UNL     1       5.064  -3.193   0.633  1.00  0.00     0.034 C 
ATOM     25  O   UNL     1       3.435  -5.323   0.515  1.00  0.00    -0.426 OA
ATOM     26  C   UNL     1       4.998  -3.000   2.190  1.00  0.00     0.014 C 
ATOM     27  C   UNL     1       4.726  -5.411   1.085  1.00  0.00     0.314 C 
ATOM     28  O   UNL     1       5.095  -6.103   2.023  1.00  0.00    -0.251 OA
ENDBRANCH  12  13
ENDBRANCH  11  12
ENDBRANCH   8  11
ENDBRANCH   6   7
BRANCH   6  29
ATOM     29  C   UNL     1       2.321  -6.589   2.368  1.00  0.00     0.072 C 
BRANCH  29  30
ATOM     30  C   UNL     1       1.005  -6.060   1.865  1.00  0.00    -0.020 A 
ATOM     31  C   UNL     1       0.538  -4.775   2.167  1.00  0.00     0.087 A 
ATOM     32  C   UNL     1      -0.117  -6.918   1.636  1.00  0.00     0.003 A 
ATOM     33  N   UNL     1      -0.775  -4.814   2.609  1.00  0.00    -0.361 N 
ATOM     34  C   UNL     1      -1.054  -6.126   2.886  1.00  0.00     0.046 A 
ATOM     35  C   UNL     1      -0.254  -8.733   1.442  1.00  0.00     0.010 A 
ATOM     36  H   UNL     1      -1.387  -4.049   2.705  1.00  0.00     0.166 HD
ATOM     37  C   UNL     1      -1.972  -7.077   4.089  1.00  0.00     0.026 A 
ATOM     38  C   UNL     1      -1.168  -9.709   2.666  1.00  0.00     0.001 A 
ATOM     39  C   UNL     1      -2.037  -8.866   3.972  1.00  0.00     0.002 A 
ENDBRANCH  29  30
ENDBRANCH   6  29
ENDBRANCH   3   6
ENDBRANCH   1   2
BRANCH   1  40
ATOM     40  C   UNL     1      -1.978  -7.873   2.107  1.00  0.00     0.023 C 
BRANCH  40  41
ATOM     41  C   UNL     1      -3.250  -8.909   1.636  1.00  0.00     0.023 C 
BRANCH  41  42
ATOM     42  C   UNL     1      -4.409  -9.110   2.608  1.00  0.00     0.116 C 
BRANCH  42  43
ATOM     43  N   UNL     1      -4.763  -7.905   3.371  1.00  0.00    -0.352 N 
ATOM     44  C   UNL     1      -5.743  -7.669   4.297  1.00  0.00     0.251 C 
ATOM     45  H   UNL     1      -4.192  -7.125   3.182  1.00  0.00     0.163 HD
ATOM     46  O   UNL     1      -5.767  -6.645   4.967  1.00  0.00    -0.269 OA
BRANCH  44  47
ATOM     47  C   UNL     1      -6.874  -8.590   4.282  1.00  0.00     0.039 A 
ATOM     48  C   UNL     1      -6.601  -9.947   4.268  1.00  0.00     0.014 A 
ATOM     49  C   UNL     1      -8.053  -8.047   3.759  1.00  0.00     0.014 A 
ATOM     50  C   UNL     1      -7.329 -10.697   3.380  1.00  0.00     0.010 A 
ATOM     51  C   UNL     1      -8.886  -8.855   3.015  1.00  0.00     0.010 A 
ATOM     52  C   UNL     1      -8.460 -10.146   2.731  1.00  0.00    -0.014 A 
BRANCH  52  53
ATOM     53  C   UNL     1      -9.228 -11.069   1.903  1.00  0.00     0.031 A 
ATOM     54  C   UNL     1      -9.354 -12.398   2.568  1.00  0.00     0.074 A 
ATOM     55  C   UNL     1      -9.811 -10.797   0.722  1.00  0.00     0.049 A 
ATOM     56  N   UNL     1      -8.827 -13.514   2.184  1.00  0.00    -0.248 NA
ATOM     57  C   UNL     1      -9.852 -12.407   3.958  1.00  0.00     0.031 C 
ATOM     58  C   UNL     1      -9.979  -9.526   0.020  1.00  0.00     0.029 A 
ATOM     59  N   UNL     1     -10.474 -11.671  -0.083  1.00  0.00    -0.354 N 
ATOM     60  C   UNL     1      -9.045 -14.407   3.227  1.00  0.00     0.074 A 
ATOM     61  C   UNL     1      -9.499 -13.630   4.348  1.00  0.00     0.031 C 
ATOM     62  C   UNL     1     -10.913  -9.672  -0.951  1.00  0.00     0.029 A 
ATOM     63  C   UNL     1     -11.284 -11.072  -1.038  1.00  0.00     0.049 A 
ATOM     64  H   UNL     1     -10.386 -12.648   0.004  1.00  0.00     0.167 HD
ATOM     65  C   UNL     1      -9.039 -15.748   3.018  1.00  0.00     0.037 A 
ATOM     66  C   UNL     1     -12.244 -11.711  -1.754  1.00  0.00     0.037 A 
ATOM     67  C   UNL     1      -8.307 -16.082   1.824  1.00  0.00     0.049 A 
ATOM     68  C   UNL     1     -11.909 -13.163  -1.733  1.00  0.00     0.074 A 
ATOM     69  C   UNL     1      -6.984 -15.972   1.441  1.00  0.00     0.029 A 
ATOM     70  N   UNL     1      -9.017 -16.261   0.661  1.00  0.00    -0.354 N 
ATOM     71  N   UNL     1     -10.863 -13.664  -2.332  1.00  0.00    -0.248 NA
ATOM     72  C   UNL     1     -12.450 -13.964  -0.642  1.00  0.00     0.031 C 
ATOM     73  C   UNL     1      -7.026 -15.602   0.064  1.00  0.00     0.029 A 
ATOM     74  C   UNL     1      -8.364 -15.569  -0.327  1.00  0.00     0.049 A 
ATOM     75  H   UNL     1      -9.841 -16.788   0.557  1.00  0.00     0.167 HD
ATOM     76  C   UNL     1     -10.365 -14.608  -1.445  1.00  0.00     0.074 A 
ATOM     77  C   UNL     1     -11.416 -14.787  -0.444  1.00  0.00     0.031 C 
ATOM     78  C   UNL     1      -9.041 -14.938  -1.433  1.00  0.00     0.037 A 
BRANCH  65  79
ATOM     79  C   UNL     1     -10.049 -16.673   3.653  1.00  0.00     0.064 A 
ATOM     80  C   UNL     1      -9.983 -18.048   3.360  1.00  0.00     0.173 A 
ATOM     81  C   UNL     1     -11.248 -16.239   4.263  1.00  0.00     0.173 A 
ATOM     82  F   UNL     1      -8.891 -18.575   2.787  1.00  0.00    -0.203 F 
ATOM     83  C   UNL     1     -11.079 -18.893   3.553  1.00  0.00     0.198 A 
ATOM     84  C   UNL     1     -12.320 -17.094   4.496  1.00  0.00     0.198 A 
ATOM     85  F   UNL     1     -11.491 -14.959   4.560  1.00  0.00    -0.203 F 
ATOM     86  F   UNL     1     -11.019 -20.162   3.128  1.00  0.00    -0.200 F 
ATOM     87  C   UNL     1     -12.251 -18.411   4.105  1.00  0.00     0.200 A 
ATOM     88  F   UNL     1     -13.450 -16.600   5.022  1.00  0.00    -0.200 F 
ATOM     89  F   UNL     1     -13.327 -19.199   4.219  1.00  0.00    -0.200 F 
ENDBRANCH  65  79
BRANCH  66  90
ATOM     90  C   UNL     1     -13.605 -11.215  -2.078  1.00  0.00     0.064 A 
ATOM     91  C   UNL     1     -14.408 -11.871  -3.026  1.00  0.00     0.173 A 
ATOM     92  C   UNL     1     -14.252 -10.265  -1.263  1.00  0.00     0.173 A 
ATOM     93  F   UNL     1     -13.883 -12.826  -3.808  1.00  0.00    -0.203 F 
ATOM     94  C   UNL     1     -15.779 -11.610  -3.135  1.00  0.00     0.198 A 
ATOM     95  C   UNL     1     -15.619 -10.002  -1.375  1.00  0.00     0.198 A 
ATOM     96  F   UNL     1     -13.595  -9.642  -0.275  1.00  0.00    -0.203 F 
ATOM     97  F   UNL     1     -16.525 -12.299  -4.010  1.00  0.00    -0.200 F 
ATOM     98  C   UNL     1     -16.385 -10.683  -2.302  1.00  0.00     0.200 A 
ATOM     99  F   UNL     1     -16.199  -9.132  -0.536  1.00  0.00    -0.200 F 
ATOM    100  F   UNL     1     -17.708 -10.477  -2.362  1.00  0.00    -0.200 F 
ENDBRANCH  66  90
BRANCH  78 101
ATOM    101  C   UNL     1      -8.172 -14.406  -2.537  1.00  0.00     0.064 A 
ATOM    102  C   UNL     1      -7.897 -13.040  -2.726  1.00  0.00     0.173 A 
ATOM    103  C   UNL     1      -7.451 -15.322  -3.312  1.00  0.00     0.173 A 
ATOM    104  F   UNL     1      -8.473 -12.109  -1.955  1.00  0.00    -0.203 F 
ATOM    105  C   UNL     1      -6.963 -12.615  -3.670  1.00  0.00     0.198 A 
ATOM    106  C   UNL     1      -6.494 -14.897  -4.229  1.00  0.00     0.198 A 
ATOM    107  F   UNL     1      -7.632 -16.640  -3.134  1.00  0.00    -0.203 F 
ATOM    108  F   UNL     1      -6.716 -11.306  -3.830  1.00  0.00    -0.200 F 
ATOM    109  C   UNL     1      -6.255 -13.545  -4.413  1.00  0.00     0.200 A 
ATOM    110  F   UNL     1      -5.775 -15.802  -4.907  1.00  0.00    -0.200 F 
ATOM    111  F   UNL     1      -5.319 -13.140  -5.283  1.00  0.00    -0.200 F 
ENDBRANCH  78 101
ENDBRANCH  52  53
ENDBRANCH  44  47
ENDBRANCH  42  43
ENDBRANCH  41  42
ENDBRANCH  40  41
ENDBRANCH   1  40
TORSDOF 17
