REMARK SMILES O=C(NCCCCNC(=O)c1ccc(N2CNC(c3ccccc3)=[NH+]C2=S)cc1)c1ccc(-c2c3nc(c(-c4c(F)c(F)c(F)c(F)c4F)c4ccc([nH]4)c(-c4c(F)c(F)c(F)c(F)c4F)c4nc(c(-c5c(F)c(F)c(F)c(F)c5F)c5ccc2[nH]5)C=C4)C=C3)cc1
REMARK SMILES IDX 5 1 4 2 3 3 1 4 2 5 30 7 31 8 92 9 32 10 91 11 33 12 34 13
REMARK SMILES IDX 35 14 85 15 36 16 90 17 84 18 86 19 37 20 89 21 83 22 82 23
REMARK SMILES IDX 38 25 70 26 50 27 69 28 51 29 54 30 68 31 87 32 52 33 53 34
REMARK SMILES IDX 67 36 88 37 55 38 39 39 40 40 48 41 41 42 42 43 46 44 49 45
REMARK SMILES IDX 43 46 44 47 47 48 45 49 71 50 72 51 80 52 73 53 74 54 78 55
REMARK SMILES IDX 81 56 75 57 76 58 79 59 77 60 56 61 57 62 65 63 58 64 59 65
REMARK SMILES IDX 63 66 66 67 60 68 61 69 64 70 62 71 6 72 7 73 8 74 9 75
REMARK SMILES IDX 10 77 11 78 12 79 29 80 13 81 28 82 14 83 15 84 16 85 26 86
REMARK SMILES IDX 17 87 25 88 27 89 18 90 19 93 20 94 24 95 21 96 23 97 22 98
REMARK H PARENT 3 6 86 24 54 35 8 76 17 91 25 92
REMARK Flexibility Score: inf
ROOT
ATOM      1  C   UNL     1       5.013   1.037   2.419  1.00  0.00     0.023 C 
ENDROOT
BRANCH   1   2
ATOM      2  C   UNL     1       4.676   0.032   1.326  1.00  0.00     0.116 C 
BRANCH   2   3
ATOM      3  N   UNL     1       3.244  -0.141   1.135  1.00  0.00    -0.352 N 
ATOM      4  O   UNL     1       1.265  -0.041   0.054  1.00  0.00    -0.269 OA
ATOM      5  C   UNL     1       2.490   0.019  -0.003  1.00  0.00     0.251 C 
ATOM      6  H   UNL     1       2.742  -0.413   1.937  1.00  0.00     0.163 HD
BRANCH   5   7
ATOM      7  C   UNL     1       3.152   0.292  -1.296  1.00  0.00     0.039 A 
ATOM      8  C   UNL     1       4.272  -0.442  -1.696  1.00  0.00     0.014 A 
ATOM      9  C   UNL     1       2.639   1.294  -2.124  1.00  0.00     0.014 A 
ATOM     10  C   UNL     1       4.961  -0.079  -2.848  1.00  0.00     0.010 A 
ATOM     11  C   UNL     1       3.283   1.601  -3.325  1.00  0.00     0.010 A 
ATOM     12  C   UNL     1       4.467   0.938  -3.682  1.00  0.00    -0.014 A 
BRANCH  12  13
ATOM     13  C   UNL     1       5.168   1.243  -4.954  1.00  0.00     0.031 A 
ATOM     14  C   UNL     1       5.819   2.576  -5.185  1.00  0.00     0.074 A 
ATOM     15  C   UNL     1       5.214   0.293  -5.907  1.00  0.00     0.049 A 
ATOM     16  N   UNL     1       6.462   3.008  -6.242  1.00  0.00    -0.248 NA
ATOM     17  C   UNL     1       5.729   3.558  -4.096  1.00  0.00     0.031 C 
ATOM     18  C   UNL     1       4.598  -1.031  -5.802  1.00  0.00     0.029 A 
ATOM     19  N   UNL     1       5.803   0.289  -7.145  1.00  0.00    -0.354 N 
ATOM     20  C   UNL     1       6.836   4.313  -5.954  1.00  0.00     0.074 A 
ATOM     21  C   UNL     1       6.326   4.614  -4.633  1.00  0.00     0.031 C 
ATOM     22  C   UNL     1       4.861  -1.728  -6.916  1.00  0.00     0.029 A 
ATOM     23  C   UNL     1       5.613  -0.881  -7.836  1.00  0.00     0.049 A 
ATOM     24  H   UNL     1       6.312   1.052  -7.504  1.00  0.00     0.167 HD
ATOM     25  C   UNL     1       7.545   5.176  -6.722  1.00  0.00     0.037 A 
ATOM     26  C   UNL     1       5.978  -1.229  -9.083  1.00  0.00     0.037 A 
ATOM     27  C   UNL     1       8.061   4.862  -8.030  1.00  0.00     0.049 A 
ATOM     28  C   UNL     1       6.751  -0.251  -9.918  1.00  0.00     0.074 A 
ATOM     29  C   UNL     1       8.842   5.647  -8.862  1.00  0.00     0.029 A 
ATOM     30  N   UNL     1       7.840   3.668  -8.703  1.00  0.00    -0.354 N 
ATOM     31  N   UNL     1       7.144   0.962  -9.614  1.00  0.00    -0.248 NA
ATOM     32  C   UNL     1       7.132  -0.688 -11.267  1.00  0.00     0.031 C 
ATOM     33  C   UNL     1       9.048   4.949 -10.058  1.00  0.00     0.029 A 
ATOM     34  C   UNL     1       8.441   3.708  -9.952  1.00  0.00     0.049 A 
ATOM     35  H   UNL     1       7.330   2.905  -8.346  1.00  0.00     0.167 HD
ATOM     36  C   UNL     1       7.827   1.431 -10.726  1.00  0.00     0.074 A 
ATOM     37  C   UNL     1       7.813   0.363 -11.705  1.00  0.00     0.031 C 
ATOM     38  C   UNL     1       8.410   2.639 -10.919  1.00  0.00     0.037 A 
BRANCH  25  39
ATOM     39  C   UNL     1       7.787   6.556  -6.178  1.00  0.00     0.064 A 
ATOM     40  C   UNL     1       8.665   6.787  -5.109  1.00  0.00     0.173 A 
ATOM     41  C   UNL     1       7.159   7.668  -6.762  1.00  0.00     0.173 A 
ATOM     42  F   UNL     1       9.285   5.759  -4.510  1.00  0.00    -0.203 F 
ATOM     43  C   UNL     1       8.883   8.076  -4.626  1.00  0.00     0.198 A 
ATOM     44  C   UNL     1       7.401   8.957  -6.295  1.00  0.00     0.198 A 
ATOM     45  F   UNL     1       6.317   7.505  -7.793  1.00  0.00    -0.203 F 
ATOM     46  F   UNL     1       9.691   8.267  -3.574  1.00  0.00    -0.200 F 
ATOM     47  C   UNL     1       8.256   9.159  -5.222  1.00  0.00     0.200 A 
ATOM     48  F   UNL     1       6.804  10.004  -6.881  1.00  0.00    -0.200 F 
ATOM     49  F   UNL     1       8.470  10.399  -4.759  1.00  0.00    -0.200 F 
ENDBRANCH  25  39
BRANCH  26  50
ATOM     50  C   UNL     1       5.597  -2.566  -9.605  1.00  0.00     0.064 A 
ATOM     51  C   UNL     1       6.556  -3.567  -9.802  1.00  0.00     0.173 A 
ATOM     52  C   UNL     1       4.256  -2.880  -9.874  1.00  0.00     0.173 A 
ATOM     53  F   UNL     1       7.851  -3.308  -9.573  1.00  0.00    -0.203 F 
ATOM     54  C   UNL     1       6.188  -4.833 -10.254  1.00  0.00     0.198 A 
ATOM     55  C   UNL     1       3.886  -4.153 -10.298  1.00  0.00     0.198 A 
ATOM     56  F   UNL     1       3.301  -1.956  -9.692  1.00  0.00    -0.203 F 
ATOM     57  F   UNL     1       7.127  -5.766 -10.462  1.00  0.00    -0.200 F 
ATOM     58  C   UNL     1       4.853  -5.127 -10.492  1.00  0.00     0.200 A 
ATOM     59  F   UNL     1       2.594  -4.439 -10.507  1.00  0.00    -0.200 F 
ATOM     60  F   UNL     1       4.499  -6.350 -10.911  1.00  0.00    -0.200 F 
ENDBRANCH  26  50
BRANCH  38  61
ATOM     61  C   UNL     1       9.094   2.864 -12.235  1.00  0.00     0.064 A 
ATOM     62  C   UNL     1       8.365   3.051 -13.418  1.00  0.00     0.173 A 
ATOM     63  C   UNL     1      10.494   2.928 -12.307  1.00  0.00     0.173 A 
ATOM     64  F   UNL     1       7.025   2.980 -13.403  1.00  0.00    -0.203 F 
ATOM     65  C   UNL     1       9.013   3.272 -14.630  1.00  0.00     0.198 A 
ATOM     66  C   UNL     1      11.138   3.177 -13.516  1.00  0.00     0.198 A 
ATOM     67  F   UNL     1      11.237   2.759 -11.203  1.00  0.00    -0.203 F 
ATOM     68  F   UNL     1       8.298   3.403 -15.756  1.00  0.00    -0.200 F 
ATOM     69  C   UNL     1      10.397   3.342 -14.677  1.00  0.00     0.200 A 
ATOM     70  F   UNL     1      12.475   3.255 -13.558  1.00  0.00    -0.200 F 
ATOM     71  F   UNL     1      11.019   3.561 -15.844  1.00  0.00    -0.200 F 
ENDBRANCH  38  61
ENDBRANCH  12  13
ENDBRANCH   5   7
ENDBRANCH   2   3
ENDBRANCH   1   2
BRANCH   1  72
ATOM     72  C   UNL     1       4.554   0.653   3.824  1.00  0.00     0.023 C 
BRANCH  72  73
ATOM     73  C   UNL     1       4.985  -0.732   4.300  1.00  0.00     0.116 C 
BRANCH  73  74
ATOM     74  N   UNL     1       6.430  -0.906   4.297  1.00  0.00    -0.352 N 
ATOM     75  C   UNL     1       7.252  -1.313   5.321  1.00  0.00     0.251 C 
ATOM     76  H   UNL     1       6.881  -0.704   3.446  1.00  0.00     0.163 HD
ATOM     77  O   UNL     1       8.470  -1.296   5.190  1.00  0.00    -0.269 OA
BRANCH  75  78
ATOM     78  C   UNL     1       6.651  -1.754   6.593  1.00  0.00     0.040 A 
ATOM     79  C   UNL     1       7.000  -1.092   7.770  1.00  0.00     0.017 A 
ATOM     80  C   UNL     1       5.725  -2.799   6.615  1.00  0.00     0.017 A 
ATOM     81  C   UNL     1       6.337  -1.409   8.958  1.00  0.00     0.044 A 
ATOM     82  C   UNL     1       5.067  -3.114   7.804  1.00  0.00     0.044 A 
ATOM     83  C   UNL     1       5.330  -2.386   8.975  1.00  0.00     0.103 A 
BRANCH  83  84
ATOM     84  N   UNL     1       4.575  -2.636  10.161  1.00  0.00    -0.219 N 
ATOM     85  C   UNL     1       4.296  -4.015  10.478  1.00  0.00     0.405 C 
ATOM     86  C   UNL     1       3.868  -1.640  10.863  1.00  0.00     0.297 C 
ATOM     87  N   UNL     1       4.069  -4.151  11.881  1.00  0.00    -0.274 N 
ATOM     88  N   UNL     1       3.222  -1.991  12.025  1.00  0.00    -0.236 N 
ATOM     89  S   UNL     1       3.687  -0.032  10.339  1.00  0.00    -0.005 S 
ATOM     90  C   UNL     1       3.369  -3.174  12.520  1.00  0.00     0.229 C 
ATOM     91  H   UNL     1       4.409  -4.932  12.373  1.00  0.00     0.260 HD
ATOM     92  H   UNL     1       2.645  -1.337  12.482  1.00  0.00     0.268 HD
BRANCH  90  93
ATOM     93  C   UNL     1       2.709  -3.472  13.820  1.00  0.00     0.047 A 
ATOM     94  C   UNL     1       1.444  -2.934  14.083  1.00  0.00     0.015 A 
ATOM     95  C   UNL     1       3.347  -4.269  14.775  1.00  0.00     0.015 A 
ATOM     96  C   UNL     1       0.813  -3.202  15.298  1.00  0.00     0.001 A 
ATOM     97  C   UNL     1       2.716  -4.525  15.994  1.00  0.00     0.001 A 
ATOM     98  C   UNL     1       1.450  -3.995  16.252  1.00  0.00     0.000 A 
ENDBRANCH  90  93
ENDBRANCH  83  84
ENDBRANCH  75  78
ENDBRANCH  73  74
ENDBRANCH  72  73
ENDBRANCH   1  72
TORSDOF 13
