REMARK SMILES COc1ccc2c(c1)C(=O)N(c1ccccc1C(=O)NCCCCNC(=O)c1ccc(-c3c4nc(c(-c5c(F)c(F)c(F)c(F)c5F)c5ccc([nH]5)c(-c5c(F)c(F)c(F)c(F)c5F)c5nc(c(-c6c(F)c(F)c(F)c(F)c6F)c6ccc3[nH]6)C=C5)C=C4)cc1)C2=O
REMARK SMILES IDX 22 1 21 2 20 3 18 4 19 5 17 7 12 8 13 9 14 10 16 11 15 12
REMARK SMILES IDX 11 13 3 14 4 15 8 16 5 17 7 18 6 19 9 20 91 21 10 22 92 23
REMARK SMILES IDX 2 24 1 25 23 26 24 27 25 28 26 29 27 31 28 32 29 33 90 34
REMARK SMILES IDX 30 35 89 36 31 37 32 38 33 39 83 40 34 41 88 42 82 43 84 44
REMARK SMILES IDX 35 45 87 46 81 47 80 48 36 50 68 51 48 52 67 53 49 54 52 55
REMARK SMILES IDX 66 56 85 57 50 58 51 59 65 61 86 62 53 63 37 64 38 65 46 66
REMARK SMILES IDX 39 67 40 68 44 69 47 70 41 71 42 72 45 73 43 74 69 75 70 76
REMARK SMILES IDX 78 77 71 78 72 79 76 80 79 81 73 82 74 83 77 84 75 85 54 86
REMARK SMILES IDX 55 87 63 88 56 89 57 90 61 91 64 92 58 93 59 94 62 95 60 96
REMARK H PARENT 20 6 25 30 84 49 52 60
REMARK Flexibility Score: inf
ROOT
ATOM      1  C   UNL     1       2.573  -5.580  -3.425  1.00  0.00     0.023 C 
ENDROOT
BRANCH   1   2
ATOM      2  C   UNL     1       3.285  -4.435  -4.132  1.00  0.00     0.116 C 
BRANCH   2   3
ATOM      3  N   UNL     1       4.726  -4.470  -4.125  1.00  0.00    -0.352 N 
ATOM      4  C   UNL     1       5.649  -3.966  -5.016  1.00  0.00     0.253 C 
ATOM      5  O   UNL     1       6.837  -4.095  -4.710  1.00  0.00    -0.269 OA
ATOM      6  H   UNL     1       5.118  -4.933  -3.350  1.00  0.00     0.163 HD
BRANCH   4   7
ATOM      7  C   UNL     1       5.324  -3.412  -6.370  1.00  0.00     0.064 A 
ATOM      8  C   UNL     1       4.279  -2.546  -6.748  1.00  0.00     0.065 A 
ATOM      9  C   UNL     1       4.104  -2.238  -8.118  1.00  0.00     0.028 A 
ATOM     10  C   UNL     1       4.966  -2.725  -9.098  1.00  0.00     0.002 A 
ATOM     11  C   UNL     1       6.188  -3.891  -7.386  1.00  0.00     0.016 A 
ATOM     12  C   UNL     1       6.016  -3.549  -8.731  1.00  0.00     0.001 A 
BRANCH   8  13
ATOM     13  N   UNL     1       3.365  -1.937  -5.862  1.00  0.00    -0.241 N 
ATOM     14  C   UNL     1       0.829  -0.293  -2.418  1.00  0.00     0.119 A 
ATOM     15  C   UNL     1      -0.194  -0.859  -3.215  1.00  0.00     0.047 A 
ATOM     16  C   UNL     1       2.157  -0.312  -2.854  1.00  0.00     0.061 A 
ATOM     17  C   UNL     1       0.079  -1.429  -4.458  1.00  0.00     0.018 A 
ATOM     18  C   UNL     1       2.409  -0.901  -4.080  1.00  0.00     0.057 A 
ATOM     19  C   UNL     1       1.395  -1.416  -4.866  1.00  0.00     0.053 A 
ATOM     20  C   UNL     1       3.685  -1.243  -4.722  1.00  0.00     0.266 C 
ATOM     21  C   UNL     1       2.002  -2.030  -6.038  1.00  0.00     0.266 C 
ATOM     22  O   UNL     1       4.766  -0.941  -4.252  1.00  0.00    -0.268 OA
ATOM     23  O   UNL     1       1.349  -2.588  -6.900  1.00  0.00    -0.268 OA
BRANCH  14  24
ATOM     24  O   UNL     1       0.384   0.199  -1.223  1.00  0.00    -0.497 OA
ATOM     25  C   UNL     1       1.342   0.775  -0.350  1.00  0.00     0.278 C 
ENDBRANCH  14  24
ENDBRANCH   8  13
ENDBRANCH   4   7
ENDBRANCH   2   3
ENDBRANCH   1   2
BRANCH   1  26
ATOM     26  C   UNL     1       2.754  -5.683  -1.909  1.00  0.00     0.023 C 
BRANCH  26  27
ATOM     27  C   UNL     1       2.514  -4.428  -1.069  1.00  0.00     0.116 C 
BRANCH  27  28
ATOM     28  N   UNL     1       1.212  -3.806  -1.248  1.00  0.00    -0.352 N 
ATOM     29  C   UNL     1       0.380  -3.173  -0.347  1.00  0.00     0.251 C 
ATOM     30  H   UNL     1       0.864  -3.843  -2.168  1.00  0.00     0.163 HD
ATOM     31  O   UNL     1      -0.732  -2.816  -0.733  1.00  0.00    -0.269 OA
BRANCH  29  32
ATOM     32  C   UNL     1       0.739  -3.003   1.088  1.00  0.00     0.039 A 
ATOM     33  C   UNL     1      -0.306  -3.026   2.022  1.00  0.00     0.014 A 
ATOM     34  C   UNL     1       2.052  -2.899   1.548  1.00  0.00     0.014 A 
ATOM     35  C   UNL     1      -0.029  -3.127   3.386  1.00  0.00     0.010 A 
ATOM     36  C   UNL     1       2.336  -3.099   2.901  1.00  0.00     0.010 A 
ATOM     37  C   UNL     1       1.297  -3.274   3.824  1.00  0.00    -0.014 A 
BRANCH  37  38
ATOM     38  C   UNL     1       1.575  -3.774   5.195  1.00  0.00     0.031 A 
ATOM     39  C   UNL     1       2.334  -2.958   6.196  1.00  0.00     0.074 A 
ATOM     40  C   UNL     1       1.187  -5.030   5.502  1.00  0.00     0.049 A 
ATOM     41  N   UNL     1       2.616  -3.239   7.444  1.00  0.00    -0.248 NA
ATOM     42  C   UNL     1       2.877  -1.673   5.733  1.00  0.00     0.031 C 
ATOM     43  C   UNL     1       0.539  -5.961   4.573  1.00  0.00     0.029 A 
ATOM     44  N   UNL     1       1.272  -5.743   6.671  1.00  0.00    -0.354 N 
ATOM     45  C   UNL     1       3.368  -2.171   7.913  1.00  0.00     0.074 A 
ATOM     46  C   UNL     1       3.548  -1.263   6.801  1.00  0.00     0.031 C 
ATOM     47  C   UNL     1       0.242  -7.098   5.218  1.00  0.00     0.029 A 
ATOM     48  C   UNL     1       0.702  -6.992   6.597  1.00  0.00     0.049 A 
ATOM     49  H   UNL     1       1.700  -5.393   7.486  1.00  0.00     0.167 HD
ATOM     50  C   UNL     1       3.845  -1.962   9.165  1.00  0.00     0.037 A 
ATOM     51  C   UNL     1       0.552  -7.942   7.539  1.00  0.00     0.037 A 
ATOM     52  C   UNL     1       3.655  -2.873  10.265  1.00  0.00     0.049 A 
ATOM     53  C   UNL     1       1.038  -7.660   8.932  1.00  0.00     0.074 A 
ATOM     54  C   UNL     1       4.040  -2.728  11.586  1.00  0.00     0.029 A 
ATOM     55  N   UNL     1       3.029  -4.109  10.166  1.00  0.00    -0.354 N 
ATOM     56  N   UNL     1       1.648  -6.595   9.393  1.00  0.00    -0.248 NA
ATOM     57  C   UNL     1       0.800  -8.701   9.940  1.00  0.00     0.031 C 
ATOM     58  C   UNL     1       3.685  -3.892  12.277  1.00  0.00     0.029 A 
ATOM     59  C   UNL     1       3.034  -4.744  11.398  1.00  0.00     0.049 A 
ATOM     60  H   UNL     1       2.639  -4.479   9.342  1.00  0.00     0.167 HD
ATOM     61  C   UNL     1       1.848  -6.826  10.746  1.00  0.00     0.074 A 
ATOM     62  C   UNL     1       1.273  -8.124  11.036  1.00  0.00     0.031 C 
ATOM     63  C   UNL     1       2.455  -6.036  11.665  1.00  0.00     0.037 A 
BRANCH  50  64
ATOM     64  C   UNL     1       4.612  -0.694   9.408  1.00  0.00     0.064 A 
ATOM     65  C   UNL     1       3.982   0.560   9.394  1.00  0.00     0.173 A 
ATOM     66  C   UNL     1       5.988  -0.730   9.680  1.00  0.00     0.173 A 
ATOM     67  F   UNL     1       2.669   0.653   9.130  1.00  0.00    -0.203 F 
ATOM     68  C   UNL     1       4.705   1.731   9.607  1.00  0.00     0.198 A 
ATOM     69  C   UNL     1       6.703   0.441   9.922  1.00  0.00     0.198 A 
ATOM     70  F   UNL     1       6.641  -1.901   9.713  1.00  0.00    -0.203 F 
ATOM     71  F   UNL     1       4.090   2.920   9.533  1.00  0.00    -0.200 F 
ATOM     72  C   UNL     1       6.064   1.670   9.875  1.00  0.00     0.200 A 
ATOM     73  F   UNL     1       8.015   0.380  10.193  1.00  0.00    -0.200 F 
ATOM     74  F   UNL     1       6.759   2.798  10.080  1.00  0.00    -0.200 F 
ENDBRANCH  50  64
BRANCH  51  75
ATOM     75  C   UNL     1      -0.137  -9.216   7.205  1.00  0.00     0.064 A 
ATOM     76  C   UNL     1      -1.413  -9.499   7.712  1.00  0.00     0.173 A 
ATOM     77  C   UNL     1       0.453 -10.166   6.359  1.00  0.00     0.173 A 
ATOM     78  F   UNL     1      -2.013  -8.628   8.537  1.00  0.00    -0.203 F 
ATOM     79  C   UNL     1      -2.063 -10.692   7.404  1.00  0.00     0.198 A 
ATOM     80  C   UNL     1      -0.210 -11.346   6.028  1.00  0.00     0.198 A 
ATOM     81  F   UNL     1       1.667  -9.938   5.837  1.00  0.00    -0.203 F 
ATOM     82  F   UNL     1      -3.265 -10.954   7.936  1.00  0.00    -0.200 F 
ATOM     83  C   UNL     1      -1.464 -11.612   6.557  1.00  0.00     0.200 A 
ATOM     84  F   UNL     1       0.364 -12.224   5.195  1.00  0.00    -0.200 F 
ATOM     85  F   UNL     1      -2.093 -12.755   6.254  1.00  0.00    -0.200 F 
ENDBRANCH  51  75
BRANCH  63  86
ATOM     86  C   UNL     1       2.505  -6.549  13.074  1.00  0.00     0.064 A 
ATOM     87  C   UNL     1       3.339  -7.616  13.439  1.00  0.00     0.173 A 
ATOM     88  C   UNL     1       1.723  -5.952  14.074  1.00  0.00     0.173 A 
ATOM     89  F   UNL     1       4.092  -8.231  12.515  1.00  0.00    -0.203 F 
ATOM     90  C   UNL     1       3.367  -8.085  14.749  1.00  0.00     0.198 A 
ATOM     91  C   UNL     1       1.776  -6.405  15.389  1.00  0.00     0.198 A 
ATOM     92  F   UNL     1       0.912  -4.926  13.776  1.00  0.00    -0.203 F 
ATOM     93  F   UNL     1       4.131  -9.140  15.065  1.00  0.00    -0.200 F 
ATOM     94  C   UNL     1       2.591  -7.476  15.724  1.00  0.00     0.200 A 
ATOM     95  F   UNL     1       1.034  -5.807  16.332  1.00  0.00    -0.200 F 
ATOM     96  F   UNL     1       2.620  -7.927  16.985  1.00  0.00    -0.200 F 
ENDBRANCH  63  86
ENDBRANCH  37  38
ENDBRANCH  29  32
ENDBRANCH  27  28
ENDBRANCH  26  27
ENDBRANCH   1  26
TORSDOF 13
