REMARK SMILES C[C@@]([NH3+])(C(=O)Nc1cc(C(=O)NCCCCNC(=O)c2ccc(-c3c4nc(c(-c5c(F)c(F)c(F)c(F)c5F)c5ccc([nH]5)c(-c5c(F)c(F)c(F)c(F)c5F)c5nc(c(-c6c(F)c(F)c(F)c(F)c6F)c6ccc3[nH]6)C=C5)C=C4)cc2)ccc1F)C(F)(F)F
REMARK SMILES IDX 14 1 13 2 12 3 10 4 11 5 9 7 7 8 8 9 85 10 84 11 86 12 83 13
REMARK SMILES IDX 6 14 4 15 5 16 2 18 1 19 3 20 87 24 88 25 89 26 90 27 15 28
REMARK SMILES IDX 16 29 17 30 18 31 19 33 20 34 21 35 82 36 22 37 81 38 23 39
REMARK SMILES IDX 24 40 25 41 75 42 26 43 80 44 74 45 76 46 27 47 79 48 73 49
REMARK SMILES IDX 72 50 28 52 60 53 40 54 59 55 41 56 44 57 58 58 77 59 42 60
REMARK SMILES IDX 43 61 57 63 78 64 45 65 29 66 30 67 38 68 31 69 32 70 36 71
REMARK SMILES IDX 39 72 33 73 34 74 37 75 35 76 61 77 62 78 70 79 63 80 64 81
REMARK SMILES IDX 68 82 71 83 65 84 66 85 69 86 67 87 46 88 47 89 55 90 48 91
REMARK SMILES IDX 49 92 53 93 56 94 50 95 51 96 54 97 52 98
REMARK H PARENT 12 6 6 17 3 21 3 22 3 23 17 32 76 51 44 62
REMARK Flexibility Score: inf
ROOT
ATOM      1  C   UNL     1       0.578  -0.593  -7.737  1.00  0.00     0.023 C 
ENDROOT
BRANCH   1   2
ATOM      2  C   UNL     1       0.967   0.726  -7.063  1.00  0.00     0.116 C 
BRANCH   2   3
ATOM      3  N   UNL     1      -0.205   1.486  -6.681  1.00  0.00    -0.352 N 
ATOM      4  C   UNL     1      -0.911   1.575  -5.509  1.00  0.00     0.251 C 
ATOM      5  O   UNL     1      -1.835   2.389  -5.477  1.00  0.00    -0.269 OA
ATOM      6  H   UNL     1      -0.564   2.050  -7.404  1.00  0.00     0.163 HD
BRANCH   4   7
ATOM      7  C   UNL     1      -0.621   0.773  -4.282  1.00  0.00     0.042 A 
ATOM      8  C   UNL     1      -0.915   0.605  -1.862  1.00  0.00     0.078 A 
ATOM      9  C   UNL     1      -1.146   1.267  -3.071  1.00  0.00     0.043 A 
ATOM     10  C   UNL     1      -0.254  -0.620  -1.879  1.00  0.00     0.146 A 
ATOM     11  C   UNL     1       0.257  -1.138  -3.060  1.00  0.00     0.042 A 
ATOM     12  F   UNL     1      -0.185  -1.374  -0.773  1.00  0.00    -0.205 F 
ATOM     13  C   UNL     1       0.074  -0.441  -4.256  1.00  0.00     0.017 A 
BRANCH   8  14
ATOM     14  N   UNL     1      -1.470   1.132  -0.691  1.00  0.00    -0.318 N 
ATOM     15  C   UNL     1      -0.899   1.325   0.544  1.00  0.00     0.295 C 
ATOM     16  O   UNL     1      -1.683   1.459   1.489  1.00  0.00    -0.267 OA
ATOM     17  H   UNL     1      -2.413   1.405  -0.762  1.00  0.00     0.170 HD
BRANCH  15  18
ATOM     18  C   UNL     1       0.635   1.543   0.710  1.00  0.00     0.267 C 
ATOM     19  C   UNL     1       1.476   0.265   0.670  1.00  0.00     0.100 C 
BRANCH  18  20
ATOM     20  N   UNL     1       1.128   2.457  -0.395  1.00  0.00    -0.337 N 
ATOM     21  H   UNL     1       0.984   2.007  -1.298  1.00  0.00     0.345 HD
ATOM     22  H   UNL     1       2.122   2.645  -0.263  1.00  0.00     0.345 HD
ATOM     23  H   UNL     1       0.609   3.335  -0.366  1.00  0.00     0.345 HD
ENDBRANCH  18  20
BRANCH  18  24
ATOM     24  C   UNL     1       0.823   2.166   2.125  1.00  0.00     0.453 C 
ATOM     25  F   UNL     1       0.495   1.329   3.129  1.00  0.00    -0.164 F 
ATOM     26  F   UNL     1       2.137   2.490   2.302  1.00  0.00    -0.164 F 
ATOM     27  F   UNL     1       0.138   3.323   2.270  1.00  0.00    -0.164 F 
ENDBRANCH  18  24
ENDBRANCH  15  18
ENDBRANCH   8  14
ENDBRANCH   4   7
ENDBRANCH   2   3
ENDBRANCH   1   2
BRANCH   1  28
ATOM     28  C   UNL     1       0.181  -0.470  -9.209  1.00  0.00     0.023 C 
BRANCH  28  29
ATOM     29  C   UNL     1       1.243   0.123 -10.128  1.00  0.00     0.116 C 
BRANCH  29  30
ATOM     30  N   UNL     1       2.539  -0.534 -10.032  1.00  0.00    -0.352 N 
ATOM     31  C   UNL     1       3.489  -0.692 -11.015  1.00  0.00     0.251 C 
ATOM     32  H   UNL     1       2.764  -0.914  -9.152  1.00  0.00     0.163 HD
ATOM     33  O   UNL     1       4.511  -1.329 -10.806  1.00  0.00    -0.269 OA
BRANCH  31  34
ATOM     34  C   UNL     1       3.224  -0.120 -12.349  1.00  0.00     0.039 A 
ATOM     35  C   UNL     1       3.243  -0.970 -13.457  1.00  0.00     0.014 A 
ATOM     36  C   UNL     1       2.870   1.224 -12.484  1.00  0.00     0.014 A 
ATOM     37  C   UNL     1       2.808  -0.492 -14.693  1.00  0.00     0.010 A 
ATOM     38  C   UNL     1       2.382   1.682 -13.702  1.00  0.00     0.010 A 
ATOM     39  C   UNL     1       2.324   0.821 -14.810  1.00  0.00    -0.014 A 
BRANCH  39  40
ATOM     40  C   UNL     1       1.695   1.303 -16.063  1.00  0.00     0.031 A 
ATOM     41  C   UNL     1       2.331   2.410 -16.848  1.00  0.00     0.074 A 
ATOM     42  C   UNL     1       0.501   0.803 -16.435  1.00  0.00     0.049 A 
ATOM     43  N   UNL     1       1.871   3.049 -17.893  1.00  0.00    -0.248 NA
ATOM     44  C   UNL     1       3.645   2.880 -16.383  1.00  0.00     0.031 C 
ATOM     45  C   UNL     1      -0.234  -0.247 -15.727  1.00  0.00     0.029 A 
ATOM     46  N   UNL     1      -0.315   1.124 -17.491  1.00  0.00    -0.354 N 
ATOM     47  C   UNL     1       2.829   4.004 -18.201  1.00  0.00     0.074 A 
ATOM     48  C   UNL     1       3.878   3.889 -17.210  1.00  0.00     0.031 C 
ATOM     49  C   UNL     1      -1.381  -0.497 -16.377  1.00  0.00     0.029 A 
ATOM     50  C   UNL     1      -1.484   0.403 -17.522  1.00  0.00     0.049 A 
ATOM     51  H   UNL     1      -0.085   1.806 -18.162  1.00  0.00     0.167 HD
ATOM     52  C   UNL     1       2.838   4.882 -19.230  1.00  0.00     0.037 A 
ATOM     53  C   UNL     1      -2.529   0.470 -18.370  1.00  0.00     0.037 A 
ATOM     54  C   UNL     1       1.809   4.968 -20.231  1.00  0.00     0.049 A 
ATOM     55  C   UNL     1      -2.501   1.466 -19.494  1.00  0.00     0.074 A 
ATOM     56  C   UNL     1       1.768   5.773 -21.355  1.00  0.00     0.029 A 
ATOM     57  N   UNL     1       0.641   4.221 -20.229  1.00  0.00    -0.354 N 
ATOM     58  N   UNL     1      -1.565   2.329 -19.807  1.00  0.00    -0.248 NA
ATOM     59  C   UNL     1      -3.674   1.506 -20.380  1.00  0.00     0.031 C 
ATOM     60  C   UNL     1       0.557   5.542 -22.014  1.00  0.00     0.029 A 
ATOM     61  C   UNL     1      -0.139   4.565 -21.320  1.00  0.00     0.049 A 
ATOM     62  H   UNL     1       0.402   3.547 -19.552  1.00  0.00     0.167 HD
ATOM     63  C   UNL     1      -2.026   3.002 -20.929  1.00  0.00     0.074 A 
ATOM     64  C   UNL     1      -3.321   2.441 -21.252  1.00  0.00     0.031 C 
ATOM     65  C   UNL     1      -1.427   3.996 -21.627  1.00  0.00     0.037 A 
BRANCH  52  66
ATOM     66  C   UNL     1       4.005   5.815 -19.341  1.00  0.00     0.064 A 
ATOM     67  C   UNL     1       3.846   7.186 -19.094  1.00  0.00     0.173 A 
ATOM     68  C   UNL     1       5.265   5.362 -19.758  1.00  0.00     0.173 A 
ATOM     69  F   UNL     1       2.659   7.670 -18.698  1.00  0.00    -0.203 F 
ATOM     70  C   UNL     1       4.906   8.072 -19.270  1.00  0.00     0.198 A 
ATOM     71  C   UNL     1       6.329   6.246 -19.910  1.00  0.00     0.198 A 
ATOM     72  F   UNL     1       5.468   4.057 -19.995  1.00  0.00    -0.203 F 
ATOM     73  F   UNL     1       4.726   9.382 -19.053  1.00  0.00    -0.200 F 
ATOM     74  C   UNL     1       6.146   7.601 -19.674  1.00  0.00     0.200 A 
ATOM     75  F   UNL     1       7.532   5.787 -20.279  1.00  0.00    -0.200 F 
ATOM     76  F   UNL     1       7.168   8.453 -19.835  1.00  0.00    -0.200 F 
ENDBRANCH  52  66
BRANCH  53  77
ATOM     77  C   UNL     1      -3.678  -0.452 -18.191  1.00  0.00     0.064 A 
ATOM     78  C   UNL     1      -4.575  -0.307 -17.123  1.00  0.00     0.173 A 
ATOM     79  C   UNL     1      -3.879  -1.521 -19.074  1.00  0.00     0.173 A 
ATOM     80  F   UNL     1      -4.421   0.698 -16.249  1.00  0.00    -0.203 F 
ATOM     81  C   UNL     1      -5.621  -1.209 -16.936  1.00  0.00     0.198 A 
ATOM     82  C   UNL     1      -4.938  -2.410 -18.898  1.00  0.00     0.198 A 
ATOM     83  F   UNL     1      -3.058  -1.688 -20.121  1.00  0.00    -0.203 F 
ATOM     84  F   UNL     1      -6.446  -1.067 -15.890  1.00  0.00    -0.200 F 
ATOM     85  C   UNL     1      -5.803  -2.258 -17.825  1.00  0.00     0.200 A 
ATOM     86  F   UNL     1      -5.122  -3.410 -19.770  1.00  0.00    -0.200 F 
ATOM     87  F   UNL     1      -6.813  -3.120 -17.648  1.00  0.00    -0.200 F 
ENDBRANCH  53  77
BRANCH  65  88
ATOM     88  C   UNL     1      -2.152   4.546 -22.817  1.00  0.00     0.064 A 
ATOM     89  C   UNL     1      -1.705   4.261 -24.116  1.00  0.00     0.173 A 
ATOM     90  C   UNL     1      -3.225   5.434 -22.667  1.00  0.00     0.173 A 
ATOM     91  F   UNL     1      -0.676   3.421 -24.308  1.00  0.00    -0.203 F 
ATOM     92  C   UNL     1      -2.295   4.864 -25.222  1.00  0.00     0.198 A 
ATOM     93  C   UNL     1      -3.827   6.019 -23.777  1.00  0.00     0.198 A 
ATOM     94  F   UNL     1      -3.694   5.725 -21.444  1.00  0.00    -0.203 F 
ATOM     95  F   UNL     1      -1.829   4.607 -26.452  1.00  0.00    -0.200 F 
ATOM     96  C   UNL     1      -3.354   5.743 -25.052  1.00  0.00     0.200 A 
ATOM     97  F   UNL     1      -4.863   6.854 -23.614  1.00  0.00    -0.200 F 
ATOM     98  F   UNL     1      -3.921   6.325 -26.118  1.00  0.00    -0.200 F 
ENDBRANCH  65  88
ENDBRANCH  39  40
ENDBRANCH  31  34
ENDBRANCH  29  30
ENDBRANCH  28  29
ENDBRANCH   1  28
TORSDOF 15
