REMARK SMILES O=C(NCCCCNC(=O)c1cccc(OS(=O)(=O)c2cccc([N+](=O)[O-])c2)c1)c1ccc(-c2c3nc(c(-c4c(F)c(F)c(F)c(F)c4F)c4ccc([nH]4)c(-c4c(F)c(F)c(F)c(F)c4F)c4nc(c(-c5c(F)c(F)c(F)c(F)c5F)c5ccc2[nH]5)C=C4)C=C3)cc1
REMARK SMILES IDX 6 1 5 2 4 3 3 4 1 5 2 6 30 8 31 9 92 10 32 11 91 12 33 13
REMARK SMILES IDX 34 14 35 15 85 16 36 17 90 18 84 19 86 20 37 21 89 22 83 23
REMARK SMILES IDX 82 24 38 26 70 27 50 28 69 29 51 30 54 31 68 32 87 33 52 34
REMARK SMILES IDX 53 35 67 37 88 38 55 39 39 40 40 41 48 42 41 43 42 44 46 45
REMARK SMILES IDX 49 46 43 47 44 48 47 49 45 50 71 51 72 52 80 53 73 54 74 55
REMARK SMILES IDX 78 56 81 57 75 58 76 59 79 60 77 61 56 62 57 63 65 64 58 65
REMARK SMILES IDX 59 66 63 67 66 68 60 69 61 70 64 71 62 72 7 73 8 74 9 75
REMARK SMILES IDX 10 77 11 78 12 79 29 80 13 81 15 82 14 83 16 84 17 85 18 86
REMARK SMILES IDX 19 87 20 88 21 89 28 90 22 91 24 92 23 93 25 94 26 95 27 96
REMARK H PARENT 3 7 86 25 54 36 8 76
REMARK Flexibility Score: inf
ROOT
ATOM      1  C   UNL     1       4.410   2.679  -2.874  1.00  0.00     0.023 C 
ENDROOT
BRANCH   1   2
ATOM      2  C   UNL     1       4.874   1.298  -2.420  1.00  0.00     0.023 C 
BRANCH   2   3
ATOM      3  C   UNL     1       4.587   0.965  -0.962  1.00  0.00     0.116 C 
BRANCH   3   4
ATOM      4  N   UNL     1       3.165   0.887  -0.664  1.00  0.00    -0.352 N 
ATOM      5  O   UNL     1       1.231  -0.091  -0.026  1.00  0.00    -0.269 OA
ATOM      6  C   UNL     1       2.456  -0.135  -0.075  1.00  0.00     0.251 C 
ATOM      7  H   UNL     1       2.636   1.677  -0.919  1.00  0.00     0.163 HD
BRANCH   6   8
ATOM      8  C   UNL     1       3.173  -1.306   0.475  1.00  0.00     0.039 A 
ATOM      9  C   UNL     1       4.321  -1.138   1.252  1.00  0.00     0.014 A 
ATOM     10  C   UNL     1       2.689  -2.591   0.210  1.00  0.00     0.014 A 
ATOM     11  C   UNL     1       5.066  -2.249   1.631  1.00  0.00     0.010 A 
ATOM     12  C   UNL     1       3.393  -3.710   0.668  1.00  0.00     0.010 A 
ATOM     13  C   UNL     1       4.605  -3.547   1.354  1.00  0.00    -0.014 A 
BRANCH  13  14
ATOM     14  C   UNL     1       5.386  -4.706   1.856  1.00  0.00     0.031 A 
ATOM     15  C   UNL     1       6.071  -5.657   0.916  1.00  0.00     0.074 A 
ATOM     16  C   UNL     1       5.519  -4.857   3.188  1.00  0.00     0.049 A 
ATOM     17  N   UNL     1       6.842  -6.679   1.197  1.00  0.00    -0.248 NA
ATOM     18  C   UNL     1       5.862  -5.444  -0.524  1.00  0.00     0.031 C 
ATOM     19  C   UNL     1       4.882  -4.006   4.196  1.00  0.00     0.029 A 
ATOM     20  N   UNL     1       6.252  -5.752   3.924  1.00  0.00    -0.354 N 
ATOM     21  C   UNL     1       7.199  -7.236  -0.024  1.00  0.00     0.074 A 
ATOM     22  C   UNL     1       6.542  -6.455  -1.051  1.00  0.00     0.031 C 
ATOM     23  C   UNL     1       5.297  -4.382   5.414  1.00  0.00     0.029 A 
ATOM     24  C   UNL     1       6.184  -5.531   5.277  1.00  0.00     0.049 A 
ATOM     25  H   UNL     1       6.777  -6.481   3.521  1.00  0.00     0.167 HD
ATOM     26  C   UNL     1       8.008  -8.296  -0.262  1.00  0.00     0.037 A 
ATOM     27  C   UNL     1       6.768  -6.185   6.298  1.00  0.00     0.037 A 
ATOM     28  C   UNL     1       8.675  -9.060   0.762  1.00  0.00     0.049 A 
ATOM     29  C   UNL     1       7.666  -7.349   6.000  1.00  0.00     0.074 A 
ATOM     30  C   UNL     1       9.530 -10.139   0.617  1.00  0.00     0.029 A 
ATOM     31  N   UNL     1       8.563  -8.822   2.124  1.00  0.00    -0.354 N 
ATOM     32  N   UNL     1       8.010  -7.851   4.839  1.00  0.00    -0.248 NA
ATOM     33  C   UNL     1       8.255  -8.040   7.154  1.00  0.00     0.031 C 
ATOM     34  C   UNL     1       9.911 -10.573   1.891  1.00  0.00     0.029 A 
ATOM     35  C   UNL     1       9.323  -9.742   2.830  1.00  0.00     0.049 A 
ATOM     36  H   UNL     1       8.024  -8.105   2.530  1.00  0.00     0.167 HD
ATOM     37  C   UNL     1       8.853  -8.914   5.120  1.00  0.00     0.074 A 
ATOM     38  C   UNL     1       8.997  -8.964   6.561  1.00  0.00     0.031 C 
ATOM     39  C   UNL     1       9.445  -9.781   4.263  1.00  0.00     0.037 A 
BRANCH  26  40
ATOM     40  C   UNL     1       8.223  -8.706  -1.689  1.00  0.00     0.064 A 
ATOM     41  C   UNL     1       9.053  -7.969  -2.546  1.00  0.00     0.173 A 
ATOM     42  C   UNL     1       7.654  -9.890  -2.183  1.00  0.00     0.173 A 
ATOM     43  F   UNL     1       9.613  -6.825  -2.125  1.00  0.00    -0.203 F 
ATOM     44  C   UNL     1       9.297  -8.397  -3.849  1.00  0.00     0.198 A 
ATOM     45  C   UNL     1       7.917 -10.326  -3.479  1.00  0.00     0.198 A 
ATOM     46  F   UNL     1       6.858 -10.635  -1.401  1.00  0.00    -0.203 F 
ATOM     47  F   UNL     1      10.074  -7.664  -4.659  1.00  0.00    -0.200 F 
ATOM     48  C   UNL     1       8.736  -9.578  -4.312  1.00  0.00     0.200 A 
ATOM     49  F   UNL     1       7.383 -11.473  -3.921  1.00  0.00    -0.200 F 
ATOM     50  F   UNL     1       8.984  -9.996  -5.561  1.00  0.00    -0.200 F 
ENDBRANCH  26  40
BRANCH  27  51
ATOM     51  C   UNL     1       6.516  -5.746   7.693  1.00  0.00     0.064 A 
ATOM     52  C   UNL     1       7.526  -5.144   8.455  1.00  0.00     0.173 A 
ATOM     53  C   UNL     1       5.256  -5.909   8.287  1.00  0.00     0.173 A 
ATOM     54  F   UNL     1       8.752  -4.985   7.936  1.00  0.00    -0.203 F 
ATOM     55  C   UNL     1       7.289  -4.736   9.765  1.00  0.00     0.198 A 
ATOM     56  C   UNL     1       5.012  -5.474   9.587  1.00  0.00     0.198 A 
ATOM     57  F   UNL     1       4.256  -6.476   7.596  1.00  0.00    -0.203 F 
ATOM     58  F   UNL     1       8.282  -4.199  10.487  1.00  0.00    -0.200 F 
ATOM     59  C   UNL     1       6.031  -4.894  10.328  1.00  0.00     0.200 A 
ATOM     60  F   UNL     1       3.792  -5.616  10.121  1.00  0.00    -0.200 F 
ATOM     61  F   UNL     1       5.802  -4.495  11.586  1.00  0.00    -0.200 F 
ENDBRANCH  27  51
BRANCH  39  62
ATOM     62  C   UNL     1      10.299 -10.851   4.871  1.00  0.00     0.064 A 
ATOM     63  C   UNL     1       9.729 -11.943   5.543  1.00  0.00     0.173 A 
ATOM     64  C   UNL     1      11.697 -10.790   4.777  1.00  0.00     0.173 A 
ATOM     65  F   UNL     1       8.397 -12.034   5.674  1.00  0.00    -0.203 F 
ATOM     66  C   UNL     1      10.531 -12.921   6.125  1.00  0.00     0.198 A 
ATOM     67  C   UNL     1      12.494 -11.782   5.339  1.00  0.00     0.198 A 
ATOM     68  F   UNL     1      12.287  -9.767   4.141  1.00  0.00    -0.203 F 
ATOM     69  F   UNL     1       9.968 -13.928   6.806  1.00  0.00    -0.200 F 
ATOM     70  C   UNL     1      11.912 -12.841   6.019  1.00  0.00     0.200 A 
ATOM     71  F   UNL     1      13.828 -11.709   5.231  1.00  0.00    -0.200 F 
ATOM     72  F   UNL     1      12.682 -13.781   6.584  1.00  0.00    -0.200 F 
ENDBRANCH  39  62
ENDBRANCH  13  14
ENDBRANCH   6   8
ENDBRANCH   3   4
ENDBRANCH   2   3
ENDBRANCH   1   2
BRANCH   1  73
ATOM     73  C   UNL     1       4.927   3.847  -2.038  1.00  0.00     0.116 C 
BRANCH  73  74
ATOM     74  N   UNL     1       6.382   3.931  -2.031  1.00  0.00    -0.352 N 
ATOM     75  C   UNL     1       7.185   4.996  -2.364  1.00  0.00     0.251 C 
ATOM     76  H   UNL     1       6.854   3.114  -1.751  1.00  0.00     0.163 HD
ATOM     77  O   UNL     1       8.401   4.869  -2.443  1.00  0.00    -0.269 OA
BRANCH  75  78
ATOM     78  C   UNL     1       6.558   6.304  -2.635  1.00  0.00     0.043 A 
ATOM     79  C   UNL     1       6.798   6.947  -3.848  1.00  0.00     0.014 A 
ATOM     80  C   UNL     1       5.696   6.862  -1.687  1.00  0.00     0.062 A 
ATOM     81  C   UNL     1       6.114   8.127  -4.137  1.00  0.00     0.005 A 
ATOM     82  C   UNL     1       4.965   8.006  -2.000  1.00  0.00     0.143 A 
ATOM     83  C   UNL     1       5.188   8.646  -3.223  1.00  0.00     0.048 A 
BRANCH  82  84
ATOM     84  O   UNL     1       4.005   8.549  -1.180  1.00  0.00    -0.379 OA
BRANCH  84  85
ATOM     85  S   UNL     1       3.290   7.637  -0.023  1.00  0.00     0.339 S 
ATOM     86  O   UNL     1       2.654   6.499  -0.663  1.00  0.00    -0.181 OA
ATOM     87  O   UNL     1       4.218   7.456   1.075  1.00  0.00    -0.181 OA
BRANCH  85  88
ATOM     88  C   UNL     1       1.978   8.637   0.635  1.00  0.00     0.112 A 
ATOM     89  C   UNL     1       2.019  10.029   0.523  1.00  0.00     0.024 A 
ATOM     90  C   UNL     1       0.929   7.992   1.302  1.00  0.00     0.109 A 
ATOM     91  C   UNL     1       1.003  10.792   1.103  1.00  0.00     0.009 A 
ATOM     92  C   UNL     1      -0.078   8.769   1.884  1.00  0.00     0.270 A 
ATOM     93  C   UNL     1      -0.044  10.168   1.788  1.00  0.00     0.086 A 
BRANCH  92  94
ATOM     94  N   UNL     1      -1.169   8.114   2.619  1.00  0.00     0.062 N 
ATOM     95  O   UNL     1      -2.001   8.839   3.180  1.00  0.00    -0.258 OA
ATOM     96  O   UNL     1      -1.187   6.875   2.634  1.00  0.00    -0.258 OA
ENDBRANCH  92  94
ENDBRANCH  85  88
ENDBRANCH  84  85
ENDBRANCH  82  84
ENDBRANCH  75  78
ENDBRANCH  73  74
ENDBRANCH   1  73
TORSDOF 15
