REMARK SMILES N#Cc1nccnc1N(CC(=O)NCCCCNC(=O)c1ccc(-c2c3nc(c(-c4c(F)c(F)c(F)c(F)c4F)c4ccc([nH]4)c(-c4c(F)c(F)c(F)c(F)c4F)c4nc(c(-c5c(F)c(F)c(F)c(F)c5F)c5ccc2[nH]5)C=C4)C=C3)cc1)CC(F)(F)F
REMARK SMILES IDX 15 1 14 2 13 3 11 4 12 5 10 7 9 8 8 9 3 10 4 11 5 12 7 13
REMARK SMILES IDX 6 14 2 15 1 16 84 17 85 18 86 19 87 20 88 21 16 22 17 23
REMARK SMILES IDX 18 24 19 25 20 27 21 28 22 29 83 30 23 31 82 32 24 33 25 34
REMARK SMILES IDX 26 35 76 36 27 37 81 38 75 39 77 40 28 41 80 42 74 43 73 44
REMARK SMILES IDX 29 46 61 47 41 48 60 49 42 50 45 51 59 52 78 53 43 54 44 55
REMARK SMILES IDX 58 57 79 58 46 59 30 60 31 61 39 62 32 63 33 64 37 65 40 66
REMARK SMILES IDX 34 67 35 68 38 69 36 70 62 71 63 72 71 73 64 74 65 75 69 76
REMARK SMILES IDX 72 77 66 78 67 79 70 80 68 81 47 82 48 83 56 84 49 85 50 86
REMARK SMILES IDX 54 87 57 88 51 89 52 90 55 91 53 92
REMARK H PARENT 13 6 18 26 77 45 45 56
REMARK Flexibility Score: inf
ROOT
ATOM      1  C   UNL     1       3.739  -2.243   3.164  1.00  0.00     0.023 C 
ENDROOT
BRANCH   1   2
ATOM      2  C   UNL     1       4.760  -3.203   2.559  1.00  0.00     0.116 C 
BRANCH   2   3
ATOM      3  N   UNL     1       4.125  -4.317   1.885  1.00  0.00    -0.355 N 
ATOM      4  C   UNL     1       3.914  -4.484   0.546  1.00  0.00     0.239 C 
ATOM      5  O   UNL     1       3.303  -5.485   0.163  1.00  0.00    -0.273 OA
ATOM      6  H   UNL     1       3.806  -5.046   2.466  1.00  0.00     0.163 HD
BRANCH   4   7
ATOM      7  C   UNL     1       4.429  -3.439  -0.450  1.00  0.00     0.218 C 
BRANCH   7   8
ATOM      8  N   UNL     1       3.636  -2.179  -0.428  1.00  0.00    -0.336 N 
BRANCH   8   9
ATOM      9  C   UNL     1       4.322  -0.984  -0.269  1.00  0.00     0.166 A 
ATOM     10  C   UNL     1       3.830   0.335  -0.353  1.00  0.00     0.183 A 
ATOM     11  N   UNL     1       4.593   1.455  -0.130  1.00  0.00    -0.240 NA
ATOM     12  C   UNL     1       5.885   1.252   0.173  1.00  0.00     0.133 A 
ATOM     13  N   UNL     1       5.648  -1.113   0.024  1.00  0.00    -0.235 NA
ATOM     14  C   UNL     1       6.407  -0.013   0.240  1.00  0.00     0.133 A 
BRANCH  10  15
ATOM     15  C   UNL     1       2.490   0.676  -0.729  1.00  0.00     0.123 C 
ATOM     16  N   UNL     1       1.403   0.925  -1.051  1.00  0.00    -0.191 NA
ENDBRANCH  10  15
ENDBRANCH   8   9
BRANCH   8  17
ATOM     17  C   UNL     1       2.188  -2.339  -0.759  1.00  0.00     0.234 C 
BRANCH  17  18
ATOM     18  C   UNL     1       1.185  -2.224   0.408  1.00  0.00     0.405 C 
ATOM     19  F   UNL     1       1.361  -1.091   1.124  1.00  0.00    -0.169 F 
ATOM     20  F   UNL     1      -0.086  -2.219  -0.054  1.00  0.00    -0.169 F 
ATOM     21  F   UNL     1       1.293  -3.262   1.267  1.00  0.00    -0.169 F 
ENDBRANCH  17  18
ENDBRANCH   8  17
ENDBRANCH   7   8
ENDBRANCH   4   7
ENDBRANCH   2   3
ENDBRANCH   1   2
BRANCH   1  22
ATOM     22  C   UNL     1       2.945  -2.831   4.329  1.00  0.00     0.023 C 
BRANCH  22  23
ATOM     23  C   UNL     1       3.806  -3.228   5.516  1.00  0.00     0.116 C 
BRANCH  23  24
ATOM     24  N   UNL     1       4.532  -2.104   6.098  1.00  0.00    -0.352 N 
ATOM     25  C   UNL     1       4.759  -1.827   7.427  1.00  0.00     0.251 C 
ATOM     26  H   UNL     1       4.908  -1.460   5.457  1.00  0.00     0.163 HD
ATOM     27  O   UNL     1       5.262  -0.764   7.770  1.00  0.00    -0.269 OA
BRANCH  25  28
ATOM     28  C   UNL     1       4.339  -2.820   8.436  1.00  0.00     0.039 A 
ATOM     29  C   UNL     1       4.588  -4.174   8.217  1.00  0.00     0.014 A 
ATOM     30  C   UNL     1       3.600  -2.407   9.546  1.00  0.00     0.014 A 
ATOM     31  C   UNL     1       3.899  -5.118   8.961  1.00  0.00     0.010 A 
ATOM     32  C   UNL     1       3.017  -3.367  10.378  1.00  0.00     0.010 A 
ATOM     33  C   UNL     1       3.099  -4.729  10.049  1.00  0.00    -0.014 A 
BRANCH  33  34
ATOM     34  C   UNL     1       2.334  -5.772  10.786  1.00  0.00     0.031 A 
ATOM     35  C   UNL     1       0.829  -5.728  10.846  1.00  0.00     0.074 A 
ATOM     36  C   UNL     1       2.999  -6.812  11.327  1.00  0.00     0.049 A 
ATOM     37  N   UNL     1       0.002  -6.580  11.402  1.00  0.00    -0.248 NA
ATOM     38  C   UNL     1       0.160  -4.582  10.209  1.00  0.00     0.031 C 
ATOM     39  C   UNL     1       4.454  -6.974  11.320  1.00  0.00     0.029 A 
ATOM     40  N   UNL     1       2.544  -7.946  11.952  1.00  0.00    -0.354 N 
ATOM     41  C   UNL     1      -1.272  -6.064  11.196  1.00  0.00     0.074 A 
ATOM     42  C   UNL     1      -1.112  -4.803  10.509  1.00  0.00     0.031 C 
ATOM     43  C   UNL     1       4.767  -8.166  11.845  1.00  0.00     0.029 A 
ATOM     44  C   UNL     1       3.546  -8.818  12.304  1.00  0.00     0.049 A 
ATOM     45  H   UNL     1       1.591  -8.118  12.131  1.00  0.00     0.167 HD
ATOM     46  C   UNL     1      -2.468  -6.607  11.526  1.00  0.00     0.037 A 
ATOM     47  C   UNL     1       3.494 -10.002  12.942  1.00  0.00     0.037 A 
ATOM     48  C   UNL     1      -2.625  -7.880  12.182  1.00  0.00     0.049 A 
ATOM     49  C   UNL     1       2.157 -10.547  13.358  1.00  0.00     0.074 A 
ATOM     50  C   UNL     1      -3.797  -8.528  12.531  1.00  0.00     0.029 A 
ATOM     51  N   UNL     1      -1.580  -8.697  12.586  1.00  0.00    -0.354 N 
ATOM     52  N   UNL     1       0.960 -10.067  13.123  1.00  0.00    -0.248 NA
ATOM     53  C   UNL     1       2.162 -11.793  14.137  1.00  0.00     0.031 C 
ATOM     54  C   UNL     1      -3.461  -9.704  13.204  1.00  0.00     0.029 A 
ATOM     55  C   UNL     1      -2.080  -9.823  13.221  1.00  0.00     0.049 A 
ATOM     56  H   UNL     1      -0.624  -8.505  12.444  1.00  0.00     0.167 HD
ATOM     57  C   UNL     1       0.071 -10.952  13.716  1.00  0.00     0.074 A 
ATOM     58  C   UNL     1       0.864 -12.018  14.291  1.00  0.00     0.031 C 
ATOM     59  C   UNL     1      -1.280 -10.878  13.788  1.00  0.00     0.037 A 
BRANCH  46  60
ATOM     60  C   UNL     1      -3.713  -5.836  11.189  1.00  0.00     0.064 A 
ATOM     61  C   UNL     1      -4.142  -5.671   9.863  1.00  0.00     0.173 A 
ATOM     62  C   UNL     1      -4.531  -5.322  12.209  1.00  0.00     0.173 A 
ATOM     63  F   UNL     1      -3.396  -6.135   8.849  1.00  0.00    -0.203 F 
ATOM     64  C   UNL     1      -5.330  -5.005   9.570  1.00  0.00     0.198 A 
ATOM     65  C   UNL     1      -5.735  -4.688  11.914  1.00  0.00     0.198 A 
ATOM     66  F   UNL     1      -4.175  -5.460  13.495  1.00  0.00    -0.203 F 
ATOM     67  F   UNL     1      -5.698  -4.826   8.294  1.00  0.00    -0.200 F 
ATOM     68  C   UNL     1      -6.130  -4.525  10.595  1.00  0.00     0.200 A 
ATOM     69  F   UNL     1      -6.516  -4.242  12.907  1.00  0.00    -0.200 F 
ATOM     70  F   UNL     1      -7.284  -3.903  10.312  1.00  0.00    -0.200 F 
ENDBRANCH  46  60
BRANCH  47  71
ATOM     71  C   UNL     1       4.753 -10.741  13.226  1.00  0.00     0.064 A 
ATOM     72  C   UNL     1       5.021 -11.972  12.614  1.00  0.00     0.173 A 
ATOM     73  C   UNL     1       5.725 -10.220  14.095  1.00  0.00     0.173 A 
ATOM     74  F   UNL     1       4.116 -12.522  11.790  1.00  0.00    -0.203 F 
ATOM     75  C   UNL     1       6.207 -12.658  12.866  1.00  0.00     0.198 A 
ATOM     76  C   UNL     1       6.926 -10.888  14.318  1.00  0.00     0.198 A 
ATOM     77  F   UNL     1       5.521  -9.043  14.705  1.00  0.00    -0.203 F 
ATOM     78  F   UNL     1       6.422 -13.852  12.297  1.00  0.00    -0.200 F 
ATOM     79  C   UNL     1       7.163 -12.111  13.709  1.00  0.00     0.200 A 
ATOM     80  F   UNL     1       7.855 -10.344  15.115  1.00  0.00    -0.200 F 
ATOM     81  F   UNL     1       8.312 -12.762  13.936  1.00  0.00    -0.200 F 
ENDBRANCH  47  71
BRANCH  59  82
ATOM     82  C   UNL     1      -2.001 -11.971  14.522  1.00  0.00     0.064 A 
ATOM     83  C   UNL     1      -1.935 -12.075  15.919  1.00  0.00     0.173 A 
ATOM     84  C   UNL     1      -2.846 -12.858  13.836  1.00  0.00     0.173 A 
ATOM     85  F   UNL     1      -1.131 -11.260  16.619  1.00  0.00    -0.203 F 
ATOM     86  C   UNL     1      -2.682 -13.030  16.602  1.00  0.00     0.198 A 
ATOM     87  C   UNL     1      -3.619 -13.788  14.526  1.00  0.00     0.198 A 
ATOM     88  F   UNL     1      -2.953 -12.796  12.500  1.00  0.00    -0.203 F 
ATOM     89  F   UNL     1      -2.579 -13.129  17.934  1.00  0.00    -0.200 F 
ATOM     90  C   UNL     1      -3.534 -13.875  15.907  1.00  0.00     0.200 A 
ATOM     91  F   UNL     1      -4.458 -14.589  13.855  1.00  0.00    -0.200 F 
ATOM     92  F   UNL     1      -4.276 -14.773  16.570  1.00  0.00    -0.200 F 
ENDBRANCH  59  82
ENDBRANCH  33  34
ENDBRANCH  25  28
ENDBRANCH  23  24
ENDBRANCH  22  23
ENDBRANCH   1  22
TORSDOF 16
