REMARK SMILES CNC(=O)c1ccc(N(CCC(=O)NCCCCNC(=O)c2ccc(-c3c4nc(c(-c5c(F)c(F)c(F)c(F)c5F)c5ccc([nH]5)c(-c5c(F)c(F)c(F)c(F)c5F)c5nc(c(-c6c(F)c(F)c(F)c(F)c6F)c6ccc3[nH]6)C=C5)C=C4)cc2)C2CC2)nn1
REMARK SMILES IDX 15 1 14 2 12 3 13 4 11 6 10 7 9 8 8 9 5 10 6 11 89 12 7 13
REMARK SMILES IDX 88 14 3 15 1 16 2 17 4 19 85 20 86 21 87 22 16 23 17 24
REMARK SMILES IDX 18 25 19 26 20 27 21 29 22 30 23 31 84 32 24 33 83 34 25 35
REMARK SMILES IDX 26 36 27 37 77 38 28 39 82 40 76 41 78 42 29 43 81 44 75 45
REMARK SMILES IDX 74 46 30 48 62 49 42 50 61 51 43 52 46 53 60 54 79 55 44 56
REMARK SMILES IDX 45 57 59 59 80 60 47 61 31 62 32 63 40 64 33 65 34 66 38 67
REMARK SMILES IDX 41 68 35 69 36 70 39 71 37 72 63 73 64 74 72 75 65 76 66 77
REMARK SMILES IDX 70 78 73 79 67 80 68 81 71 82 69 83 48 84 49 85 57 86 50 87
REMARK SMILES IDX 51 88 55 89 58 90 52 91 53 92 56 93 54 94
REMARK H PARENT 14 5 2 18 19 28 78 47 46 58
REMARK Flexibility Score: inf
ROOT
ATOM      1  C   UNL     1      -0.309  -6.995   2.624  1.00  0.00     0.116 C 
ENDROOT
BRANCH   1   2
ATOM      2  N   UNL     1      -0.138  -8.087   1.679  1.00  0.00    -0.356 N 
ATOM      3  C   UNL     1      -0.109  -8.096   0.319  1.00  0.00     0.221 C 
ATOM      4  O   UNL     1      -0.248  -9.181  -0.249  1.00  0.00    -0.275 OA
ATOM      5  H   UNL     1      -0.023  -8.972   2.095  1.00  0.00     0.163 HD
BRANCH   3   6
ATOM      6  C   UNL     1       0.129  -6.827  -0.467  1.00  0.00     0.121 C 
BRANCH   6   7
ATOM      7  C   UNL     1      -1.070  -6.485  -1.356  1.00  0.00     0.128 C 
BRANCH   7   8
ATOM      8  N   UNL     1      -1.787  -5.270  -0.906  1.00  0.00    -0.352 N 
BRANCH   8   9
ATOM      9  C   UNL     1      -1.298  -4.049  -1.426  1.00  0.00     0.151 A 
ATOM     10  C   UNL     1      -0.273  -1.635  -2.256  1.00  0.00     0.150 A 
ATOM     11  C   UNL     1      -1.574  -1.668  -1.812  1.00  0.00     0.040 A 
ATOM     12  N   UNL     1       0.495  -2.739  -2.325  1.00  0.00    -0.143 NA
ATOM     13  C   UNL     1      -2.086  -2.899  -1.416  1.00  0.00     0.051 A 
ATOM     14  N   UNL     1      -0.036  -3.954  -1.914  1.00  0.00    -0.132 NA
BRANCH  10  15
ATOM     15  C   UNL     1       0.327  -0.340  -2.628  1.00  0.00     0.271 C 
ATOM     16  C   UNL     1       1.188   0.061  -0.274  1.00  0.00     0.143 C 
ATOM     17  N   UNL     1       0.952   0.408  -1.657  1.00  0.00    -0.354 N 
ATOM     18  H   UNL     1       1.280   1.292  -1.941  1.00  0.00     0.163 HD
ATOM     19  O   UNL     1       0.190   0.098  -3.766  1.00  0.00    -0.267 OA
ENDBRANCH  10  15
ENDBRANCH   8   9
BRANCH   8  20
ATOM     20  C   UNL     1      -2.522  -5.390   0.370  1.00  0.00     0.084 C 
ATOM     21  C   UNL     1      -2.510  -4.281   1.387  1.00  0.00     0.027 C 
ATOM     22  C   UNL     1      -3.803  -4.726   0.774  1.00  0.00     0.027 C 
ENDBRANCH   8  20
ENDBRANCH   7   8
ENDBRANCH   6   7
ENDBRANCH   3   6
ENDBRANCH   1   2
BRANCH   1  23
ATOM     23  C   UNL     1      -1.569  -7.274   3.448  1.00  0.00     0.023 C 
BRANCH  23  24
ATOM     24  C   UNL     1      -2.066  -6.208   4.424  1.00  0.00     0.023 C 
BRANCH  24  25
ATOM     25  C   UNL     1      -1.003  -5.350   5.094  1.00  0.00     0.116 C 
BRANCH  25  26
ATOM     26  N   UNL     1      -0.976  -3.958   4.644  1.00  0.00    -0.352 N 
ATOM     27  C   UNL     1      -1.223  -2.790   5.345  1.00  0.00     0.251 C 
ATOM     28  H   UNL     1      -0.747  -3.833   3.694  1.00  0.00     0.163 HD
ATOM     29  O   UNL     1      -1.289  -1.719   4.762  1.00  0.00    -0.269 OA
BRANCH  27  30
ATOM     30  C   UNL     1      -1.438  -2.855   6.810  1.00  0.00     0.039 A 
ATOM     31  C   UNL     1      -2.462  -2.116   7.407  1.00  0.00     0.014 A 
ATOM     32  C   UNL     1      -0.662  -3.714   7.582  1.00  0.00     0.014 A 
ATOM     33  C   UNL     1      -2.780  -2.342   8.751  1.00  0.00     0.010 A 
ATOM     34  C   UNL     1      -1.087  -4.059   8.855  1.00  0.00     0.010 A 
ATOM     35  C   UNL     1      -2.139  -3.366   9.468  1.00  0.00    -0.014 A 
BRANCH  35  36
ATOM     36  C   UNL     1      -2.513  -3.728  10.862  1.00  0.00     0.031 A 
ATOM     37  C   UNL     1      -1.454  -3.747  11.937  1.00  0.00     0.074 A 
ATOM     38  C   UNL     1      -3.764  -4.147  11.143  1.00  0.00     0.049 A 
ATOM     39  N   UNL     1      -1.530  -4.170  13.174  1.00  0.00    -0.248 NA
ATOM     40  C   UNL     1      -0.108  -3.289  11.551  1.00  0.00     0.031 C 
ATOM     41  C   UNL     1      -4.859  -4.268  10.179  1.00  0.00     0.029 A 
ATOM     42  N   UNL     1      -4.323  -4.560  12.327  1.00  0.00    -0.354 N 
ATOM     43  C   UNL     1      -0.242  -4.072  13.685  1.00  0.00     0.074 A 
ATOM     44  C   UNL     1       0.612  -3.634  12.605  1.00  0.00     0.031 C 
ATOM     45  C   UNL     1      -5.968  -4.677  10.818  1.00  0.00     0.029 A 
ATOM     46  C   UNL     1      -5.654  -4.887  12.227  1.00  0.00     0.049 A 
ATOM     47  H   UNL     1      -3.817  -4.617  13.170  1.00  0.00     0.167 HD
ATOM     48  C   UNL     1       0.189  -4.282  14.951  1.00  0.00     0.037 A 
ATOM     49  C   UNL     1      -6.522  -5.301  13.169  1.00  0.00     0.037 A 
ATOM     50  C   UNL     1      -0.678  -4.640  16.040  1.00  0.00     0.049 A 
ATOM     51  C   UNL     1      -6.040  -5.454  14.586  1.00  0.00     0.074 A 
ATOM     52  C   UNL     1      -0.368  -4.791  17.379  1.00  0.00     0.029 A 
ATOM     53  N   UNL     1      -2.037  -4.887  15.911  1.00  0.00    -0.354 N 
ATOM     54  N   UNL     1      -4.835  -5.283  15.074  1.00  0.00    -0.248 NA
ATOM     55  C   UNL     1      -7.041  -5.846  15.588  1.00  0.00     0.031 C 
ATOM     56  C   UNL     1      -1.535  -5.159  18.057  1.00  0.00     0.029 A 
ATOM     57  C   UNL     1      -2.580  -5.193  17.147  1.00  0.00     0.049 A 
ATOM     58  H   UNL     1      -2.541  -4.849  15.066  1.00  0.00     0.167 HD
ATOM     59  C   UNL     1      -4.938  -5.514  16.439  1.00  0.00     0.074 A 
ATOM     60  C   UNL     1      -6.328  -5.822  16.704  1.00  0.00     0.031 C 
ATOM     61  C   UNL     1      -3.971  -5.480  17.388  1.00  0.00     0.037 A 
BRANCH  48  62
ATOM     62  C   UNL     1       1.655  -4.096  15.226  1.00  0.00     0.064 A 
ATOM     63  C   UNL     1       2.264  -2.833  15.152  1.00  0.00     0.173 A 
ATOM     64  C   UNL     1       2.461  -5.190  15.574  1.00  0.00     0.173 A 
ATOM     65  F   UNL     1       1.543  -1.754  14.809  1.00  0.00    -0.203 F 
ATOM     66  C   UNL     1       3.630  -2.680  15.371  1.00  0.00     0.198 A 
ATOM     67  C   UNL     1       3.820  -5.027  15.829  1.00  0.00     0.198 A 
ATOM     68  F   UNL     1       1.931  -6.420  15.664  1.00  0.00    -0.203 F 
ATOM     69  F   UNL     1       4.199  -1.475  15.224  1.00  0.00    -0.200 F 
ATOM     70  C   UNL     1       4.406  -3.776  15.716  1.00  0.00     0.200 A 
ATOM     71  F   UNL     1       4.567  -6.085  16.174  1.00  0.00    -0.200 F 
ATOM     72  F   UNL     1       5.721  -3.627  15.927  1.00  0.00    -0.200 F 
ENDBRANCH  48  62
BRANCH  49  73
ATOM     73  C   UNL     1      -7.948  -5.539  12.819  1.00  0.00     0.064 A 
ATOM     74  C   UNL     1      -8.951  -4.671  13.276  1.00  0.00     0.173 A 
ATOM     75  C   UNL     1      -8.341  -6.629  12.030  1.00  0.00     0.173 A 
ATOM     76  F   UNL     1      -8.627  -3.623  14.048  1.00  0.00    -0.203 F 
ATOM     77  C   UNL     1     -10.293  -4.898  12.979  1.00  0.00     0.198 A 
ATOM     78  C   UNL     1      -9.682  -6.840  11.710  1.00  0.00     0.198 A 
ATOM     79  F   UNL     1      -7.422  -7.484  11.559  1.00  0.00    -0.203 F 
ATOM     80  F   UNL     1     -11.233  -4.078  13.469  1.00  0.00    -0.200 F 
ATOM     81  C   UNL     1     -10.658  -5.979  12.191  1.00  0.00     0.200 A 
ATOM     82  F   UNL     1     -10.029  -7.877  10.936  1.00  0.00    -0.200 F 
ATOM     83  F   UNL     1     -11.948  -6.196  11.903  1.00  0.00    -0.200 F 
ENDBRANCH  49  73
BRANCH  61  84
ATOM     84  C   UNL     1      -4.391  -5.739  18.804  1.00  0.00     0.064 A 
ATOM     85  C   UNL     1      -4.758  -7.019  19.241  1.00  0.00     0.173 A 
ATOM     86  C   UNL     1      -4.388  -4.697  19.744  1.00  0.00     0.173 A 
ATOM     87  F   UNL     1      -4.789  -8.044  18.376  1.00  0.00    -0.203 F 
ATOM     88  C   UNL     1      -5.137  -7.242  20.561  1.00  0.00     0.198 A 
ATOM     89  C   UNL     1      -4.737  -4.930  21.071  1.00  0.00     0.198 A 
ATOM     90  F   UNL     1      -4.035  -3.456  19.378  1.00  0.00    -0.203 F 
ATOM     91  F   UNL     1      -5.533  -8.463  20.945  1.00  0.00    -0.200 F 
ATOM     92  C   UNL     1      -5.119  -6.200  21.476  1.00  0.00     0.200 A 
ATOM     93  F   UNL     1      -4.705  -3.925  21.957  1.00  0.00    -0.200 F 
ATOM     94  F   UNL     1      -5.478  -6.418  22.749  1.00  0.00    -0.200 F 
ENDBRANCH  61  84
ENDBRANCH  35  36
ENDBRANCH  27  30
ENDBRANCH  25  26
ENDBRANCH  24  25
ENDBRANCH  23  24
ENDBRANCH   1  23
TORSDOF 16
