REMARK SMILES Cc1ccccc1CNC(=O)N1CCC(CC(=O)NCCCCNC(=O)c2ccc(-c3c4nc(c(-c5c(F)c(F)c(F)c(F)c5F)c5ccc([nH]5)c(-c5c(F)c(F)c(F)c(F)c5F)c5nc(c(-c6c(F)c(F)c(F)c(F)c6F)c6ccc3[nH]6)C=C5)C=C4)cc2)CC1
REMARK SMILES IDX 21 1 20 2 19 3 17 4 18 5 16 7 15 8 9 9 10 10 11 12 12 13
REMARK SMILES IDX 13 14 91 15 14 16 90 17 8 18 7 19 1 20 2 21 3 22 4 23 6 24
REMARK SMILES IDX 5 25 22 26 23 27 24 28 25 29 26 31 27 32 28 33 89 34 29 35
REMARK SMILES IDX 88 36 30 37 31 38 32 39 82 40 33 41 87 42 81 43 83 44 34 45
REMARK SMILES IDX 86 46 80 47 79 48 35 50 67 51 47 52 66 53 48 54 51 55 65 56
REMARK SMILES IDX 84 57 49 58 50 59 64 61 85 62 52 63 36 64 37 65 45 66 38 67
REMARK SMILES IDX 39 68 43 69 46 70 40 71 41 72 44 73 42 74 68 75 69 76 77 77
REMARK SMILES IDX 70 78 71 79 75 80 78 81 72 82 73 83 76 84 74 85 53 86 54 87
REMARK SMILES IDX 62 88 55 89 56 90 60 91 63 92 57 93 58 94 61 95 59 96
REMARK H PARENT 19 6 9 11 24 30 83 49 51 60
REMARK Flexibility Score: inf
ROOT
ATOM      1  C   UNL     1      -3.201   8.345   0.307  1.00  0.00     0.023 C 
ENDROOT
BRANCH   1   2
ATOM      2  C   UNL     1      -2.188   9.467   0.627  1.00  0.00     0.116 C 
BRANCH   2   3
ATOM      3  N   UNL     1      -1.884   9.637   2.046  1.00  0.00    -0.356 N 
ATOM      4  C   UNL     1      -0.747   9.403   2.769  1.00  0.00     0.220 C 
ATOM      5  O   UNL     1      -0.748   9.720   3.961  1.00  0.00    -0.275 OA
ATOM      6  H   UNL     1      -2.636   9.983   2.579  1.00  0.00     0.163 HD
BRANCH   4   7
ATOM      7  C   UNL     1       0.473   8.728   2.153  1.00  0.00     0.103 C 
BRANCH   7   8
ATOM      8  C   UNL     1       0.450   7.189   2.297  1.00  0.00     0.002 C 
ATOM      9  N   UNL     1       0.916   3.245  -0.899  1.00  0.00    -0.334 N 
ATOM     10  C   UNL     1       0.246   4.358  -0.507  1.00  0.00     0.317 C 
ATOM     11  H   UNL     1       1.098   3.155  -1.863  1.00  0.00     0.165 HD
ATOM     12  O   UNL     1      -0.457   4.961  -1.315  1.00  0.00    -0.249 OA
ATOM     13  N   UNL     1       0.306   4.675   0.826  1.00  0.00    -0.325 N 
ATOM     14  C   UNL     1      -0.887   5.153   1.476  1.00  0.00     0.121 C 
ATOM     15  C   UNL     1       1.556   5.019   1.494  1.00  0.00     0.121 C 
ATOM     16  C   UNL     1      -0.816   6.649   1.645  1.00  0.00     0.026 C 
ATOM     17  C   UNL     1       1.695   6.542   1.657  1.00  0.00     0.026 C 
BRANCH   9  18
ATOM     18  C   UNL     1       1.391   2.176  -0.045  1.00  0.00     0.153 C 
BRANCH  18  19
ATOM     19  C   UNL     1       0.554   0.916  -0.145  1.00  0.00    -0.026 A 
ATOM     20  C   UNL     1       2.604  -0.643  -0.046  1.00  0.00     0.044 C 
ATOM     21  C   UNL     1       1.125  -0.374  -0.106  1.00  0.00    -0.046 A 
ATOM     22  C   UNL     1       0.280  -1.501  -0.124  1.00  0.00     0.004 A 
ATOM     23  C   UNL     1      -1.106  -1.369  -0.156  1.00  0.00     0.000 A 
ATOM     24  C   UNL     1      -0.854   1.026  -0.162  1.00  0.00     0.006 A 
ATOM     25  C   UNL     1      -1.675  -0.103  -0.172  1.00  0.00     0.000 A 
ENDBRANCH  18  19
ENDBRANCH   9  18
ENDBRANCH   7   8
ENDBRANCH   4   7
ENDBRANCH   2   3
ENDBRANCH   1   2
BRANCH   1  26
ATOM     26  C   UNL     1      -4.601   8.523   0.884  1.00  0.00     0.023 C 
BRANCH  26  27
ATOM     27  C   UNL     1      -5.501   9.257  -0.086  1.00  0.00     0.116 C 
BRANCH  27  28
ATOM     28  N   UNL     1      -6.070   8.431  -1.149  1.00  0.00    -0.352 N 
ATOM     29  C   UNL     1      -6.707   8.813  -2.325  1.00  0.00     0.251 C 
ATOM     30  H   UNL     1      -5.990   7.460  -1.013  1.00  0.00     0.163 HD
ATOM     31  O   UNL     1      -7.199   7.974  -3.062  1.00  0.00    -0.269 OA
BRANCH  29  32
ATOM     32  C   UNL     1      -6.650  10.235  -2.752  1.00  0.00     0.039 A 
ATOM     33  C   UNL     1      -6.331  10.523  -4.085  1.00  0.00     0.014 A 
ATOM     34  C   UNL     1      -6.612  11.241  -1.800  1.00  0.00     0.014 A 
ATOM     35  C   UNL     1      -5.700  11.728  -4.388  1.00  0.00     0.010 A 
ATOM     36  C   UNL     1      -5.809  12.326  -2.051  1.00  0.00     0.010 A 
ATOM     37  C   UNL     1      -5.315  12.556  -3.339  1.00  0.00    -0.014 A 
BRANCH  37  38
ATOM     38  C   UNL     1      -4.375  13.665  -3.445  1.00  0.00     0.031 A 
ATOM     39  C   UNL     1      -4.853  15.038  -3.162  1.00  0.00     0.074 A 
ATOM     40  C   UNL     1      -3.056  13.412  -3.601  1.00  0.00     0.049 A 
ATOM     41  N   UNL     1      -4.188  16.113  -3.407  1.00  0.00    -0.248 NA
ATOM     42  C   UNL     1      -6.169  15.310  -2.593  1.00  0.00     0.031 C 
ATOM     43  C   UNL     1      -1.942  14.323  -3.340  1.00  0.00     0.029 A 
ATOM     44  N   UNL     1      -2.455  12.302  -4.221  1.00  0.00    -0.354 N 
ATOM     45  C   UNL     1      -4.841  17.170  -2.810  1.00  0.00     0.074 A 
ATOM     46  C   UNL     1      -6.088  16.618  -2.345  1.00  0.00     0.031 C 
ATOM     47  C   UNL     1      -0.870  13.911  -4.034  1.00  0.00     0.029 A 
ATOM     48  C   UNL     1      -1.311  12.817  -4.880  1.00  0.00     0.049 A 
ATOM     49  H   UNL     1      -2.763  11.367  -4.202  1.00  0.00     0.167 HD
ATOM     50  C   UNL     1      -4.184  18.360  -2.695  1.00  0.00     0.037 A 
ATOM     51  C   UNL     1      -1.210  12.807  -6.241  1.00  0.00     0.037 A 
ATOM     52  C   UNL     1      -2.925  18.320  -3.440  1.00  0.00     0.049 A 
ATOM     53  C   UNL     1      -1.059  14.180  -6.852  1.00  0.00     0.074 A 
ATOM     54  C   UNL     1      -1.608  18.110  -3.064  1.00  0.00     0.029 A 
ATOM     55  N   UNL     1      -2.966  18.180  -4.825  1.00  0.00    -0.354 N 
ATOM     56  N   UNL     1      -1.416  15.286  -6.259  1.00  0.00    -0.248 NA
ATOM     57  C   UNL     1      -0.514  14.412  -8.186  1.00  0.00     0.031 C 
ATOM     58  C   UNL     1      -0.865  17.792  -4.230  1.00  0.00     0.029 A 
ATOM     59  C   UNL     1      -1.724  17.829  -5.315  1.00  0.00     0.049 A 
ATOM     60  H   UNL     1      -3.770  18.312  -5.378  1.00  0.00     0.167 HD
ATOM     61  C   UNL     1      -1.187  16.348  -7.096  1.00  0.00     0.074 A 
ATOM     62  C   UNL     1      -0.604  15.750  -8.282  1.00  0.00     0.031 C 
ATOM     63  C   UNL     1      -1.510  17.628  -6.741  1.00  0.00     0.037 A 
BRANCH  50  64
ATOM     64  C   UNL     1      -4.542  19.464  -1.716  1.00  0.00     0.064 A 
ATOM     65  C   UNL     1      -3.554  20.373  -1.271  1.00  0.00     0.173 A 
ATOM     66  C   UNL     1      -5.803  19.650  -1.119  1.00  0.00     0.173 A 
ATOM     67  F   UNL     1      -2.329  20.397  -1.812  1.00  0.00    -0.203 F 
ATOM     68  C   UNL     1      -3.782  21.298  -0.247  1.00  0.00     0.198 A 
ATOM     69  C   UNL     1      -6.020  20.538  -0.060  1.00  0.00     0.198 A 
ATOM     70  F   UNL     1      -6.896  19.035  -1.577  1.00  0.00    -0.203 F 
ATOM     71  F   UNL     1      -2.798  22.125   0.133  1.00  0.00    -0.200 F 
ATOM     72  C   UNL     1      -5.005  21.357   0.384  1.00  0.00     0.200 A 
ATOM     73  F   UNL     1      -7.229  20.597   0.518  1.00  0.00    -0.200 F 
ATOM     74  F   UNL     1      -5.216  22.215   1.391  1.00  0.00    -0.200 F 
ENDBRANCH  50  64
BRANCH  51  75
ATOM     75  C   UNL     1      -1.932  11.665  -6.864  1.00  0.00     0.064 A 
ATOM     76  C   UNL     1      -1.494  10.361  -6.559  1.00  0.00     0.173 A 
ATOM     77  C   UNL     1      -3.227  11.811  -7.372  1.00  0.00     0.173 A 
ATOM     78  F   UNL     1      -0.257  10.169  -6.072  1.00  0.00    -0.203 F 
ATOM     79  C   UNL     1      -2.360   9.272  -6.624  1.00  0.00     0.198 A 
ATOM     80  C   UNL     1      -4.087  10.712  -7.455  1.00  0.00     0.198 A 
ATOM     81  F   UNL     1      -3.709  13.027  -7.665  1.00  0.00    -0.203 F 
ATOM     82  F   UNL     1      -1.951   8.067  -6.205  1.00  0.00    -0.200 F 
ATOM     83  C   UNL     1      -3.667   9.456  -7.041  1.00  0.00     0.200 A 
ATOM     84  F   UNL     1      -5.362  10.892  -7.830  1.00  0.00    -0.200 F 
ATOM     85  F   UNL     1      -4.536   8.435  -7.000  1.00  0.00    -0.200 F 
ENDBRANCH  51  75
BRANCH  63  86
ATOM     86  C   UNL     1      -1.570  18.828  -7.662  1.00  0.00     0.064 A 
ATOM     87  C   UNL     1      -1.777  18.749  -9.050  1.00  0.00     0.173 A 
ATOM     88  C   UNL     1      -1.570  20.142  -7.128  1.00  0.00     0.173 A 
ATOM     89  F   UNL     1      -1.929  17.572  -9.669  1.00  0.00    -0.203 F 
ATOM     90  C   UNL     1      -1.902  19.891  -9.849  1.00  0.00     0.198 A 
ATOM     91  C   UNL     1      -1.759  21.276  -7.919  1.00  0.00     0.198 A 
ATOM     92  F   UNL     1      -1.418  20.369  -5.816  1.00  0.00    -0.203 F 
ATOM     93  F   UNL     1      -2.051  19.757 -11.174  1.00  0.00    -0.200 F 
ATOM     94  C   UNL     1      -1.906  21.151  -9.283  1.00  0.00     0.200 A 
ATOM     95  F   UNL     1      -1.821  22.485  -7.345  1.00  0.00    -0.200 F 
ATOM     96  F   UNL     1      -2.077  22.238 -10.047  1.00  0.00    -0.200 F 
ENDBRANCH  63  86
ENDBRANCH  37  38
ENDBRANCH  29  32
ENDBRANCH  27  28
ENDBRANCH  26  27
ENDBRANCH   1  26
TORSDOF 14
