REMARK SMILES [NH3+]Cc1ccc(C(=O)N2[C@@H](C(=O)NCCCCNC(=O)c3ccc(-c4c5nc(c(-c6c(F)c(F)c(F)c(F)c6F)c6ccc([nH]6)c(-c6c(F)c(F)c(F)c(F)c6F)c6nc(c(-c7c(F)c(F)c(F)c(F)c7F)c7ccc4[nH]7)C=C6)C=C5)cc3)C[C@H]3CCCC[C@@H]32)o1
REMARK SMILES IDX 14 1 13 2 11 3 12 4 10 6 9 7 90 8 84 9 85 10 89 11 86 12
REMARK SMILES IDX 88 13 87 14 7 15 8 16 6 17 3 18 4 19 91 20 5 21 2 22 1 23
REMARK SMILES IDX 15 27 16 28 17 29 18 30 19 31 20 33 21 34 22 35 83 36 23 37
REMARK SMILES IDX 82 38 24 39 25 40 26 41 76 42 27 43 81 44 75 45 77 46 28 47
REMARK SMILES IDX 80 48 74 49 73 50 29 52 61 53 41 54 60 55 42 56 45 57 59 58
REMARK SMILES IDX 78 59 43 60 44 61 58 63 79 64 46 65 30 66 31 67 39 68 32 69
REMARK SMILES IDX 33 70 37 71 40 72 34 73 35 74 38 75 36 76 62 77 63 78 71 79
REMARK SMILES IDX 64 80 65 81 69 82 72 83 66 84 67 85 70 86 68 87 47 88 48 89
REMARK SMILES IDX 56 90 49 91 50 92 54 93 57 94 51 95 52 96 55 97 53 98
REMARK H PARENT 13 5 1 24 1 25 1 26 18 32 77 51 45 62
REMARK Flexibility Score: inf
ROOT
ATOM      1  C   UNL     1       4.720   7.488  -3.785  1.00  0.00     0.116 C 
ENDROOT
BRANCH   1   2
ATOM      2  N   UNL     1       5.157   7.439  -2.417  1.00  0.00    -0.354 N 
ATOM      3  C   UNL     1       4.397   7.159  -1.309  1.00  0.00     0.242 C 
ATOM      4  O   UNL     1       4.982   7.156  -0.220  1.00  0.00    -0.273 OA
ATOM      5  H   UNL     1       6.110   7.628  -2.256  1.00  0.00     0.163 HD
BRANCH   3   6
ATOM      6  C   UNL     1       2.836   7.027  -1.351  1.00  0.00     0.175 C 
ATOM      7  N   UNL     1       2.234   6.029  -2.263  1.00  0.00    -0.321 N 
ATOM      8  C   UNL     1       1.553   6.641  -3.374  1.00  0.00     0.089 C 
ATOM      9  C   UNL     1       2.213   8.371  -1.784  1.00  0.00     0.041 C 
ATOM     10  C   UNL     1       1.118   7.983  -2.781  1.00  0.00     0.014 C 
ATOM     11  C   UNL     1       0.351   6.000  -4.054  1.00  0.00     0.025 C 
ATOM     12  C   UNL     1       0.827   8.962  -3.904  1.00  0.00     0.006 C 
ATOM     13  C   UNL     1      -0.047   6.924  -5.224  1.00  0.00     0.002 C 
ATOM     14  C   UNL     1      -0.276   8.388  -4.805  1.00  0.00     0.000 C 
BRANCH   7  15
ATOM     15  C   UNL     1       2.284   4.657  -2.109  1.00  0.00     0.290 C 
ATOM     16  O   UNL     1       2.700   3.953  -3.026  1.00  0.00    -0.265 OA
BRANCH  15  17
ATOM     17  C   UNL     1       1.634   4.135  -0.915  1.00  0.00     0.192 A 
ATOM     18  C   UNL     1       0.848   2.519   0.377  1.00  0.00     0.159 A 
ATOM     19  C   UNL     1       0.354   3.699   0.888  1.00  0.00     0.052 A 
ATOM     20  O   UNL     1       1.643   2.778  -0.705  1.00  0.00    -0.450 OA
ATOM     21  C   UNL     1       0.843   4.729   0.054  1.00  0.00     0.057 A 
BRANCH  18  22
ATOM     22  C   UNL     1       0.632   1.098   0.774  1.00  0.00     0.335 C 
BRANCH  22  23
ATOM     23  N   UNL     1       1.190   0.146  -0.182  1.00  0.00    -0.351 N 
ATOM     24  H   UNL     1       1.013  -0.804   0.142  1.00  0.00     0.344 HD
ATOM     25  H   UNL     1       2.196   0.296  -0.263  1.00  0.00     0.344 HD
ATOM     26  H   UNL     1       0.752   0.283  -1.093  1.00  0.00     0.344 HD
ENDBRANCH  22  23
ENDBRANCH  18  22
ENDBRANCH  15  17
ENDBRANCH   7  15
ENDBRANCH   3   6
ENDBRANCH   1   2
BRANCH   1  27
ATOM     27  C   UNL     1       5.213   8.642  -4.639  1.00  0.00     0.023 C 
BRANCH  27  28
ATOM     28  C   UNL     1       6.650   8.558  -5.106  1.00  0.00     0.023 C 
BRANCH  28  29
ATOM     29  C   UNL     1       7.040   7.238  -5.750  1.00  0.00     0.116 C 
BRANCH  29  30
ATOM     30  N   UNL     1       6.278   6.914  -6.950  1.00  0.00    -0.352 N 
ATOM     31  C   UNL     1       6.739   6.571  -8.202  1.00  0.00     0.251 C 
ATOM     32  H   UNL     1       5.299   6.945  -6.852  1.00  0.00     0.163 HD
ATOM     33  O   UNL     1       5.960   6.429  -9.138  1.00  0.00    -0.269 OA
BRANCH  31  34
ATOM     34  C   UNL     1       8.194   6.423  -8.419  1.00  0.00     0.039 A 
ATOM     35  C   UNL     1       8.784   7.048  -9.518  1.00  0.00     0.014 A 
ATOM     36  C   UNL     1       8.980   5.725  -7.499  1.00  0.00     0.014 A 
ATOM     37  C   UNL     1      10.175   7.048  -9.644  1.00  0.00     0.010 A 
ATOM     38  C   UNL     1      10.364   5.825  -7.563  1.00  0.00     0.010 A 
ATOM     39  C   UNL     1      10.979   6.479  -8.641  1.00  0.00    -0.014 A 
BRANCH  39  40
ATOM     40  C   UNL     1      12.461   6.544  -8.709  1.00  0.00     0.031 A 
ATOM     41  C   UNL     1      13.266   5.274  -8.767  1.00  0.00     0.074 A 
ATOM     42  C   UNL     1      13.085   7.737  -8.659  1.00  0.00     0.049 A 
ATOM     43  N   UNL     1      14.566   5.116  -8.784  1.00  0.00    -0.248 NA
ATOM     44  C   UNL     1      12.511   4.010  -8.774  1.00  0.00     0.031 C 
ATOM     45  C   UNL     1      12.421   9.037  -8.540  1.00  0.00     0.029 A 
ATOM     46  N   UNL     1      14.421   8.051  -8.696  1.00  0.00    -0.354 N 
ATOM     47  C   UNL     1      14.778   3.744  -8.790  1.00  0.00     0.074 A 
ATOM     48  C   UNL     1      13.481   3.112  -8.702  1.00  0.00     0.031 C 
ATOM     49  C   UNL     1      13.349  10.008  -8.550  1.00  0.00     0.029 A 
ATOM     50  C   UNL     1      14.673   9.400  -8.633  1.00  0.00     0.049 A 
ATOM     51  H   UNL     1      15.132   7.373  -8.761  1.00  0.00     0.167 HD
ATOM     52  C   UNL     1      15.947   3.068  -8.892  1.00  0.00     0.037 A 
ATOM     53  C   UNL     1      15.841  10.071  -8.639  1.00  0.00     0.037 A 
ATOM     54  C   UNL     1      17.235   3.700  -9.003  1.00  0.00     0.049 A 
ATOM     55  C   UNL     1      17.128   9.296  -8.748  1.00  0.00     0.074 A 
ATOM     56  C   UNL     1      18.475   3.109  -9.171  1.00  0.00     0.029 A 
ATOM     57  N   UNL     1      17.449   5.070  -8.953  1.00  0.00    -0.354 N 
ATOM     58  N   UNL     1      17.312   8.001  -8.834  1.00  0.00    -0.248 NA
ATOM     59  C   UNL     1      18.371  10.080  -8.772  1.00  0.00     0.031 C 
ATOM     60  C   UNL     1      19.444   4.117  -9.165  1.00  0.00     0.029 A 
ATOM     61  C   UNL     1      18.804   5.341  -9.060  1.00  0.00     0.049 A 
ATOM     62  H   UNL     1      16.743   5.749  -8.855  1.00  0.00     0.167 HD
ATOM     63  C   UNL     1      18.683   7.817  -8.955  1.00  0.00     0.074 A 
ATOM     64  C   UNL     1      19.282   9.135  -8.949  1.00  0.00     0.031 C 
ATOM     65  C   UNL     1      19.384   6.660  -9.062  1.00  0.00     0.037 A 
BRANCH  52  66
ATOM     66  C   UNL     1      15.885   1.567  -8.894  1.00  0.00     0.064 A 
ATOM     67  C   UNL     1      15.315   0.853  -9.960  1.00  0.00     0.173 A 
ATOM     68  C   UNL     1      16.428   0.831  -7.830  1.00  0.00     0.173 A 
ATOM     69  F   UNL     1      14.769   1.508 -10.996  1.00  0.00    -0.203 F 
ATOM     70  C   UNL     1      15.261  -0.538  -9.945  1.00  0.00     0.198 A 
ATOM     71  C   UNL     1      16.404  -0.562  -7.836  1.00  0.00     0.198 A 
ATOM     72  F   UNL     1      16.989   1.461  -6.787  1.00  0.00    -0.203 F 
ATOM     73  F   UNL     1      14.660  -1.194 -10.948  1.00  0.00    -0.200 F 
ATOM     74  C   UNL     1      15.813  -1.244  -8.888  1.00  0.00     0.200 A 
ATOM     75  F   UNL     1      16.953  -1.243  -6.820  1.00  0.00    -0.200 F 
ATOM     76  F   UNL     1      15.769  -2.584  -8.879  1.00  0.00    -0.200 F 
ENDBRANCH  52  66
BRANCH  53  77
ATOM     77  C   UNL     1      15.851  11.557  -8.569  1.00  0.00     0.064 A 
ATOM     78  C   UNL     1      16.270  12.328  -9.663  1.00  0.00     0.173 A 
ATOM     79  C   UNL     1      15.457  12.236  -7.407  1.00  0.00     0.173 A 
ATOM     80  F   UNL     1      16.675  11.726 -10.791  1.00  0.00    -0.203 F 
ATOM     81  C   UNL     1      16.321  13.719  -9.588  1.00  0.00     0.198 A 
ATOM     82  C   UNL     1      15.477  13.628  -7.345  1.00  0.00     0.198 A 
ATOM     83  F   UNL     1      15.042  11.548  -6.334  1.00  0.00    -0.203 F 
ATOM     84  F   UNL     1      16.777  14.427 -10.630  1.00  0.00    -0.200 F 
ATOM     85  C   UNL     1      15.919  14.368  -8.431  1.00  0.00     0.200 A 
ATOM     86  F   UNL     1      15.072  14.252  -6.231  1.00  0.00    -0.200 F 
ATOM     87  F   UNL     1      15.965  15.705  -8.360  1.00  0.00    -0.200 F 
ENDBRANCH  53  77
BRANCH  65  88
ATOM     88  C   UNL     1      20.873   6.769  -9.227  1.00  0.00     0.064 A 
ATOM     89  C   UNL     1      21.705   7.203  -8.184  1.00  0.00     0.173 A 
ATOM     90  C   UNL     1      21.479   6.403 -10.439  1.00  0.00     0.173 A 
ATOM     91  F   UNL     1      21.176   7.578  -7.009  1.00  0.00    -0.203 F 
ATOM     92  C   UNL     1      23.083   7.300  -8.360  1.00  0.00     0.198 A 
ATOM     93  C   UNL     1      22.860   6.466 -10.599  1.00  0.00     0.198 A 
ATOM     94  F   UNL     1      20.732   5.972 -11.466  1.00  0.00    -0.203 F 
ATOM     95  F   UNL     1      23.851   7.774  -7.369  1.00  0.00    -0.200 F 
ATOM     96  C   UNL     1      23.660   6.924  -9.564  1.00  0.00     0.200 A 
ATOM     97  F   UNL     1      23.417   6.085 -11.757  1.00  0.00    -0.200 F 
ATOM     98  F   UNL     1      24.987   7.013  -9.729  1.00  0.00    -0.200 F 
ENDBRANCH  65  88
ENDBRANCH  39  40
ENDBRANCH  31  34
ENDBRANCH  29  30
ENDBRANCH  28  29
ENDBRANCH  27  28
ENDBRANCH   1  27
TORSDOF 15
