REMARK SMILES COc1ccc(C(=O)c2ccccc2)cc1[C@@H](C)C(=O)NCCCCNC(=O)c1ccc(-c2c3nc(c(-c4c(F)c(F)c(F)c(F)c4F)c4ccc([nH]4)c(-c4c(F)c(F)c(F)c(F)c4F)c4nc(c(-c5c(F)c(F)c(F)c(F)c5F)c5ccc2[nH]5)C=C4)C=C3)cc1
REMARK SMILES IDX 23 1 22 2 21 3 19 4 20 5 17 7 18 8 16 9 3 10 4 11 5 12 15 13
REMARK SMILES IDX 6 14 2 15 1 16 7 17 8 18 9 19 10 20 14 21 11 22 13 23 12 24
REMARK SMILES IDX 24 25 25 26 26 27 27 28 28 30 29 31 30 32 91 33 31 34 90 35
REMARK SMILES IDX 32 36 33 37 34 38 84 39 35 40 89 41 83 42 85 43 36 44 88 45
REMARK SMILES IDX 82 46 81 47 37 49 69 50 49 51 68 52 50 53 53 54 67 55 86 56
REMARK SMILES IDX 51 57 52 58 66 60 87 61 54 62 38 63 39 64 47 65 40 66 41 67
REMARK SMILES IDX 45 68 48 69 42 70 43 71 46 72 44 73 70 74 71 75 79 76 72 77
REMARK SMILES IDX 73 78 77 79 80 80 74 81 75 82 78 83 76 84 55 85 56 86 64 87
REMARK SMILES IDX 57 88 58 89 62 90 65 91 59 92 60 93 63 94 61 95
REMARK H PARENT 21 6 26 29 85 48 53 59
REMARK Flexibility Score: inf
ROOT
ATOM      1  C   UNL     1       4.355  -1.295   4.969  1.00  0.00     0.023 C 
ENDROOT
BRANCH   1   2
ATOM      2  C   UNL     1       5.152  -0.941   3.716  1.00  0.00     0.116 C 
BRANCH   2   3
ATOM      3  N   UNL     1       4.509  -1.441   2.523  1.00  0.00    -0.356 N 
ATOM      4  C   UNL     1       3.663  -0.855   1.634  1.00  0.00     0.227 C 
ATOM      5  O   UNL     1       3.183  -1.610   0.779  1.00  0.00    -0.274 OA
ATOM      6  H   UNL     1       4.722  -2.380   2.316  1.00  0.00     0.163 HD
BRANCH   4   7
ATOM      7  C   UNL     1       3.274   0.636   1.654  1.00  0.00     0.109 C 
ATOM      8  C   UNL     1       4.430   1.631   1.724  1.00  0.00     0.023 C 
BRANCH   7   9
ATOM      9  C   UNL     1       2.104   0.934   2.586  1.00  0.00     0.007 A 
ATOM     10  C   UNL     1       0.793   1.047   2.099  1.00  0.00     0.122 A 
ATOM     11  C   UNL     1      -0.286   1.235   2.966  1.00  0.00     0.047 A 
ATOM     12  C   UNL     1      -0.080   1.280   4.345  1.00  0.00     0.016 A 
ATOM     13  C   UNL     1       2.291   1.059   3.979  1.00  0.00     0.020 A 
ATOM     14  C   UNL     1       1.214   1.200   4.868  1.00  0.00     0.023 A 
BRANCH  10  15
ATOM     15  O   UNL     1       0.531   1.119   0.757  1.00  0.00    -0.496 OA
ATOM     16  C   UNL     1       0.362  -0.170   0.166  1.00  0.00     0.278 C 
ENDBRANCH  10  15
BRANCH  14  17
ATOM     17  C   UNL     1       1.363   1.174   6.357  1.00  0.00     0.193 C 
ATOM     18  O   UNL     1       0.364   1.019   7.059  1.00  0.00    -0.289 OA
BRANCH  17  19
ATOM     19  C   UNL     1       2.671   1.252   7.050  1.00  0.00     0.022 A 
ATOM     20  C   UNL     1       2.921   0.339   8.085  1.00  0.00     0.012 A 
ATOM     21  C   UNL     1       3.624   2.226   6.736  1.00  0.00     0.012 A 
ATOM     22  C   UNL     1       4.130   0.380   8.780  1.00  0.00     0.001 A 
ATOM     23  C   UNL     1       4.836   2.260   7.431  1.00  0.00     0.001 A 
ATOM     24  C   UNL     1       5.083   1.343   8.453  1.00  0.00     0.000 A 
ENDBRANCH  17  19
ENDBRANCH  14  17
ENDBRANCH   7   9
ENDBRANCH   4   7
ENDBRANCH   2   3
ENDBRANCH   1   2
BRANCH   1  25
ATOM     25  C   UNL     1       4.774  -2.569   5.685  1.00  0.00     0.023 C 
BRANCH  25  26
ATOM     26  C   UNL     1       6.229  -2.607   6.126  1.00  0.00     0.116 C 
BRANCH  26  27
ATOM     27  N   UNL     1       6.677  -1.419   6.845  1.00  0.00    -0.352 N 
ATOM     28  C   UNL     1       7.565  -1.347   7.890  1.00  0.00     0.251 C 
ATOM     29  H   UNL     1       6.295  -0.563   6.544  1.00  0.00     0.163 HD
ATOM     30  O   UNL     1       7.863  -0.281   8.416  1.00  0.00    -0.269 OA
BRANCH  28  31
ATOM     31  C   UNL     1       8.135  -2.600   8.400  1.00  0.00     0.039 A 
ATOM     32  C   UNL     1       7.953  -2.929   9.746  1.00  0.00     0.014 A 
ATOM     33  C   UNL     1       8.759  -3.478   7.514  1.00  0.00     0.014 A 
ATOM     34  C   UNL     1       8.354  -4.183  10.196  1.00  0.00     0.010 A 
ATOM     35  C   UNL     1       9.072  -4.755   7.942  1.00  0.00     0.010 A 
ATOM     36  C   UNL     1       8.886  -5.111   9.287  1.00  0.00    -0.014 A 
BRANCH  36  37
ATOM     37  C   UNL     1       9.315  -6.460   9.712  1.00  0.00     0.031 A 
ATOM     38  C   UNL     1      10.767  -6.820   9.586  1.00  0.00     0.074 A 
ATOM     39  C   UNL     1       8.396  -7.366  10.088  1.00  0.00     0.049 A 
ATOM     40  N   UNL     1      11.347  -7.984   9.705  1.00  0.00    -0.248 NA
ATOM     41  C   UNL     1      11.682  -5.725   9.221  1.00  0.00     0.031 C 
ATOM     42  C   UNL     1       6.957  -7.121  10.195  1.00  0.00     0.029 A 
ATOM     43  N   UNL     1       8.535  -8.686  10.427  1.00  0.00    -0.354 N 
ATOM     44  C   UNL     1      12.682  -7.767   9.393  1.00  0.00     0.074 A 
ATOM     45  C   UNL     1      12.818  -6.376   9.025  1.00  0.00     0.031 C 
ATOM     46  C   UNL     1       6.346  -8.251  10.585  1.00  0.00     0.029 A 
ATOM     47  C   UNL     1       7.344  -9.307  10.714  1.00  0.00     0.049 A 
ATOM     48  H   UNL     1       9.405  -9.146  10.462  1.00  0.00     0.167 HD
ATOM     49  C   UNL     1      13.706  -8.652   9.432  1.00  0.00     0.037 A 
ATOM     50  C   UNL     1       7.096 -10.591  11.031  1.00  0.00     0.037 A 
ATOM     51  C   UNL     1      13.551 -10.021   9.845  1.00  0.00     0.049 A 
ATOM     52  C   UNL     1       8.257 -11.546  11.107  1.00  0.00     0.074 A 
ATOM     53  C   UNL     1      14.519 -10.997   9.989  1.00  0.00     0.029 A 
ATOM     54  N   UNL     1      12.337 -10.602  10.190  1.00  0.00    -0.354 N 
ATOM     55  N   UNL     1       9.527 -11.326  10.858  1.00  0.00    -0.248 NA
ATOM     56  C   UNL     1       7.955 -12.923  11.515  1.00  0.00     0.031 C 
ATOM     57  C   UNL     1      13.886 -12.179  10.387  1.00  0.00     0.029 A 
ATOM     58  C   UNL     1      12.530 -11.928  10.537  1.00  0.00     0.049 A 
ATOM     59  H   UNL     1      11.468 -10.139  10.188  1.00  0.00     0.167 HD
ATOM     60  C   UNL     1      10.178 -12.526  11.099  1.00  0.00     0.074 A 
ATOM     61  C   UNL     1       9.164 -13.466  11.536  1.00  0.00     0.031 C 
ATOM     62  C   UNL     1      11.494 -12.831  10.970  1.00  0.00     0.037 A 
BRANCH  49  63
ATOM     63  C   UNL     1      15.065  -8.161   9.023  1.00  0.00     0.064 A 
ATOM     64  C   UNL     1      15.771  -7.217   9.786  1.00  0.00     0.173 A 
ATOM     65  C   UNL     1      15.673  -8.642   7.854  1.00  0.00     0.173 A 
ATOM     66  F   UNL     1      15.229  -6.710  10.903  1.00  0.00    -0.203 F 
ATOM     67  C   UNL     1      17.016  -6.747   9.375  1.00  0.00     0.198 A 
ATOM     68  C   UNL     1      16.934  -8.195   7.464  1.00  0.00     0.198 A 
ATOM     69  F   UNL     1      15.045  -9.544   7.085  1.00  0.00    -0.203 F 
ATOM     70  F   UNL     1      17.641  -5.799  10.087  1.00  0.00    -0.200 F 
ATOM     71  C   UNL     1      17.599  -7.242   8.218  1.00  0.00     0.200 A 
ATOM     72  F   UNL     1      17.501  -8.682   6.351  1.00  0.00    -0.200 F 
ATOM     73  F   UNL     1      18.799  -6.790   7.825  1.00  0.00    -0.200 F 
ENDBRANCH  49  63
BRANCH  50  74
ATOM     74  C   UNL     1       5.708 -11.031  11.329  1.00  0.00     0.064 A 
ATOM     75  C   UNL     1       5.332 -11.381  12.634  1.00  0.00     0.173 A 
ATOM     76  C   UNL     1       4.726 -11.096  10.330  1.00  0.00     0.173 A 
ATOM     77  F   UNL     1       6.238 -11.351  13.622  1.00  0.00    -0.203 F 
ATOM     78  C   UNL     1       4.033 -11.796  12.924  1.00  0.00     0.198 A 
ATOM     79  C   UNL     1       3.420 -11.485  10.627  1.00  0.00     0.198 A 
ATOM     80  F   UNL     1       5.030 -10.764   9.067  1.00  0.00    -0.203 F 
ATOM     81  F   UNL     1       3.713 -12.162  14.173  1.00  0.00    -0.200 F 
ATOM     82  C   UNL     1       3.077 -11.841  11.922  1.00  0.00     0.200 A 
ATOM     83  F   UNL     1       2.495 -11.510   9.658  1.00  0.00    -0.200 F 
ATOM     84  F   UNL     1       1.826 -12.231  12.203  1.00  0.00    -0.200 F 
ENDBRANCH  50  74
BRANCH  62  85
ATOM     85  C   UNL     1      11.903 -14.227  11.334  1.00  0.00     0.064 A 
ATOM     86  C   UNL     1      11.581 -15.322  10.520  1.00  0.00     0.173 A 
ATOM     87  C   UNL     1      12.657 -14.464  12.493  1.00  0.00     0.173 A 
ATOM     88  F   UNL     1      10.849 -15.145   9.409  1.00  0.00    -0.203 F 
ATOM     89  C   UNL     1      11.972 -16.610  10.870  1.00  0.00     0.198 A 
ATOM     90  C   UNL     1      13.074 -15.749  12.823  1.00  0.00     0.198 A 
ATOM     91  F   UNL     1      12.997 -13.447  13.299  1.00  0.00    -0.203 F 
ATOM     92  F   UNL     1      11.609 -17.649  10.106  1.00  0.00    -0.200 F 
ATOM     93  C   UNL     1      12.724 -16.822  12.017  1.00  0.00     0.200 A 
ATOM     94  F   UNL     1      13.812 -15.950  13.924  1.00  0.00    -0.200 F 
ATOM     95  F   UNL     1      13.104 -18.063  12.350  1.00  0.00    -0.200 F 
ENDBRANCH  62  85
ENDBRANCH  36  37
ENDBRANCH  28  31
ENDBRANCH  26  27
ENDBRANCH  25  26
ENDBRANCH   1  25
TORSDOF 15
