REMARK SMILES Cc1nn(-c2nc3ccccc3o2)c2c1[C@H](c1ccc(C(=O)NCCCCNC(=O)c3ccc(-c4c5nc(c(-c6c(F)c(F)c(F)c(F)c6F)c6ccc([nH]6)c(-c6c(F)c(F)c(F)c(F)c6F)c6nc(c(-c7c(F)c(F)c(F)c(F)c7F)c7ccc4[nH]7)C=C6)C=C5)cc3)cc1)CC(=O)N2
REMARK SMILES IDX 25 1 24 2 23 3 21 4 22 5 20 7 17 8 18 9 95 10 19 11 94 12
REMARK SMILES IDX 16 13 1 14 2 15 3 16 15 17 4 18 14 19 99 20 96 21 97 22
REMARK SMILES IDX 98 24 5 25 6 26 13 27 7 28 12 29 8 30 11 31 9 32 10 33 26 34
REMARK SMILES IDX 27 35 28 36 29 37 30 39 31 40 32 41 93 42 33 43 92 44 34 45
REMARK SMILES IDX 35 46 36 47 86 48 37 49 91 50 85 51 87 52 38 53 90 54 84 55
REMARK SMILES IDX 83 56 39 58 71 59 51 60 70 61 52 62 55 63 69 64 88 65 53 66
REMARK SMILES IDX 54 67 68 69 89 70 56 71 40 72 41 73 49 74 42 75 43 76 47 77
REMARK SMILES IDX 50 78 44 79 45 80 48 81 46 82 72 83 73 84 81 85 74 86 75 87
REMARK SMILES IDX 79 88 82 89 76 90 77 91 80 92 78 93 57 94 58 95 66 96 59 97
REMARK SMILES IDX 60 98 64 99 67 100 61 101 62 102 65 103 63 104
REMARK H PARENT 23 6 99 23 28 38 87 57 55 68
REMARK Flexibility Score: inf
ROOT
ATOM      1  C   UNL     1      -6.684   2.791  -0.885  1.00  0.00     0.023 C 
ENDROOT
BRANCH   1   2
ATOM      2  C   UNL     1      -5.609   3.884  -0.831  1.00  0.00     0.116 C 
BRANCH   2   3
ATOM      3  N   UNL     1      -4.801   3.800   0.371  1.00  0.00    -0.352 N 
ATOM      4  C   UNL     1      -3.527   3.331   0.586  1.00  0.00     0.251 C 
ATOM      5  O   UNL     1      -3.034   3.497   1.701  1.00  0.00    -0.269 OA
ATOM      6  H   UNL     1      -5.246   4.140   1.181  1.00  0.00     0.163 HD
BRANCH   4   7
ATOM      7  C   UNL     1      -2.716   2.663  -0.469  1.00  0.00     0.039 A 
ATOM      8  C   UNL     1      -1.053   1.337  -2.361  1.00  0.00    -0.040 A 
ATOM      9  C   UNL     1      -0.505   2.160  -1.364  1.00  0.00     0.005 A 
ATOM     10  C   UNL     1      -2.449   1.198  -2.386  1.00  0.00     0.005 A 
ATOM     11  C   UNL     1      -1.323   2.788  -0.412  1.00  0.00     0.014 A 
ATOM     12  C   UNL     1      -3.265   1.851  -1.458  1.00  0.00     0.014 A 
BRANCH   8  13
ATOM     13  C   UNL     1      -0.143   0.604  -3.341  1.00  0.00     0.064 C 
ATOM     14  C   UNL     1       0.957  -0.733  -0.304  1.00  0.00     0.069 C 
ATOM     15  C   UNL     1       0.487  -1.355  -1.570  1.00  0.00     0.066 A 
ATOM     16  N   UNL     1       0.537  -2.695  -1.637  1.00  0.00    -0.167 NA
ATOM     17  C   UNL     1       0.051  -0.782  -2.807  1.00  0.00     0.026 A 
ATOM     18  N   UNL     1       0.165  -2.990  -2.900  1.00  0.00    -0.166 N 
ATOM     19  C   UNL     1      -0.002  -1.864  -3.659  1.00  0.00     0.145 A 
ATOM     20  N   UNL     1      -0.131  -1.810  -5.025  1.00  0.00    -0.310 N 
ATOM     21  C   UNL     1      -0.718   0.576  -4.781  1.00  0.00     0.113 C 
ATOM     22  C   UNL     1      -0.286  -0.599  -5.646  1.00  0.00     0.226 C 
ATOM     23  H   UNL     1      -0.113  -2.639  -5.556  1.00  0.00     0.171 HD
ATOM     24  O   UNL     1      -0.218  -0.512  -6.870  1.00  0.00    -0.275 OA
BRANCH  18  25
ATOM     25  C   UNL     1       0.037  -4.322  -3.267  1.00  0.00     0.325 A 
ATOM     26  N   UNL     1      -1.124  -4.954  -3.164  1.00  0.00    -0.191 NA
ATOM     27  O   UNL     1       1.056  -5.088  -3.784  1.00  0.00    -0.422 OA
ATOM     28  C   UNL     1      -0.822  -6.243  -3.503  1.00  0.00     0.111 A 
ATOM     29  C   UNL     1       0.504  -6.330  -3.893  1.00  0.00     0.156 A 
ATOM     30  C   UNL     1      -1.605  -7.402  -3.481  1.00  0.00     0.032 A 
ATOM     31  C   UNL     1       1.139  -7.500  -4.284  1.00  0.00     0.049 A 
ATOM     32  C   UNL     1      -0.985  -8.615  -3.810  1.00  0.00     0.003 A 
ATOM     33  C   UNL     1       0.359  -8.661  -4.205  1.00  0.00     0.004 A 
ENDBRANCH  18  25
ENDBRANCH   8  13
ENDBRANCH   4   7
ENDBRANCH   2   3
ENDBRANCH   1   2
BRANCH   1  34
ATOM     34  C   UNL     1      -7.877   2.971   0.063  1.00  0.00     0.023 C 
BRANCH  34  35
ATOM     35  C   UNL     1      -8.782   4.154  -0.252  1.00  0.00     0.116 C 
BRANCH  35  36
ATOM     36  N   UNL     1      -9.401   4.074  -1.578  1.00  0.00    -0.352 N 
ATOM     37  C   UNL     1     -10.040   5.082  -2.286  1.00  0.00     0.251 C 
ATOM     38  H   UNL     1      -9.357   3.197  -2.022  1.00  0.00     0.163 HD
ATOM     39  O   UNL     1     -10.847   4.837  -3.163  1.00  0.00    -0.269 OA
BRANCH  37  40
ATOM     40  C   UNL     1      -9.686   6.474  -1.962  1.00  0.00     0.039 A 
ATOM     41  C   UNL     1     -10.645   7.480  -1.834  1.00  0.00     0.014 A 
ATOM     42  C   UNL     1      -8.341   6.729  -1.725  1.00  0.00     0.014 A 
ATOM     43  C   UNL     1     -10.235   8.732  -1.379  1.00  0.00     0.010 A 
ATOM     44  C   UNL     1      -7.977   7.883  -1.092  1.00  0.00     0.010 A 
ATOM     45  C   UNL     1      -8.897   8.916  -0.991  1.00  0.00    -0.014 A 
BRANCH  45  46
ATOM     46  C   UNL     1      -8.445  10.154  -0.373  1.00  0.00     0.031 A 
ATOM     47  C   UNL     1      -9.206  10.525   0.847  1.00  0.00     0.074 A 
ATOM     48  C   UNL     1      -7.300  10.773  -0.740  1.00  0.00     0.049 A 
ATOM     49  N   UNL     1     -10.052  11.491   0.979  1.00  0.00    -0.248 NA
ATOM     50  C   UNL     1      -9.148   9.629   2.014  1.00  0.00     0.031 C 
ATOM     51  C   UNL     1      -6.284  10.300  -1.694  1.00  0.00     0.029 A 
ATOM     52  N   UNL     1      -6.742  11.922  -0.264  1.00  0.00    -0.354 N 
ATOM     53  C   UNL     1     -10.446  11.471   2.315  1.00  0.00     0.074 A 
ATOM     54  C   UNL     1     -10.036  10.196   2.835  1.00  0.00     0.031 C 
ATOM     55  C   UNL     1      -5.147  11.014  -1.548  1.00  0.00     0.029 A 
ATOM     56  C   UNL     1      -5.417  12.115  -0.645  1.00  0.00     0.049 A 
ATOM     57  H   UNL     1      -7.233  12.560   0.302  1.00  0.00     0.167 HD
ATOM     58  C   UNL     1     -10.781  12.635   2.942  1.00  0.00     0.037 A 
ATOM     59  C   UNL     1      -4.598  13.119  -0.253  1.00  0.00     0.037 A 
ATOM     60  C   UNL     1     -10.939  13.690   1.973  1.00  0.00     0.049 A 
ATOM     61  C   UNL     1      -5.461  14.226   0.215  1.00  0.00     0.074 A 
ATOM     62  C   UNL     1     -11.878  14.062   1.037  1.00  0.00     0.029 A 
ATOM     63  N   UNL     1      -9.757  14.293   1.633  1.00  0.00    -0.354 N 
ATOM     64  N   UNL     1      -6.259  14.893  -0.572  1.00  0.00    -0.248 NA
ATOM     65  C   UNL     1      -5.733  14.358   1.641  1.00  0.00     0.031 C 
ATOM     66  C   UNL     1     -11.164  14.769   0.021  1.00  0.00     0.029 A 
ATOM     67  C   UNL     1      -9.822  14.858   0.390  1.00  0.00     0.049 A 
ATOM     68  H   UNL     1      -8.961  14.316   2.211  1.00  0.00     0.167 HD
ATOM     69  C   UNL     1      -7.364  15.164   0.211  1.00  0.00     0.074 A 
ATOM     70  C   UNL     1      -6.915  14.978   1.586  1.00  0.00     0.031 C 
ATOM     71  C   UNL     1      -8.614  15.185  -0.334  1.00  0.00     0.037 A 
BRANCH  58  72
ATOM     72  C   UNL     1     -10.463  12.978   4.386  1.00  0.00     0.064 A 
ATOM     73  C   UNL     1     -10.924  14.208   4.908  1.00  0.00     0.173 A 
ATOM     74  C   UNL     1      -9.472  12.334   5.158  1.00  0.00     0.173 A 
ATOM     75  F   UNL     1     -11.853  14.922   4.254  1.00  0.00    -0.203 F 
ATOM     76  C   UNL     1     -10.378  14.777   6.063  1.00  0.00     0.198 A 
ATOM     77  C   UNL     1      -8.965  12.882   6.336  1.00  0.00     0.198 A 
ATOM     78  F   UNL     1      -8.867  11.213   4.753  1.00  0.00    -0.203 F 
ATOM     79  F   UNL     1     -10.761  16.002   6.449  1.00  0.00    -0.200 F 
ATOM     80  C   UNL     1      -9.393  14.117   6.773  1.00  0.00     0.200 A 
ATOM     81  F   UNL     1      -7.992  12.236   6.996  1.00  0.00    -0.200 F 
ATOM     82  F   UNL     1      -8.825  14.684   7.844  1.00  0.00    -0.200 F 
ENDBRANCH  58  72
BRANCH  59  83
ATOM     83  C   UNL     1      -3.139  13.090  -0.014  1.00  0.00     0.064 A 
ATOM     84  C   UNL     1      -2.373  14.267  -0.009  1.00  0.00     0.173 A 
ATOM     85  C   UNL     1      -2.523  11.937   0.509  1.00  0.00     0.173 A 
ATOM     86  F   UNL     1      -2.902  15.415  -0.455  1.00  0.00    -0.203 F 
ATOM     87  C   UNL     1      -1.079  14.297   0.522  1.00  0.00     0.198 A 
ATOM     88  C   UNL     1      -1.233  11.968   1.040  1.00  0.00     0.198 A 
ATOM     89  F   UNL     1      -3.204  10.785   0.606  1.00  0.00    -0.203 F 
ATOM     90  F   UNL     1      -0.401  15.452   0.569  1.00  0.00    -0.200 F 
ATOM     91  C   UNL     1      -0.516  13.150   1.060  1.00  0.00     0.200 A 
ATOM     92  F   UNL     1      -0.715  10.862   1.594  1.00  0.00    -0.200 F 
ATOM     93  F   UNL     1       0.695  13.194   1.633  1.00  0.00    -0.200 F 
ENDBRANCH  59  83
BRANCH  71  94
ATOM     94  C   UNL     1      -8.720  15.418  -1.810  1.00  0.00     0.064 A 
ATOM     95  C   UNL     1      -8.282  14.521  -2.798  1.00  0.00     0.173 A 
ATOM     96  C   UNL     1      -9.376  16.580  -2.236  1.00  0.00     0.173 A 
ATOM     97  F   UNL     1      -7.714  13.355  -2.469  1.00  0.00    -0.203 F 
ATOM     98  C   UNL     1      -8.464  14.798  -4.152  1.00  0.00     0.198 A 
ATOM     99  C   UNL     1      -9.588  16.837  -3.586  1.00  0.00     0.198 A 
ATOM    100  F   UNL     1      -9.850  17.453  -1.333  1.00  0.00    -0.203 F 
ATOM    101  F   UNL     1      -8.022  13.936  -5.081  1.00  0.00    -0.200 F 
ATOM    102  C   UNL     1      -9.123  15.952  -4.544  1.00  0.00     0.200 A 
ATOM    103  F   UNL     1     -10.264  17.934  -3.955  1.00  0.00    -0.200 F 
ATOM    104  F   UNL     1      -9.329  16.203  -5.845  1.00  0.00    -0.200 F 
ENDBRANCH  71  94
ENDBRANCH  45  46
ENDBRANCH  37  40
ENDBRANCH  35  36
ENDBRANCH  34  35
ENDBRANCH   1  34
TORSDOF 13
