REMARK SMILES CC[NH2+][C@]1(C(=O)NCCCCNC(=O)c2ccc(-c3c4nc(c(-c5c(F)c(F)c(F)c(F)c5F)c5ccc([nH]5)c(-c5c(F)c(F)c(F)c(F)c5F)c5nc(c(-c6c(F)c(F)c(F)c(F)c6F)c6ccc3[nH]6)C=C5)C=C4)cc2)CCC[C@@H]([N@@H+](C)CC2CCCC2)C1
REMARK SMILES IDX 9 1 8 2 7 3 5 4 6 5 4 7 78 8 90 9 79 10 81 11 80 12 3 13
REMARK SMILES IDX 2 16 1 17 82 18 83 19 84 21 85 22 86 23 89 24 87 25 88 26
REMARK SMILES IDX 10 27 11 28 12 29 13 30 14 32 15 33 16 34 77 35 17 36 76 37
REMARK SMILES IDX 18 38 19 39 20 40 70 41 21 42 75 43 69 44 71 45 22 46 74 47
REMARK SMILES IDX 68 48 67 49 23 51 55 52 35 53 54 54 36 55 39 56 53 57 72 58
REMARK SMILES IDX 37 59 38 60 52 62 73 63 40 64 24 65 25 66 33 67 26 68 27 69
REMARK SMILES IDX 31 70 34 71 28 72 29 73 32 74 30 75 56 76 57 77 65 78 58 79
REMARK SMILES IDX 59 80 63 81 66 82 60 83 61 84 64 85 62 86 41 87 42 88 50 89
REMARK SMILES IDX 43 90 44 91 48 92 51 93 45 94 46 95 49 96 47 97
REMARK H PARENT 7 6 3 14 3 15 82 20 12 31 71 50 39 61
REMARK Flexibility Score: inf
ROOT
ATOM      1  C   UNL     1       2.752  -4.730   1.897  1.00  0.00     0.023 C 
ENDROOT
BRANCH   1   2
ATOM      2  C   UNL     1       1.387  -4.046   1.791  1.00  0.00     0.116 C 
BRANCH   2   3
ATOM      3  N   UNL     1       1.450  -2.775   1.089  1.00  0.00    -0.351 N 
ATOM      4  C   UNL     1       1.187  -2.382  -0.194  1.00  0.00     0.281 C 
ATOM      5  O   UNL     1       1.366  -1.174  -0.384  1.00  0.00    -0.268 OA
ATOM      6  H   UNL     1       1.746  -2.033   1.665  1.00  0.00     0.163 HD
BRANCH   4   7
ATOM      7  C   UNL     1       0.650  -3.363  -1.311  1.00  0.00     0.181 C 
ATOM      8  C   UNL     1       1.618  -4.562  -1.455  1.00  0.00     0.079 C 
ATOM      9  C   UNL     1      -0.776  -3.850  -0.940  1.00  0.00     0.144 C 
ATOM     10  C   UNL     1       1.127  -5.630  -2.428  1.00  0.00     0.013 C 
ATOM     11  C   UNL     1      -1.299  -5.061  -1.752  1.00  0.00     0.190 C 
ATOM     12  C   UNL     1      -0.222  -6.140  -1.952  1.00  0.00     0.065 C 
BRANCH   7  13
ATOM     13  N   UNL     1       0.714  -2.756  -2.673  1.00  0.00    -0.334 N 
ATOM     14  H   UNL     1       1.699  -2.594  -2.879  1.00  0.00     0.347 HD
ATOM     15  H   UNL     1       0.220  -3.431  -3.257  1.00  0.00     0.347 HD
BRANCH  13  16
ATOM     16  C   UNL     1       0.017  -1.507  -2.940  1.00  0.00     0.257 C 
ATOM     17  C   UNL     1       0.116  -1.262  -4.445  1.00  0.00     0.071 C 
ENDBRANCH  13  16
ENDBRANCH   7  13
BRANCH  11  18
ATOM     18  N   UNL     1      -2.595  -5.588  -1.264  1.00  0.00    -0.334 N 
ATOM     19  C   UNL     1      -3.279  -6.473  -2.191  1.00  0.00     0.332 C 
ATOM     20  H   UNL     1      -3.059  -4.680  -1.264  1.00  0.00     0.348 HD
BRANCH  18  21
ATOM     21  C   UNL     1      -2.863  -5.852   0.153  1.00  0.00     0.265 C 
BRANCH  21  22
ATOM     22  C   UNL     1      -2.561  -7.184   0.884  1.00  0.00     0.044 C 
ATOM     23  C   UNL     1      -3.491  -8.373   0.622  1.00  0.00     0.009 C 
ATOM     24  C   UNL     1      -1.194  -7.811   0.681  1.00  0.00     0.009 C 
ATOM     25  C   UNL     1      -2.712  -9.610   1.104  1.00  0.00     0.001 C 
ATOM     26  C   UNL     1      -1.292  -9.141   1.402  1.00  0.00     0.001 C 
ENDBRANCH  21  22
ENDBRANCH  18  21
ENDBRANCH  11  18
ENDBRANCH   4   7
ENDBRANCH   2   3
ENDBRANCH   1   2
BRANCH   1  27
ATOM     27  C   UNL     1       3.787  -3.994   2.741  1.00  0.00     0.023 C 
BRANCH  27  28
ATOM     28  C   UNL     1       3.398  -3.769   4.193  1.00  0.00     0.116 C 
BRANCH  28  29
ATOM     29  N   UNL     1       3.135  -5.003   4.918  1.00  0.00    -0.352 N 
ATOM     30  C   UNL     1       3.518  -5.346   6.195  1.00  0.00     0.251 C 
ATOM     31  H   UNL     1       2.614  -5.683   4.432  1.00  0.00     0.163 HD
ATOM     32  O   UNL     1       3.309  -6.467   6.633  1.00  0.00    -0.269 OA
BRANCH  30  33
ATOM     33  C   UNL     1       4.229  -4.345   7.018  1.00  0.00     0.039 A 
ATOM     34  C   UNL     1       5.435  -4.702   7.625  1.00  0.00     0.014 A 
ATOM     35  C   UNL     1       3.735  -3.044   7.130  1.00  0.00     0.014 A 
ATOM     36  C   UNL     1       6.190  -3.727   8.280  1.00  0.00     0.010 A 
ATOM     37  C   UNL     1       4.522  -2.060   7.716  1.00  0.00     0.010 A 
ATOM     38  C   UNL     1       5.759  -2.391   8.291  1.00  0.00    -0.014 A 
BRANCH  38  39
ATOM     39  C   UNL     1       6.580  -1.313   8.896  1.00  0.00     0.031 A 
ATOM     40  C   UNL     1       6.053  -0.553  10.079  1.00  0.00     0.074 A 
ATOM     41  C   UNL     1       7.745  -0.956   8.322  1.00  0.00     0.049 A 
ATOM     42  N   UNL     1       6.544   0.507  10.669  1.00  0.00    -0.248 NA
ATOM     43  C   UNL     1       4.786  -1.030  10.656  1.00  0.00     0.031 C 
ATOM     44  C   UNL     1       8.338  -1.589   7.143  1.00  0.00     0.029 A 
ATOM     45  N   UNL     1       8.629   0.044   8.642  1.00  0.00    -0.354 N 
ATOM     46  C   UNL     1       5.637   0.835  11.667  1.00  0.00     0.074 A 
ATOM     47  C   UNL     1       4.542  -0.106  11.573  1.00  0.00     0.031 C 
ATOM     48  C   UNL     1       9.493  -0.970   6.846  1.00  0.00     0.029 A 
ATOM     49  C   UNL     1       9.701   0.127   7.786  1.00  0.00     0.049 A 
ATOM     50  H   UNL     1       8.507   0.646   9.412  1.00  0.00     0.167 HD
ATOM     51  C   UNL     1       5.720   1.821  12.590  1.00  0.00     0.037 A 
ATOM     52  C   UNL     1      10.726   1.000   7.756  1.00  0.00     0.037 A 
ATOM     53  C   UNL     1       6.828   2.733  12.700  1.00  0.00     0.049 A 
ATOM     54  C   UNL     1      10.795   2.088   8.793  1.00  0.00     0.074 A 
ATOM     55  C   UNL     1       7.040   3.722  13.643  1.00  0.00     0.029 A 
ATOM     56  N   UNL     1       7.911   2.764  11.834  1.00  0.00    -0.354 N 
ATOM     57  N   UNL     1       9.964   2.350   9.773  1.00  0.00    -0.248 NA
ATOM     58  C   UNL     1      11.945   3.001   8.723  1.00  0.00     0.031 C 
ATOM     59  C   UNL     1       8.232   4.380  13.325  1.00  0.00     0.029 A 
ATOM     60  C   UNL     1       8.786   3.770  12.211  1.00  0.00     0.049 A 
ATOM     61  H   UNL     1       8.039   2.161  11.067  1.00  0.00     0.167 HD
ATOM     62  C   UNL     1      10.504   3.433  10.452  1.00  0.00     0.074 A 
ATOM     63  C   UNL     1      11.738   3.777   9.777  1.00  0.00     0.031 C 
ATOM     64  C   UNL     1      10.019   4.085  11.537  1.00  0.00     0.037 A 
BRANCH  51  65
ATOM     65  C   UNL     1       4.583   1.963  13.559  1.00  0.00     0.064 A 
ATOM     66  C   UNL     1       4.354   1.014  14.567  1.00  0.00     0.173 A 
ATOM     67  C   UNL     1       3.733   3.077  13.501  1.00  0.00     0.173 A 
ATOM     68  F   UNL     1       5.130  -0.076  14.657  1.00  0.00    -0.203 F 
ATOM     69  C   UNL     1       3.297   1.160  15.461  1.00  0.00     0.198 A 
ATOM     70  C   UNL     1       2.696   3.236  14.416  1.00  0.00     0.198 A 
ATOM     71  F   UNL     1       3.912   4.017  12.560  1.00  0.00    -0.203 F 
ATOM     72  F   UNL     1       3.067   0.216  16.384  1.00  0.00    -0.200 F 
ATOM     73  C   UNL     1       2.474   2.274  15.390  1.00  0.00     0.200 A 
ATOM     74  F   UNL     1       1.909   4.319  14.354  1.00  0.00    -0.200 F 
ATOM     75  F   UNL     1       1.462   2.417  16.257  1.00  0.00    -0.200 F 
ENDBRANCH  51  65
BRANCH  52  76
ATOM     76  C   UNL     1      11.782   0.869   6.718  1.00  0.00     0.064 A 
ATOM     77  C   UNL     1      13.076   0.455   7.060  1.00  0.00     0.173 A 
ATOM     78  C   UNL     1      11.523   1.155   5.370  1.00  0.00     0.173 A 
ATOM     79  F   UNL     1      13.377   0.190   8.340  1.00  0.00    -0.203 F 
ATOM     80  C   UNL     1      14.077   0.348   6.096  1.00  0.00     0.198 A 
ATOM     81  C   UNL     1      12.517   1.023   4.402  1.00  0.00     0.198 A 
ATOM     82  F   UNL     1      10.299   1.552   4.990  1.00  0.00    -0.203 F 
ATOM     83  F   UNL     1      15.316  -0.009   6.457  1.00  0.00    -0.200 F 
ATOM     84  C   UNL     1      13.795   0.627   4.767  1.00  0.00     0.200 A 
ATOM     85  F   UNL     1      12.238   1.281   3.117  1.00  0.00    -0.200 F 
ATOM     86  F   UNL     1      14.757   0.521   3.840  1.00  0.00    -0.200 F 
ENDBRANCH  52  76
BRANCH  64  87
ATOM     87  C   UNL     1      10.842   5.208  12.094  1.00  0.00     0.064 A 
ATOM     88  C   UNL     1      10.922   6.451  11.450  1.00  0.00     0.173 A 
ATOM     89  C   UNL     1      11.505   5.058  13.322  1.00  0.00     0.173 A 
ATOM     90  F   UNL     1      10.318   6.638  10.267  1.00  0.00    -0.203 F 
ATOM     91  C   UNL     1      11.647   7.500  12.009  1.00  0.00     0.198 A 
ATOM     92  C   UNL     1      12.206   6.116  13.891  1.00  0.00     0.198 A 
ATOM     93  F   UNL     1      11.453   3.889  13.979  1.00  0.00    -0.203 F 
ATOM     94  F   UNL     1      11.738   8.669  11.361  1.00  0.00    -0.200 F 
ATOM     95  C   UNL     1      12.279   7.335  13.233  1.00  0.00     0.200 A 
ATOM     96  F   UNL     1      12.805   5.959  15.080  1.00  0.00    -0.200 F 
ATOM     97  F   UNL     1      12.964   8.350  13.777  1.00  0.00    -0.200 F 
ENDBRANCH  64  87
ENDBRANCH  38  39
ENDBRANCH  30  33
ENDBRANCH  28  29
ENDBRANCH  27  28
ENDBRANCH   1  27
TORSDOF 16
