REMARK SMILES CNC(=O)C[N@@H+]1CC[C@@H](C(=O)NCCCCNC(=O)c2ccc(-c3c4nc(c(-c5c(F)c(F)c(F)c(F)c5F)c5ccc([nH]5)c(-c5c(F)c(F)c(F)c(F)c5F)c5nc(c(-c6c(F)c(F)c(F)c(F)c6F)c6ccc3[nH]6)C=C5)C=C4)cc2)[C@H]1C
REMARK SMILES IDX 14 1 13 2 12 3 10 4 11 5 9 7 6 8 7 9 83 10 8 12 84 13 5 14
REMARK SMILES IDX 3 15 1 16 2 17 4 19 15 20 16 21 17 22 18 23 19 25 20 26
REMARK SMILES IDX 21 27 82 28 22 29 81 30 23 31 24 32 25 33 75 34 26 35 80 36
REMARK SMILES IDX 74 37 76 38 27 39 79 40 73 41 72 42 28 44 60 45 40 46 59 47
REMARK SMILES IDX 41 48 44 49 58 50 77 51 42 52 43 53 57 55 78 56 45 57 29 58
REMARK SMILES IDX 30 59 38 60 31 61 32 62 36 63 39 64 33 65 34 66 37 67 35 68
REMARK SMILES IDX 61 69 62 70 70 71 63 72 64 73 68 74 71 75 65 76 66 77 69 78
REMARK SMILES IDX 67 79 46 80 47 81 55 82 48 83 49 84 53 85 56 86 50 87 51 88
REMARK SMILES IDX 54 89 52 90
REMARK H PARENT 12 6 6 11 2 18 17 24 76 43 44 54
REMARK Flexibility Score: inf
ROOT
ATOM      1  C   UNL     1      -0.084  -2.692  -0.249  1.00  0.00     0.023 C 
ENDROOT
BRANCH   1   2
ATOM      2  C   UNL     1       1.286  -2.026  -0.393  1.00  0.00     0.116 C 
BRANCH   2   3
ATOM      3  N   UNL     1       1.991  -2.513  -1.558  1.00  0.00    -0.356 N 
ATOM      4  C   UNL     1       2.312  -1.901  -2.727  1.00  0.00     0.229 C 
ATOM      5  O   UNL     1       2.886  -2.601  -3.569  1.00  0.00    -0.275 OA
ATOM      6  H   UNL     1       2.290  -3.449  -1.492  1.00  0.00     0.163 HD
BRANCH   4   7
ATOM      7  C   UNL     1       2.054  -0.427  -3.030  1.00  0.00     0.142 C 
ATOM      8  N   UNL     1       0.621   1.043  -1.860  1.00  0.00    -0.324 N 
ATOM      9  C   UNL     1       1.921   1.716  -1.929  1.00  0.00     0.263 C 
ATOM     10  C   UNL     1       0.624   0.140  -3.032  1.00  0.00     0.194 C 
ATOM     11  H   UNL     1       0.504   0.535  -0.983  1.00  0.00     0.348 HD
ATOM     12  C   UNL     1       2.857   0.535  -2.146  1.00  0.00     0.081 C 
ATOM     13  C   UNL     1      -0.537  -0.840  -3.082  1.00  0.00     0.076 C 
BRANCH   8  14
ATOM     14  C   UNL     1      -0.529   1.962  -1.827  1.00  0.00     0.363 C 
BRANCH  14  15
ATOM     15  C   UNL     1      -0.476   2.976  -0.674  1.00  0.00     0.274 C 
ATOM     16  C   UNL     1       0.009   1.250   1.108  1.00  0.00     0.143 C 
ATOM     17  N   UNL     1      -0.270   2.574   0.614  1.00  0.00    -0.354 N 
ATOM     18  H   UNL     1      -0.320   3.282   1.296  1.00  0.00     0.163 HD
ATOM     19  O   UNL     1      -0.676   4.177  -0.880  1.00  0.00    -0.269 OA
ENDBRANCH  14  15
ENDBRANCH   8  14
ENDBRANCH   4   7
ENDBRANCH   2   3
ENDBRANCH   1   2
BRANCH   1  20
ATOM     20  C   UNL     1      -0.095  -4.001   0.532  1.00  0.00     0.023 C 
BRANCH  20  21
ATOM     21  C   UNL     1       0.315  -3.890   1.993  1.00  0.00     0.116 C 
BRANCH  21  22
ATOM     22  N   UNL     1      -0.508  -2.976   2.774  1.00  0.00    -0.352 N 
ATOM     23  C   UNL     1      -0.994  -3.124   4.054  1.00  0.00     0.251 C 
ATOM     24  H   UNL     1      -0.750  -2.135   2.324  1.00  0.00     0.163 HD
ATOM     25  O   UNL     1      -1.727  -2.272   4.539  1.00  0.00    -0.269 OA
BRANCH  23  26
ATOM     26  C   UNL     1      -0.670  -4.349   4.818  1.00  0.00     0.039 A 
ATOM     27  C   UNL     1      -1.704  -5.033   5.461  1.00  0.00     0.014 A 
ATOM     28  C   UNL     1       0.630  -4.858   4.842  1.00  0.00     0.014 A 
ATOM     29  C   UNL     1      -1.451  -6.276   6.044  1.00  0.00     0.010 A 
ATOM     30  C   UNL     1       0.860  -6.137   5.337  1.00  0.00     0.010 A 
ATOM     31  C   UNL     1      -0.178  -6.862   5.939  1.00  0.00    -0.014 A 
BRANCH  31  32
ATOM     32  C   UNL     1       0.073  -8.241   6.429  1.00  0.00     0.031 A 
ATOM     33  C   UNL     1       1.073  -8.491   7.524  1.00  0.00     0.074 A 
ATOM     34  C   UNL     1      -0.544  -9.280   5.833  1.00  0.00     0.049 A 
ATOM     35  N   UNL     1       1.444  -9.625   8.063  1.00  0.00    -0.248 NA
ATOM     36  C   UNL     1       1.778  -7.316   8.057  1.00  0.00     0.031 C 
ATOM     37  C   UNL     1      -1.464  -9.180   4.698  1.00  0.00     0.029 A 
ATOM     38  N   UNL     1      -0.486 -10.627   6.094  1.00  0.00    -0.354 N 
ATOM     39  C   UNL     1       2.436  -9.301   8.978  1.00  0.00     0.074 A 
ATOM     40  C   UNL     1       2.653  -7.874   8.879  1.00  0.00     0.031 C 
ATOM     41  C   UNL     1      -1.912 -10.407   4.385  1.00  0.00     0.029 A 
ATOM     42  C   UNL     1      -1.294 -11.381   5.279  1.00  0.00     0.049 A 
ATOM     43  H   UNL     1       0.081 -11.015   6.799  1.00  0.00     0.167 HD
ATOM     44  C   UNL     1       3.088 -10.114   9.843  1.00  0.00     0.037 A 
ATOM     45  C   UNL     1      -1.522 -12.708   5.263  1.00  0.00     0.037 A 
ATOM     46  C   UNL     1       2.840 -11.526   9.968  1.00  0.00     0.049 A 
ATOM     47  C   UNL     1      -0.840 -13.581   6.280  1.00  0.00     0.074 A 
ATOM     48  C   UNL     1       3.386 -12.423  10.870  1.00  0.00     0.029 A 
ATOM     49  N   UNL     1       1.966 -12.246   9.166  1.00  0.00    -0.354 N 
ATOM     50  N   UNL     1       0.026 -13.249   7.206  1.00  0.00    -0.248 NA
ATOM     51  C   UNL     1      -1.182 -15.009   6.261  1.00  0.00     0.031 C 
ATOM     52  C   UNL     1       2.867 -13.693  10.591  1.00  0.00     0.029 A 
ATOM     53  C   UNL     1       1.967 -13.579   9.544  1.00  0.00     0.049 A 
ATOM     54  H   UNL     1       1.426 -11.866   8.436  1.00  0.00     0.167 HD
ATOM     55  C   UNL     1       0.314 -14.418   7.896  1.00  0.00     0.074 A 
ATOM     56  C   UNL     1      -0.483 -15.466   7.291  1.00  0.00     0.031 C 
ATOM     57  C   UNL     1       1.162 -14.607   8.937  1.00  0.00     0.037 A 
BRANCH  44  58
ATOM     58  C   UNL     1       4.123  -9.488  10.731  1.00  0.00     0.064 A 
ATOM     59  C   UNL     1       3.768  -8.611  11.768  1.00  0.00     0.173 A 
ATOM     60  C   UNL     1       5.484  -9.777  10.554  1.00  0.00     0.173 A 
ATOM     61  F   UNL     1       2.481  -8.291  11.970  1.00  0.00    -0.203 F 
ATOM     62  C   UNL     1       4.739  -8.021  12.572  1.00  0.00     0.198 A 
ATOM     63  C   UNL     1       6.451  -9.208  11.380  1.00  0.00     0.198 A 
ATOM     64  F   UNL     1       5.878 -10.611   9.580  1.00  0.00    -0.203 F 
ATOM     65  F   UNL     1       4.380  -7.143  13.518  1.00  0.00    -0.200 F 
ATOM     66  C   UNL     1       6.079  -8.324  12.381  1.00  0.00     0.200 A 
ATOM     67  F   UNL     1       7.744  -9.510  11.201  1.00  0.00    -0.200 F 
ATOM     68  F   UNL     1       7.012  -7.755  13.156  1.00  0.00    -0.200 F 
ENDBRANCH  44  58
BRANCH  45  69
ATOM     69  C   UNL     1      -2.488 -13.279   4.290  1.00  0.00     0.064 A 
ATOM     70  C   UNL     1      -3.744 -13.735   4.713  1.00  0.00     0.173 A 
ATOM     71  C   UNL     1      -2.186 -13.367   2.925  1.00  0.00     0.173 A 
ATOM     72  F   UNL     1      -4.071 -13.687   6.013  1.00  0.00    -0.203 F 
ATOM     73  C   UNL     1      -4.657 -14.272   3.808  1.00  0.00     0.198 A 
ATOM     74  C   UNL     1      -3.108 -13.882   2.017  1.00  0.00     0.198 A 
ATOM     75  F   UNL     1      -1.000 -12.936   2.470  1.00  0.00    -0.203 F 
ATOM     76  F   UNL     1      -5.837 -14.733   4.244  1.00  0.00    -0.200 F 
ATOM     77  C   UNL     1      -4.341 -14.340   2.459  1.00  0.00     0.200 A 
ATOM     78  F   UNL     1      -2.805 -13.933   0.712  1.00  0.00    -0.200 F 
ATOM     79  F   UNL     1      -5.221 -14.850   1.588  1.00  0.00    -0.200 F 
ENDBRANCH  45  69
BRANCH  57  80
ATOM     80  C   UNL     1       1.246 -15.991   9.508  1.00  0.00     0.064 A 
ATOM     81  C   UNL     1       1.893 -17.030   8.824  1.00  0.00     0.173 A 
ATOM     82  C   UNL     1       0.701 -16.271  10.770  1.00  0.00     0.173 A 
ATOM     83  F   UNL     1       2.417 -16.815   7.608  1.00  0.00    -0.203 F 
ATOM     84  C   UNL     1       1.966 -18.308   9.371  1.00  0.00     0.198 A 
ATOM     85  C   UNL     1       0.800 -17.543  11.326  1.00  0.00     0.198 A 
ATOM     86  F   UNL     1       0.079 -15.308  11.467  1.00  0.00    -0.203 F 
ATOM     87  F   UNL     1       2.546 -19.299   8.679  1.00  0.00    -0.200 F 
ATOM     88  C   UNL     1       1.425 -18.562  10.623  1.00  0.00     0.200 A 
ATOM     89  F   UNL     1       0.287 -17.784  12.540  1.00  0.00    -0.200 F 
ATOM     90  F   UNL     1       1.500 -19.792  11.149  1.00  0.00    -0.200 F 
ENDBRANCH  57  80
ENDBRANCH  31  32
ENDBRANCH  23  26
ENDBRANCH  21  22
ENDBRANCH  20  21
ENDBRANCH   1  20
TORSDOF 13
