REMARK SMILES C#CCN(CC(=O)NCCCCNC(=O)c1ccc(-c2c3nc(c(-c4c(F)c(F)c(F)c(F)c4F)c4ccc([nH]4)c(-c4c(F)c(F)c(F)c(F)c4F)c4nc(c(-c5c(F)c(F)c(F)c(F)c5F)c5ccc2[nH]5)C=C4)C=C3)cc1)C(=O)Nc1cc(Br)ccc1C
REMARK SMILES IDX 10 1 9 2 8 3 6 4 7 5 5 7 4 8 3 9 2 10 1 11 79 12 80 13 81 14
REMARK SMILES IDX 82 16 83 17 88 18 84 19 87 20 89 21 85 22 86 23 11 24 12 25
REMARK SMILES IDX 13 26 14 27 15 29 16 30 17 31 78 32 18 33 77 34 19 35 20 36
REMARK SMILES IDX 21 37 71 38 22 39 76 40 70 41 72 42 23 43 75 44 69 45 68 46
REMARK SMILES IDX 24 48 56 49 36 50 55 51 37 52 40 53 54 54 73 55 38 56 39 57
REMARK SMILES IDX 53 59 74 60 41 61 25 62 26 63 34 64 27 65 28 66 32 67 35 68
REMARK SMILES IDX 29 69 30 70 33 71 31 72 57 73 58 74 66 75 59 76 60 77 64 78
REMARK SMILES IDX 67 79 61 80 62 81 65 82 63 83 42 84 43 85 51 86 44 87 45 88
REMARK SMILES IDX 49 89 52 90 46 91 47 92 50 93 48 94
REMARK H PARENT 8 6 81 15 13 28 72 47 40 58
REMARK Flexibility Score: inf
ROOT
ATOM      1  C   UNL     1      -4.816  -1.141   1.295  1.00  0.00     0.023 C 
ENDROOT
BRANCH   1   2
ATOM      2  C   UNL     1      -5.013  -0.773  -0.175  1.00  0.00     0.116 C 
BRANCH   2   3
ATOM      3  N   UNL     1      -5.428   0.592  -0.414  1.00  0.00    -0.355 N 
ATOM      4  C   UNL     1      -4.744   1.717  -0.764  1.00  0.00     0.239 C 
ATOM      5  O   UNL     1      -5.429   2.599  -1.301  1.00  0.00    -0.273 OA
ATOM      6  H   UNL     1      -6.396   0.737  -0.303  1.00  0.00     0.163 HD
BRANCH   4   7
ATOM      7  C   UNL     1      -3.209   1.883  -0.693  1.00  0.00     0.222 C 
BRANCH   7   8
ATOM      8  N   UNL     1      -2.468   1.225   0.386  1.00  0.00    -0.304 N 
BRANCH   8   9
ATOM      9  C   UNL     1      -1.891  -0.062   0.042  1.00  0.00     0.211 C 
BRANCH   9  10
ATOM     10  C   UNL     1      -0.371  -0.062   0.042  1.00  0.00    -0.085 C 
ATOM     11  C   UNL     1       0.933  -0.062   0.042  1.00  0.00     0.006 C 
ENDBRANCH   9  10
ENDBRANCH   8   9
BRANCH   8  12
ATOM     12  C   UNL     1      -2.149   1.716   1.638  1.00  0.00     0.323 C 
ATOM     13  O   UNL     1      -1.576   1.014   2.478  1.00  0.00    -0.248 OA
ATOM     14  N   UNL     1      -2.262   3.035   1.939  1.00  0.00    -0.307 N 
ATOM     15  H   UNL     1      -1.534   3.367   2.512  1.00  0.00     0.171 HD
BRANCH  14  16
ATOM     16  C   UNL     1      -3.195   4.021   1.605  1.00  0.00     0.046 A 
ATOM     17  C   UNL     1      -2.687   5.290   1.304  1.00  0.00     0.042 A 
ATOM     18  C   UNL     1      -4.582   3.813   1.636  1.00  0.00    -0.027 A 
ATOM     19  C   UNL     1      -3.545   6.300   0.877  1.00  0.00     0.020 A 
ATOM     20  C   UNL     1      -5.428   4.835   1.174  1.00  0.00     0.007 A 
ATOM     21  C   UNL     1      -5.200   2.626   2.319  1.00  0.00     0.046 C 
ATOM     22  Br  UNL     1      -2.847   7.999   0.429  1.00  0.00    -0.051 Br
ATOM     23  C   UNL     1      -4.910   6.065   0.770  1.00  0.00     0.016 A 
ENDBRANCH  14  16
ENDBRANCH   8  12
ENDBRANCH   7   8
ENDBRANCH   4   7
ENDBRANCH   2   3
ENDBRANCH   1   2
BRANCH   1  24
ATOM     24  C   UNL     1      -6.067  -1.128   2.170  1.00  0.00     0.023 C 
BRANCH  24  25
ATOM     25  C   UNL     1      -7.278  -1.852   1.607  1.00  0.00     0.116 C 
BRANCH  25  26
ATOM     26  N   UNL     1      -7.005  -3.217   1.191  1.00  0.00    -0.352 N 
ATOM     27  C   UNL     1      -7.822  -4.319   1.251  1.00  0.00     0.251 C 
ATOM     28  H   UNL     1      -6.109  -3.374   0.814  1.00  0.00     0.163 HD
ATOM     29  O   UNL     1      -7.402  -5.415   0.891  1.00  0.00    -0.269 OA
BRANCH  27  30
ATOM     30  C   UNL     1      -9.188  -4.195   1.801  1.00  0.00     0.039 A 
ATOM     31  C   UNL     1      -9.614  -5.144   2.734  1.00  0.00     0.014 A 
ATOM     32  C   UNL     1     -10.031  -3.145   1.430  1.00  0.00     0.014 A 
ATOM     33  C   UNL     1     -10.858  -5.000   3.348  1.00  0.00     0.010 A 
ATOM     34  C   UNL     1     -11.238  -2.959   2.098  1.00  0.00     0.010 A 
ATOM     35  C   UNL     1     -11.662  -3.884   3.064  1.00  0.00    -0.014 A 
BRANCH  35  36
ATOM     36  C   UNL     1     -12.949  -3.669   3.770  1.00  0.00     0.031 A 
ATOM     37  C   UNL     1     -14.242  -3.700   3.006  1.00  0.00     0.074 A 
ATOM     38  C   UNL     1     -12.945  -3.385   5.086  1.00  0.00     0.049 A 
ATOM     39  N   UNL     1     -15.460  -3.474   3.430  1.00  0.00    -0.248 NA
ATOM     40  C   UNL     1     -14.153  -3.997   1.567  1.00  0.00     0.031 C 
ATOM     41  C   UNL     1     -11.749  -3.278   5.925  1.00  0.00     0.029 A 
ATOM     42  N   UNL     1     -13.979  -3.125   5.949  1.00  0.00    -0.354 N 
ATOM     43  C   UNL     1     -16.275  -3.587   2.312  1.00  0.00     0.074 A 
ATOM     44  C   UNL     1     -15.411  -3.849   1.182  1.00  0.00     0.031 C 
ATOM     45  C   UNL     1     -12.119  -2.996   7.184  1.00  0.00     0.029 A 
ATOM     46  C   UNL     1     -13.572  -2.868   7.236  1.00  0.00     0.049 A 
ATOM     47  H   UNL     1     -14.924  -3.123   5.673  1.00  0.00     0.167 HD
ATOM     48  C   UNL     1     -17.625  -3.503   2.241  1.00  0.00     0.037 A 
ATOM     49  C   UNL     1     -14.291  -2.558   8.331  1.00  0.00     0.037 A 
ATOM     50  C   UNL     1     -18.482  -3.271   3.373  1.00  0.00     0.049 A 
ATOM     51  C   UNL     1     -15.790  -2.476   8.224  1.00  0.00     0.074 A 
ATOM     52  C   UNL     1     -19.864  -3.231   3.416  1.00  0.00     0.029 A 
ATOM     53  N   UNL     1     -18.034  -3.038   4.666  1.00  0.00    -0.354 N 
ATOM     54  N   UNL     1     -16.556  -2.654   7.175  1.00  0.00    -0.248 NA
ATOM     55  C   UNL     1     -16.525  -2.156   9.456  1.00  0.00     0.031 C 
ATOM     56  C   UNL     1     -20.252  -2.931   4.726  1.00  0.00     0.029 A 
ATOM     57  C   UNL     1     -19.114  -2.834   5.510  1.00  0.00     0.049 A 
ATOM     58  H   UNL     1     -17.090  -3.021   4.942  1.00  0.00     0.167 HD
ATOM     59  C   UNL     1     -17.860  -2.497   7.624  1.00  0.00     0.074 A 
ATOM     60  C   UNL     1     -17.783  -2.224   9.044  1.00  0.00     0.031 C 
ATOM     61  C   UNL     1     -19.018  -2.572   6.923  1.00  0.00     0.037 A 
BRANCH  48  62
ATOM     62  C   UNL     1     -18.260  -3.671   0.891  1.00  0.00     0.064 A 
ATOM     63  C   UNL     1     -18.283  -4.914   0.239  1.00  0.00     0.173 A 
ATOM     64  C   UNL     1     -18.886  -2.587   0.258  1.00  0.00     0.173 A 
ATOM     65  F   UNL     1     -17.688  -5.979   0.796  1.00  0.00    -0.203 F 
ATOM     66  C   UNL     1     -18.885  -5.058  -1.008  1.00  0.00     0.198 A 
ATOM     67  C   UNL     1     -19.513  -2.742  -0.975  1.00  0.00     0.198 A 
ATOM     68  F   UNL     1     -18.896  -1.378   0.840  1.00  0.00    -0.203 F 
ATOM     69  F   UNL     1     -18.852  -6.243  -1.633  1.00  0.00    -0.200 F 
ATOM     70  C   UNL     1     -19.505  -3.974  -1.611  1.00  0.00     0.200 A 
ATOM     71  F   UNL     1     -20.123  -1.696  -1.551  1.00  0.00    -0.200 F 
ATOM     72  F   UNL     1     -20.090  -4.116  -2.808  1.00  0.00    -0.200 F 
ENDBRANCH  48  62
BRANCH  49  73
ATOM     73  C   UNL     1     -13.607  -2.329   9.630  1.00  0.00     0.064 A 
ATOM     74  C   UNL     1     -13.742  -3.242  10.685  1.00  0.00     0.173 A 
ATOM     75  C   UNL     1     -12.812  -1.194   9.847  1.00  0.00     0.173 A 
ATOM     76  F   UNL     1     -14.508  -4.332  10.532  1.00  0.00    -0.203 F 
ATOM     77  C   UNL     1     -13.127  -3.018  11.915  1.00  0.00     0.198 A 
ATOM     78  C   UNL     1     -12.175  -0.985  11.068  1.00  0.00     0.198 A 
ATOM     79  F   UNL     1     -12.647  -0.292   8.868  1.00  0.00    -0.203 F 
ATOM     80  F   UNL     1     -13.312  -3.883  12.921  1.00  0.00    -0.200 F 
ATOM     81  C   UNL     1     -12.339  -1.892  12.104  1.00  0.00     0.200 A 
ATOM     82  F   UNL     1     -11.404   0.098  11.242  1.00  0.00    -0.200 F 
ATOM     83  F   UNL     1     -11.746  -1.677  13.286  1.00  0.00    -0.200 F 
ENDBRANCH  49  73
BRANCH  61  84
ATOM     84  C   UNL     1     -20.297  -2.391   7.687  1.00  0.00     0.064 A 
ATOM     85  C   UNL     1     -20.692  -1.136   8.173  1.00  0.00     0.173 A 
ATOM     86  C   UNL     1     -21.155  -3.480   7.900  1.00  0.00     0.173 A 
ATOM     87  F   UNL     1     -19.898  -0.067   8.008  1.00  0.00    -0.203 F 
ATOM     88  C   UNL     1     -21.890  -0.983   8.866  1.00  0.00     0.198 A 
ATOM     89  C   UNL     1     -22.366  -3.317   8.568  1.00  0.00     0.198 A 
ATOM     90  F   UNL     1     -20.826  -4.699   7.449  1.00  0.00    -0.203 F 
ATOM     91  F   UNL     1     -22.226   0.216   9.363  1.00  0.00    -0.200 F 
ATOM     92  C   UNL     1     -22.728  -2.071   9.056  1.00  0.00     0.200 A 
ATOM     93  F   UNL     1     -23.181  -4.367   8.738  1.00  0.00    -0.200 F 
ATOM     94  F   UNL     1     -23.884  -1.920   9.717  1.00  0.00    -0.200 F 
ENDBRANCH  61  84
ENDBRANCH  35  36
ENDBRANCH  27  30
ENDBRANCH  25  26
ENDBRANCH  24  25
ENDBRANCH   1  24
TORSDOF 16
