REMARK SMILES Cc1nc2cc(S(=O)(=O)N3CCC(C(=O)NCCCCNC(=O)c4ccc(-c5c6nc(c(-c7c(F)c(F)c(F)c(F)c7F)c7ccc([nH]7)c(-c7c(F)c(F)c(F)c(F)c7F)c7nc(c(-c8c(F)c(F)c(F)c(F)c8F)c8ccc5[nH]8)C=C7)C=C6)cc4)CC3)ccc2n1C1CCCC1
REMARK SMILES IDX 18 1 17 2 16 3 14 4 15 5 13 7 10 8 11 9 88 10 12 11 87 12
REMARK SMILES IDX 7 13 8 14 9 15 6 16 1 17 2 18 3 19 92 20 4 21 91 22 5 23
REMARK SMILES IDX 90 24 89 25 93 26 94 27 97 28 95 29 96 30 19 31 20 32 21 33
REMARK SMILES IDX 22 34 23 36 24 37 25 38 86 39 26 40 85 41 27 42 28 43 29 44
REMARK SMILES IDX 79 45 30 46 84 47 78 48 80 49 31 50 83 51 77 52 76 53 32 55
REMARK SMILES IDX 64 56 44 57 63 58 45 59 48 60 62 61 81 62 46 63 47 64 61 66
REMARK SMILES IDX 82 67 49 68 33 69 34 70 42 71 35 72 36 73 40 74 43 75 37 76
REMARK SMILES IDX 38 77 41 78 39 79 65 80 66 81 74 82 67 83 68 84 72 85 75 86
REMARK SMILES IDX 69 87 70 88 73 89 71 90 50 91 51 92 59 93 52 94 53 95 57 96
REMARK SMILES IDX 60 97 54 98 55 99 58 100 56 101
REMARK H PARENT 16 6 21 35 80 54 48 65
REMARK Flexibility Score: inf
ROOT
ATOM      1  C   UNL     1      -3.365 -10.598  -7.537  1.00  0.00     0.023 C 
ENDROOT
BRANCH   1   2
ATOM      2  C   UNL     1      -2.321  -9.574  -7.963  1.00  0.00     0.116 C 
BRANCH   2   3
ATOM      3  N   UNL     1      -2.910  -8.449  -8.676  1.00  0.00    -0.356 N 
ATOM      4  C   UNL     1      -2.923  -7.119  -8.378  1.00  0.00     0.223 C 
ATOM      5  O   UNL     1      -3.476  -6.348  -9.166  1.00  0.00    -0.275 OA
ATOM      6  H   UNL     1      -3.375  -8.688  -9.510  1.00  0.00     0.163 HD
BRANCH   4   7
ATOM      7  C   UNL     1      -2.265  -6.588  -7.113  1.00  0.00     0.081 C 
ATOM      8  N   UNL     1      -0.761  -7.031  -4.667  1.00  0.00    -0.198 NA
ATOM      9  C   UNL     1      -2.235  -6.903  -4.575  1.00  0.00     0.103 C 
ATOM     10  C   UNL     1      -0.041  -6.542  -5.867  1.00  0.00     0.103 C 
ATOM     11  C   UNL     1      -2.963  -7.142  -5.877  1.00  0.00     0.030 C 
ATOM     12  C   UNL     1      -0.759  -6.808  -7.170  1.00  0.00     0.030 C 
BRANCH   8  13
ATOM     13  S   UNL     1       0.066  -6.707  -3.183  1.00  0.00     0.243 S 
ATOM     14  O   UNL     1       1.461  -6.997  -3.392  1.00  0.00    -0.207 OA
ATOM     15  O   UNL     1      -0.699  -7.337  -2.119  1.00  0.00    -0.207 OA
BRANCH  13  16
ATOM     16  C   UNL     1      -0.063  -4.945  -2.923  1.00  0.00     0.085 A 
ATOM     17  C   UNL     1       1.081   0.128   0.025  1.00  0.00     0.088 C 
ATOM     18  C   UNL     1       0.677  -1.016  -0.832  1.00  0.00     0.106 A 
ATOM     19  N   UNL     1       1.019  -2.266  -0.575  1.00  0.00    -0.233 NA
ATOM     20  N   UNL     1      -0.082  -0.942  -1.984  1.00  0.00    -0.325 N 
ATOM     21  C   UNL     1       0.489  -3.027  -1.578  1.00  0.00     0.090 A 
ATOM     22  C   UNL     1      -0.207  -2.227  -2.475  1.00  0.00     0.068 A 
ATOM     23  C   UNL     1       0.567  -4.413  -1.788  1.00  0.00     0.052 A 
ATOM     24  C   UNL     1      -0.849  -2.745  -3.597  1.00  0.00     0.030 A 
ATOM     25  C   UNL     1      -0.752  -4.112  -3.807  1.00  0.00     0.024 A 
BRANCH  20  26
ATOM     26  C   UNL     1      -0.656   0.240  -2.602  1.00  0.00     0.089 C 
ATOM     27  C   UNL     1      -0.178   0.505  -4.034  1.00  0.00     0.025 C 
ATOM     28  C   UNL     1      -2.187   0.218  -2.702  1.00  0.00     0.025 C 
ATOM     29  C   UNL     1      -1.240   1.419  -4.626  1.00  0.00     0.002 C 
ATOM     30  C   UNL     1      -2.540   1.107  -3.891  1.00  0.00     0.002 C 
ENDBRANCH  20  26
ENDBRANCH  13  16
ENDBRANCH   8  13
ENDBRANCH   4   7
ENDBRANCH   2   3
ENDBRANCH   1   2
BRANCH   1  31
ATOM     31  C   UNL     1      -3.988 -11.388  -8.688  1.00  0.00     0.023 C 
BRANCH  31  32
ATOM     32  C   UNL     1      -2.984 -12.104  -9.596  1.00  0.00     0.116 C 
BRANCH  32  33
ATOM     33  N   UNL     1      -2.041 -12.946  -8.886  1.00  0.00    -0.352 N 
ATOM     34  C   UNL     1      -2.007 -14.264  -8.520  1.00  0.00     0.251 C 
ATOM     35  H   UNL     1      -1.237 -12.455  -8.600  1.00  0.00     0.163 HD
ATOM     36  O   UNL     1      -0.930 -14.675  -8.081  1.00  0.00    -0.269 OA
BRANCH  34  37
ATOM     37  C   UNL     1      -3.161 -15.205  -8.563  1.00  0.00     0.039 A 
ATOM     38  C   UNL     1      -4.452 -14.874  -8.959  1.00  0.00     0.014 A 
ATOM     39  C   UNL     1      -2.921 -16.516  -8.097  1.00  0.00     0.014 A 
ATOM     40  C   UNL     1      -5.484 -15.797  -8.824  1.00  0.00     0.010 A 
ATOM     41  C   UNL     1      -3.948 -17.453  -7.978  1.00  0.00     0.010 A 
ATOM     42  C   UNL     1      -5.241 -17.082  -8.316  1.00  0.00    -0.014 A 
BRANCH  42  43
ATOM     43  C   UNL     1      -6.368 -18.015  -8.329  1.00  0.00     0.031 A 
ATOM     44  C   UNL     1      -6.953 -18.201  -9.680  1.00  0.00     0.074 A 
ATOM     45  C   UNL     1      -6.872 -18.694  -7.277  1.00  0.00     0.049 A 
ATOM     46  N   UNL     1      -8.081 -17.734 -10.103  1.00  0.00    -0.248 NA
ATOM     47  C   UNL     1      -6.146 -18.851 -10.722  1.00  0.00     0.031 C 
ATOM     48  C   UNL     1      -6.264 -18.884  -5.961  1.00  0.00     0.029 A 
ATOM     49  N   UNL     1      -8.031 -19.427  -7.192  1.00  0.00    -0.354 N 
ATOM     50  C   UNL     1      -8.231 -18.215 -11.399  1.00  0.00     0.074 A 
ATOM     51  C   UNL     1      -6.954 -18.755 -11.782  1.00  0.00     0.031 C 
ATOM     52  C   UNL     1      -6.937 -19.850  -5.293  1.00  0.00     0.029 A 
ATOM     53  C   UNL     1      -8.116 -20.225  -6.058  1.00  0.00     0.049 A 
ATOM     54  H   UNL     1      -8.739 -19.389  -7.875  1.00  0.00     0.167 HD
ATOM     55  C   UNL     1      -9.480 -18.385 -11.911  1.00  0.00     0.037 A 
ATOM     56  C   UNL     1      -9.075 -21.140  -5.771  1.00  0.00     0.037 A 
ATOM     57  C   UNL     1     -10.459 -17.679 -11.126  1.00  0.00     0.049 A 
ATOM     58  C   UNL     1     -10.308 -20.766  -6.501  1.00  0.00     0.074 A 
ATOM     59  C   UNL     1     -10.953 -16.400 -11.009  1.00  0.00     0.029 A 
ATOM     60  N   UNL     1     -10.850 -18.367 -10.014  1.00  0.00    -0.354 N 
ATOM     61  N   UNL     1     -11.022 -19.710  -6.228  1.00  0.00    -0.248 NA
ATOM     62  C   UNL     1     -10.637 -21.445  -7.752  1.00  0.00     0.031 C 
ATOM     63  C   UNL     1     -11.611 -16.333  -9.742  1.00  0.00     0.029 A 
ATOM     64  C   UNL     1     -11.520 -17.577  -9.127  1.00  0.00     0.049 A 
ATOM     65  H   UNL     1     -10.669 -19.324  -9.870  1.00  0.00     0.167 HD
ATOM     66  C   UNL     1     -11.577 -19.362  -7.439  1.00  0.00     0.074 A 
ATOM     67  C   UNL     1     -11.465 -20.543  -8.282  1.00  0.00     0.031 C 
ATOM     68  C   UNL     1     -11.731 -18.055  -7.783  1.00  0.00     0.037 A 
BRANCH  55  69
ATOM     69  C   UNL     1      -9.917 -19.584 -12.734  1.00  0.00     0.064 A 
ATOM     70  C   UNL     1     -11.249 -19.630 -13.204  1.00  0.00     0.173 A 
ATOM     71  C   UNL     1      -9.225 -20.813 -12.765  1.00  0.00     0.173 A 
ATOM     72  F   UNL     1     -12.012 -18.526 -13.206  1.00  0.00    -0.203 F 
ATOM     73  C   UNL     1     -11.861 -20.827 -13.587  1.00  0.00     0.198 A 
ATOM     74  C   UNL     1      -9.825 -21.997 -13.195  1.00  0.00     0.198 A 
ATOM     75  F   UNL     1      -7.989 -20.949 -12.274  1.00  0.00    -0.203 F 
ATOM     76  F   UNL     1     -13.164 -20.840 -13.901  1.00  0.00    -0.200 F 
ATOM     77  C   UNL     1     -11.149 -22.011 -13.575  1.00  0.00     0.200 A 
ATOM     78  F   UNL     1      -9.126 -23.140 -13.151  1.00  0.00    -0.200 F 
ATOM     79  F   UNL     1     -11.748 -23.170 -13.881  1.00  0.00    -0.200 F 
ENDBRANCH  55  69
BRANCH  56  80
ATOM     80  C   UNL     1      -8.964 -22.448  -5.077  1.00  0.00     0.064 A 
ATOM     81  C   UNL     1     -10.115 -23.137  -4.648  1.00  0.00     0.173 A 
ATOM     82  C   UNL     1      -7.770 -23.190  -5.113  1.00  0.00     0.173 A 
ATOM     83  F   UNL     1     -11.302 -22.515  -4.609  1.00  0.00    -0.203 F 
ATOM     84  C   UNL     1     -10.083 -24.500  -4.338  1.00  0.00     0.198 A 
ATOM     85  C   UNL     1      -7.739 -24.550  -4.796  1.00  0.00     0.198 A 
ATOM     86  F   UNL     1      -6.633 -22.638  -5.559  1.00  0.00    -0.203 F 
ATOM     87  F   UNL     1     -11.218 -25.140  -4.020  1.00  0.00    -0.200 F 
ATOM     88  C   UNL     1      -8.899 -25.210  -4.430  1.00  0.00     0.200 A 
ATOM     89  F   UNL     1      -6.593 -25.234  -4.919  1.00  0.00    -0.200 F 
ATOM     90  F   UNL     1      -8.883 -26.532  -4.213  1.00  0.00    -0.200 F 
ENDBRANCH  56  80
BRANCH  68  91
ATOM     91  C   UNL     1     -11.944 -17.054  -6.702  1.00  0.00     0.064 A 
ATOM     92  C   UNL     1     -10.969 -16.657  -5.777  1.00  0.00     0.173 A 
ATOM     93  C   UNL     1     -13.174 -16.381  -6.693  1.00  0.00     0.173 A 
ATOM     94  F   UNL     1      -9.753 -17.222  -5.770  1.00  0.00    -0.203 F 
ATOM     95  C   UNL     1     -11.225 -15.623  -4.877  1.00  0.00     0.198 A 
ATOM     96  C   UNL     1     -13.414 -15.330  -5.818  1.00  0.00     0.198 A 
ATOM     97  F   UNL     1     -14.128 -16.714  -7.578  1.00  0.00    -0.203 F 
ATOM     98  F   UNL     1     -10.283 -15.246  -4.000  1.00  0.00    -0.200 F 
ATOM     99  C   UNL     1     -12.440 -14.952  -4.909  1.00  0.00     0.200 A 
ATOM    100  F   UNL     1     -14.574 -14.663  -5.881  1.00  0.00    -0.200 F 
ATOM    101  F   UNL     1     -12.664 -13.922  -4.081  1.00  0.00    -0.200 F 
ENDBRANCH  68  91
ENDBRANCH  42  43
ENDBRANCH  34  37
ENDBRANCH  32  33
ENDBRANCH  31  32
ENDBRANCH   1  31
TORSDOF 14
