REMARK SMILES CS(=O)(=O)c1ccc(C2=NN(c3ccc(C(=O)NCCCCNC(=O)c4ccc(-c5c6nc(c(-c7c(F)c(F)c(F)c(F)c7F)c7ccc([nH]7)c(-c7c(F)c(F)c(F)c(F)c7F)c7nc(c(-c8c(F)c(F)c(F)c(F)c8F)c8ccc5[nH]8)C=C7)C=C6)cc4)cc3)[C@H](c3ccccc3)C2)cc1
REMARK SMILES IDX 20 1 19 2 18 3 16 4 17 5 15 7 12 8 13 9 90 10 14 11 89 12
REMARK SMILES IDX 11 13 9 14 10 15 98 16 91 17 8 18 5 19 6 20 100 21 7 22
REMARK SMILES IDX 99 23 2 24 1 25 3 26 4 27 92 28 93 29 97 30 94 31 96 32
REMARK SMILES IDX 95 33 21 34 22 35 23 36 24 37 25 39 26 40 27 41 88 42 28 43
REMARK SMILES IDX 87 44 29 45 30 46 31 47 81 48 32 49 86 50 80 51 82 52 33 53
REMARK SMILES IDX 85 54 79 55 78 56 34 58 66 59 46 60 65 61 47 62 50 63 64 64
REMARK SMILES IDX 83 65 48 66 49 67 63 69 84 70 51 71 35 72 36 73 44 74 37 75
REMARK SMILES IDX 38 76 42 77 45 78 39 79 40 80 43 81 41 82 67 83 68 84 76 85
REMARK SMILES IDX 69 86 70 87 74 88 77 89 71 90 72 91 75 92 73 93 52 94 53 95
REMARK SMILES IDX 61 96 54 97 55 98 59 99 62 100 56 101 57 102 60 103 58 104
REMARK H PARENT 18 6 23 38 82 57 50 68
REMARK Flexibility Score: inf
ROOT
ATOM      1  C   UNL     1       7.801   9.238  -9.586  1.00  0.00     0.023 C 
ENDROOT
BRANCH   1   2
ATOM      2  C   UNL     1       6.631  10.168  -9.255  1.00  0.00     0.116 C 
BRANCH   2   3
ATOM      3  N   UNL     1       5.522   9.940 -10.161  1.00  0.00    -0.352 N 
ATOM      4  C   UNL     1       4.353   9.237  -9.992  1.00  0.00     0.251 C 
ATOM      5  O   UNL     1       3.529   9.244 -10.905  1.00  0.00    -0.269 OA
ATOM      6  H   UNL     1       5.623  10.359 -11.046  1.00  0.00     0.163 HD
BRANCH   4   7
ATOM      7  C   UNL     1       4.031   8.547  -8.716  1.00  0.00     0.039 A 
ATOM      8  C   UNL     1       3.340   7.489  -6.203  1.00  0.00     0.060 A 
ATOM      9  C   UNL     1       2.358   8.036  -7.034  1.00  0.00     0.029 A 
ATOM     10  C   UNL     1       4.644   7.383  -6.687  1.00  0.00     0.029 A 
ATOM     11  C   UNL     1       2.699   8.560  -8.286  1.00  0.00     0.016 A 
ATOM     12  C   UNL     1       4.984   7.890  -7.938  1.00  0.00     0.016 A 
BRANCH   8  13
ATOM     13  N   UNL     1       3.051   7.047  -4.930  1.00  0.00    -0.257 N 
ATOM     14  C   UNL     1       2.285   5.658  -3.534  1.00  0.00     0.071 C 
ATOM     15  N   UNL     1       2.747   5.748  -4.740  1.00  0.00    -0.176 NA
ATOM     16  C   UNL     1       2.191   6.955  -2.773  1.00  0.00     0.091 C 
ATOM     17  C   UNL     1       2.954   7.889  -3.735  1.00  0.00     0.144 C 
BRANCH  14  18
ATOM     18  C   UNL     1       1.852   4.368  -2.977  1.00  0.00    -0.002 A 
ATOM     19  C   UNL     1       1.010   1.861  -2.131  1.00  0.00     0.067 A 
ATOM     20  C   UNL     1       2.163   1.967  -2.910  1.00  0.00     0.021 A 
ATOM     21  C   UNL     1       0.269   2.997  -1.781  1.00  0.00     0.021 A 
ATOM     22  C   UNL     1       2.579   3.225  -3.338  1.00  0.00     0.011 A 
ATOM     23  C   UNL     1       0.700   4.261  -2.195  1.00  0.00     0.011 A 
BRANCH  19  24
ATOM     24  S   UNL     1       0.432   0.251  -1.646  1.00  0.00     0.175 S 
ATOM     25  C   UNL     1       1.077   0.070  -0.005  1.00  0.00     0.163 C 
ATOM     26  O   UNL     1       1.080  -0.727  -2.494  1.00  0.00    -0.224 OA
ATOM     27  O   UNL     1      -1.017   0.322  -1.559  1.00  0.00    -0.224 OA
ENDBRANCH  19  24
ENDBRANCH  14  18
BRANCH  17  28
ATOM     28  C   UNL     1       4.331   8.397  -3.304  1.00  0.00    -0.023 A 
ATOM     29  C   UNL     1       5.069   7.873  -2.231  1.00  0.00     0.006 A 
ATOM     30  C   UNL     1       4.921   9.445  -4.043  1.00  0.00     0.006 A 
ATOM     31  C   UNL     1       6.335   8.382  -1.909  1.00  0.00     0.000 A 
ATOM     32  C   UNL     1       6.196   9.930  -3.742  1.00  0.00     0.000 A 
ATOM     33  C   UNL     1       6.901   9.402  -2.668  1.00  0.00     0.000 A 
ENDBRANCH  17  28
ENDBRANCH   8  13
ENDBRANCH   4   7
ENDBRANCH   2   3
ENDBRANCH   1   2
BRANCH   1  34
ATOM     34  C   UNL     1       8.597   9.657 -10.820  1.00  0.00     0.023 C 
BRANCH  34  35
ATOM     35  C   UNL     1       9.292  11.004 -10.694  1.00  0.00     0.116 C 
BRANCH  35  36
ATOM     36  N   UNL     1      10.255  11.056  -9.602  1.00  0.00    -0.352 N 
ATOM     37  C   UNL     1      11.472  11.695  -9.583  1.00  0.00     0.251 C 
ATOM     38  H   UNL     1      10.004  10.577  -8.780  1.00  0.00     0.163 HD
ATOM     39  O   UNL     1      12.240  11.574  -8.636  1.00  0.00    -0.269 OA
BRANCH  37  40
ATOM     40  C   UNL     1      11.853  12.501 -10.759  1.00  0.00     0.039 A 
ATOM     41  C   UNL     1      13.045  12.211 -11.423  1.00  0.00     0.014 A 
ATOM     42  C   UNL     1      10.968  13.459 -11.258  1.00  0.00     0.014 A 
ATOM     43  C   UNL     1      13.314  12.830 -12.645  1.00  0.00     0.010 A 
ATOM     44  C   UNL     1      11.198  14.011 -12.511  1.00  0.00     0.010 A 
ATOM     45  C   UNL     1      12.369  13.696 -13.220  1.00  0.00    -0.014 A 
BRANCH  45  46
ATOM     46  C   UNL     1      12.567  14.284 -14.568  1.00  0.00     0.031 A 
ATOM     47  C   UNL     1      12.651  15.775 -14.722  1.00  0.00     0.074 A 
ATOM     48  C   UNL     1      12.569  13.489 -15.656  1.00  0.00     0.049 A 
ATOM     49  N   UNL     1      12.674  16.498 -15.813  1.00  0.00    -0.248 NA
ATOM     50  C   UNL     1      12.680  16.562 -13.478  1.00  0.00     0.031 C 
ATOM     51  C   UNL     1      12.455  12.030 -15.639  1.00  0.00     0.029 A 
ATOM     52  N   UNL     1      12.647  13.800 -16.991  1.00  0.00    -0.354 N 
ATOM     53  C   UNL     1      12.705  17.819 -15.387  1.00  0.00     0.074 A 
ATOM     54  C   UNL     1      12.635  17.801 -13.942  1.00  0.00     0.031 C 
ATOM     55  C   UNL     1      12.480  11.572 -16.901  1.00  0.00     0.029 A 
ATOM     56  C   UNL     1      12.560  12.706 -17.817  1.00  0.00     0.049 A 
ATOM     57  H   UNL     1      12.755  14.720 -17.325  1.00  0.00     0.167 HD
ATOM     58  C   UNL     1      12.808  18.944 -16.134  1.00  0.00     0.037 A 
ATOM     59  C   UNL     1      12.524  12.628 -19.162  1.00  0.00     0.037 A 
ATOM     60  C   UNL     1      12.887  18.953 -17.570  1.00  0.00     0.049 A 
ATOM     61  C   UNL     1      12.605  13.895 -19.972  1.00  0.00     0.074 A 
ATOM     62  C   UNL     1      13.034  20.035 -18.419  1.00  0.00     0.029 A 
ATOM     63  N   UNL     1      12.820  17.821 -18.372  1.00  0.00    -0.354 N 
ATOM     64  N   UNL     1      12.691  15.137 -19.560  1.00  0.00    -0.248 NA
ATOM     65  C   UNL     1      12.588  13.750 -21.434  1.00  0.00     0.031 C 
ATOM     66  C   UNL     1      12.998  19.565 -19.736  1.00  0.00     0.029 A 
ATOM     67  C   UNL     1      12.899  18.183 -19.707  1.00  0.00     0.049 A 
ATOM     68  H   UNL     1      12.730  16.899 -18.041  1.00  0.00     0.167 HD
ATOM     69  C   UNL     1      12.775  15.916 -20.707  1.00  0.00     0.074 A 
ATOM     70  C   UNL     1      12.738  15.006 -21.832  1.00  0.00     0.031 C 
ATOM     71  C   UNL     1      12.878  17.263 -20.817  1.00  0.00     0.037 A 
BRANCH  58  72
ATOM     72  C   UNL     1      12.838  20.257 -15.405  1.00  0.00     0.064 A 
ATOM     73  C   UNL     1      13.919  20.623 -14.588  1.00  0.00     0.173 A 
ATOM     74  C   UNL     1      11.783  21.172 -15.541  1.00  0.00     0.173 A 
ATOM     75  F   UNL     1      14.949  19.780 -14.414  1.00  0.00    -0.203 F 
ATOM     76  C   UNL     1      13.926  21.836 -13.906  1.00  0.00     0.198 A 
ATOM     77  C   UNL     1      11.810  22.401 -14.887  1.00  0.00     0.198 A 
ATOM     78  F   UNL     1      10.726  20.878 -16.313  1.00  0.00    -0.203 F 
ATOM     79  F   UNL     1      14.941  22.135 -13.083  1.00  0.00    -0.200 F 
ATOM     80  C   UNL     1      12.875  22.727 -14.062  1.00  0.00     0.200 A 
ATOM     81  F   UNL     1      10.801  23.267 -15.051  1.00  0.00    -0.200 F 
ATOM     82  F   UNL     1      12.885  23.898 -13.409  1.00  0.00    -0.200 F 
ENDBRANCH  58  72
BRANCH  59  83
ATOM     83  C   UNL     1      12.412  11.303 -19.827  1.00  0.00     0.064 A 
ATOM     84  C   UNL     1      13.475  10.780 -20.577  1.00  0.00     0.173 A 
ATOM     85  C   UNL     1      11.242  10.535 -19.735  1.00  0.00     0.173 A 
ATOM     86  F   UNL     1      14.608  11.484 -20.713  1.00  0.00    -0.203 F 
ATOM     87  C   UNL     1      13.363   9.552 -21.227  1.00  0.00     0.198 A 
ATOM     88  C   UNL     1      11.143   9.293 -20.359  1.00  0.00     0.198 A 
ATOM     89  F   UNL     1      10.197  10.986 -19.025  1.00  0.00    -0.203 F 
ATOM     90  F   UNL     1      14.377   9.101 -21.979  1.00  0.00    -0.200 F 
ATOM     91  C   UNL     1      12.200   8.807 -21.113  1.00  0.00     0.200 A 
ATOM     92  F   UNL     1      10.023   8.569 -20.231  1.00  0.00    -0.200 F 
ATOM     93  F   UNL     1      12.095   7.625 -21.735  1.00  0.00    -0.200 F 
ENDBRANCH  59  83
BRANCH  71  94
ATOM     94  C   UNL     1      13.015  17.840 -22.197  1.00  0.00     0.064 A 
ATOM     95  C   UNL     1      11.945  17.860 -23.103  1.00  0.00     0.173 A 
ATOM     96  C   UNL     1      14.222  18.438 -22.593  1.00  0.00     0.173 A 
ATOM     97  F   UNL     1      10.775  17.289 -22.779  1.00  0.00    -0.203 F 
ATOM     98  C   UNL     1      12.085  18.438 -24.363  1.00  0.00     0.198 A 
ATOM     99  C   UNL     1      14.348  19.045 -23.839  1.00  0.00     0.198 A 
ATOM    100  F   UNL     1      15.275  18.453 -21.762  1.00  0.00    -0.203 F 
ATOM    101  F   UNL     1      11.063  18.406 -25.229  1.00  0.00    -0.200 F 
ATOM    102  C   UNL     1      13.282  19.038 -24.725  1.00  0.00     0.200 A 
ATOM    103  F   UNL     1      15.499  19.640 -24.180  1.00  0.00    -0.200 F 
ATOM    104  F   UNL     1      13.409  19.608 -25.931  1.00  0.00    -0.200 F 
ENDBRANCH  71  94
ENDBRANCH  45  46
ENDBRANCH  37  40
ENDBRANCH  35  36
ENDBRANCH  34  35
ENDBRANCH   1  34
TORSDOF 15
