REMARK SMILES O=C(CC[C@@H]1CN(c2ccncc2)CC[C@@H]1[NH+]1CCOCC1)NCCCCNC(=O)c1ccc(-c2c3nc(c(-c4c(F)c(F)c(F)c(F)c4F)c4ccc([nH]4)c(-c4c(F)c(F)c(F)c(F)c4F)c4nc(c(-c5c(F)c(F)c(F)c(F)c5F)c5ccc2[nH]5)C=C4)C=C3)cc1
REMARK SMILES IDX 25 1 24 2 23 3 1 4 2 5 3 7 4 8 5 9 6 10 16 11 7 12 15 13
REMARK SMILES IDX 14 14 17 15 18 16 22 17 19 19 21 20 20 21 8 22 9 23 13 24
REMARK SMILES IDX 10 25 12 26 11 27 26 28 27 29 28 30 29 31 30 33 31 34 32 35
REMARK SMILES IDX 93 36 33 37 92 38 34 39 35 40 36 41 86 42 37 43 91 44 85 45
REMARK SMILES IDX 87 46 38 47 90 48 84 49 83 50 39 52 71 53 51 54 70 55 52 56
REMARK SMILES IDX 55 57 69 58 88 59 53 60 54 61 68 63 89 64 56 65 40 66 41 67
REMARK SMILES IDX 49 68 42 69 43 70 47 71 50 72 44 73 45 74 48 75 46 76 72 77
REMARK SMILES IDX 73 78 81 79 74 80 75 81 79 82 82 83 76 84 77 85 80 86 78 87
REMARK SMILES IDX 57 88 58 89 66 90 59 91 60 92 64 93 67 94 61 95 62 96 65 97
REMARK SMILES IDX 63 98
REMARK H PARENT 23 6 17 18 28 32 87 51 55 62
REMARK Flexibility Score: inf
ROOT
ATOM      1  C   UNL     1      -0.328  -0.247   0.250  1.00  0.00     0.023 C 
ENDROOT
BRANCH   1   2
ATOM      2  C   UNL     1       0.411   0.173  -1.032  1.00  0.00     0.116 C 
BRANCH   2   3
ATOM      3  N   UNL     1       1.550  -0.616  -1.450  1.00  0.00    -0.356 N 
ATOM      4  O   UNL     1       2.267   0.940  -2.987  1.00  0.00    -0.275 OA
ATOM      5  C   UNL     1       2.396  -0.155  -2.447  1.00  0.00     0.220 C 
ATOM      6  H   UNL     1       1.725  -1.486  -1.024  1.00  0.00     0.163 HD
BRANCH   5   7
ATOM      7  C   UNL     1       3.551  -1.083  -2.785  1.00  0.00     0.100 C 
BRANCH   7   8
ATOM      8  C   UNL     1       4.904  -0.642  -2.192  1.00  0.00     0.021 C 
BRANCH   8   9
ATOM      9  C   UNL     1       4.856  -0.455  -0.661  1.00  0.00     0.067 C 
ATOM     10  C   UNL     1       4.608   1.009  -0.273  1.00  0.00     0.126 C 
ATOM     11  C   UNL     1       6.037  -1.102   0.125  1.00  0.00     0.190 C 
ATOM     12  N   UNL     1       4.418   1.124   1.181  1.00  0.00    -0.371 N 
ATOM     13  C   UNL     1       5.745  -0.912   1.622  1.00  0.00     0.087 C 
ATOM     14  C   UNL     1       5.446   0.526   2.029  1.00  0.00     0.122 C 
BRANCH  11  15
ATOM     15  N   UNL     1       7.412  -0.867  -0.347  1.00  0.00    -0.328 N 
ATOM     16  C   UNL     1       8.399  -1.888   0.076  1.00  0.00     0.291 C 
ATOM     17  C   UNL     1       8.031   0.462  -0.307  1.00  0.00     0.291 C 
ATOM     18  H   UNL     1       7.172  -0.955  -1.335  1.00  0.00     0.348 HD
ATOM     19  C   UNL     1       9.237  -1.520   1.314  1.00  0.00     0.221 C 
ATOM     20  C   UNL     1       8.904   0.765   0.925  1.00  0.00     0.221 C 
ATOM     21  O   UNL     1       9.881  -0.255   1.146  1.00  0.00    -0.370 OA
ENDBRANCH  11  15
BRANCH  12  22
ATOM     22  C   UNL     1       3.746   2.268   1.623  1.00  0.00     0.040 A 
ATOM     23  C   UNL     1       4.246   3.126   2.601  1.00  0.00     0.046 A 
ATOM     24  C   UNL     1       2.483   2.581   1.114  1.00  0.00     0.046 A 
ATOM     25  C   UNL     1       3.481   4.212   3.011  1.00  0.00     0.113 A 
ATOM     26  C   UNL     1       1.776   3.669   1.596  1.00  0.00     0.113 A 
ATOM     27  N   UNL     1       2.254   4.500   2.535  1.00  0.00    -0.265 NA
ENDBRANCH  12  22
ENDBRANCH   8   9
ENDBRANCH   7   8
ENDBRANCH   5   7
ENDBRANCH   2   3
ENDBRANCH   1   2
BRANCH   1  28
ATOM     28  C   UNL     1       0.361  -1.091   1.333  1.00  0.00     0.023 C 
BRANCH  28  29
ATOM     29  C   UNL     1       1.127  -0.389   2.460  1.00  0.00     0.116 C 
BRANCH  29  30
ATOM     30  N   UNL     1       0.370   0.615   3.192  1.00  0.00    -0.352 N 
ATOM     31  C   UNL     1       0.427   0.982   4.519  1.00  0.00     0.251 C 
ATOM     32  H   UNL     1      -0.288   1.111   2.654  1.00  0.00     0.163 HD
ATOM     33  O   UNL     1      -0.348   1.839   4.941  1.00  0.00    -0.269 OA
BRANCH  31  34
ATOM     34  C   UNL     1       1.349   0.316   5.473  1.00  0.00     0.039 A 
ATOM     35  C   UNL     1       0.850  -0.049   6.730  1.00  0.00     0.014 A 
ATOM     36  C   UNL     1       2.684   0.050   5.164  1.00  0.00     0.014 A 
ATOM     37  C   UNL     1       1.648  -0.773   7.623  1.00  0.00     0.010 A 
ATOM     38  C   UNL     1       3.471  -0.710   6.038  1.00  0.00     0.010 A 
ATOM     39  C   UNL     1       2.948  -1.161   7.261  1.00  0.00    -0.014 A 
BRANCH  39  40
ATOM     40  C   UNL     1       3.709  -2.124   8.103  1.00  0.00     0.031 A 
ATOM     41  C   UNL     1       4.949  -1.717   8.846  1.00  0.00     0.074 A 
ATOM     42  C   UNL     1       3.297  -3.407   8.155  1.00  0.00     0.049 A 
ATOM     43  N   UNL     1       5.735  -2.445   9.602  1.00  0.00    -0.248 NA
ATOM     44  C   UNL     1       5.372  -0.317   8.712  1.00  0.00     0.031 C 
ATOM     45  C   UNL     1       2.135  -3.946   7.445  1.00  0.00     0.029 A 
ATOM     46  N   UNL     1       3.807  -4.492   8.825  1.00  0.00    -0.354 N 
ATOM     47  C   UNL     1       6.742  -1.594  10.037  1.00  0.00     0.074 A 
ATOM     48  C   UNL     1       6.492  -0.305   9.423  1.00  0.00     0.031 C 
ATOM     49  C   UNL     1       2.010  -5.251   7.731  1.00  0.00     0.029 A 
ATOM     50  C   UNL     1       3.099  -5.652   8.617  1.00  0.00     0.049 A 
ATOM     51  H   UNL     1       4.604  -4.444   9.401  1.00  0.00     0.167 HD
ATOM     52  C   UNL     1       7.768  -1.859  10.883  1.00  0.00     0.037 A 
ATOM     53  C   UNL     1       3.302  -6.900   9.081  1.00  0.00     0.037 A 
ATOM     54  C   UNL     1       8.015  -3.138  11.501  1.00  0.00     0.049 A 
ATOM     55  C   UNL     1       4.454  -7.167  10.009  1.00  0.00     0.074 A 
ATOM     56  C   UNL     1       9.006  -3.484  12.405  1.00  0.00     0.029 A 
ATOM     57  N   UNL     1       7.269  -4.285  11.275  1.00  0.00    -0.354 N 
ATOM     58  N   UNL     1       5.359  -6.336  10.463  1.00  0.00    -0.248 NA
ATOM     59  C   UNL     1       4.608  -8.546  10.495  1.00  0.00     0.031 C 
ATOM     60  C   UNL     1       8.886  -4.848  12.693  1.00  0.00     0.029 A 
ATOM     61  C   UNL     1       7.792  -5.343  12.004  1.00  0.00     0.049 A 
ATOM     62  H   UNL     1       6.484  -4.340  10.684  1.00  0.00     0.167 HD
ATOM     63  C   UNL     1       6.172  -7.082  11.306  1.00  0.00     0.074 A 
ATOM     64  C   UNL     1       5.645  -8.430  11.313  1.00  0.00     0.031 C 
ATOM     65  C   UNL     1       7.259  -6.682  12.009  1.00  0.00     0.037 A 
BRANCH  52  66
ATOM     66  C   UNL     1       8.713  -0.735  11.201  1.00  0.00     0.064 A 
ATOM     67  C   UNL     1       8.325   0.339  12.016  1.00  0.00     0.173 A 
ATOM     68  C   UNL     1      10.035  -0.759  10.732  1.00  0.00     0.173 A 
ATOM     69  F   UNL     1       7.070   0.410  12.485  1.00  0.00    -0.203 F 
ATOM     70  C   UNL     1       9.219   1.360  12.329  1.00  0.00     0.198 A 
ATOM     71  C   UNL     1      10.934   0.250  11.069  1.00  0.00     0.198 A 
ATOM     72  F   UNL     1      10.460  -1.769   9.958  1.00  0.00    -0.203 F 
ATOM     73  F   UNL     1       8.813   2.396  13.076  1.00  0.00    -0.200 F 
ATOM     74  C   UNL     1      10.523   1.312  11.861  1.00  0.00     0.200 A 
ATOM     75  F   UNL     1      12.198   0.195  10.628  1.00  0.00    -0.200 F 
ATOM     76  F   UNL     1      11.384   2.292  12.170  1.00  0.00    -0.200 F 
ENDBRANCH  52  66
BRANCH  53  77
ATOM     77  C   UNL     1       2.376  -7.993   8.688  1.00  0.00     0.064 A 
ATOM     78  C   UNL     1       1.494  -8.560   9.618  1.00  0.00     0.173 A 
ATOM     79  C   UNL     1       2.357  -8.495   7.379  1.00  0.00     0.173 A 
ATOM     80  F   UNL     1       1.492  -8.128  10.888  1.00  0.00    -0.203 F 
ATOM     81  C   UNL     1       0.641  -9.601   9.259  1.00  0.00     0.198 A 
ATOM     82  C   UNL     1       1.484  -9.517   7.013  1.00  0.00     0.198 A 
ATOM     83  F   UNL     1       3.178  -7.983   6.451  1.00  0.00    -0.203 F 
ATOM     84  F   UNL     1      -0.160 -10.156  10.178  1.00  0.00    -0.200 F 
ATOM     85  C   UNL     1       0.632 -10.075   7.955  1.00  0.00     0.200 A 
ATOM     86  F   UNL     1       1.469  -9.963   5.750  1.00  0.00    -0.200 F 
ATOM     87  F   UNL     1      -0.191 -11.074   7.609  1.00  0.00    -0.200 F 
ENDBRANCH  53  77
BRANCH  65  88
ATOM     88  C   UNL     1       7.938  -7.708  12.869  1.00  0.00     0.064 A 
ATOM     89  C   UNL     1       8.705  -8.742  12.313  1.00  0.00     0.173 A 
ATOM     90  C   UNL     1       7.847  -7.638  14.268  1.00  0.00     0.173 A 
ATOM     91  F   UNL     1       8.809  -8.864  10.981  1.00  0.00    -0.203 F 
ATOM     92  C   UNL     1       9.337  -9.682  13.125  1.00  0.00     0.198 A 
ATOM     93  C   UNL     1       8.501  -8.562  15.077  1.00  0.00     0.198 A 
ATOM     94  F   UNL     1       7.128  -6.666  14.850  1.00  0.00    -0.203 F 
ATOM     95  F   UNL     1      10.027 -10.688  12.570  1.00  0.00    -0.200 F 
ATOM     96  C   UNL     1       9.240  -9.587  14.505  1.00  0.00     0.200 A 
ATOM     97  F   UNL     1       8.415  -8.464  16.411  1.00  0.00    -0.200 F 
ATOM     98  F   UNL     1       9.853 -10.489  15.284  1.00  0.00    -0.200 F 
ENDBRANCH  65  88
ENDBRANCH  39  40
ENDBRANCH  31  34
ENDBRANCH  29  30
ENDBRANCH  28  29
ENDBRANCH   1  28
TORSDOF 15
