REMARK SMILES Cc1cc2c(cc1C(=O)c1ccccc1C(=O)NCCCCNC(=O)c1ccc(-c3c4nc(c(-c5c(F)c(F)c(F)c(F)c5F)c5ccc([nH]5)c(-c5c(F)c(F)c(F)c(F)c5F)c5nc(c(-c6c(F)c(F)c(F)c(F)c6F)c6ccc3[nH]6)C=C5)C=C4)cc1)CCCC2
REMARK SMILES IDX 20 1 19 2 18 3 16 4 17 5 15 7 10 8 11 9 12 10 14 11 13 12
REMARK SMILES IDX 8 13 9 14 7 15 1 16 2 17 3 18 4 19 6 20 5 21 92 22 89 23
REMARK SMILES IDX 91 24 90 25 21 26 22 27 23 28 24 29 25 31 26 32 27 33 88 34
REMARK SMILES IDX 28 35 87 36 29 37 30 38 31 39 81 40 32 41 86 42 80 43 82 44
REMARK SMILES IDX 33 45 85 46 79 47 78 48 34 50 66 51 46 52 65 53 47 54 50 55
REMARK SMILES IDX 64 56 83 57 48 58 49 59 63 61 84 62 51 63 35 64 36 65 44 66
REMARK SMILES IDX 37 67 38 68 42 69 45 70 39 71 40 72 43 73 41 74 67 75 68 76
REMARK SMILES IDX 76 77 69 78 70 79 74 80 77 81 71 82 72 83 75 84 73 85 52 86
REMARK SMILES IDX 53 87 61 88 54 89 55 90 59 91 62 92 56 93 57 94 60 95 58 96
REMARK H PARENT 18 6 23 30 82 49 50 60
REMARK Flexibility Score: inf
ROOT
ATOM      1  C   UNL     1       1.210   0.804   4.298  1.00  0.00     0.023 C 
ENDROOT
BRANCH   1   2
ATOM      2  C   UNL     1       0.546   2.141   3.968  1.00  0.00     0.116 C 
BRANCH   2   3
ATOM      3  N   UNL     1       1.437   2.938   3.164  1.00  0.00    -0.352 N 
ATOM      4  C   UNL     1       1.604   3.252   1.851  1.00  0.00     0.252 C 
ATOM      5  O   UNL     1       2.643   3.901   1.658  1.00  0.00    -0.269 OA
ATOM      6  H   UNL     1       2.117   3.379   3.723  1.00  0.00     0.163 HD
BRANCH   4   7
ATOM      7  C   UNL     1       0.732   2.978   0.657  1.00  0.00     0.050 A 
ATOM      8  C   UNL     1      -0.301   2.058   0.415  1.00  0.00     0.035 A 
ATOM      9  C   UNL     1      -0.977   2.038  -0.834  1.00  0.00     0.013 A 
ATOM     10  C   UNL     1      -0.596   2.865  -1.883  1.00  0.00     0.001 A 
ATOM     11  C   UNL     1       1.079   3.810  -0.445  1.00  0.00     0.014 A 
ATOM     12  C   UNL     1       0.445   3.751  -1.690  1.00  0.00     0.001 A 
BRANCH   8  13
ATOM     13  C   UNL     1      -0.869   1.074   1.333  1.00  0.00     0.194 C 
ATOM     14  O   UNL     1      -1.899   1.431   1.909  1.00  0.00    -0.289 OA
BRANCH  13  15
ATOM     15  C   UNL     1      -0.380  -0.338   1.484  1.00  0.00     0.026 A 
ATOM     16  C   UNL     1       1.325  -0.372  -0.454  1.00  0.00     0.045 C 
ATOM     17  C   UNL     1       0.610  -0.981   0.718  1.00  0.00    -0.040 A 
ATOM     18  C   UNL     1       0.954  -2.311   1.045  1.00  0.00     0.008 A 
ATOM     19  C   UNL     1       0.387  -2.988   2.135  1.00  0.00    -0.044 A 
ATOM     20  C   UNL     1      -0.995  -1.056   2.535  1.00  0.00     0.016 A 
ATOM     21  C   UNL     1      -0.594  -2.351   2.896  1.00  0.00    -0.044 A 
ATOM     22  C   UNL     1       0.798  -4.411   2.423  1.00  0.00     0.036 C 
ATOM     23  C   UNL     1      -1.132  -2.963   4.168  1.00  0.00     0.036 C 
ATOM     24  C   UNL     1       0.541  -4.816   3.873  1.00  0.00     0.005 C 
ATOM     25  C   UNL     1      -0.886  -4.466   4.279  1.00  0.00     0.005 C 
ENDBRANCH  13  15
ENDBRANCH   8  13
ENDBRANCH   4   7
ENDBRANCH   2   3
ENDBRANCH   1   2
BRANCH   1  26
ATOM     26  C   UNL     1       1.808   0.707   5.698  1.00  0.00     0.023 C 
BRANCH  26  27
ATOM     27  C   UNL     1       0.807   0.899   6.833  1.00  0.00     0.116 C 
BRANCH  27  28
ATOM     28  N   UNL     1      -0.401   0.084   6.738  1.00  0.00    -0.352 N 
ATOM     29  C   UNL     1      -1.197  -0.377   7.765  1.00  0.00     0.251 C 
ATOM     30  H   UNL     1      -0.680  -0.169   5.829  1.00  0.00     0.163 HD
ATOM     31  O   UNL     1      -2.153  -1.112   7.548  1.00  0.00    -0.269 OA
BRANCH  29  32
ATOM     32  C   UNL     1      -0.822  -0.019   9.147  1.00  0.00     0.039 A 
ATOM     33  C   UNL     1      -0.544   1.311   9.464  1.00  0.00     0.014 A 
ATOM     34  C   UNL     1      -0.583  -1.038  10.070  1.00  0.00     0.014 A 
ATOM     35  C   UNL     1       0.193   1.590  10.605  1.00  0.00     0.010 A 
ATOM     36  C   UNL     1       0.072  -0.738  11.266  1.00  0.00     0.010 A 
ATOM     37  C   UNL     1       0.540   0.565  11.501  1.00  0.00    -0.014 A 
BRANCH  37  38
ATOM     38  C   UNL     1       1.462   0.873  12.625  1.00  0.00     0.031 A 
ATOM     39  C   UNL     1       2.835   0.254  12.684  1.00  0.00     0.074 A 
ATOM     40  C   UNL     1       1.102   1.795  13.537  1.00  0.00     0.049 A 
ATOM     41  N   UNL     1       3.784   0.434  13.569  1.00  0.00    -0.248 NA
ATOM     42  C   UNL     1       3.192  -0.695  11.616  1.00  0.00     0.031 C 
ATOM     43  C   UNL     1      -0.189   2.483  13.570  1.00  0.00     0.029 A 
ATOM     44  N   UNL     1       1.802   2.346  14.579  1.00  0.00    -0.354 N 
ATOM     45  C   UNL     1       4.824  -0.405  13.191  1.00  0.00     0.074 A 
ATOM     46  C   UNL     1       4.394  -1.104  12.000  1.00  0.00     0.031 C 
ATOM     47  C   UNL     1      -0.161   3.419  14.530  1.00  0.00     0.029 A 
ATOM     48  C   UNL     1       1.123   3.351  15.221  1.00  0.00     0.049 A 
ATOM     49  H   UNL     1       2.704   2.049  14.841  1.00  0.00     0.167 HD
ATOM     50  C   UNL     1       6.032  -0.571  13.780  1.00  0.00     0.037 A 
ATOM     51  C   UNL     1       1.490   4.131  16.254  1.00  0.00     0.037 A 
ATOM     52  C   UNL     1       6.487   0.169  14.927  1.00  0.00     0.049 A 
ATOM     53  C   UNL     1       2.835   3.930  16.886  1.00  0.00     0.074 A 
ATOM     54  C   UNL     1       7.711   0.098  15.569  1.00  0.00     0.029 A 
ATOM     55  N   UNL     1       5.740   1.128  15.592  1.00  0.00    -0.354 N 
ATOM     56  N   UNL     1       3.796   3.111  16.536  1.00  0.00    -0.248 NA
ATOM     57  C   UNL     1       3.138   4.743  18.071  1.00  0.00     0.031 C 
ATOM     58  C   UNL     1       7.695   0.995  16.642  1.00  0.00     0.029 A 
ATOM     59  C   UNL     1       6.472   1.645  16.649  1.00  0.00     0.049 A 
ATOM     60  H   UNL     1       4.826   1.402  15.350  1.00  0.00     0.167 HD
ATOM     61  C   UNL     1       4.810   3.297  17.462  1.00  0.00     0.074 A 
ATOM     62  C   UNL     1       4.362   4.332  18.372  1.00  0.00     0.031 C 
ATOM     63  C   UNL     1       6.001   2.659  17.555  1.00  0.00     0.037 A 
BRANCH  50  64
ATOM     64  C   UNL     1       6.955  -1.605  13.207  1.00  0.00     0.064 A 
ATOM     65  C   UNL     1       7.677  -1.376  12.027  1.00  0.00     0.173 A 
ATOM     66  C   UNL     1       7.170  -2.813  13.887  1.00  0.00     0.173 A 
ATOM     67  F   UNL     1       7.496  -0.242  11.334  1.00  0.00    -0.203 F 
ATOM     68  C   UNL     1       8.574  -2.325  11.543  1.00  0.00     0.198 A 
ATOM     69  C   UNL     1       8.082  -3.751  13.412  1.00  0.00     0.198 A 
ATOM     70  F   UNL     1       6.507  -3.076  15.023  1.00  0.00    -0.203 F 
ATOM     71  F   UNL     1       9.236  -2.099  10.400  1.00  0.00    -0.200 F 
ATOM     72  C   UNL     1       8.782  -3.507  12.240  1.00  0.00     0.200 A 
ATOM     73  F   UNL     1       8.288  -4.888  14.090  1.00  0.00    -0.200 F 
ATOM     74  F   UNL     1       9.655  -4.414  11.778  1.00  0.00    -0.200 F 
ENDBRANCH  50  64
BRANCH  51  75
ATOM     75  C   UNL     1       0.555   5.172  16.743  1.00  0.00     0.064 A 
ATOM     76  C   UNL     1       0.796   6.528  16.490  1.00  0.00     0.173 A 
ATOM     77  C   UNL     1      -0.624   4.830  17.421  1.00  0.00     0.173 A 
ATOM     78  F   UNL     1       1.920   6.902  15.861  1.00  0.00    -0.203 F 
ATOM     79  C   UNL     1      -0.112   7.505  16.892  1.00  0.00     0.198 A 
ATOM     80  C   UNL     1      -1.542   5.804  17.801  1.00  0.00     0.198 A 
ATOM     81  F   UNL     1      -0.898   3.543  17.681  1.00  0.00    -0.203 F 
ATOM     82  F   UNL     1       0.147   8.797  16.651  1.00  0.00    -0.200 F 
ATOM     83  C   UNL     1      -1.285   7.141  17.537  1.00  0.00     0.200 A 
ATOM     84  F   UNL     1      -2.681   5.447  18.410  1.00  0.00    -0.200 F 
ATOM     85  F   UNL     1      -2.168   8.079  17.905  1.00  0.00    -0.200 F 
ENDBRANCH  51  75
BRANCH  63  86
ATOM     86  C   UNL     1       6.894   3.041  18.694  1.00  0.00     0.064 A 
ATOM     87  C   UNL     1       6.649   2.571  19.992  1.00  0.00     0.173 A 
ATOM     88  C   UNL     1       8.033   3.830  18.479  1.00  0.00     0.173 A 
ATOM     89  F   UNL     1       5.564   1.823  20.244  1.00  0.00    -0.203 F 
ATOM     90  C   UNL     1       7.508   2.887  21.039  1.00  0.00     0.198 A 
ATOM     91  C   UNL     1       8.900   4.129  19.526  1.00  0.00     0.198 A 
ATOM     92  F   UNL     1       8.310   4.298  17.253  1.00  0.00    -0.203 F 
ATOM     93  F   UNL     1       7.242   2.449  22.277  1.00  0.00    -0.200 F 
ATOM     94  C   UNL     1       8.636   3.660  20.804  1.00  0.00     0.200 A 
ATOM     95  F   UNL     1       9.994   4.870  19.297  1.00  0.00    -0.200 F 
ATOM     96  F   UNL     1       9.468   3.956  21.812  1.00  0.00    -0.200 F 
ENDBRANCH  63  86
ENDBRANCH  37  38
ENDBRANCH  29  32
ENDBRANCH  27  28
ENDBRANCH  26  27
ENDBRANCH   1  26
TORSDOF 13
