REMARK SMILES CCOc1ccc(CC)cc1[C@@H]([NH3+])CC(=O)NCCCCNC(=O)c1ccc(-c2c3nc(c(-c4c(F)c(F)c(F)c(F)c4F)c4ccc([nH]4)c(-c4c(F)c(F)c(F)c(F)c4F)c4nc(c(-c5c(F)c(F)c(F)c(F)c5F)c5ccc2[nH]5)C=C4)C=C3)cc1
REMARK SMILES IDX 18 1 17 2 15 3 16 4 14 6 12 7 11 8 4 9 5 10 6 11 10 12 7 13
REMARK SMILES IDX 3 14 2 15 1 16 8 17 9 18 13 19 19 23 20 24 21 25 22 26 23 27
REMARK SMILES IDX 24 29 25 30 26 31 87 32 27 33 86 34 28 35 29 36 30 37 80 38
REMARK SMILES IDX 31 39 85 40 79 41 81 42 32 43 84 44 78 45 77 46 33 48 65 49
REMARK SMILES IDX 45 50 64 51 46 52 49 53 63 54 82 55 47 56 48 57 62 59 83 60
REMARK SMILES IDX 50 61 34 62 35 63 43 64 36 65 37 66 41 67 44 68 38 69 39 70
REMARK SMILES IDX 42 71 40 72 66 73 67 74 75 75 68 76 69 77 73 78 76 79 70 80
REMARK SMILES IDX 71 81 74 82 72 83 51 84 52 85 60 86 53 87 54 88 58 89 61 90
REMARK SMILES IDX 55 91 56 92 59 93 57 94
REMARK H PARENT 17 5 13 20 13 21 13 22 22 28 81 47 49 58
REMARK Flexibility Score: inf
ROOT
ATOM      1  C   UNL     1       4.418  -1.591   2.225  1.00  0.00     0.116 C 
ENDROOT
BRANCH   1   2
ATOM      2  N   UNL     1       3.497  -2.188   1.275  1.00  0.00    -0.356 N 
ATOM      3  C   UNL     1       3.063  -1.724   0.069  1.00  0.00     0.226 C 
ATOM      4  O   UNL     1       2.099  -2.294  -0.448  1.00  0.00    -0.275 OA
ATOM      5  H   UNL     1       3.130  -3.061   1.543  1.00  0.00     0.163 HD
BRANCH   3   6
ATOM      6  C   UNL     1       3.761  -0.582  -0.645  1.00  0.00     0.170 C 
BRANCH   6   7
ATOM      7  C   UNL     1       2.982   0.746  -0.565  1.00  0.00     0.225 C 
BRANCH   7   8
ATOM      8  C   UNL     1       3.186   1.477   0.749  1.00  0.00     0.052 A 
ATOM      9  C   UNL     1       2.115   1.844   1.575  1.00  0.00     0.128 A 
ATOM     10  C   UNL     1       2.352   2.507   2.784  1.00  0.00     0.047 A 
ATOM     11  C   UNL     1       3.664   2.785   3.200  1.00  0.00     0.007 A 
ATOM     12  C   UNL     1       4.491   1.821   1.159  1.00  0.00     0.017 A 
ATOM     13  C   UNL     1       4.753   2.446   2.388  1.00  0.00    -0.048 A 
BRANCH   9  14
ATOM     14  O   UNL     1       0.823   1.678   1.149  1.00  0.00    -0.493 OA
BRANCH  14  15
ATOM     15  C   UNL     1       0.236   0.441   1.574  1.00  0.00     0.226 C 
ATOM     16  C   UNL     1      -0.631  -0.100   0.448  1.00  0.00     0.049 C 
ENDBRANCH  14  15
ENDBRANCH   9  14
BRANCH  13  17
ATOM     17  C   UNL     1       6.194   2.581   2.829  1.00  0.00     0.032 C 
ATOM     18  C   UNL     1       6.558   3.867   3.551  1.00  0.00     0.009 C 
ENDBRANCH  13  17
ENDBRANCH   7   8
BRANCH   7  19
ATOM     19  N   UNL     1       3.392   1.637  -1.667  1.00  0.00    -0.351 N 
ATOM     20  H   UNL     1       4.382   1.862  -1.571  1.00  0.00     0.345 HD
ATOM     21  H   UNL     1       2.843   2.495  -1.632  1.00  0.00     0.345 HD
ATOM     22  H   UNL     1       3.235   1.168  -2.559  1.00  0.00     0.345 HD
ENDBRANCH   7  19
ENDBRANCH   6   7
ENDBRANCH   3   6
ENDBRANCH   1   2
BRANCH   1  23
ATOM     23  C   UNL     1       3.643  -0.822   3.291  1.00  0.00     0.023 C 
BRANCH  23  24
ATOM     24  C   UNL     1       3.463  -1.518   4.628  1.00  0.00     0.023 C 
BRANCH  24  25
ATOM     25  C   UNL     1       4.733  -1.565   5.463  1.00  0.00     0.116 C 
BRANCH  25  26
ATOM     26  N   UNL     1       5.305  -0.255   5.764  1.00  0.00    -0.352 N 
ATOM     27  C   UNL     1       5.959   0.174   6.894  1.00  0.00     0.251 C 
ATOM     28  H   UNL     1       5.208   0.419   5.053  1.00  0.00     0.163 HD
ATOM     29  O   UNL     1       6.347   1.334   6.984  1.00  0.00    -0.269 OA
BRANCH  27  30
ATOM     30  C   UNL     1       6.128  -0.758   8.027  1.00  0.00     0.039 A 
ATOM     31  C   UNL     1       5.827  -0.314   9.317  1.00  0.00     0.014 A 
ATOM     32  C   UNL     1       6.489  -2.088   7.808  1.00  0.00     0.014 A 
ATOM     33  C   UNL     1       5.789  -1.230  10.368  1.00  0.00     0.010 A 
ATOM     34  C   UNL     1       6.333  -3.016   8.826  1.00  0.00     0.010 A 
ATOM     35  C   UNL     1       5.985  -2.598  10.118  1.00  0.00    -0.014 A 
BRANCH  35  36
ATOM     36  C   UNL     1       5.843  -3.615  11.190  1.00  0.00     0.031 A 
ATOM     37  C   UNL     1       7.009  -4.496  11.540  1.00  0.00     0.074 A 
ATOM     38  C   UNL     1       4.645  -3.806  11.777  1.00  0.00     0.049 A 
ATOM     39  N   UNL     1       7.064  -5.510  12.365  1.00  0.00    -0.248 NA
ATOM     40  C   UNL     1       8.272  -4.235  10.829  1.00  0.00     0.031 C 
ATOM     41  C   UNL     1       3.418  -3.070  11.465  1.00  0.00     0.029 A 
ATOM     42  N   UNL     1       4.261  -4.687  12.756  1.00  0.00    -0.354 N 
ATOM     43  C   UNL     1       8.349  -6.022  12.245  1.00  0.00     0.074 A 
ATOM     44  C   UNL     1       9.021  -5.254  11.222  1.00  0.00     0.031 C 
ATOM     45  C   UNL     1       2.429  -3.503  12.264  1.00  0.00     0.029 A 
ATOM     46  C   UNL     1       2.942  -4.569  13.118  1.00  0.00     0.049 A 
ATOM     47  H   UNL     1       4.874  -5.342  13.162  1.00  0.00     0.167 HD
ATOM     48  C   UNL     1       8.929  -7.021  12.950  1.00  0.00     0.037 A 
ATOM     49  C   UNL     1       2.230  -5.243  14.041  1.00  0.00     0.037 A 
ATOM     50  C   UNL     1       8.277  -7.739  14.010  1.00  0.00     0.049 A 
ATOM     51  C   UNL     1       2.914  -6.309  14.852  1.00  0.00     0.074 A 
ATOM     52  C   UNL     1       8.800  -8.709  14.847  1.00  0.00     0.029 A 
ATOM     53  N   UNL     1       6.955  -7.553  14.387  1.00  0.00    -0.354 N 
ATOM     54  N   UNL     1       4.153  -6.734  14.784  1.00  0.00    -0.248 NA
ATOM     55  C   UNL     1       2.104  -6.984  15.876  1.00  0.00     0.031 C 
ATOM     56  C   UNL     1       7.784  -9.130  15.713  1.00  0.00     0.029 A 
ATOM     57  C   UNL     1       6.640  -8.397  15.438  1.00  0.00     0.049 A 
ATOM     58  H   UNL     1       6.332  -6.915  13.968  1.00  0.00     0.167 HD
ATOM     59  C   UNL     1       4.278  -7.706  15.766  1.00  0.00     0.074 A 
ATOM     60  C   UNL     1       2.993  -7.796  16.430  1.00  0.00     0.031 C 
ATOM     61  C   UNL     1       5.357  -8.461  16.088  1.00  0.00     0.037 A 
BRANCH  48  62
ATOM     62  C   UNL     1      10.347  -7.374  12.608  1.00  0.00     0.064 A 
ATOM     63  C   UNL     1      11.410  -6.503  12.893  1.00  0.00     0.173 A 
ATOM     64  C   UNL     1      10.650  -8.601  11.999  1.00  0.00     0.173 A 
ATOM     65  F   UNL     1      11.172  -5.311  13.459  1.00  0.00    -0.203 F 
ATOM     66  C   UNL     1      12.718  -6.831  12.547  1.00  0.00     0.198 A 
ATOM     67  C   UNL     1      11.963  -8.939  11.684  1.00  0.00     0.198 A 
ATOM     68  F   UNL     1       9.671  -9.472  11.707  1.00  0.00    -0.203 F 
ATOM     69  F   UNL     1      13.708  -5.957  12.775  1.00  0.00    -0.200 F 
ATOM     70  C   UNL     1      12.995  -8.051  11.949  1.00  0.00     0.200 A 
ATOM     71  F   UNL     1      12.231 -10.123  11.114  1.00  0.00    -0.200 F 
ATOM     72  F   UNL     1      14.255  -8.366  11.619  1.00  0.00    -0.200 F 
ENDBRANCH  48  62
BRANCH  49  73
ATOM     73  C   UNL     1       0.806  -4.898  14.282  1.00  0.00     0.064 A 
ATOM     74  C   UNL     1       0.418  -4.244  15.460  1.00  0.00     0.173 A 
ATOM     75  C   UNL     1      -0.194  -5.210  13.350  1.00  0.00     0.173 A 
ATOM     76  F   UNL     1       1.337  -3.941  16.390  1.00  0.00    -0.203 F 
ATOM     77  C   UNL     1      -0.917  -3.934  15.707  1.00  0.00     0.198 A 
ATOM     78  C   UNL     1      -1.527  -4.877  13.587  1.00  0.00     0.198 A 
ATOM     79  F   UNL     1       0.126  -5.829  12.204  1.00  0.00    -0.203 F 
ATOM     80  F   UNL     1      -1.264  -3.348  16.861  1.00  0.00    -0.200 F 
ATOM     81  C   UNL     1      -1.888  -4.247  14.768  1.00  0.00     0.200 A 
ATOM     82  F   UNL     1      -2.461  -5.170  12.672  1.00  0.00    -0.200 F 
ATOM     83  F   UNL     1      -3.173  -3.947  15.005  1.00  0.00    -0.200 F 
ENDBRANCH  49  73
BRANCH  61  84
ATOM     84  C   UNL     1       5.200  -9.428  17.222  1.00  0.00     0.064 A 
ATOM     85  C   UNL     1       4.458 -10.610  17.079  1.00  0.00     0.173 A 
ATOM     86  C   UNL     1       5.834  -9.190  18.450  1.00  0.00     0.173 A 
ATOM     87  F   UNL     1       3.822 -10.872  15.927  1.00  0.00    -0.203 F 
ATOM     88  C   UNL     1       4.338 -11.508  18.135  1.00  0.00     0.198 A 
ATOM     89  C   UNL     1       5.734 -10.104  19.495  1.00  0.00     0.198 A 
ATOM     90  F   UNL     1       6.560  -8.077  18.633  1.00  0.00    -0.203 F 
ATOM     91  F   UNL     1       3.590 -12.611  17.991  1.00  0.00    -0.200 F 
ATOM     92  C   UNL     1       4.982 -11.259  19.338  1.00  0.00     0.200 A 
ATOM     93  F   UNL     1       6.365  -9.868  20.653  1.00  0.00    -0.200 F 
ATOM     94  F   UNL     1       4.870 -12.129  20.351  1.00  0.00    -0.200 F 
ENDBRANCH  61  84
ENDBRANCH  35  36
ENDBRANCH  27  30
ENDBRANCH  25  26
ENDBRANCH  24  25
ENDBRANCH  23  24
ENDBRANCH   1  23
TORSDOF 17
