REMARK SMILES Nc1c(C(=O)NCCCCNC(=O)c2ccc(-c3c4nc(c(-c5c(F)c(F)c(F)c(F)c5F)c5ccc([nH]5)c(-c5c(F)c(F)c(F)c(F)c5F)c5nc(c(-c6c(F)c(F)c(F)c(F)c6F)c6ccc3[nH]6)C=C5)C=C4)cc2)cccc1-c1cc(F)c(F)c(F)c1
REMARK SMILES IDX 9 1 8 2 7 3 6 4 4 5 5 6 3 8 2 9 80 10 77 11 79 12 78 13 1 14
REMARK SMILES IDX 81 17 82 18 89 19 83 20 87 21 84 22 85 23 88 24 86 25 10 26
REMARK SMILES IDX 11 27 12 28 13 30 14 31 15 32 76 33 16 34 75 35 17 36 18 37
REMARK SMILES IDX 19 38 69 39 20 40 74 41 68 42 70 43 21 44 73 45 67 46 66 47
REMARK SMILES IDX 22 49 54 50 34 51 53 52 35 53 38 54 52 55 71 56 36 57 37 58
REMARK SMILES IDX 51 60 72 61 39 62 23 63 24 64 32 65 25 66 26 67 30 68 33 69
REMARK SMILES IDX 27 70 28 71 31 72 29 73 55 74 56 75 64 76 57 77 58 78 62 79
REMARK SMILES IDX 65 80 59 81 60 82 63 83 61 84 40 85 41 86 49 87 42 88 43 89
REMARK SMILES IDX 47 90 50 91 44 92 45 93 48 94 46 95
REMARK H PARENT 6 7 1 15 1 16 11 29 70 48 38 59
REMARK Flexibility Score: inf
ROOT
ATOM      1  C   UNL     1       5.169  -2.740   1.634  1.00  0.00     0.023 C 
ENDROOT
BRANCH   1   2
ATOM      2  C   UNL     1       4.140  -1.685   2.042  1.00  0.00     0.023 C 
BRANCH   2   3
ATOM      3  C   UNL     1       3.151  -1.255   0.965  1.00  0.00     0.116 C 
BRANCH   3   4
ATOM      4  N   UNL     1       2.356  -2.327   0.388  1.00  0.00    -0.352 N 
ATOM      5  C   UNL     1       1.114  -2.269  -0.213  1.00  0.00     0.253 C 
ATOM      6  O   UNL     1       0.624  -3.306  -0.657  1.00  0.00    -0.269 OA
ATOM      7  H   UNL     1       2.762  -3.223   0.433  1.00  0.00     0.163 HD
BRANCH   5   8
ATOM      8  C   UNL     1       0.320  -1.007  -0.259  1.00  0.00     0.063 A 
ATOM      9  C   UNL     1       0.854   0.250  -0.622  1.00  0.00     0.052 A 
ATOM     10  C   UNL     1       0.085   1.419  -0.363  1.00  0.00     0.006 A 
ATOM     11  C   UNL     1      -1.023  -1.122   0.135  1.00  0.00     0.016 A 
ATOM     12  C   UNL     1      -1.258   1.268   0.043  1.00  0.00     0.011 A 
ATOM     13  C   UNL     1      -1.819   0.011   0.255  1.00  0.00     0.002 A 
BRANCH   9  14
ATOM     14  N   UNL     1       2.101   0.336  -1.242  1.00  0.00    -0.398 N 
ATOM     15  H   UNL     1       2.622  -0.481  -1.415  1.00  0.00     0.156 HD
ATOM     16  H   UNL     1       2.459   1.214  -1.508  1.00  0.00     0.156 HD
ENDBRANCH   9  14
BRANCH  10  17
ATOM     17  C   UNL     1       0.670   2.780  -0.400  1.00  0.00    -0.010 A 
ATOM     18  C   UNL     1       0.616   3.591   0.753  1.00  0.00     0.051 A 
ATOM     19  C   UNL     1       1.353   3.284  -1.518  1.00  0.00     0.051 A 
ATOM     20  C   UNL     1       1.262   4.826   0.792  1.00  0.00     0.162 A 
ATOM     21  C   UNL     1       2.020   4.508  -1.453  1.00  0.00     0.162 A 
ATOM     22  F   UNL     1       1.201   5.558   1.913  1.00  0.00    -0.204 F 
ATOM     23  C   UNL     1       1.981   5.278  -0.301  1.00  0.00     0.194 A 
ATOM     24  F   UNL     1       2.731   4.918  -2.512  1.00  0.00    -0.204 F 
ATOM     25  F   UNL     1       2.642   6.442  -0.241  1.00  0.00    -0.200 F 
ENDBRANCH  10  17
ENDBRANCH   5   8
ENDBRANCH   3   4
ENDBRANCH   2   3
ENDBRANCH   1   2
BRANCH   1  26
ATOM     26  C   UNL     1       5.860  -2.543   0.287  1.00  0.00     0.116 C 
BRANCH  26  27
ATOM     27  N   UNL     1       6.663  -1.332   0.201  1.00  0.00    -0.352 N 
ATOM     28  C   UNL     1       8.018  -1.166   0.028  1.00  0.00     0.251 C 
ATOM     29  H   UNL     1       6.152  -0.494   0.280  1.00  0.00     0.163 HD
ATOM     30  O   UNL     1       8.502  -0.037   0.055  1.00  0.00    -0.269 OA
BRANCH  28  31
ATOM     31  C   UNL     1       8.908  -2.337  -0.141  1.00  0.00     0.039 A 
ATOM     32  C   UNL     1      10.087  -2.396   0.608  1.00  0.00     0.014 A 
ATOM     33  C   UNL     1       8.585  -3.378  -1.011  1.00  0.00     0.014 A 
ATOM     34  C   UNL     1      10.882  -3.546   0.566  1.00  0.00     0.010 A 
ATOM     35  C   UNL     1       9.328  -4.557  -0.986  1.00  0.00     0.010 A 
ATOM     36  C   UNL     1      10.477  -4.660  -0.187  1.00  0.00    -0.014 A 
BRANCH  36  37
ATOM     37  C   UNL     1      11.221  -5.947  -0.133  1.00  0.00     0.031 A 
ATOM     38  C   UNL     1      11.843  -6.519  -1.377  1.00  0.00     0.074 A 
ATOM     39  C   UNL     1      11.262  -6.646   1.020  1.00  0.00     0.049 A 
ATOM     40  N   UNL     1      12.437  -7.673  -1.552  1.00  0.00    -0.248 NA
ATOM     41  C   UNL     1      11.758  -5.698  -2.594  1.00  0.00     0.031 C 
ATOM     42  C   UNL     1      10.653  -6.232   2.285  1.00  0.00     0.029 A 
ATOM     43  N   UNL     1      11.829  -7.864   1.310  1.00  0.00    -0.354 N 
ATOM     44  C   UNL     1      12.774  -7.725  -2.898  1.00  0.00     0.074 A 
ATOM     45  C   UNL     1      12.275  -6.510  -3.505  1.00  0.00     0.031 C 
ATOM     46  C   UNL     1      10.896  -7.165   3.219  1.00  0.00     0.029 A 
ATOM     47  C   UNL     1      11.642  -8.263   2.612  1.00  0.00     0.049 A 
ATOM     48  H   UNL     1      12.323  -8.400   0.648  1.00  0.00     0.167 HD
ATOM     49  C   UNL     1      13.458  -8.687  -3.563  1.00  0.00     0.037 A 
ATOM     50  C   UNL     1      12.020  -9.392   3.244  1.00  0.00     0.037 A 
ATOM     51  C   UNL     1      13.985  -9.878  -2.952  1.00  0.00     0.049 A 
ATOM     52  C   UNL     1      12.787 -10.440   2.483  1.00  0.00     0.074 A 
ATOM     53  C   UNL     1      14.748 -10.879  -3.528  1.00  0.00     0.029 A 
ATOM     54  N   UNL     1      13.804 -10.230  -1.622  1.00  0.00    -0.354 N 
ATOM     55  N   UNL     1      13.159 -10.444   1.227  1.00  0.00    -0.248 NA
ATOM     56  C   UNL     1      13.193 -11.637   3.232  1.00  0.00     0.031 C 
ATOM     57  C   UNL     1      14.995 -11.856  -2.558  1.00  0.00     0.029 A 
ATOM     58  C   UNL     1      14.427 -11.441  -1.365  1.00  0.00     0.049 A 
ATOM     59  H   UNL     1      13.307  -9.698  -0.960  1.00  0.00     0.167 HD
ATOM     60  C   UNL     1      13.866 -11.624   1.042  1.00  0.00     0.074 A 
ATOM     61  C   UNL     1      13.883 -12.306   2.320  1.00  0.00     0.031 C 
ATOM     62  C   UNL     1      14.449 -12.100  -0.085  1.00  0.00     0.037 A 
BRANCH  49  63
ATOM     63  C   UNL     1      13.686  -8.486  -5.033  1.00  0.00     0.064 A 
ATOM     64  C   UNL     1      14.564  -7.502  -5.513  1.00  0.00     0.173 A 
ATOM     65  C   UNL     1      13.051  -9.312  -5.973  1.00  0.00     0.173 A 
ATOM     66  F   UNL     1      15.188  -6.679  -4.657  1.00  0.00    -0.203 F 
ATOM     67  C   UNL     1      14.775  -7.334  -6.879  1.00  0.00     0.198 A 
ATOM     68  C   UNL     1      13.288  -9.162  -7.336  1.00  0.00     0.198 A 
ATOM     69  F   UNL     1      12.207 -10.273  -5.568  1.00  0.00    -0.203 F 
ATOM     70  F   UNL     1      15.581  -6.356  -7.315  1.00  0.00    -0.200 F 
ATOM     71  C   UNL     1      14.144  -8.168  -7.789  1.00  0.00     0.200 A 
ATOM     72  F   UNL     1      12.688  -9.977  -8.214  1.00  0.00    -0.200 F 
ATOM     73  F   UNL     1      14.355  -8.011  -9.103  1.00  0.00    -0.200 F 
ENDBRANCH  49  63
BRANCH  50  74
ATOM     74  C   UNL     1      11.702  -9.581   4.683  1.00  0.00     0.064 A 
ATOM     75  C   UNL     1      12.716  -9.558   5.651  1.00  0.00     0.173 A 
ATOM     76  C   UNL     1      10.388  -9.801   5.121  1.00  0.00     0.173 A 
ATOM     77  F   UNL     1      13.991  -9.373   5.279  1.00  0.00    -0.203 F 
ATOM     78  C   UNL     1      12.432  -9.770   6.999  1.00  0.00     0.198 A 
ATOM     79  C   UNL     1      10.101  -9.985   6.472  1.00  0.00     0.198 A 
ATOM     80  F   UNL     1       9.381  -9.829   4.236  1.00  0.00    -0.203 F 
ATOM     81  F   UNL     1      13.427  -9.790   7.896  1.00  0.00    -0.200 F 
ATOM     82  C   UNL     1      11.124  -9.978   7.409  1.00  0.00     0.200 A 
ATOM     83  F   UNL     1       8.834 -10.172   6.866  1.00  0.00    -0.200 F 
ATOM     84  F   UNL     1      10.850 -10.180   8.705  1.00  0.00    -0.200 F 
ENDBRANCH  50  74
BRANCH  62  85
ATOM     85  C   UNL     1      15.193 -13.399   0.019  1.00  0.00     0.064 A 
ATOM     86  C   UNL     1      14.524 -14.623   0.160  1.00  0.00     0.173 A 
ATOM     87  C   UNL     1      16.594 -13.421  -0.068  1.00  0.00     0.173 A 
ATOM     88  F   UNL     1      13.186 -14.653   0.264  1.00  0.00    -0.203 F 
ATOM     89  C   UNL     1      15.231 -15.820   0.233  1.00  0.00     0.198 A 
ATOM     90  C   UNL     1      17.295 -14.623  -0.024  1.00  0.00     0.198 A 
ATOM     91  F   UNL     1      17.281 -12.278  -0.209  1.00  0.00    -0.203 F 
ATOM     92  F   UNL     1      14.573 -16.974   0.413  1.00  0.00    -0.200 F 
ATOM     93  C   UNL     1      16.614 -15.820   0.133  1.00  0.00     0.200 A 
ATOM     94  F   UNL     1      18.631 -14.621  -0.134  1.00  0.00    -0.200 F 
ATOM     95  F   UNL     1      17.292 -16.974   0.195  1.00  0.00    -0.200 F 
ENDBRANCH  62  85
ENDBRANCH  36  37
ENDBRANCH  28  31
ENDBRANCH  26  27
ENDBRANCH   1  26
TORSDOF 13
