REMARK SMILES Cc1ccccc1NC(=O)CSc1nc(C(=O)NCCCCNC(=O)c2ccc(-c3c4nc(c(-c5c(F)c(F)c(F)c(F)c5F)c5ccc([nH]5)c(-c5c(F)c(F)c(F)c(F)c5F)c5nc(c(-c6c(F)c(F)c(F)c(F)c6F)c6ccc3[nH]6)C=C5)C=C4)cc2)c2ccccc2n1
REMARK SMILES IDX 19 1 18 2 16 3 17 4 15 6 13 7 14 8 95 9 94 10 89 11 93 12
REMARK SMILES IDX 90 13 92 14 91 15 12 16 11 17 9 18 8 19 10 21 7 22 1 23 2 24
REMARK SMILES IDX 3 25 4 26 6 27 5 28 20 29 21 30 22 31 23 32 24 33 25 35
REMARK SMILES IDX 26 36 27 37 88 38 28 39 87 40 29 41 30 42 31 43 81 44 32 45
REMARK SMILES IDX 86 46 80 47 82 48 33 49 85 50 79 51 78 52 34 54 66 55 46 56
REMARK SMILES IDX 65 57 47 58 50 59 64 60 83 61 48 62 49 63 63 65 84 66 51 67
REMARK SMILES IDX 35 68 36 69 44 70 37 71 38 72 42 73 45 74 39 75 40 76 43 77
REMARK SMILES IDX 41 78 67 79 68 80 76 81 69 82 70 83 74 84 77 85 71 86 72 87
REMARK SMILES IDX 75 88 73 89 52 90 53 91 61 92 54 93 55 94 59 95 62 96 56 97
REMARK SMILES IDX 57 98 60 99 58 100
REMARK H PARENT 18 5 8 20 23 34 82 53 50 64
REMARK Flexibility Score: inf
ROOT
ATOM      1  C   UNL     1      -1.495   6.942  -6.988  1.00  0.00     0.116 C 
ENDROOT
BRANCH   1   2
ATOM      2  N   UNL     1      -1.389   7.635  -5.713  1.00  0.00    -0.351 N 
ATOM      3  C   UNL     1      -0.944   7.177  -4.479  1.00  0.00     0.270 C 
ATOM      4  O   UNL     1      -0.814   7.997  -3.571  1.00  0.00    -0.267 OA
ATOM      5  H   UNL     1      -1.677   8.577  -5.726  1.00  0.00     0.163 HD
BRANCH   3   6
ATOM      6  C   UNL     1      -0.710   5.717  -4.210  1.00  0.00     0.140 A 
ATOM      7  C   UNL     1      -1.433   3.936  -2.997  1.00  0.00     0.189 A 
ATOM      8  N   UNL     1      -1.423   5.256  -3.155  1.00  0.00    -0.217 NA
ATOM      9  N   UNL     1      -0.902   3.059  -3.857  1.00  0.00    -0.222 NA
ATOM     10  C   UNL     1      -0.187   3.540  -4.877  1.00  0.00     0.076 A 
ATOM     11  C   UNL     1       0.047   4.903  -5.060  1.00  0.00     0.032 A 
ATOM     12  C   UNL     1       0.312   2.652  -5.822  1.00  0.00     0.029 A 
ATOM     13  C   UNL     1       0.940   5.328  -6.080  1.00  0.00     0.013 A 
ATOM     14  C   UNL     1       1.087   3.082  -6.903  1.00  0.00     0.002 A 
ATOM     15  C   UNL     1       1.434   4.421  -7.012  1.00  0.00     0.001 A 
BRANCH   7  16
ATOM     16  S   UNL     1      -2.345   3.260  -1.644  1.00  0.00    -0.076 SA
BRANCH  16  17
ATOM     17  C   UNL     1      -1.396   3.938  -0.252  1.00  0.00     0.178 C 
BRANCH  17  18
ATOM     18  C   UNL     1       0.074   3.583  -0.276  1.00  0.00     0.234 C 
ATOM     19  N   UNL     1       0.593   2.342  -0.070  1.00  0.00    -0.325 N 
ATOM     20  H   UNL     1       1.577   2.351  -0.067  1.00  0.00     0.169 HD
ATOM     21  O   UNL     1       0.907   4.481  -0.474  1.00  0.00    -0.274 OA
BRANCH  19  22
ATOM     22  C   UNL     1       0.078   1.046   0.141  1.00  0.00     0.044 A 
ATOM     23  C   UNL     1       2.449   0.024  -0.152  1.00  0.00     0.046 C 
ATOM     24  C   UNL     1       0.954  -0.062   0.035  1.00  0.00    -0.027 A 
ATOM     25  C   UNL     1       0.427  -1.370   0.076  1.00  0.00     0.005 A 
ATOM     26  C   UNL     1      -0.931  -1.594   0.272  1.00  0.00     0.000 A 
ATOM     27  C   UNL     1      -1.267   0.791   0.424  1.00  0.00     0.026 A 
ATOM     28  C   UNL     1      -1.772  -0.512   0.473  1.00  0.00     0.002 A 
ENDBRANCH  19  22
ENDBRANCH  17  18
ENDBRANCH  16  17
ENDBRANCH   7  16
ENDBRANCH   3   6
ENDBRANCH   1   2
BRANCH   1  29
ATOM     29  C   UNL     1      -2.706   7.282  -7.849  1.00  0.00     0.023 C 
BRANCH  29  30
ATOM     30  C   UNL     1      -2.908   8.743  -8.218  1.00  0.00     0.023 C 
BRANCH  30  31
ATOM     31  C   UNL     1      -1.745   9.450  -8.901  1.00  0.00     0.116 C 
BRANCH  31  32
ATOM     32  N   UNL     1      -1.541   9.136 -10.309  1.00  0.00    -0.352 N 
ATOM     33  C   UNL     1      -0.638   9.677 -11.221  1.00  0.00     0.251 C 
ATOM     34  H   UNL     1      -2.131   8.436 -10.671  1.00  0.00     0.163 HD
ATOM     35  O   UNL     1      -0.627   9.277 -12.373  1.00  0.00    -0.269 OA
BRANCH  33  36
ATOM     36  C   UNL     1       0.406  10.637 -10.765  1.00  0.00     0.039 A 
ATOM     37  C   UNL     1       1.707  10.514 -11.278  1.00  0.00     0.014 A 
ATOM     38  C   UNL     1       0.170  11.514  -9.717  1.00  0.00     0.014 A 
ATOM     39  C   UNL     1       2.782  11.043 -10.562  1.00  0.00     0.010 A 
ATOM     40  C   UNL     1       1.226  11.904  -8.928  1.00  0.00     0.010 A 
ATOM     41  C   UNL     1       2.536  11.611  -9.316  1.00  0.00    -0.014 A 
BRANCH  41  42
ATOM     42  C   UNL     1       3.543  11.830  -8.285  1.00  0.00     0.031 A 
ATOM     43  C   UNL     1       3.847  13.197  -7.812  1.00  0.00     0.074 A 
ATOM     44  C   UNL     1       3.982  10.754  -7.594  1.00  0.00     0.049 A 
ATOM     45  N   UNL     1       4.811  13.498  -7.012  1.00  0.00    -0.248 NA
ATOM     46  C   UNL     1       3.088  14.363  -8.246  1.00  0.00     0.031 C 
ATOM     47  C   UNL     1       4.598  10.735  -6.269  1.00  0.00     0.029 A 
ATOM     48  N   UNL     1       4.115   9.431  -8.054  1.00  0.00    -0.354 N 
ATOM     49  C   UNL     1       4.627  14.797  -6.590  1.00  0.00     0.074 A 
ATOM     50  C   UNL     1       3.593  15.312  -7.453  1.00  0.00     0.031 C 
ATOM     51  C   UNL     1       5.301   9.600  -6.133  1.00  0.00     0.029 A 
ATOM     52  C   UNL     1       5.288   8.944  -7.427  1.00  0.00     0.049 A 
ATOM     53  H   UNL     1       3.523   8.949  -8.675  1.00  0.00     0.167 HD
ATOM     54  C   UNL     1       5.291  15.217  -5.472  1.00  0.00     0.037 A 
ATOM     55  C   UNL     1       6.407   8.647  -8.151  1.00  0.00     0.037 A 
ATOM     56  C   UNL     1       6.276  14.213  -5.056  1.00  0.00     0.049 A 
ATOM     57  C   UNL     1       7.630   9.435  -7.744  1.00  0.00     0.074 A 
ATOM     58  C   UNL     1       6.295  13.256  -4.054  1.00  0.00     0.029 A 
ATOM     59  N   UNL     1       7.325  13.900  -5.915  1.00  0.00    -0.354 N 
ATOM     60  N   UNL     1       7.585  10.569  -7.101  1.00  0.00    -0.248 NA
ATOM     61  C   UNL     1       8.995   9.015  -8.039  1.00  0.00     0.031 C 
ATOM     62  C   UNL     1       7.335  12.335  -4.345  1.00  0.00     0.029 A 
ATOM     63  C   UNL     1       7.960  12.743  -5.511  1.00  0.00     0.049 A 
ATOM     64  H   UNL     1       7.580  14.432  -6.704  1.00  0.00     0.167 HD
ATOM     65  C   UNL     1       8.860  11.032  -6.893  1.00  0.00     0.074 A 
ATOM     66  C   UNL     1       9.707  10.014  -7.487  1.00  0.00     0.031 C 
ATOM     67  C   UNL     1       9.098  12.217  -6.253  1.00  0.00     0.037 A 
BRANCH  54  68
ATOM     68  C   UNL     1       4.892  16.397  -4.595  1.00  0.00     0.064 A 
ATOM     69  C   UNL     1       5.319  16.466  -3.247  1.00  0.00     0.173 A 
ATOM     70  C   UNL     1       4.036  17.449  -4.974  1.00  0.00     0.173 A 
ATOM     71  F   UNL     1       6.215  15.605  -2.749  1.00  0.00    -0.203 F 
ATOM     72  C   UNL     1       4.845  17.428  -2.346  1.00  0.00     0.198 A 
ATOM     73  C   UNL     1       3.533  18.390  -4.068  1.00  0.00     0.198 A 
ATOM     74  F   UNL     1       3.693  17.660  -6.245  1.00  0.00    -0.203 F 
ATOM     75  F   UNL     1       5.279  17.424  -1.078  1.00  0.00    -0.200 F 
ATOM     76  C   UNL     1       3.927  18.373  -2.749  1.00  0.00     0.200 A 
ATOM     77  F   UNL     1       2.666  19.320  -4.494  1.00  0.00    -0.200 F 
ATOM     78  F   UNL     1       3.448  19.277  -1.885  1.00  0.00    -0.200 F 
ENDBRANCH  54  68
BRANCH  55  79
ATOM     79  C   UNL     1       6.094   8.186  -9.530  1.00  0.00     0.064 A 
ATOM     80  C   UNL     1       5.353   6.996  -9.675  1.00  0.00     0.173 A 
ATOM     81  C   UNL     1       6.132   9.061 -10.622  1.00  0.00     0.173 A 
ATOM     82  F   UNL     1       5.278   6.125  -8.656  1.00  0.00    -0.203 F 
ATOM     83  C   UNL     1       4.577   6.758 -10.807  1.00  0.00     0.198 A 
ATOM     84  C   UNL     1       5.368   8.808 -11.764  1.00  0.00     0.198 A 
ATOM     85  F   UNL     1       6.800  10.221 -10.539  1.00  0.00    -0.203 F 
ATOM     86  F   UNL     1       3.780   5.681 -10.855  1.00  0.00    -0.200 F 
ATOM     87  C   UNL     1       4.562   7.680 -11.839  1.00  0.00     0.200 A 
ATOM     88  F   UNL     1       5.325   9.716 -12.751  1.00  0.00    -0.200 F 
ATOM     89  F   UNL     1       3.736   7.509 -12.880  1.00  0.00    -0.200 F 
ENDBRANCH  55  79
BRANCH  67  90
ATOM     90  C   UNL     1      10.414  12.965  -6.174  1.00  0.00     0.064 A 
ATOM     91  C   UNL     1      11.470  12.816  -7.088  1.00  0.00     0.173 A 
ATOM     92  C   UNL     1      10.592  14.001  -5.218  1.00  0.00     0.173 A 
ATOM     93  F   UNL     1      11.389  11.967  -8.120  1.00  0.00    -0.203 F 
ATOM     94  C   UNL     1      12.633  13.591  -7.016  1.00  0.00     0.198 A 
ATOM     95  C   UNL     1      11.725  14.814  -5.189  1.00  0.00     0.198 A 
ATOM     96  F   UNL     1       9.658  14.281  -4.299  1.00  0.00    -0.203 F 
ATOM     97  F   UNL     1      13.627  13.376  -7.889  1.00  0.00    -0.200 F 
ATOM     98  C   UNL     1      12.754  14.598  -6.077  1.00  0.00     0.200 A 
ATOM     99  F   UNL     1      11.797  15.823  -4.309  1.00  0.00    -0.200 F 
ATOM    100  F   UNL     1      13.847  15.372  -6.047  1.00  0.00    -0.200 F 
ENDBRANCH  67  90
ENDBRANCH  41  42
ENDBRANCH  33  36
ENDBRANCH  31  32
ENDBRANCH  30  31
ENDBRANCH  29  30
ENDBRANCH   1  29
TORSDOF 15
