REMARK SMILES COCCN1C(=O)C[C@H](C(=O)NCCCCNC(=O)c2ccc(-c3c4nc(c(-c5c(F)c(F)c(F)c(F)c5F)c5ccc([nH]5)c(-c5c(F)c(F)c(F)c(F)c5F)c5nc(c(-c6c(F)c(F)c(F)c(F)c6F)c6ccc3[nH]6)C=C5)C=C4)cc2)[C@@H]1c1ccccc1N1CCOCC1
REMARK SMILES IDX 14 1 13 2 12 3 10 4 11 5 9 7 5 8 6 9 83 10 7 11 8 12 4 13
REMARK SMILES IDX 3 14 2 15 1 16 84 17 85 18 89 19 86 20 88 21 87 22 90 23
REMARK SMILES IDX 91 24 95 25 92 26 94 27 93 28 15 29 16 30 17 31 18 32 19 34
REMARK SMILES IDX 20 35 21 36 82 37 22 38 81 39 23 40 24 41 25 42 75 43 26 44
REMARK SMILES IDX 80 45 74 46 76 47 27 48 79 49 73 50 72 51 28 53 60 54 40 55
REMARK SMILES IDX 59 56 41 57 44 58 58 59 77 60 42 61 43 62 57 64 78 65 45 66
REMARK SMILES IDX 29 67 30 68 38 69 31 70 32 71 36 72 39 73 33 74 34 75 37 76
REMARK SMILES IDX 35 77 61 78 62 79 70 80 63 81 64 82 68 83 71 84 65 85 66 86
REMARK SMILES IDX 69 87 67 88 46 89 47 90 55 91 48 92 49 93 53 94 56 95 50 96
REMARK SMILES IDX 51 97 54 98 52 99
REMARK H PARENT 12 6 17 33 76 52 44 63
REMARK Flexibility Score: inf
ROOT
ATOM      1  C   UNL     1      -1.536   2.973   3.031  1.00  0.00     0.023 C 
ENDROOT
BRANCH   1   2
ATOM      2  C   UNL     1      -0.868   3.311   1.705  1.00  0.00     0.116 C 
BRANCH   2   3
ATOM      3  N   UNL     1       0.169   4.302   1.861  1.00  0.00    -0.356 N 
ATOM      4  C   UNL     1       1.268   4.558   1.119  1.00  0.00     0.226 C 
ATOM      5  O   UNL     1       2.030   5.422   1.575  1.00  0.00    -0.275 OA
ATOM      6  H   UNL     1       0.056   4.893   2.640  1.00  0.00     0.163 HD
BRANCH   4   7
ATOM      7  C   UNL     1       1.724   3.759  -0.080  1.00  0.00     0.115 C 
ATOM      8  N   UNL     1       1.227   1.900  -1.469  1.00  0.00    -0.332 N 
ATOM      9  C   UNL     1       2.345   1.577  -0.704  1.00  0.00     0.224 C 
ATOM     10  C   UNL     1       0.852   3.318  -1.274  1.00  0.00     0.130 C 
ATOM     11  O   UNL     1       3.126   0.661  -0.884  1.00  0.00    -0.275 OA
ATOM     12  C   UNL     1       2.398   2.505   0.454  1.00  0.00     0.116 C 
BRANCH   8  13
ATOM     13  C   UNL     1       0.946   1.128  -2.684  1.00  0.00     0.148 C 
BRANCH  13  14
ATOM     14  C   UNL     1       0.896  -0.405  -2.480  1.00  0.00     0.181 C 
BRANCH  14  15
ATOM     15  O   UNL     1      -0.106  -0.835  -1.549  1.00  0.00    -0.383 OA
ATOM     16  C   UNL     1       0.345  -0.865  -0.198  1.00  0.00     0.194 C 
ENDBRANCH  14  15
ENDBRANCH  13  14
ENDBRANCH   8  13
BRANCH  10  17
ATOM     17  C   UNL     1      -0.612   3.733  -1.373  1.00  0.00    -0.001 A 
ATOM     18  C   UNL     1      -1.625   2.748  -1.490  1.00  0.00     0.008 A 
ATOM     19  C   UNL     1      -1.014   5.103  -1.327  1.00  0.00     0.042 A 
ATOM     20  C   UNL     1      -2.977   3.078  -1.600  1.00  0.00     0.001 A 
ATOM     21  C   UNL     1      -2.390   5.399  -1.466  1.00  0.00     0.026 A 
ATOM     22  C   UNL     1      -3.360   4.407  -1.599  1.00  0.00     0.002 A 
BRANCH  19  23
ATOM     23  N   UNL     1      -0.116   6.136  -1.040  1.00  0.00    -0.367 N 
ATOM     24  C   UNL     1       0.810   6.604  -2.088  1.00  0.00     0.145 C 
ATOM     25  C   UNL     1      -0.581   7.249  -0.172  1.00  0.00     0.145 C 
ATOM     26  C   UNL     1       1.968   7.372  -1.422  1.00  0.00     0.181 C 
ATOM     27  C   UNL     1       0.602   8.069   0.368  1.00  0.00     0.181 C 
ATOM     28  O   UNL     1       1.476   8.504  -0.684  1.00  0.00    -0.378 OA
ENDBRANCH  19  23
ENDBRANCH  10  17
ENDBRANCH   4   7
ENDBRANCH   2   3
ENDBRANCH   1   2
BRANCH   1  29
ATOM     29  C   UNL     1      -2.403   4.105   3.598  1.00  0.00     0.023 C 
BRANCH  29  30
ATOM     30  C   UNL     1      -3.544   4.579   2.697  1.00  0.00     0.116 C 
BRANCH  30  31
ATOM     31  N   UNL     1      -4.451   3.503   2.328  1.00  0.00    -0.352 N 
ATOM     32  C   UNL     1      -5.781   3.328   2.617  1.00  0.00     0.251 C 
ATOM     33  H   UNL     1      -4.047   2.788   1.785  1.00  0.00     0.163 HD
ATOM     34  O   UNL     1      -6.321   2.250   2.387  1.00  0.00    -0.269 OA
BRANCH  32  35
ATOM     35  C   UNL     1      -6.568   4.425   3.220  1.00  0.00     0.039 A 
ATOM     36  C   UNL     1      -7.448   4.128   4.262  1.00  0.00     0.014 A 
ATOM     37  C   UNL     1      -6.463   5.737   2.747  1.00  0.00     0.014 A 
ATOM     38  C   UNL     1      -8.170   5.155   4.873  1.00  0.00     0.010 A 
ATOM     39  C   UNL     1      -7.124   6.771   3.409  1.00  0.00     0.010 A 
ATOM     40  C   UNL     1      -7.983   6.492   4.481  1.00  0.00    -0.014 A 
BRANCH  40  41
ATOM     41  C   UNL     1      -8.659   7.594   5.216  1.00  0.00     0.031 A 
ATOM     42  C   UNL     1      -9.666   8.478   4.533  1.00  0.00     0.074 A 
ATOM     43  C   UNL     1      -8.339   7.814   6.507  1.00  0.00     0.049 A 
ATOM     44  N   UNL     1     -10.367   9.469   5.028  1.00  0.00    -0.248 NA
ATOM     45  C   UNL     1      -9.903   8.236   3.102  1.00  0.00     0.031 C 
ATOM     46  C   UNL     1      -7.334   7.066   7.266  1.00  0.00     0.029 A 
ATOM     47  N   UNL     1      -8.826   8.723   7.412  1.00  0.00    -0.354 N 
ATOM     48  C   UNL     1     -11.126   9.962   3.975  1.00  0.00     0.074 A 
ATOM     49  C   UNL     1     -10.755   9.205   2.799  1.00  0.00     0.031 C 
ATOM     50  C   UNL     1      -7.309   7.517   8.529  1.00  0.00     0.029 A 
ATOM     51  C   UNL     1      -8.265   8.612   8.661  1.00  0.00     0.049 A 
ATOM     52  H   UNL     1      -9.513   9.392   7.188  1.00  0.00     0.167 HD
ATOM     53  C   UNL     1     -12.066  10.938   3.993  1.00  0.00     0.037 A 
ATOM     54  C   UNL     1      -8.494   9.313   9.788  1.00  0.00     0.037 A 
ATOM     55  C   UNL     1     -12.439  11.685   5.167  1.00  0.00     0.049 A 
ATOM     56  C   UNL     1      -9.535  10.400   9.773  1.00  0.00     0.074 A 
ATOM     57  C   UNL     1     -13.414  12.659   5.298  1.00  0.00     0.029 A 
ATOM     58  N   UNL     1     -11.845  11.548   6.414  1.00  0.00    -0.354 N 
ATOM     59  N   UNL     1     -10.305  10.799   8.790  1.00  0.00    -0.248 NA
ATOM     60  C   UNL     1      -9.745  11.127  11.033  1.00  0.00     0.031 C 
ATOM     61  C   UNL     1     -13.372  13.152   6.606  1.00  0.00     0.029 A 
ATOM     62  C   UNL     1     -12.415  12.440   7.311  1.00  0.00     0.049 A 
ATOM     63  H   UNL     1     -11.126  10.912   6.630  1.00  0.00     0.167 HD
ATOM     64  C   UNL     1     -11.107  11.803   9.318  1.00  0.00     0.074 A 
ATOM     65  C   UNL     1     -10.751  11.927  10.716  1.00  0.00     0.031 C 
ATOM     66  C   UNL     1     -12.048  12.559   8.700  1.00  0.00     0.037 A 
BRANCH  53  67
ATOM     67  C   UNL     1     -12.769  11.255   2.702  1.00  0.00     0.064 A 
ATOM     68  C   UNL     1     -13.666  10.351   2.111  1.00  0.00     0.173 A 
ATOM     69  C   UNL     1     -12.588  12.498   2.077  1.00  0.00     0.173 A 
ATOM     70  F   UNL     1     -13.869   9.144   2.661  1.00  0.00    -0.203 F 
ATOM     71  C   UNL     1     -14.335  10.669   0.932  1.00  0.00     0.198 A 
ATOM     72  C   UNL     1     -13.284  12.826   0.916  1.00  0.00     0.198 A 
ATOM     73  F   UNL     1     -11.748  13.403   2.600  1.00  0.00    -0.203 F 
ATOM     74  F   UNL     1     -15.151   9.771   0.363  1.00  0.00    -0.200 F 
ATOM     75  C   UNL     1     -14.151  11.910   0.341  1.00  0.00     0.200 A 
ATOM     76  F   UNL     1     -13.117  14.032   0.354  1.00  0.00    -0.200 F 
ATOM     77  F   UNL     1     -14.806  12.220  -0.787  1.00  0.00    -0.200 F 
ENDBRANCH  53  67
BRANCH  54  78
ATOM     78  C   UNL     1      -7.741   8.999  11.032  1.00  0.00     0.064 A 
ATOM     79  C   UNL     1      -8.391   8.477  12.160  1.00  0.00     0.173 A 
ATOM     80  C   UNL     1      -6.363   9.242  11.131  1.00  0.00     0.173 A 
ATOM     81  F   UNL     1      -9.712   8.245  12.123  1.00  0.00    -0.203 F 
ATOM     82  C   UNL     1      -7.700   8.243  13.347  1.00  0.00     0.198 A 
ATOM     83  C   UNL     1      -5.666   8.973  12.306  1.00  0.00     0.198 A 
ATOM     84  F   UNL     1      -5.690   9.735  10.080  1.00  0.00    -0.203 F 
ATOM     85  F   UNL     1      -8.360   7.804  14.427  1.00  0.00    -0.200 F 
ATOM     86  C   UNL     1      -6.337   8.486  13.418  1.00  0.00     0.200 A 
ATOM     87  F   UNL     1      -4.345   9.193  12.364  1.00  0.00    -0.200 F 
ATOM     88  F   UNL     1      -5.673   8.261  14.559  1.00  0.00    -0.200 F 
ENDBRANCH  54  78
BRANCH  66  89
ATOM     89  C   UNL     1     -12.775  13.568   9.545  1.00  0.00     0.064 A 
ATOM     90  C   UNL     1     -12.125  14.695  10.072  1.00  0.00     0.173 A 
ATOM     91  C   UNL     1     -14.138  13.404   9.836  1.00  0.00     0.173 A 
ATOM     92  F   UNL     1     -10.819  14.894   9.836  1.00  0.00    -0.203 F 
ATOM     93  C   UNL     1     -12.799  15.590  10.899  1.00  0.00     0.198 A 
ATOM     94  C   UNL     1     -14.818  14.323  10.630  1.00  0.00     0.198 A 
ATOM     95  F   UNL     1     -14.812  12.351   9.351  1.00  0.00    -0.203 F 
ATOM     96  F   UNL     1     -12.137  16.616  11.452  1.00  0.00    -0.200 F 
ATOM     97  C   UNL     1     -14.145  15.406  11.174  1.00  0.00     0.200 A 
ATOM     98  F   UNL     1     -16.124  14.153  10.880  1.00  0.00    -0.200 F 
ATOM     99  F   UNL     1     -14.791  16.267  11.972  1.00  0.00    -0.200 F 
ENDBRANCH  66  89
ENDBRANCH  40  41
ENDBRANCH  32  35
ENDBRANCH  30  31
ENDBRANCH  29  30
ENDBRANCH   1  29
TORSDOF 16
