REMARK SMILES CCCCCNC(=O)Oc1cccc(-c2ccc([C@@H](C)C(=O)NCCCCNC(=O)c3ccc(-c4c5nc(c(-c6c(F)c(F)c(F)c(F)c6F)c6ccc([nH]6)c(-c6c(F)c(F)c(F)c(F)c6F)c6nc(c(-c7c(F)c(F)c(F)c(F)c7F)c7ccc4[nH]7)C=C6)C=C5)cc3)cc2F)c1
REMARK SMILES IDX 19 1 20 2 18 3 15 4 16 5 95 6 17 7 94 8 96 9 14 10 10 11
REMARK SMILES IDX 11 12 97 13 12 14 13 15 9 16 7 17 6 18 8 20 5 21 4 22 3 23
REMARK SMILES IDX 2 24 1 25 21 26 22 27 23 28 24 30 25 31 26 32 27 33 28 34
REMARK SMILES IDX 29 35 30 37 31 38 32 39 93 40 33 41 92 42 34 43 35 44 36 45
REMARK SMILES IDX 86 46 37 47 91 48 85 49 87 50 38 51 90 52 84 53 83 54 39 56
REMARK SMILES IDX 71 57 51 58 70 59 52 60 55 61 69 62 88 63 53 64 54 65 68 67
REMARK SMILES IDX 89 68 56 69 40 70 41 71 49 72 42 73 43 74 47 75 50 76 44 77
REMARK SMILES IDX 45 78 48 79 46 80 72 81 73 82 81 83 74 84 75 85 79 86 82 87
REMARK SMILES IDX 76 88 77 89 80 90 78 91 57 92 58 93 66 94 59 95 60 96 64 97
REMARK SMILES IDX 67 98 61 99 62 100 65 101 63 102
REMARK H PARENT 6 19 23 29 28 36 87 55 55 66
REMARK Flexibility Score: inf
ROOT
ATOM      1  C   UNL     1      -2.599   7.739  11.651  1.00  0.00     0.105 C 
ATOM      2  C   UNL     1      -3.121   9.080  12.167  1.00  0.00     0.023 C 
ENDROOT
BRANCH   1   3
ATOM      3  C   UNL     1      -2.882   7.435  10.189  1.00  0.00    -0.033 A 
ATOM      4  C   UNL     1      -3.399   6.652   7.474  1.00  0.00     0.018 A 
ATOM      5  C   UNL     1      -4.372   7.284   8.268  1.00  0.00     0.012 A 
ATOM      6  C   UNL     1      -2.144   6.466   8.076  1.00  0.00     0.131 A 
ATOM      7  C   UNL     1      -4.106   7.707   9.576  1.00  0.00     0.005 A 
ATOM      8  C   UNL     1      -1.894   6.822   9.406  1.00  0.00     0.044 A 
ATOM      9  F   UNL     1      -1.121   5.940   7.383  1.00  0.00    -0.206 F 
BRANCH   4  10
ATOM     10  C   UNL     1      -3.713   6.216   6.089  1.00  0.00    -0.012 A 
ATOM     11  C   UNL     1      -3.401   4.725   4.187  1.00  0.00     0.133 A 
ATOM     12  C   UNL     1      -4.353   5.411   3.441  1.00  0.00     0.047 A 
ATOM     13  C   UNL     1      -3.083   5.109   5.493  1.00  0.00     0.056 A 
ATOM     14  C   UNL     1      -4.999   6.499   4.010  1.00  0.00     0.004 A 
ATOM     15  C   UNL     1      -4.671   6.901   5.309  1.00  0.00     0.009 A 
BRANCH  11  16
ATOM     16  O   UNL     1      -2.674   3.736   3.503  1.00  0.00    -0.410 OA
BRANCH  16  17
ATOM     17  C   UNL     1      -2.446   2.499   4.086  1.00  0.00     0.412 C 
ATOM     18  N   UNL     1      -1.619   1.710   3.333  1.00  0.00    -0.321 N 
ATOM     19  H   UNL     1      -1.427   0.809   3.679  1.00  0.00     0.167 HD
ATOM     20  O   UNL     1      -2.918   2.102   5.143  1.00  0.00    -0.224 OA
BRANCH  18  21
ATOM     21  C   UNL     1      -1.000   2.072   2.073  1.00  0.00     0.119 C 
BRANCH  21  22
ATOM     22  C   UNL     1       0.525   2.014   2.144  1.00  0.00     0.021 C 
BRANCH  22  23
ATOM     23  C   UNL     1       1.107   0.612   2.361  1.00  0.00     0.002 C 
BRANCH  23  24
ATOM     24  C   UNL     1       0.700  -0.441   1.327  1.00  0.00    -0.003 C 
ATOM     25  C   UNL     1       1.093  -0.079  -0.097  1.00  0.00     0.004 C 
ENDBRANCH  23  24
ENDBRANCH  22  23
ENDBRANCH  21  22
ENDBRANCH  18  21
ENDBRANCH  16  17
ENDBRANCH  11  16
ENDBRANCH   4  10
ENDBRANCH   1   3
BRANCH   1  26
ATOM     26  C   UNL     1      -2.885   6.560  12.596  1.00  0.00     0.227 C 
ATOM     27  O   UNL     1      -1.947   5.947  13.119  1.00  0.00    -0.274 OA
ATOM     28  N   UNL     1      -4.137   6.138  12.925  1.00  0.00    -0.356 N 
ATOM     29  H   UNL     1      -4.159   5.425  13.603  1.00  0.00     0.163 HD
BRANCH  28  30
ATOM     30  C   UNL     1      -5.441   6.553  12.456  1.00  0.00     0.116 C 
BRANCH  30  31
ATOM     31  C   UNL     1      -5.945   5.676  11.309  1.00  0.00     0.023 C 
BRANCH  31  32
ATOM     32  C   UNL     1      -6.696   4.417  11.737  1.00  0.00     0.023 C 
BRANCH  32  33
ATOM     33  C   UNL     1      -7.963   4.666  12.543  1.00  0.00     0.116 C 
BRANCH  33  34
ATOM     34  N   UNL     1      -8.936   5.519  11.877  1.00  0.00    -0.352 N 
ATOM     35  C   UNL     1     -10.304   5.522  12.018  1.00  0.00     0.251 C 
ATOM     36  H   UNL     1      -8.568   6.178  11.245  1.00  0.00     0.163 HD
ATOM     37  O   UNL     1     -10.999   6.253  11.321  1.00  0.00    -0.269 OA
BRANCH  35  38
ATOM     38  C   UNL     1     -10.936   4.604  12.990  1.00  0.00     0.039 A 
ATOM     39  C   UNL     1     -12.052   3.864  12.592  1.00  0.00     0.014 A 
ATOM     40  C   UNL     1     -10.417   4.456  14.278  1.00  0.00     0.014 A 
ATOM     41  C   UNL     1     -12.618   2.942  13.473  1.00  0.00     0.010 A 
ATOM     42  C   UNL     1     -10.921   3.471  15.119  1.00  0.00     0.010 A 
ATOM     43  C   UNL     1     -12.043   2.724  14.736  1.00  0.00    -0.014 A 
BRANCH  43  44
ATOM     44  C   UNL     1     -12.638   1.761  15.694  1.00  0.00     0.031 A 
ATOM     45  C   UNL     1     -13.210   2.259  16.993  1.00  0.00     0.074 A 
ATOM     46  C   UNL     1     -12.623   0.444  15.420  1.00  0.00     0.049 A 
ATOM     47  N   UNL     1     -13.768   1.586  17.967  1.00  0.00    -0.248 NA
ATOM     48  C   UNL     1     -13.106   3.704  17.248  1.00  0.00     0.031 C 
ATOM     49  C   UNL     1     -12.041  -0.166  14.224  1.00  0.00     0.029 A 
ATOM     50  N   UNL     1     -13.115  -0.621  16.131  1.00  0.00    -0.354 N 
ATOM     51  C   UNL     1     -14.057   2.521  18.953  1.00  0.00     0.074 A 
ATOM     52  C   UNL     1     -13.550   3.794  18.491  1.00  0.00     0.031 C 
ATOM     53  C   UNL     1     -12.253  -1.492  14.260  1.00  0.00     0.029 A 
ATOM     54  C   UNL     1     -12.961  -1.826  15.492  1.00  0.00     0.049 A 
ATOM     55  H   UNL     1     -13.539  -0.530  17.015  1.00  0.00     0.167 HD
ATOM     56  C   UNL     1     -14.716   2.343  20.122  1.00  0.00     0.037 A 
ATOM     57  C   UNL     1     -13.368  -3.057  15.854  1.00  0.00     0.037 A 
ATOM     58  C   UNL     1     -15.254   1.082  20.556  1.00  0.00     0.049 A 
ATOM     59  C   UNL     1     -14.124  -3.228  17.144  1.00  0.00     0.074 A 
ATOM     60  C   UNL     1     -15.999   0.801  21.687  1.00  0.00     0.029 A 
ATOM     61  N   UNL     1     -15.100  -0.115  19.869  1.00  0.00    -0.354 N 
ATOM     62  N   UNL     1     -14.470  -2.325  18.029  1.00  0.00    -0.248 NA
ATOM     63  C   UNL     1     -14.561  -4.591  17.474  1.00  0.00     0.031 C 
ATOM     64  C   UNL     1     -16.262  -0.574  21.705  1.00  0.00     0.029 A 
ATOM     65  C   UNL     1     -15.724  -1.140  20.560  1.00  0.00     0.049 A 
ATOM     66  H   UNL     1     -14.619  -0.218  19.017  1.00  0.00     0.167 HD
ATOM     67  C   UNL     1     -15.199  -2.999  18.999  1.00  0.00     0.074 A 
ATOM     68  C   UNL     1     -15.250  -4.388  18.588  1.00  0.00     0.031 C 
ATOM     69  C   UNL     1     -15.779  -2.513  20.125  1.00  0.00     0.037 A 
BRANCH  56  70
ATOM     70  C   UNL     1     -14.887   3.548  21.004  1.00  0.00     0.064 A 
ATOM     71  C   UNL     1     -15.701   4.629  20.630  1.00  0.00     0.173 A 
ATOM     72  C   UNL     1     -14.215   3.631  22.232  1.00  0.00     0.173 A 
ATOM     73  F   UNL     1     -16.355   4.608  19.458  1.00  0.00    -0.203 F 
ATOM     74  C   UNL     1     -15.796   5.767  21.427  1.00  0.00     0.198 A 
ATOM     75  C   UNL     1     -14.340   4.756  23.044  1.00  0.00     0.198 A 
ATOM     76  F   UNL     1     -13.427   2.626  22.643  1.00  0.00    -0.203 F 
ATOM     77  F   UNL     1     -16.520   6.816  21.010  1.00  0.00    -0.200 F 
ATOM     78  C   UNL     1     -15.119   5.828  22.634  1.00  0.00     0.200 A 
ATOM     79  F   UNL     1     -13.694   4.810  24.217  1.00  0.00    -0.200 F 
ATOM     80  F   UNL     1     -15.206   6.926  23.398  1.00  0.00    -0.200 F 
ENDBRANCH  56  70
BRANCH  57  81
ATOM     81  C   UNL     1     -13.143  -4.208  14.943  1.00  0.00     0.064 A 
ATOM     82  C   UNL     1     -14.217  -4.789  14.253  1.00  0.00     0.173 A 
ATOM     83  C   UNL     1     -11.866  -4.744  14.733  1.00  0.00     0.173 A 
ATOM     84  F   UNL     1     -15.461  -4.322  14.436  1.00  0.00    -0.203 F 
ATOM     85  C   UNL     1     -14.024  -5.873  13.401  1.00  0.00     0.198 A 
ATOM     86  C   UNL     1     -11.670  -5.814  13.861  1.00  0.00     0.198 A 
ATOM     87  F   UNL     1     -10.805  -4.220  15.365  1.00  0.00    -0.203 F 
ATOM     88  F   UNL     1     -15.074  -6.433  12.784  1.00  0.00    -0.200 F 
ATOM     89  C   UNL     1     -12.750  -6.381  13.201  1.00  0.00     0.200 A 
ATOM     90  F   UNL     1     -10.435  -6.295  13.660  1.00  0.00    -0.200 F 
ATOM     91  F   UNL     1     -12.563  -7.421  12.377  1.00  0.00    -0.200 F 
ENDBRANCH  57  81
BRANCH  69  92
ATOM     92  C   UNL     1     -16.567  -3.479  20.961  1.00  0.00     0.064 A 
ATOM     93  C   UNL     1     -15.945  -4.481  21.720  1.00  0.00     0.173 A 
ATOM     94  C   UNL     1     -17.965  -3.379  21.022  1.00  0.00     0.173 A 
ATOM     95  F   UNL     1     -14.612  -4.625  21.684  1.00  0.00    -0.203 F 
ATOM     96  C   UNL     1     -16.697  -5.369  22.484  1.00  0.00     0.198 A 
ATOM     97  C   UNL     1     -18.712  -4.249  21.812  1.00  0.00     0.198 A 
ATOM     98  F   UNL     1     -18.608  -2.433  20.322  1.00  0.00    -0.203 F 
ATOM     99  F   UNL     1     -16.087  -6.353  23.157  1.00  0.00    -0.200 F 
ATOM    100  C   UNL     1     -18.078  -5.249  22.534  1.00  0.00     0.200 A 
ATOM    101  F   UNL     1     -20.045  -4.122  21.870  1.00  0.00    -0.200 F 
ATOM    102  F   UNL     1     -18.800  -6.103  23.272  1.00  0.00    -0.200 F 
ENDBRANCH  69  92
ENDBRANCH  43  44
ENDBRANCH  35  38
ENDBRANCH  33  34
ENDBRANCH  32  33
ENDBRANCH  31  32
ENDBRANCH  30  31
ENDBRANCH  28  30
ENDBRANCH   1  26
TORSDOF 19
