REMARK SMILES CCOc1cc(NC(=O)c2c(C(=O)NCCCCNC(=O)c3ccc(-c4c5nc(c(-c6c(F)c(F)c(F)c(F)c6F)c6ccc([nH]6)c(-c6c(F)c(F)c(F)c(F)c6F)c6nc(c(-c7c(F)c(F)c(F)c(F)c7F)c7ccc4[nH]7)C=C6)C=C5)cc3)cnn2C)ccc1OC(F)F
REMARK SMILES IDX 15 1 14 2 12 3 13 4 11 6 10 7 87 8 85 9 86 10 88 11 8 12
REMARK SMILES IDX 7 13 9 15 6 16 4 17 5 18 91 19 90 20 89 21 3 22 2 23 1 24
REMARK SMILES IDX 92 25 93 26 94 27 95 28 16 29 17 30 18 31 19 32 20 33 21 35
REMARK SMILES IDX 22 36 23 37 84 38 24 39 83 40 25 41 26 42 27 43 77 44 28 45
REMARK SMILES IDX 82 46 76 47 78 48 29 49 81 50 75 51 74 52 30 54 62 55 42 56
REMARK SMILES IDX 61 57 43 58 46 59 60 60 79 61 44 62 45 63 59 65 80 66 47 67
REMARK SMILES IDX 31 68 32 69 40 70 33 71 34 72 38 73 41 74 35 75 36 76 39 77
REMARK SMILES IDX 37 78 63 79 64 80 72 81 65 82 66 83 70 84 73 85 67 86 68 87
REMARK SMILES IDX 71 88 69 89 48 90 49 91 57 92 50 93 51 94 55 95 58 96 52 97
REMARK SMILES IDX 53 98 56 99 54 100
REMARK H PARENT 14 5 7 14 19 34 78 53 46 64
REMARK Flexibility Score: inf
ROOT
ATOM      1  C   UNL     1       3.615   4.486  -5.740  1.00  0.00     0.116 C 
ENDROOT
BRANCH   1   2
ATOM      2  N   UNL     1       2.452   5.285  -6.041  1.00  0.00    -0.352 N 
ATOM      3  C   UNL     1       1.508   5.868  -5.240  1.00  0.00     0.255 C 
ATOM      4  O   UNL     1       0.600   6.459  -5.828  1.00  0.00    -0.269 OA
ATOM      5  H   UNL     1       2.311   5.440  -7.003  1.00  0.00     0.163 HD
BRANCH   3   6
ATOM      6  C   UNL     1       1.490   5.770  -3.788  1.00  0.00     0.090 A 
ATOM      7  C   UNL     1       2.476   5.667  -2.808  1.00  0.00     0.138 A 
ATOM      8  N   UNL     1       1.817   5.793  -1.604  1.00  0.00    -0.262 N 
ATOM      9  C   UNL     1       0.286   5.853  -3.035  1.00  0.00     0.149 A 
ATOM     10  N   UNL     1       0.479   5.797  -1.719  1.00  0.00    -0.180 NA
ATOM     11  C   UNL     1       2.387   5.889  -0.279  1.00  0.00     0.174 C 
BRANCH   7  12
ATOM     12  C   UNL     1       3.899   5.625  -2.904  1.00  0.00     0.274 C 
ATOM     13  N   UNL     1       4.604   4.483  -2.601  1.00  0.00    -0.321 N 
ATOM     14  H   UNL     1       5.579   4.619  -2.633  1.00  0.00     0.170 HD
ATOM     15  O   UNL     1       4.553   6.609  -3.270  1.00  0.00    -0.267 OA
BRANCH  13  16
ATOM     16  C   UNL     1       4.251   3.161  -2.254  1.00  0.00     0.045 A 
ATOM     17  C   UNL     1       2.719   1.347  -1.671  1.00  0.00     0.163 A 
ATOM     18  C   UNL     1       2.958   2.685  -2.038  1.00  0.00     0.076 A 
ATOM     19  C   UNL     1       3.781   0.442  -1.608  1.00  0.00     0.168 A 
ATOM     20  C   UNL     1       5.073   0.901  -1.871  1.00  0.00     0.053 A 
ATOM     21  C   UNL     1       5.309   2.249  -2.161  1.00  0.00     0.030 A 
BRANCH  17  22
ATOM     22  O   UNL     1       1.442   0.897  -1.463  1.00  0.00    -0.490 OA
BRANCH  22  23
ATOM     23  C   UNL     1       0.649   1.750  -0.626  1.00  0.00     0.226 C 
ATOM     24  C   UNL     1      -0.381   0.897   0.094  1.00  0.00     0.049 C 
ENDBRANCH  22  23
ENDBRANCH  17  22
BRANCH  19  25
ATOM     25  O   UNL     1       3.703  -0.901  -1.373  1.00  0.00    -0.431 OA
BRANCH  25  26
ATOM     26  C   UNL     1       2.801  -1.347  -0.365  1.00  0.00     0.542 C 
ATOM     27  F   UNL     1       2.683  -0.438   0.632  1.00  0.00    -0.167 F 
ATOM     28  F   UNL     1       1.583  -1.586  -0.901  1.00  0.00    -0.167 F 
ENDBRANCH  25  26
ENDBRANCH  19  25
ENDBRANCH  13  16
ENDBRANCH   7  12
ENDBRANCH   3   6
ENDBRANCH   1   2
BRANCH   1  29
ATOM     29  C   UNL     1       4.125   3.648  -6.913  1.00  0.00     0.023 C 
BRANCH  29  30
ATOM     30  C   UNL     1       4.361   4.383  -8.236  1.00  0.00     0.023 C 
BRANCH  30  31
ATOM     31  C   UNL     1       5.095   5.720  -8.154  1.00  0.00     0.116 C 
BRANCH  31  32
ATOM     32  N   UNL     1       6.464   5.600  -7.684  1.00  0.00    -0.352 N 
ATOM     33  C   UNL     1       7.665   5.637  -8.349  1.00  0.00     0.251 C 
ATOM     34  H   UNL     1       6.546   5.469  -6.712  1.00  0.00     0.163 HD
ATOM     35  O   UNL     1       8.696   5.376  -7.732  1.00  0.00    -0.269 OA
BRANCH  33  36
ATOM     36  C   UNL     1       7.752   5.942  -9.798  1.00  0.00     0.039 A 
ATOM     37  C   UNL     1       8.640   5.193 -10.580  1.00  0.00     0.014 A 
ATOM     38  C   UNL     1       7.025   6.977 -10.391  1.00  0.00     0.014 A 
ATOM     39  C   UNL     1       8.726   5.413 -11.958  1.00  0.00     0.010 A 
ATOM     40  C   UNL     1       7.062   7.155 -11.776  1.00  0.00     0.010 A 
ATOM     41  C   UNL     1       7.898   6.362 -12.576  1.00  0.00    -0.014 A 
BRANCH  41  42
ATOM     42  C   UNL     1       7.853   6.505 -14.055  1.00  0.00     0.031 A 
ATOM     43  C   UNL     1       8.289   7.779 -14.720  1.00  0.00     0.074 A 
ATOM     44  C   UNL     1       7.333   5.510 -14.801  1.00  0.00     0.049 A 
ATOM     45  N   UNL     1       8.159   8.144 -15.972  1.00  0.00    -0.248 NA
ATOM     46  C   UNL     1       8.936   8.782 -13.863  1.00  0.00     0.031 C 
ATOM     47  C   UNL     1       6.844   4.231 -14.285  1.00  0.00     0.029 A 
ATOM     48  N   UNL     1       7.112   5.428 -16.154  1.00  0.00    -0.354 N 
ATOM     49  C   UNL     1       8.663   9.435 -16.043  1.00  0.00     0.074 A 
ATOM     50  C   UNL     1       9.109   9.788 -14.711  1.00  0.00     0.031 C 
ATOM     51  C   UNL     1       6.395   3.486 -15.308  1.00  0.00     0.029 A 
ATOM     52  C   UNL     1       6.526   4.250 -16.544  1.00  0.00     0.049 A 
ATOM     53  H   UNL     1       7.352   6.146 -16.784  1.00  0.00     0.167 HD
ATOM     54  C   UNL     1       8.741  10.253 -17.120  1.00  0.00     0.037 A 
ATOM     55  C   UNL     1       6.119   3.836 -17.758  1.00  0.00     0.037 A 
ATOM     56  C   UNL     1       8.353   9.892 -18.457  1.00  0.00     0.049 A 
ATOM     57  C   UNL     1       6.269   4.740 -18.945  1.00  0.00     0.074 A 
ATOM     58  C   UNL     1       8.450  10.642 -19.618  1.00  0.00     0.029 A 
ATOM     59  N   UNL     1       7.806   8.670 -18.817  1.00  0.00    -0.354 N 
ATOM     60  N   UNL     1       6.743   5.960 -18.997  1.00  0.00    -0.248 NA
ATOM     61  C   UNL     1       5.816   4.214 -20.241  1.00  0.00     0.031 C 
ATOM     62  C   UNL     1       7.951   9.876 -20.679  1.00  0.00     0.029 A 
ATOM     63  C   UNL     1       7.558   8.646 -20.180  1.00  0.00     0.049 A 
ATOM     64  H   UNL     1       7.620   7.930 -18.195  1.00  0.00     0.167 HD
ATOM     65  C   UNL     1       6.649   6.347 -20.325  1.00  0.00     0.074 A 
ATOM     66  C   UNL     1       6.083   5.229 -21.052  1.00  0.00     0.031 C 
ATOM     67  C   UNL     1       6.998   7.527 -20.889  1.00  0.00     0.037 A 
BRANCH  54  68
ATOM     68  C   UNL     1       9.260  11.638 -16.893  1.00  0.00     0.064 A 
ATOM     69  C   UNL     1      10.634  11.898 -16.796  1.00  0.00     0.173 A 
ATOM     70  C   UNL     1       8.370  12.720 -16.816  1.00  0.00     0.173 A 
ATOM     71  F   UNL     1      11.517  10.890 -16.853  1.00  0.00    -0.203 F 
ATOM     72  C   UNL     1      11.100  13.197 -16.615  1.00  0.00     0.198 A 
ATOM     73  C   UNL     1       8.840  14.019 -16.648  1.00  0.00     0.198 A 
ATOM     74  F   UNL     1       7.047  12.516 -16.906  1.00  0.00    -0.203 F 
ATOM     75  F   UNL     1      12.416  13.425 -16.499  1.00  0.00    -0.200 F 
ATOM     76  C   UNL     1      10.204  14.255 -16.546  1.00  0.00     0.200 A 
ATOM     77  F   UNL     1       7.975  15.042 -16.585  1.00  0.00    -0.200 F 
ATOM     78  F   UNL     1      10.656  15.505 -16.374  1.00  0.00    -0.200 F 
ENDBRANCH  54  68
BRANCH  55  79
ATOM     79  C   UNL     1       5.526   2.486 -17.907  1.00  0.00     0.064 A 
ATOM     80  C   UNL     1       6.289   1.425 -18.411  1.00  0.00     0.173 A 
ATOM     81  C   UNL     1       4.201   2.230 -17.530  1.00  0.00     0.173 A 
ATOM     82  F   UNL     1       7.555   1.637 -18.800  1.00  0.00    -0.203 F 
ATOM     83  C   UNL     1       5.745   0.150 -18.537  1.00  0.00     0.198 A 
ATOM     84  C   UNL     1       3.662   0.951 -17.645  1.00  0.00     0.198 A 
ATOM     85  F   UNL     1       3.438   3.219 -17.043  1.00  0.00    -0.203 F 
ATOM     86  F   UNL     1       6.487  -0.847 -19.040  1.00  0.00    -0.200 F 
ATOM     87  C   UNL     1       4.434  -0.086 -18.149  1.00  0.00     0.200 A 
ATOM     88  F   UNL     1       2.397   0.723 -17.265  1.00  0.00    -0.200 F 
ATOM     89  F   UNL     1       3.912  -1.315 -18.267  1.00  0.00    -0.200 F 
ENDBRANCH  55  79
BRANCH  67  90
ATOM     90  C   UNL     1       6.790   7.664 -22.363  1.00  0.00     0.064 A 
ATOM     91  C   UNL     1       5.533   7.996 -22.889  1.00  0.00     0.173 A 
ATOM     92  C   UNL     1       7.860   7.490 -23.253  1.00  0.00     0.173 A 
ATOM     93  F   UNL     1       4.481   8.155 -22.072  1.00  0.00    -0.203 F 
ATOM     94  C   UNL     1       5.353   8.142 -24.261  1.00  0.00     0.198 A 
ATOM     95  C   UNL     1       7.678   7.646 -24.624  1.00  0.00     0.198 A 
ATOM     96  F   UNL     1       9.077   7.167 -22.791  1.00  0.00    -0.203 F 
ATOM     97  F   UNL     1       4.139   8.438 -24.748  1.00  0.00    -0.200 F 
ATOM     98  C   UNL     1       6.425   7.970 -25.126  1.00  0.00     0.200 A 
ATOM     99  F   UNL     1       8.712   7.478 -25.460  1.00  0.00    -0.200 F 
ATOM    100  F   UNL     1       6.248   8.109 -26.447  1.00  0.00    -0.200 F 
ENDBRANCH  67  90
ENDBRANCH  41  42
ENDBRANCH  33  36
ENDBRANCH  31  32
ENDBRANCH  30  31
ENDBRANCH  29  30
ENDBRANCH   1  29
TORSDOF 17
