REMARK SMILES COc1cc(Cl)cc(/C=C/C(=O)NCCCCNC(=O)c2ccc(-c3c4nc(c(-c5c(F)c(F)c(F)c(F)c5F)c5ccc([nH]5)c(-c5c(F)c(F)c(F)c(F)c5F)c5nc(c(-c6c(F)c(F)c(F)c(F)c6F)c6ccc3[nH]6)C=C5)C=C4)cc2)c1OC
REMARK SMILES IDX 15 1 14 2 13 3 11 4 12 5 10 7 9 8 8 9 3 10 4 11 84 12 5 13
REMARK SMILES IDX 6 14 7 15 2 16 1 17 85 18 86 19 16 20 17 21 18 22 19 23
REMARK SMILES IDX 20 25 21 26 22 27 83 28 23 29 82 30 24 31 25 32 26 33 76 34
REMARK SMILES IDX 27 35 81 36 75 37 77 38 28 39 80 40 74 41 73 42 29 44 61 45
REMARK SMILES IDX 41 46 60 47 42 48 45 49 59 50 78 51 43 52 44 53 58 55 79 56
REMARK SMILES IDX 46 57 30 58 31 59 39 60 32 61 33 62 37 63 40 64 34 65 35 66
REMARK SMILES IDX 38 67 36 68 62 69 63 70 71 71 64 72 65 73 69 74 72 75 66 76
REMARK SMILES IDX 67 77 70 78 68 79 47 80 48 81 56 82 49 83 50 84 54 85 57 86
REMARK SMILES IDX 51 87 52 88 55 89 53 90
REMARK H PARENT 13 6 18 24 77 43 45 54
REMARK Flexibility Score: inf
ROOT
ATOM      1  C   UNL     1      -4.258   0.057   5.756  1.00  0.00     0.023 C 
ENDROOT
BRANCH   1   2
ATOM      2  C   UNL     1      -3.401   1.133   6.423  1.00  0.00     0.116 C 
BRANCH   2   3
ATOM      3  N   UNL     1      -2.766   0.623   7.624  1.00  0.00    -0.353 N 
ATOM      4  C   UNL     1      -1.464   0.305   7.858  1.00  0.00     0.244 C 
ATOM      5  O   UNL     1      -1.111  -0.032   8.985  1.00  0.00    -0.270 OA
ATOM      6  H   UNL     1      -3.372   0.485   8.388  1.00  0.00     0.163 HD
BRANCH   4   7
ATOM      7  C   UNL     1      -0.449   0.452   6.792  1.00  0.00     0.072 C 
ATOM      8  C   UNL     1      -0.579  -0.057   5.558  1.00  0.00     0.018 C 
BRANCH   8   9
ATOM      9  C   UNL     1       0.435   0.100   4.497  1.00  0.00     0.022 A 
ATOM     10  C   UNL     1       1.050   0.552   2.188  1.00  0.00     0.162 A 
ATOM     11  C   UNL     1       2.394   0.322   2.511  1.00  0.00     0.071 A 
ATOM     12  C   UNL     1       0.056   0.470   3.180  1.00  0.00     0.168 A 
ATOM     13  C   UNL     1       2.749  -0.046   3.804  1.00  0.00     0.045 A 
ATOM     14  Cl  UNL     1       4.399  -0.356   4.181  1.00  0.00    -0.084 Cl
ATOM     15  C   UNL     1       1.780  -0.169   4.792  1.00  0.00     0.032 A 
BRANCH  10  16
ATOM     16  O   UNL     1       0.748   0.932   0.905  1.00  0.00    -0.493 OA
ATOM     17  C   UNL     1       1.074  -0.081  -0.049  1.00  0.00     0.278 C 
ENDBRANCH  10  16
BRANCH  12  18
ATOM     18  O   UNL     1      -1.290   0.705   3.024  1.00  0.00    -0.492 OA
ATOM     19  C   UNL     1      -1.779   1.167   1.774  1.00  0.00     0.278 C 
ENDBRANCH  12  18
ENDBRANCH   8   9
ENDBRANCH   4   7
ENDBRANCH   2   3
ENDBRANCH   1   2
BRANCH   1  20
ATOM     20  C   UNL     1      -5.594  -0.211   6.457  1.00  0.00     0.023 C 
BRANCH  20  21
ATOM     21  C   UNL     1      -6.543   0.982   6.522  1.00  0.00     0.116 C 
BRANCH  21  22
ATOM     22  N   UNL     1      -6.865   1.536   5.216  1.00  0.00    -0.352 N 
ATOM     23  C   UNL     1      -8.034   2.128   4.799  1.00  0.00     0.251 C 
ATOM     24  H   UNL     1      -6.152   1.479   4.540  1.00  0.00     0.163 HD
ATOM     25  O   UNL     1      -8.183   2.455   3.629  1.00  0.00    -0.269 OA
BRANCH  23  26
ATOM     26  C   UNL     1      -9.130   2.327   5.770  1.00  0.00     0.039 A 
ATOM     27  C   UNL     1     -10.414   1.899   5.427  1.00  0.00     0.014 A 
ATOM     28  C   UNL     1      -8.886   2.905   7.019  1.00  0.00     0.014 A 
ATOM     29  C   UNL     1     -11.442   1.983   6.367  1.00  0.00     0.010 A 
ATOM     30  C   UNL     1      -9.896   2.931   7.975  1.00  0.00     0.010 A 
ATOM     31  C   UNL     1     -11.181   2.464   7.661  1.00  0.00    -0.014 A 
BRANCH  31  32
ATOM     32  C   UNL     1     -12.236   2.472   8.703  1.00  0.00     0.031 A 
ATOM     33  C   UNL     1     -12.743   3.772   9.256  1.00  0.00     0.074 A 
ATOM     34  C   UNL     1     -12.693   1.303   9.194  1.00  0.00     0.049 A 
ATOM     35  N   UNL     1     -13.604   3.982  10.220  1.00  0.00    -0.248 NA
ATOM     36  C   UNL     1     -12.191   5.000   8.664  1.00  0.00     0.031 C 
ATOM     37  C   UNL     1     -12.248  -0.024   8.767  1.00  0.00     0.029 A 
ATOM     38  N   UNL     1     -13.627   1.045  10.164  1.00  0.00    -0.354 N 
ATOM     39  C   UNL     1     -13.690   5.361  10.354  1.00  0.00     0.074 A 
ATOM     40  C   UNL     1     -12.756   5.938   9.411  1.00  0.00     0.031 C 
ATOM     41  C   UNL     1     -12.929  -0.957   9.451  1.00  0.00     0.029 A 
ATOM     42  C   UNL     1     -13.831  -0.295  10.389  1.00  0.00     0.049 A 
ATOM     43  H   UNL     1     -14.107   1.752  10.653  1.00  0.00     0.167 HD
ATOM     44  C   UNL     1     -14.493   6.080  11.173  1.00  0.00     0.037 A 
ATOM     45  C   UNL     1     -14.652  -0.918  11.256  1.00  0.00     0.037 A 
ATOM     46  C   UNL     1     -15.434   5.504  12.098  1.00  0.00     0.049 A 
ATOM     47  C   UNL     1     -15.531  -0.096  12.156  1.00  0.00     0.074 A 
ATOM     48  C   UNL     1     -16.311   6.150  12.952  1.00  0.00     0.029 A 
ATOM     49  N   UNL     1     -15.622   4.143  12.286  1.00  0.00    -0.354 N 
ATOM     50  N   UNL     1     -15.629   1.208  12.251  1.00  0.00    -0.248 NA
ATOM     51  C   UNL     1     -16.419  -0.832  13.067  1.00  0.00     0.031 C 
ATOM     52  C   UNL     1     -17.008   5.180  13.679  1.00  0.00     0.029 A 
ATOM     53  C   UNL     1     -16.598   3.929  13.247  1.00  0.00     0.049 A 
ATOM     54  H   UNL     1     -15.135   3.433  11.807  1.00  0.00     0.167 HD
ATOM     55  C   UNL     1     -16.602   1.449  13.210  1.00  0.00     0.074 A 
ATOM     56  C   UNL     1     -17.076   0.155  13.659  1.00  0.00     0.031 C 
ATOM     57  C   UNL     1     -17.062   2.635  13.677  1.00  0.00     0.037 A 
BRANCH  44  58
ATOM     58  C   UNL     1     -14.399   7.575  11.095  1.00  0.00     0.064 A 
ATOM     59  C   UNL     1     -14.886   8.280   9.983  1.00  0.00     0.173 A 
ATOM     60  C   UNL     1     -13.853   8.315  12.153  1.00  0.00     0.173 A 
ATOM     61  F   UNL     1     -15.405   7.617   8.938  1.00  0.00    -0.203 F 
ATOM     62  C   UNL     1     -14.809   9.668   9.925  1.00  0.00     0.198 A 
ATOM     63  C   UNL     1     -13.803   9.706  12.104  1.00  0.00     0.198 A 
ATOM     64  F   UNL     1     -13.376   7.691  13.241  1.00  0.00    -0.203 F 
ATOM     65  F   UNL     1     -15.242  10.316   8.834  1.00  0.00    -0.200 F 
ATOM     66  C   UNL     1     -14.275  10.381  10.988  1.00  0.00     0.200 A 
ATOM     67  F   UNL     1     -13.297  10.394  13.137  1.00  0.00    -0.200 F 
ATOM     68  F   UNL     1     -14.210  11.718  10.934  1.00  0.00    -0.200 F 
ENDBRANCH  44  58
BRANCH  45  69
ATOM     69  C   UNL     1     -14.708  -2.401  11.280  1.00  0.00     0.064 A 
ATOM     70  C   UNL     1     -15.825  -3.082  10.778  1.00  0.00     0.173 A 
ATOM     71  C   UNL     1     -13.648  -3.167  11.787  1.00  0.00     0.173 A 
ATOM     72  F   UNL     1     -16.871  -2.391  10.301  1.00  0.00    -0.203 F 
ATOM     73  C   UNL     1     -15.886  -4.474  10.792  1.00  0.00     0.198 A 
ATOM     74  C   UNL     1     -13.700  -4.559  11.778  1.00  0.00     0.198 A 
ATOM     75  F   UNL     1     -12.555  -2.561  12.273  1.00  0.00    -0.203 F 
ATOM     76  F   UNL     1     -16.980  -5.099  10.337  1.00  0.00    -0.200 F 
ATOM     77  C   UNL     1     -14.821  -5.211  11.286  1.00  0.00     0.200 A 
ATOM     78  F   UNL     1     -12.663  -5.269  12.244  1.00  0.00    -0.200 F 
ATOM     79  F   UNL     1     -14.876  -6.550  11.292  1.00  0.00    -0.200 F 
ENDBRANCH  45  69
BRANCH  57  80
ATOM     80  C   UNL     1     -18.155   2.594  14.703  1.00  0.00     0.064 A 
ATOM     81  C   UNL     1     -17.905   2.211  16.028  1.00  0.00     0.173 A 
ATOM     82  C   UNL     1     -19.459   2.991  14.366  1.00  0.00     0.173 A 
ATOM     83  F   UNL     1     -16.678   1.810  16.395  1.00  0.00    -0.203 F 
ATOM     84  C   UNL     1     -18.926   2.205  16.975  1.00  0.00     0.198 A 
ATOM     85  C   UNL     1     -20.470   3.010  15.322  1.00  0.00     0.198 A 
ATOM     86  F   UNL     1     -19.747   3.372  13.113  1.00  0.00    -0.203 F 
ATOM     87  F   UNL     1     -18.674   1.796  18.226  1.00  0.00    -0.200 F 
ATOM     88  C   UNL     1     -20.205   2.612  16.623  1.00  0.00     0.200 A 
ATOM     89  F   UNL     1     -21.702   3.414  14.983  1.00  0.00    -0.200 F 
ATOM     90  F   UNL     1     -21.184   2.614  17.538  1.00  0.00    -0.200 F 
ENDBRANCH  57  80
ENDBRANCH  31  32
ENDBRANCH  23  26
ENDBRANCH  21  22
ENDBRANCH  20  21
ENDBRANCH   1  20
TORSDOF 14
