REMARK SMILES C[C@H](C(=O)NCCCCNC(=O)c1ccc(-c2c3nc(c(-c4c(F)c(F)c(F)c(F)c4F)c4ccc([nH]4)c(-c4c(F)c(F)c(F)c(F)c4F)c4nc(c(-c5c(F)c(F)c(F)c(F)c5F)c5ccc2[nH]5)C=C4)C=C3)cc1)[C@@H](C)[NH2+]C[C@@H]1CCCC[C@@H]1CO
REMARK SMILES IDX 3 1 4 2 5 3 2 5 1 6 76 7 77 8 78 9 79 12 80 13 81 14 85 15
REMARK SMILES IDX 82 16 84 17 83 18 86 19 87 20 6 22 7 23 8 24 9 25 10 26
REMARK SMILES IDX 11 27 12 29 13 30 14 31 75 32 15 33 74 34 16 35 17 36 18 37
REMARK SMILES IDX 68 38 19 39 73 40 67 41 69 42 20 43 72 44 66 45 65 46 21 48
REMARK SMILES IDX 53 49 33 50 52 51 34 52 37 53 51 54 70 55 35 56 36 57 50 59
REMARK SMILES IDX 71 60 38 61 22 62 23 63 31 64 24 65 25 66 29 67 32 68 26 69
REMARK SMILES IDX 27 70 30 71 28 72 54 73 55 74 63 75 56 76 57 77 61 78 64 79
REMARK SMILES IDX 58 80 59 81 62 82 60 83 39 84 40 85 48 86 41 87 42 88 46 89
REMARK SMILES IDX 49 90 43 91 44 92 47 93 45 94
REMARK H PARENT 5 4 78 10 78 11 87 21 10 28 69 47 37 58
REMARK Flexibility Score: inf
ROOT
ATOM      1  C   UNL     1       0.968   0.058   0.115  1.00  0.00     0.228 C 
ATOM      2  O   UNL     1       1.519   1.104  -0.232  1.00  0.00    -0.275 OA
ATOM      3  N   UNL     1       0.854  -0.933  -0.823  1.00  0.00    -0.356 N 
ATOM      4  H   UNL     1       1.241  -0.712  -1.701  1.00  0.00     0.163 HD
ENDROOT
BRANCH   1   5
ATOM      5  C   UNL     1       0.412  -0.138   1.532  1.00  0.00     0.133 C 
ATOM      6  C   UNL     1       1.302   0.623   2.529  1.00  0.00     0.024 C 
BRANCH   5   7
ATOM      7  C   UNL     1      -1.079   0.308   1.709  1.00  0.00     0.191 C 
ATOM      8  C   UNL     1      -1.895   0.140   0.442  1.00  0.00     0.076 C 
BRANCH   7   9
ATOM      9  N   UNL     1      -1.662  -0.369   2.894  1.00  0.00    -0.343 N 
ATOM     10  H   UNL     1      -1.407   0.187   3.711  1.00  0.00     0.346 HD
ATOM     11  H   UNL     1      -1.282  -1.314   2.847  1.00  0.00     0.346 HD
BRANCH   9  12
ATOM     12  C   UNL     1      -3.113  -0.578   2.954  1.00  0.00     0.264 C 
BRANCH  12  13
ATOM     13  C   UNL     1      -3.646  -1.831   2.206  1.00  0.00     0.049 C 
ATOM     14  C   UNL     1      -5.177  -1.949   2.293  1.00  0.00     0.010 C 
ATOM     15  C   UNL     1      -2.958  -3.168   2.578  1.00  0.00     0.023 C 
ATOM     16  C   UNL     1      -5.677  -3.051   1.354  1.00  0.00     0.001 C 
ATOM     17  C   UNL     1      -3.472  -4.277   1.634  1.00  0.00     0.006 C 
ATOM     18  C   UNL     1      -4.996  -4.392   1.614  1.00  0.00     0.000 C 
BRANCH  15  19
ATOM     19  C   UNL     1      -3.120  -3.545   4.058  1.00  0.00     0.160 C 
BRANCH  19  20
ATOM     20  O   UNL     1      -2.272  -4.642   4.379  1.00  0.00    -0.396 OA
ATOM     21  H   UNL     1      -2.511  -5.407   3.833  1.00  0.00     0.210 HD
ENDBRANCH  19  20
ENDBRANCH  15  19
ENDBRANCH  12  13
ENDBRANCH   9  12
ENDBRANCH   7   9
ENDBRANCH   5   7
ENDBRANCH   1   5
BRANCH   3  22
ATOM     22  C   UNL     1       0.256  -2.257  -0.743  1.00  0.00     0.116 C 
BRANCH  22  23
ATOM     23  C   UNL     1      -1.006  -2.396  -1.603  1.00  0.00     0.023 C 
BRANCH  23  24
ATOM     24  C   UNL     1      -0.800  -2.347  -3.105  1.00  0.00     0.023 C 
BRANCH  24  25
ATOM     25  C   UNL     1      -0.053  -3.536  -3.659  1.00  0.00     0.116 C 
BRANCH  25  26
ATOM     26  N   UNL     1      -0.709  -4.803  -3.367  1.00  0.00    -0.352 N 
ATOM     27  C   UNL     1      -1.001  -5.843  -4.216  1.00  0.00     0.251 C 
ATOM     28  H   UNL     1      -0.981  -4.933  -2.429  1.00  0.00     0.163 HD
ATOM     29  O   UNL     1      -1.698  -6.773  -3.841  1.00  0.00    -0.269 OA
BRANCH  27  30
ATOM     30  C   UNL     1      -0.476  -5.807  -5.596  1.00  0.00     0.039 A 
ATOM     31  C   UNL     1      -1.293  -6.221  -6.647  1.00  0.00     0.014 A 
ATOM     32  C   UNL     1       0.816  -5.338  -5.847  1.00  0.00     0.014 A 
ATOM     33  C   UNL     1      -0.819  -6.132  -7.955  1.00  0.00     0.010 A 
ATOM     34  C   UNL     1       1.228  -5.117  -7.149  1.00  0.00     0.010 A 
ATOM     35  C   UNL     1       0.438  -5.560  -8.215  1.00  0.00    -0.014 A 
BRANCH  35  36
ATOM     36  C   UNL     1       0.989  -5.502  -9.587  1.00  0.00     0.031 A 
ATOM     37  C   UNL     1       2.260  -6.247  -9.903  1.00  0.00     0.074 A 
ATOM     38  C   UNL     1       0.375  -4.758 -10.525  1.00  0.00     0.049 A 
ATOM     39  N   UNL     1       2.920  -6.318 -11.030  1.00  0.00    -0.248 NA
ATOM     40  C   UNL     1       2.898  -6.977  -8.794  1.00  0.00     0.031 C 
ATOM     41  C   UNL     1      -0.823  -3.944 -10.312  1.00  0.00     0.029 A 
ATOM     42  N   UNL     1       0.674  -4.571 -11.849  1.00  0.00    -0.354 N 
ATOM     43  C   UNL     1       4.051  -7.076 -10.755  1.00  0.00     0.074 A 
ATOM     44  C   UNL     1       4.035  -7.372  -9.342  1.00  0.00     0.031 C 
ATOM     45  C   UNL     1      -1.185  -3.384 -11.478  1.00  0.00     0.029 A 
ATOM     46  C   UNL     1      -0.227  -3.771 -12.508  1.00  0.00     0.049 A 
ATOM     47  H   UNL     1       1.460  -4.971 -12.287  1.00  0.00     0.167 HD
ATOM     48  C   UNL     1       4.999  -7.521 -11.612  1.00  0.00     0.037 A 
ATOM     49  C   UNL     1      -0.273  -3.405 -13.802  1.00  0.00     0.037 A 
ATOM     50  C   UNL     1       4.982  -7.254 -13.024  1.00  0.00     0.049 A 
ATOM     51  C   UNL     1       0.782  -3.931 -14.740  1.00  0.00     0.074 A 
ATOM     52  C   UNL     1       5.852  -7.706 -13.999  1.00  0.00     0.029 A 
ATOM     53  N   UNL     1       4.038  -6.461 -13.661  1.00  0.00    -0.354 N 
ATOM     54  N   UNL     1       1.801  -4.717 -14.488  1.00  0.00    -0.248 NA
ATOM     55  C   UNL     1       0.667  -3.532 -16.148  1.00  0.00     0.031 C 
ATOM     56  C   UNL     1       5.466  -7.141 -15.219  1.00  0.00     0.029 A 
ATOM     57  C   UNL     1       4.316  -6.393 -15.016  1.00  0.00     0.049 A 
ATOM     58  H   UNL     1       3.283  -6.012 -13.216  1.00  0.00     0.167 HD
ATOM     59  C   UNL     1       2.423  -4.941 -15.709  1.00  0.00     0.074 A 
ATOM     60  C   UNL     1       1.656  -4.217 -16.702  1.00  0.00     0.031 C 
ATOM     61  C   UNL     1       3.526  -5.680 -15.987  1.00  0.00     0.037 A 
BRANCH  48  62
ATOM     62  C   UNL     1       6.123  -8.341 -11.042  1.00  0.00     0.064 A 
ATOM     63  C   UNL     1       5.909  -9.620 -10.505  1.00  0.00     0.173 A 
ATOM     64  C   UNL     1       7.435  -7.845 -11.044  1.00  0.00     0.173 A 
ATOM     65  F   UNL     1       4.671 -10.137 -10.461  1.00  0.00    -0.203 F 
ATOM     66  C   UNL     1       6.958 -10.355  -9.958  1.00  0.00     0.198 A 
ATOM     67  C   UNL     1       8.488  -8.598 -10.531  1.00  0.00     0.198 A 
ATOM     68  F   UNL     1       7.698  -6.628 -11.545  1.00  0.00    -0.203 F 
ATOM     69  F   UNL     1       6.717 -11.545  -9.392  1.00  0.00    -0.200 F 
ATOM     70  C   UNL     1       8.248  -9.847  -9.979  1.00  0.00     0.200 A 
ATOM     71  F   UNL     1       9.736  -8.110 -10.564  1.00  0.00    -0.200 F 
ATOM     72  F   UNL     1       9.258 -10.557  -9.458  1.00  0.00    -0.200 F 
ENDBRANCH  48  62
BRANCH  49  73
ATOM     73  C   UNL     1      -1.380  -2.546 -14.297  1.00  0.00     0.064 A 
ATOM     74  C   UNL     1      -2.346  -3.054 -15.178  1.00  0.00     0.173 A 
ATOM     75  C   UNL     1      -1.493  -1.202 -13.914  1.00  0.00     0.173 A 
ATOM     76  F   UNL     1      -2.275  -4.330 -15.586  1.00  0.00    -0.203 F 
ATOM     77  C   UNL     1      -3.362  -2.244 -15.681  1.00  0.00     0.198 A 
ATOM     78  C   UNL     1      -2.528  -0.401 -14.392  1.00  0.00     0.198 A 
ATOM     79  F   UNL     1      -0.602  -0.669 -13.065  1.00  0.00    -0.203 F 
ATOM     80  F   UNL     1      -4.238  -2.743 -16.564  1.00  0.00    -0.200 F 
ATOM     81  C   UNL     1      -3.455  -0.919 -15.283  1.00  0.00     0.200 A 
ATOM     82  F   UNL     1      -2.625   0.874 -13.991  1.00  0.00    -0.200 F 
ATOM     83  F   UNL     1      -4.433  -0.140 -15.766  1.00  0.00    -0.200 F 
ENDBRANCH  49  73
BRANCH  61  84
ATOM     84  C   UNL     1       3.929  -5.794 -17.429  1.00  0.00     0.064 A 
ATOM     85  C   UNL     1       4.442  -4.704 -18.147  1.00  0.00     0.173 A 
ATOM     86  C   UNL     1       3.821  -7.026 -18.093  1.00  0.00     0.173 A 
ATOM     87  F   UNL     1       4.556  -3.502 -17.561  1.00  0.00    -0.203 F 
ATOM     88  C   UNL     1       4.791  -4.832 -19.488  1.00  0.00     0.198 A 
ATOM     89  C   UNL     1       4.208  -7.160 -19.423  1.00  0.00     0.198 A 
ATOM     90  F   UNL     1       3.349  -8.104 -17.449  1.00  0.00    -0.203 F 
ATOM     91  F   UNL     1       5.215  -3.760 -20.173  1.00  0.00    -0.200 F 
ATOM     92  C   UNL     1       4.680  -6.060 -20.123  1.00  0.00     0.200 A 
ATOM     93  F   UNL     1       4.119  -8.352 -20.028  1.00  0.00    -0.200 F 
ATOM     94  F   UNL     1       5.019  -6.182 -21.413  1.00  0.00    -0.200 F 
ENDBRANCH  61  84
ENDBRANCH  35  36
ENDBRANCH  27  30
ENDBRANCH  25  26
ENDBRANCH  24  25
ENDBRANCH  23  24
ENDBRANCH  22  23
ENDBRANCH   3  22
TORSDOF 17
