REMARK SMILES C#CCN(CC(=O)NCCCCNC(=O)c1ccc(-c2c3nc(c(-c4c(F)c(F)c(F)c(F)c4F)c4ccc([nH]4)c(-c4c(F)c(F)c(F)c(F)c4F)c4nc(c(-c5c(F)c(F)c(F)c(F)c5F)c5ccc2[nH]5)C=C4)C=C3)cc1)S(=O)(=O)c1c(C)cc(C)cc1C
REMARK SMILES IDX 10 1 9 2 8 3 6 4 7 5 5 7 4 8 3 9 2 10 1 11 79 12 80 13 81 14
REMARK SMILES IDX 82 15 83 16 89 17 84 18 85 19 88 20 90 21 86 22 87 23 11 24
REMARK SMILES IDX 12 25 13 26 14 27 15 29 16 30 17 31 78 32 18 33 77 34 19 35
REMARK SMILES IDX 20 36 21 37 71 38 22 39 76 40 70 41 72 42 23 43 75 44 69 45
REMARK SMILES IDX 68 46 24 48 56 49 36 50 55 51 37 52 40 53 54 54 73 55 38 56
REMARK SMILES IDX 39 57 53 59 74 60 41 61 25 62 26 63 34 64 27 65 28 66 32 67
REMARK SMILES IDX 35 68 29 69 30 70 33 71 31 72 57 73 58 74 66 75 59 76 60 77
REMARK SMILES IDX 64 78 67 79 61 80 62 81 65 82 63 83 42 84 43 85 51 86 44 87
REMARK SMILES IDX 45 88 49 89 52 90 46 91 47 92 50 93 48 94
REMARK H PARENT 8 6 13 28 72 47 40 58
REMARK Flexibility Score: inf
ROOT
ATOM      1  C   UNL     1      -2.749   2.942   0.333  1.00  0.00     0.023 C 
ENDROOT
BRANCH   1   2
ATOM      2  C   UNL     1      -4.071   2.173   0.534  1.00  0.00     0.116 C 
BRANCH   2   3
ATOM      3  N   UNL     1      -4.656   1.740  -0.726  1.00  0.00    -0.355 N 
ATOM      4  C   UNL     1      -4.718   0.533  -1.366  1.00  0.00     0.235 C 
ATOM      5  O   UNL     1      -5.447   0.480  -2.363  1.00  0.00    -0.274 OA
ATOM      6  H   UNL     1      -5.099   2.467  -1.221  1.00  0.00     0.163 HD
BRANCH   4   7
ATOM      7  C   UNL     1      -4.008  -0.730  -0.875  1.00  0.00     0.203 C 
BRANCH   7   8
ATOM      8  N   UNL     1      -2.516  -0.854  -1.012  1.00  0.00    -0.177 NA
BRANCH   8   9
ATOM      9  C   UNL     1      -1.878  -0.059   0.059  1.00  0.00     0.192 C 
BRANCH   9  10
ATOM     10  C   UNL     1      -0.358  -0.059   0.059  1.00  0.00    -0.090 C 
ATOM     11  C   UNL     1       0.946  -0.059   0.059  1.00  0.00     0.005 C 
ENDBRANCH   9  10
ENDBRANCH   8   9
BRANCH   8  12
ATOM     12  S   UNL     1      -1.908  -0.541  -2.605  1.00  0.00     0.244 S 
ATOM     13  O   UNL     1      -2.475   0.721  -3.005  1.00  0.00    -0.207 OA
ATOM     14  O   UNL     1      -0.464  -0.698  -2.626  1.00  0.00    -0.207 OA
BRANCH  12  15
ATOM     15  C   UNL     1      -2.518  -1.909  -3.614  1.00  0.00     0.088 A 
ATOM     16  C   UNL     1      -3.330  -1.694  -4.753  1.00  0.00    -0.031 A 
ATOM     17  C   UNL     1      -2.026  -3.219  -3.342  1.00  0.00    -0.031 A 
ATOM     18  C   UNL     1      -3.870  -0.367  -5.214  1.00  0.00     0.046 C 
ATOM     19  C   UNL     1      -3.683  -2.800  -5.556  1.00  0.00     0.008 A 
ATOM     20  C   UNL     1      -2.374  -4.281  -4.202  1.00  0.00     0.008 A 
ATOM     21  C   UNL     1      -1.030  -3.564  -2.261  1.00  0.00     0.046 C 
ATOM     22  C   UNL     1      -3.200  -4.084  -5.304  1.00  0.00    -0.051 A 
ATOM     23  C   UNL     1      -3.548  -5.213  -6.228  1.00  0.00     0.044 C 
ENDBRANCH  12  15
ENDBRANCH   8  12
ENDBRANCH   7   8
ENDBRANCH   4   7
ENDBRANCH   2   3
ENDBRANCH   1   2
BRANCH   1  24
ATOM     24  C   UNL     1      -2.795   4.445   0.359  1.00  0.00     0.023 C 
BRANCH  24  25
ATOM     25  C   UNL     1      -3.281   5.025   1.662  1.00  0.00     0.116 C 
BRANCH  25  26
ATOM     26  N   UNL     1      -2.479   4.680   2.834  1.00  0.00    -0.352 N 
ATOM     27  C   UNL     1      -2.079   5.525   3.850  1.00  0.00     0.251 C 
ATOM     28  H   UNL     1      -2.193   3.741   2.907  1.00  0.00     0.163 HD
ATOM     29  O   UNL     1      -1.376   5.136   4.774  1.00  0.00    -0.269 OA
BRANCH  27  30
ATOM     30  C   UNL     1      -2.476   6.942   3.745  1.00  0.00     0.039 A 
ATOM     31  C   UNL     1      -1.481   7.917   3.663  1.00  0.00     0.014 A 
ATOM     32  C   UNL     1      -3.810   7.247   3.469  1.00  0.00     0.014 A 
ATOM     33  C   UNL     1      -1.813   9.182   3.181  1.00  0.00     0.010 A 
ATOM     34  C   UNL     1      -4.102   8.452   2.850  1.00  0.00     0.010 A 
ATOM     35  C   UNL     1      -3.109   9.435   2.703  1.00  0.00    -0.014 A 
BRANCH  35  36
ATOM     36  C   UNL     1      -3.471  10.722   2.059  1.00  0.00     0.031 A 
ATOM     37  C   UNL     1      -4.591  11.539   2.640  1.00  0.00     0.074 A 
ATOM     38  C   UNL     1      -2.868  11.106   0.915  1.00  0.00     0.049 A 
ATOM     39  N   UNL     1      -5.150  12.628   2.179  1.00  0.00    -0.248 NA
ATOM     40  C   UNL     1      -5.202  11.035   3.882  1.00  0.00     0.031 C 
ATOM     41  C   UNL     1      -1.823  10.360   0.210  1.00  0.00     0.029 A 
ATOM     42  N   UNL     1      -3.057  12.221   0.137  1.00  0.00    -0.354 N 
ATOM     43  C   UNL     1      -6.189  12.912   3.054  1.00  0.00     0.074 A 
ATOM     44  C   UNL     1      -6.238  11.843   4.025  1.00  0.00     0.031 C 
ATOM     45  C   UNL     1      -1.438  11.056  -0.873  1.00  0.00     0.029 A 
ATOM     46  C   UNL     1      -2.234  12.275  -0.962  1.00  0.00     0.049 A 
ATOM     47  H   UNL     1      -3.721  12.917   0.347  1.00  0.00     0.167 HD
ATOM     48  C   UNL     1      -7.005  13.991   3.075  1.00  0.00     0.037 A 
ATOM     49  C   UNL     1      -2.138  13.207  -1.931  1.00  0.00     0.037 A 
ATOM     50  C   UNL     1      -6.909  15.081   2.145  1.00  0.00     0.049 A 
ATOM     51  C   UNL     1      -3.041  14.410  -1.875  1.00  0.00     0.074 A 
ATOM     52  C   UNL     1      -7.616  16.268   2.133  1.00  0.00     0.029 A 
ATOM     53  N   UNL     1      -6.043  15.114   1.062  1.00  0.00    -0.354 N 
ATOM     54  N   UNL     1      -3.962  14.712  -0.992  1.00  0.00    -0.248 NA
ATOM     55  C   UNL     1      -2.892  15.401  -2.949  1.00  0.00     0.031 C 
ATOM     56  C   UNL     1      -7.206  17.005   1.017  1.00  0.00     0.029 A 
ATOM     57  C   UNL     1      -6.216  16.293   0.357  1.00  0.00     0.049 A 
ATOM     58  H   UNL     1      -5.401  14.405   0.829  1.00  0.00     0.167 HD
ATOM     59  C   UNL     1      -4.491  15.931  -1.393  1.00  0.00     0.074 A 
ATOM     60  C   UNL     1      -3.771  16.325  -2.587  1.00  0.00     0.031 C 
ATOM     61  C   UNL     1      -5.488  16.657  -0.831  1.00  0.00     0.037 A 
BRANCH  48  62
ATOM     62  C   UNL     1      -8.048  14.047   4.151  1.00  0.00     0.064 A 
ATOM     63  C   UNL     1      -7.704  14.220   5.501  1.00  0.00     0.173 A 
ATOM     64  C   UNL     1      -9.408  13.935   3.830  1.00  0.00     0.173 A 
ATOM     65  F   UNL     1      -6.416  14.311   5.864  1.00  0.00    -0.203 F 
ATOM     66  C   UNL     1      -8.681  14.242   6.493  1.00  0.00     0.198 A 
ATOM     67  C   UNL     1     -10.385  13.991   4.821  1.00  0.00     0.198 A 
ATOM     68  F   UNL     1      -9.791  13.768   2.555  1.00  0.00    -0.203 F 
ATOM     69  F   UNL     1      -8.323  14.345   7.780  1.00  0.00    -0.200 F 
ATOM     70  C   UNL     1     -10.020  14.135   6.151  1.00  0.00     0.200 A 
ATOM     71  F   UNL     1     -11.680  13.897   4.489  1.00  0.00    -0.200 F 
ATOM     72  F   UNL     1     -10.960  14.160   7.106  1.00  0.00    -0.200 F 
ENDBRANCH  48  62
BRANCH  49  73
ATOM     73  C   UNL     1      -1.134  13.056  -3.018  1.00  0.00     0.064 A 
ATOM     74  C   UNL     1      -0.018  13.902  -3.088  1.00  0.00     0.173 A 
ATOM     75  C   UNL     1      -1.268  12.072  -4.009  1.00  0.00     0.173 A 
ATOM     76  F   UNL     1       0.142  14.873  -2.177  1.00  0.00    -0.203 F 
ATOM     77  C   UNL     1       0.915  13.783  -4.116  1.00  0.00     0.198 A 
ATOM     78  C   UNL     1      -0.320  11.937  -5.023  1.00  0.00     0.198 A 
ATOM     79  F   UNL     1      -2.315  11.236  -3.988  1.00  0.00    -0.203 F 
ATOM     80  F   UNL     1       1.948  14.634  -4.182  1.00  0.00    -0.200 F 
ATOM     81  C   UNL     1       0.767  12.797  -5.079  1.00  0.00     0.200 A 
ATOM     82  F   UNL     1      -0.460  10.976  -5.946  1.00  0.00    -0.200 F 
ATOM     83  F   UNL     1       1.666  12.681  -6.066  1.00  0.00    -0.200 F 
ENDBRANCH  49  73
BRANCH  61  84
ATOM     84  C   UNL     1      -5.854  17.949  -1.496  1.00  0.00     0.064 A 
ATOM     85  C   UNL     1      -6.560  17.970  -2.707  1.00  0.00     0.173 A 
ATOM     86  C   UNL     1      -5.544  19.176  -0.890  1.00  0.00     0.173 A 
ATOM     87  F   UNL     1      -6.865  16.822  -3.330  1.00  0.00    -0.203 F 
ATOM     88  C   UNL     1      -6.927  19.175  -3.298  1.00  0.00     0.198 A 
ATOM     89  C   UNL     1      -5.938  20.378  -1.470  1.00  0.00     0.198 A 
ATOM     90  F   UNL     1      -4.877  19.206   0.273  1.00  0.00    -0.203 F 
ATOM     91  F   UNL     1      -7.567  19.173  -4.476  1.00  0.00    -0.200 F 
ATOM     92  C   UNL     1      -6.624  20.377  -2.675  1.00  0.00     0.200 A 
ATOM     93  F   UNL     1      -5.658  21.537  -0.860  1.00  0.00    -0.200 F 
ATOM     94  F   UNL     1      -6.988  21.536  -3.241  1.00  0.00    -0.200 F 
ENDBRANCH  61  84
ENDBRANCH  35  36
ENDBRANCH  27  30
ENDBRANCH  25  26
ENDBRANCH  24  25
ENDBRANCH   1  24
TORSDOF 16
