REMARK SMILES C[C@H](CCC(=O)NCCCCNC(=O)c1ccc(-c2c3nc(c(-c4c(F)c(F)c(F)c(F)c4F)c4ccc([nH]4)c(-c4c(F)c(F)c(F)c(F)c4F)c4nc(c(-c5c(F)c(F)c(F)c(F)c5F)c5ccc2[nH]5)C=C4)C=C3)cc1)[C@H]1CC[C@@H]2[C@@H]3C[C@H](O)[C@@H]4C[C@H](O)CC[C@]4(C)[C@H]3CC[C@]21C
REMARK SMILES IDX 8 1 7 2 5 3 6 4 4 6 3 7 2 8 1 9 78 10 79 11 97 12 80 13
REMARK SMILES IDX 81 14 96 15 98 16 82 17 95 18 83 19 94 20 84 21 92 22 86 23
REMARK SMILES IDX 91 24 93 25 87 26 90 27 88 28 85 29 89 31 9 33 10 34 11 35
REMARK SMILES IDX 12 36 13 37 14 39 15 40 16 41 77 42 17 43 76 44 18 45 19 46
REMARK SMILES IDX 20 47 70 48 21 49 75 50 69 51 71 52 22 53 74 54 68 55 67 56
REMARK SMILES IDX 23 58 55 59 35 60 54 61 36 62 39 63 53 64 72 65 37 66 38 67
REMARK SMILES IDX 52 69 73 70 40 71 24 72 25 73 33 74 26 75 27 76 31 77 34 78
REMARK SMILES IDX 28 79 29 80 32 81 30 82 56 83 57 84 65 85 58 86 59 87 63 88
REMARK SMILES IDX 66 89 60 90 61 91 64 92 62 93 41 94 42 95 50 96 43 97 44 98
REMARK SMILES IDX 48 99 51 100 45 101 46 102 49 103 47 104
REMARK H PARENT 7 5 85 30 89 32 12 38 71 57 39 68
REMARK Flexibility Score: inf
ROOT
ATOM      1  C   UNL     1      -3.160  -1.462  -1.292  1.00  0.00     0.116 C 
ENDROOT
BRANCH   1   2
ATOM      2  N   UNL     1      -3.804  -0.186  -1.042  1.00  0.00    -0.356 N 
ATOM      3  C   UNL     1      -3.934   0.905  -1.853  1.00  0.00     0.220 C 
ATOM      4  O   UNL     1      -4.887   1.658  -1.647  1.00  0.00    -0.275 OA
ATOM      5  H   UNL     1      -4.210  -0.093  -0.150  1.00  0.00     0.163 HD
BRANCH   3   6
ATOM      6  C   UNL     1      -2.947   1.191  -2.964  1.00  0.00     0.100 C 
BRANCH   6   7
ATOM      7  C   UNL     1      -1.713   2.070  -2.660  1.00  0.00     0.013 C 
BRANCH   7   8
ATOM      8  C   UNL     1      -1.203   2.193  -1.193  1.00  0.00    -0.010 C 
ATOM      9  C   UNL     1       0.312   1.918  -1.218  1.00  0.00     0.008 C 
BRANCH   8  10
ATOM     10  C   UNL     1      -1.505   3.591  -0.474  1.00  0.00    -0.002 C 
ATOM     11  C   UNL     1      -2.886   4.267  -0.937  1.00  0.00     0.005 C 
ATOM     12  C   UNL     1      -1.758   3.539   1.105  1.00  0.00    -0.026 C 
ATOM     13  C   UNL     1      -3.925   4.034   0.203  1.00  0.00     0.005 C 
ATOM     14  C   UNL     1      -3.189   2.979   0.993  1.00  0.00    -0.001 C 
ATOM     15  C   UNL     1      -0.897   2.739   2.107  1.00  0.00     0.007 C 
ATOM     16  C   UNL     1      -1.637   5.029   1.592  1.00  0.00     0.012 C 
ATOM     17  C   UNL     1      -3.724   2.016   2.030  1.00  0.00    -0.001 C 
ATOM     18  C   UNL     1      -1.620   1.994   3.273  1.00  0.00     0.005 C 
ATOM     19  C   UNL     1      -5.201   1.702   1.912  1.00  0.00     0.036 C 
ATOM     20  C   UNL     1      -3.168   2.147   3.432  1.00  0.00    -0.001 C 
ATOM     21  C   UNL     1      -5.357   0.280   2.412  1.00  0.00     0.118 C 
ATOM     22  C   UNL     1      -3.866   1.124   4.481  1.00  0.00    -0.024 C 
ATOM     23  C   UNL     1      -4.947   0.111   3.884  1.00  0.00     0.026 C 
ATOM     24  C   UNL     1      -4.537   1.948   5.637  1.00  0.00     0.010 C 
ATOM     25  C   UNL     1      -2.797   0.248   5.202  1.00  0.00     0.012 C 
ATOM     26  C   UNL     1      -6.163  -0.079   4.811  1.00  0.00     0.038 C 
ATOM     27  C   UNL     1      -5.968   2.387   5.335  1.00  0.00     0.032 C 
ATOM     28  C   UNL     1      -6.911   1.203   5.128  1.00  0.00     0.114 C 
BRANCH  21  29
ATOM     29  O   UNL     1      -6.631  -0.275   2.108  1.00  0.00    -0.393 OA
ATOM     30  H   UNL     1      -7.319   0.216   2.584  1.00  0.00     0.210 HD
ENDBRANCH  21  29
BRANCH  28  31
ATOM     31  O   UNL     1      -7.844   1.523   4.101  1.00  0.00    -0.393 OA
ATOM     32  H   UNL     1      -7.368   1.685   3.271  1.00  0.00     0.210 HD
ENDBRANCH  28  31
ENDBRANCH   8  10
ENDBRANCH   7   8
ENDBRANCH   6   7
ENDBRANCH   3   6
ENDBRANCH   1   2
BRANCH   1  33
ATOM     33  C   UNL     1      -1.849  -1.727  -0.545  1.00  0.00     0.023 C 
BRANCH  33  34
ATOM     34  C   UNL     1      -1.817  -1.621   0.992  1.00  0.00     0.023 C 
BRANCH  34  35
ATOM     35  C   UNL     1      -2.863  -2.377   1.835  1.00  0.00     0.116 C 
BRANCH  35  36
ATOM     36  N   UNL     1      -2.479  -3.724   2.217  1.00  0.00    -0.352 N 
ATOM     37  C   UNL     1      -2.706  -4.435   3.381  1.00  0.00     0.251 C 
ATOM     38  H   UNL     1      -1.970  -4.213   1.532  1.00  0.00     0.163 HD
ATOM     39  O   UNL     1      -2.177  -5.540   3.496  1.00  0.00    -0.269 OA
BRANCH  37  40
ATOM     40  C   UNL     1      -3.534  -3.942   4.525  1.00  0.00     0.039 A 
ATOM     41  C   UNL     1      -3.025  -4.079   5.825  1.00  0.00     0.014 A 
ATOM     42  C   UNL     1      -4.857  -3.527   4.395  1.00  0.00     0.014 A 
ATOM     43  C   UNL     1      -3.799  -3.751   6.962  1.00  0.00     0.010 A 
ATOM     44  C   UNL     1      -5.618  -3.176   5.543  1.00  0.00     0.010 A 
ATOM     45  C   UNL     1      -5.106  -3.242   6.856  1.00  0.00    -0.014 A 
BRANCH  45  46
ATOM     46  C   UNL     1      -5.872  -2.771   8.089  1.00  0.00     0.031 A 
ATOM     47  C   UNL     1      -7.300  -3.203   8.406  1.00  0.00     0.074 A 
ATOM     48  C   UNL     1      -5.322  -1.891   8.965  1.00  0.00     0.049 A 
ATOM     49  N   UNL     1      -8.052  -2.896   9.445  1.00  0.00    -0.248 NA
ATOM     50  C   UNL     1      -7.986  -4.053   7.427  1.00  0.00     0.031 C 
ATOM     51  C   UNL     1      -4.013  -1.254   8.825  1.00  0.00     0.029 A 
ATOM     52  N   UNL     1      -5.797  -1.375  10.160  1.00  0.00    -0.354 N 
ATOM     53  C   UNL     1      -9.296  -3.480   9.223  1.00  0.00     0.074 A 
ATOM     54  C   UNL     1      -9.214  -4.116   7.923  1.00  0.00     0.031 C 
ATOM     55  C   UNL     1      -3.768  -0.488   9.900  1.00  0.00     0.029 A 
ATOM     56  C   UNL     1      -4.908  -0.548  10.811  1.00  0.00     0.049 A 
ATOM     57  H   UNL     1      -6.692  -1.582  10.513  1.00  0.00     0.167 HD
ATOM     58  C   UNL     1     -10.397  -3.529  10.020  1.00  0.00     0.037 A 
ATOM     59  C   UNL     1      -4.965   0.084  12.004  1.00  0.00     0.037 A 
ATOM     60  C   UNL     1     -10.507  -2.991  11.354  1.00  0.00     0.049 A 
ATOM     61  C   UNL     1      -6.166  -0.042  12.906  1.00  0.00     0.074 A 
ATOM     62  C   UNL     1     -11.551  -3.139  12.258  1.00  0.00     0.029 A 
ATOM     63  N   UNL     1      -9.557  -2.207  11.982  1.00  0.00    -0.354 N 
ATOM     64  N   UNL     1      -7.270  -0.718  12.726  1.00  0.00    -0.248 NA
ATOM     65  C   UNL     1      -6.116   0.679  14.192  1.00  0.00     0.031 C 
ATOM     66  C   UNL     1     -11.250  -2.413  13.416  1.00  0.00     0.029 A 
ATOM     67  C   UNL     1     -10.000  -1.848  13.250  1.00  0.00     0.049 A 
ATOM     68  H   UNL     1      -8.695  -1.941  11.589  1.00  0.00     0.167 HD
ATOM     69  C   UNL     1      -8.023  -0.535  13.880  1.00  0.00     0.074 A 
ATOM     70  C   UNL     1      -7.252   0.307  14.764  1.00  0.00     0.031 C 
ATOM     71  C   UNL     1      -9.249  -1.032  14.167  1.00  0.00     0.037 A 
BRANCH  58  72
ATOM     72  C   UNL     1     -11.611  -4.244   9.489  1.00  0.00     0.064 A 
ATOM     73  C   UNL     1     -11.640  -5.641   9.365  1.00  0.00     0.173 A 
ATOM     74  C   UNL     1     -12.787  -3.535   9.194  1.00  0.00     0.173 A 
ATOM     75  F   UNL     1     -10.547  -6.365   9.645  1.00  0.00    -0.203 F 
ATOM     76  C   UNL     1     -12.787  -6.298   8.929  1.00  0.00     0.198 A 
ATOM     77  C   UNL     1     -13.943  -4.199   8.789  1.00  0.00     0.198 A 
ATOM     78  F   UNL     1     -12.824  -2.200   9.325  1.00  0.00    -0.203 F 
ATOM     79  F   UNL     1     -12.776  -7.630   8.777  1.00  0.00    -0.200 F 
ATOM     80  C   UNL     1     -13.939  -5.579   8.649  1.00  0.00     0.200 A 
ATOM     81  F   UNL     1     -15.062  -3.505   8.543  1.00  0.00    -0.200 F 
ATOM     82  F   UNL     1     -15.046  -6.216   8.242  1.00  0.00    -0.200 F 
ENDBRANCH  58  72
BRANCH  59  83
ATOM     83  C   UNL     1      -3.799   0.880  12.477  1.00  0.00     0.064 A 
ATOM     84  C   UNL     1      -2.997   0.412  13.529  1.00  0.00     0.173 A 
ATOM     85  C   UNL     1      -3.497   2.134  11.932  1.00  0.00     0.173 A 
ATOM     86  F   UNL     1      -3.272  -0.768  14.106  1.00  0.00    -0.203 F 
ATOM     87  C   UNL     1      -1.950   1.180  14.033  1.00  0.00     0.198 A 
ATOM     88  C   UNL     1      -2.433   2.891  12.420  1.00  0.00     0.198 A 
ATOM     89  F   UNL     1      -4.238   2.627  10.929  1.00  0.00    -0.203 F 
ATOM     90  F   UNL     1      -1.236   0.735  15.076  1.00  0.00    -0.200 F 
ATOM     91  C   UNL     1      -1.667   2.417  13.476  1.00  0.00     0.200 A 
ATOM     92  F   UNL     1      -2.157   4.084  11.876  1.00  0.00    -0.200 F 
ATOM     93  F   UNL     1      -0.664   3.160  13.964  1.00  0.00    -0.200 F 
ENDBRANCH  59  83
BRANCH  71  94
ATOM     94  C   UNL     1      -9.840  -0.733  15.517  1.00  0.00     0.064 A 
ATOM     95  C   UNL     1     -10.308   0.546  15.855  1.00  0.00     0.173 A 
ATOM     96  C   UNL     1      -9.976  -1.749  16.476  1.00  0.00     0.173 A 
ATOM     97  F   UNL     1     -10.190   1.560  14.984  1.00  0.00    -0.203 F 
ATOM     98  C   UNL     1     -10.871   0.800  17.105  1.00  0.00     0.198 A 
ATOM     99  C   UNL     1     -10.561  -1.499  17.716  1.00  0.00     0.198 A 
ATOM    100  F   UNL     1      -9.548  -2.992  16.208  1.00  0.00    -0.203 F 
ATOM    101  F   UNL     1     -11.275   2.039  17.418  1.00  0.00    -0.200 F 
ATOM    102  C   UNL     1     -11.003  -0.224  18.032  1.00  0.00     0.200 A 
ATOM    103  F   UNL     1     -10.696  -2.492  18.606  1.00  0.00    -0.200 F 
ATOM    104  F   UNL     1     -11.551   0.021  19.231  1.00  0.00    -0.200 F 
ENDBRANCH  71  94
ENDBRANCH  45  46
ENDBRANCH  37  40
ENDBRANCH  35  36
ENDBRANCH  34  35
ENDBRANCH  33  34
ENDBRANCH   1  33
TORSDOF 16
