REMARK SMILES C[C@H]1N=N[C@H](S/C(=C/c2ccc(-c3cccc(Cl)c3)o2)C(=O)NCCCCNC(=O)c2ccc(-c3c4nc(c(-c5c(F)c(F)c(F)c(F)c5F)c5ccc([nH]5)c(-c5c(F)c(F)c(F)c(F)c5F)c5nc(c(-c6c(F)c(F)c(F)c(F)c6F)c6ccc3[nH]6)C=C5)C=C4)cc2)[NH2+]1
REMARK SMILES IDX 25 1 24 2 23 3 21 4 22 5 7 7 8 8 6 9 5 10 1 11 2 12 3 13
REMARK SMILES IDX 94 14 4 15 9 18 10 19 20 20 11 21 12 22 13 23 14 24 19 25
REMARK SMILES IDX 15 26 17 27 16 28 18 29 26 30 27 31 28 32 29 33 30 35 31 36
REMARK SMILES IDX 32 37 93 38 33 39 92 40 34 41 35 42 36 43 86 44 37 45 91 46
REMARK SMILES IDX 85 47 87 48 38 49 90 50 84 51 83 52 39 54 71 55 51 56 70 57
REMARK SMILES IDX 52 58 55 59 69 60 88 61 53 62 54 63 68 65 89 66 56 67 40 68
REMARK SMILES IDX 41 69 49 70 42 71 43 72 47 73 50 74 44 75 45 76 48 77 46 78
REMARK SMILES IDX 72 79 73 80 81 81 74 82 75 83 79 84 82 85 76 86 77 87 80 88
REMARK SMILES IDX 78 89 57 90 58 91 66 92 59 93 60 94 64 95 67 96 61 97 62 98
REMARK SMILES IDX 65 99 63 100
REMARK H PARENT 23 6 94 16 94 17 28 34 87 53 55 64
REMARK Flexibility Score: inf
ROOT
ATOM      1  C   UNL     1       5.798  -1.788   5.463  1.00  0.00     0.023 C 
ENDROOT
BRANCH   1   2
ATOM      2  C   UNL     1       4.626  -2.498   4.800  1.00  0.00     0.116 C 
BRANCH   2   3
ATOM      3  N   UNL     1       3.543  -2.877   5.670  1.00  0.00    -0.352 N 
ATOM      4  C   UNL     1       2.277  -3.269   5.341  1.00  0.00     0.258 C 
ATOM      5  O   UNL     1       1.584  -3.741   6.248  1.00  0.00    -0.269 OA
ATOM      6  H   UNL     1       3.744  -2.851   6.633  1.00  0.00     0.163 HD
BRANCH   4   7
ATOM      7  C   UNL     1       1.680  -3.081   3.961  1.00  0.00     0.084 C 
ATOM      8  C   UNL     1       2.111  -3.660   2.826  1.00  0.00     0.068 C 
BRANCH   7   9
ATOM      9  S   UNL     1       0.224  -2.087   4.046  1.00  0.00    -0.030 SA
BRANCH   9  10
ATOM     10  C   UNL     1      -0.447  -1.884   2.361  1.00  0.00     0.393 C 
ATOM     11  C   UNL     1       0.722   0.466  -0.045  1.00  0.00     0.106 C 
ATOM     12  C   UNL     1       0.371  -0.080   1.329  1.00  0.00     0.324 C 
ATOM     13  N   UNL     1      -1.046   0.158   1.637  1.00  0.00    -0.126 NA
ATOM     14  N   UNL     1       0.574  -1.522   1.377  1.00  0.00    -0.293 N 
ATOM     15  N   UNL     1      -1.507  -0.851   2.235  1.00  0.00    -0.115 NA
ATOM     16  H   UNL     1       1.512  -1.763   1.697  1.00  0.00     0.350 HD
ATOM     17  H   UNL     1       0.496  -2.000   0.478  1.00  0.00     0.350 HD
ENDBRANCH   9  10
ENDBRANCH   7   9
BRANCH   8  18
ATOM     18  C   UNL     1       3.351  -4.306   2.620  1.00  0.00     0.128 A 
ATOM     19  C   UNL     1       3.773  -5.601   2.873  1.00  0.00     0.051 A 
ATOM     20  O   UNL     1       4.392  -3.641   2.007  1.00  0.00    -0.457 OA
ATOM     21  C   UNL     1       5.119  -5.706   2.427  1.00  0.00     0.051 A 
ATOM     22  C   UNL     1       5.470  -4.466   1.939  1.00  0.00     0.134 A 
BRANCH  22  23
ATOM     23  C   UNL     1       6.718  -3.859   1.484  1.00  0.00     0.019 A 
ATOM     24  C   UNL     1       7.730  -4.649   0.924  1.00  0.00     0.012 A 
ATOM     25  C   UNL     1       6.982  -2.498   1.714  1.00  0.00     0.032 A 
ATOM     26  C   UNL     1       8.986  -4.105   0.635  1.00  0.00     0.002 A 
ATOM     27  C   UNL     1       8.246  -1.967   1.449  1.00  0.00     0.041 A 
ATOM     28  C   UNL     1       9.251  -2.765   0.914  1.00  0.00     0.020 A 
ATOM     29  Cl  UNL     1       8.579  -0.323   1.837  1.00  0.00    -0.084 Cl
ENDBRANCH  22  23
ENDBRANCH   8  18
ENDBRANCH   4   7
ENDBRANCH   2   3
ENDBRANCH   1   2
BRANCH   1  30
ATOM     30  C   UNL     1       6.588  -2.591   6.499  1.00  0.00     0.023 C 
BRANCH  30  31
ATOM     31  C   UNL     1       6.896  -4.055   6.193  1.00  0.00     0.116 C 
BRANCH  31  32
ATOM     32  N   UNL     1       7.672  -4.291   4.982  1.00  0.00    -0.352 N 
ATOM     33  C   UNL     1       8.835  -5.008   4.796  1.00  0.00     0.251 C 
ATOM     34  H   UNL     1       7.308  -3.873   4.169  1.00  0.00     0.163 HD
ATOM     35  O   UNL     1       9.320  -5.160   3.686  1.00  0.00    -0.269 OA
BRANCH  33  36
ATOM     36  C   UNL     1       9.549  -5.552   5.964  1.00  0.00     0.039 A 
ATOM     37  C   UNL     1      10.890  -5.201   6.143  1.00  0.00     0.014 A 
ATOM     38  C   UNL     1       8.887  -6.339   6.904  1.00  0.00     0.014 A 
ATOM     39  C   UNL     1      11.534  -5.533   7.334  1.00  0.00     0.010 A 
ATOM     40  C   UNL     1       9.499  -6.593   8.124  1.00  0.00     0.010 A 
ATOM     41  C   UNL     1      10.819  -6.170   8.359  1.00  0.00    -0.014 A 
BRANCH  41  42
ATOM     42  C   UNL     1      11.409  -6.384   9.703  1.00  0.00     0.031 A 
ATOM     43  C   UNL     1      11.566  -7.779  10.229  1.00  0.00     0.074 A 
ATOM     44  C   UNL     1      11.687  -5.322  10.485  1.00  0.00     0.049 A 
ATOM     45  N   UNL     1      11.886  -8.181  11.431  1.00  0.00    -0.248 NA
ATOM     46  C   UNL     1      11.286  -8.871   9.282  1.00  0.00     0.031 C 
ATOM     47  C   UNL     1      11.527  -3.918  10.099  1.00  0.00     0.029 A 
ATOM     48  N   UNL     1      12.140  -5.259  11.778  1.00  0.00    -0.354 N 
ATOM     49  C   UNL     1      11.807  -9.567  11.396  1.00  0.00     0.074 A 
ATOM     50  C   UNL     1      11.370  -9.934  10.067  1.00  0.00     0.031 C 
ATOM     51  C   UNL     1      11.891  -3.134  11.126  1.00  0.00     0.029 A 
ATOM     52  C   UNL     1      12.267  -3.977  12.256  1.00  0.00     0.049 A 
ATOM     53  H   UNL     1      12.355  -6.057  12.313  1.00  0.00     0.167 HD
ATOM     54  C   UNL     1      12.094 -10.451  12.380  1.00  0.00     0.037 A 
ATOM     55  C   UNL     1      12.631  -3.535  13.475  1.00  0.00     0.037 A 
ATOM     56  C   UNL     1      12.570 -10.076  13.684  1.00  0.00     0.049 A 
ATOM     57  C   UNL     1      12.974  -4.539  14.542  1.00  0.00     0.074 A 
ATOM     58  C   UNL     1      12.947 -10.893  14.734  1.00  0.00     0.029 A 
ATOM     59  N   UNL     1      12.743  -8.767  14.111  1.00  0.00    -0.354 N 
ATOM     60  N   UNL     1      12.945  -5.849  14.484  1.00  0.00    -0.248 NA
ATOM     61  C   UNL     1      13.404  -4.006  15.841  1.00  0.00     0.031 C 
ATOM     62  C   UNL     1      13.320 -10.078  15.808  1.00  0.00     0.029 A 
ATOM     63  C   UNL     1      13.216  -8.754  15.413  1.00  0.00     0.049 A 
ATOM     64  H   UNL     1      12.558  -7.966  13.569  1.00  0.00     0.167 HD
ATOM     65  C   UNL     1      13.382  -6.296  15.722  1.00  0.00     0.074 A 
ATOM     66  C   UNL     1      13.678  -5.117  16.511  1.00  0.00     0.031 C 
ATOM     67  C   UNL     1      13.526  -7.567  16.168  1.00  0.00     0.037 A 
BRANCH  54  68
ATOM     68  C   UNL     1      11.902 -11.907  12.076  1.00  0.00     0.064 A 
ATOM     69  C   UNL     1      12.738 -12.589  11.179  1.00  0.00     0.173 A 
ATOM     70  C   UNL     1      10.877 -12.635  12.699  1.00  0.00     0.173 A 
ATOM     71  F   UNL     1      13.723 -11.934  10.546  1.00  0.00    -0.203 F 
ATOM     72  C   UNL     1      12.535 -13.935  10.890  1.00  0.00     0.198 A 
ATOM     73  C   UNL     1      10.695 -13.990  12.431  1.00  0.00     0.198 A 
ATOM     74  F   UNL     1      10.050 -12.034  13.567  1.00  0.00    -0.203 F 
ATOM     75  F   UNL     1      13.311 -14.549   9.986  1.00  0.00    -0.200 F 
ATOM     76  C   UNL     1      11.518 -14.636  11.521  1.00  0.00     0.200 A 
ATOM     77  F   UNL     1       9.719 -14.669  13.049  1.00  0.00    -0.200 F 
ATOM     78  F   UNL     1      11.324 -15.932  11.243  1.00  0.00    -0.200 F 
ENDBRANCH  54  68
BRANCH  55  79
ATOM     79  C   UNL     1      12.719  -2.076  13.743  1.00  0.00     0.064 A 
ATOM     80  C   UNL     1      13.963  -1.455  13.918  1.00  0.00     0.173 A 
ATOM     81  C   UNL     1      11.571  -1.275  13.832  1.00  0.00     0.173 A 
ATOM     82  F   UNL     1      15.088  -2.183  13.861  1.00  0.00    -0.203 F 
ATOM     83  C   UNL     1      14.056  -0.092  14.191  1.00  0.00     0.198 A 
ATOM     84  C   UNL     1      11.667   0.094  14.080  1.00  0.00     0.198 A 
ATOM     85  F   UNL     1      10.357  -1.819  13.666  1.00  0.00    -0.203 F 
ATOM     86  F   UNL     1      15.257   0.467  14.397  1.00  0.00    -0.200 F 
ATOM     87  C   UNL     1      12.909   0.682  14.267  1.00  0.00     0.200 A 
ATOM     88  F   UNL     1      10.556   0.841  14.139  1.00  0.00    -0.200 F 
ATOM     89  F   UNL     1      12.999   1.994  14.528  1.00  0.00    -0.200 F 
ENDBRANCH  55  79
BRANCH  67  90
ATOM     90  C   UNL     1      14.075  -7.753  17.550  1.00  0.00     0.064 A 
ATOM     91  C   UNL     1      13.301  -7.500  18.690  1.00  0.00     0.173 A 
ATOM     92  C   UNL     1      15.376  -8.247  17.731  1.00  0.00     0.173 A 
ATOM     93  F   UNL     1      12.057  -7.013  18.567  1.00  0.00    -0.203 F 
ATOM     94  C   UNL     1      13.816  -7.719  19.965  1.00  0.00     0.198 A 
ATOM     95  C   UNL     1      15.878  -8.490  19.005  1.00  0.00     0.198 A 
ATOM     96  F   UNL     1      16.154  -8.510  16.669  1.00  0.00    -0.203 F 
ATOM     97  F   UNL     1      13.072  -7.436  21.044  1.00  0.00    -0.200 F 
ATOM     98  C   UNL     1      15.100  -8.222  20.121  1.00  0.00     0.200 A 
ATOM     99  F   UNL     1      17.114  -8.987  19.154  1.00  0.00    -0.200 F 
ATOM    100  F   UNL     1      15.589  -8.443  21.349  1.00  0.00    -0.200 F 
ENDBRANCH  67  90
ENDBRANCH  41  42
ENDBRANCH  33  36
ENDBRANCH  31  32
ENDBRANCH  30  31
ENDBRANCH   1  30
TORSDOF 15
