REMARK SMILES Cc1ccc(C2=NN(C(=O)CCC(=O)NCCCCNC(=O)c3ccc(-c4c5nc(c(-c6c(F)c(F)c(F)c(F)c6F)c6ccc([nH]6)c(-c6c(F)c(F)c(F)c(F)c6F)c6nc(c(-c7c(F)c(F)c(F)c(F)c7F)c7ccc4[nH]7)C=C6)C=C5)cc3)[C@H](C[C@@H]3C=c4cccc(C)c4=NC3=O)C2)cc1
REMARK SMILES IDX 16 1 15 2 13 3 14 4 12 6 11 7 9 8 10 9 8 10 6 11 7 12 100 13
REMARK SMILES IDX 86 14 5 15 1 16 2 17 3 18 102 19 4 20 101 21 87 22 88 23
REMARK SMILES IDX 89 24 98 25 90 26 97 27 99 28 91 29 96 30 92 31 94 32 93 33
REMARK SMILES IDX 95 34 17 35 18 36 19 37 20 38 21 39 22 41 23 42 24 43 85 44
REMARK SMILES IDX 25 45 84 46 26 47 27 48 28 49 78 50 29 51 83 52 77 53 79 54
REMARK SMILES IDX 30 55 82 56 76 57 75 58 31 60 63 61 43 62 62 63 44 64 47 65
REMARK SMILES IDX 61 66 80 67 45 68 46 69 60 71 81 72 48 73 32 74 33 75 41 76
REMARK SMILES IDX 34 77 35 78 39 79 42 80 36 81 37 82 40 83 38 84 64 85 65 86
REMARK SMILES IDX 73 87 66 88 67 89 71 90 74 91 68 92 69 93 72 94 70 95 49 96
REMARK SMILES IDX 50 97 58 98 51 99 52 100 56 101 59 102 53 103 54 104 57 105
REMARK SMILES IDX 55 106
REMARK H PARENT 15 5 20 40 79 59 47 70
REMARK Flexibility Score: inf
ROOT
ATOM      1  C   UNL     1      -4.782   0.414   0.892  1.00  0.00     0.116 C 
ENDROOT
BRANCH   1   2
ATOM      2  N   UNL     1      -5.751   1.681   1.115  1.00  0.00    -0.356 N 
ATOM      3  C   UNL     1      -6.989   1.893   1.632  1.00  0.00     0.220 C 
ATOM      4  O   UNL     1      -7.419   3.047   1.533  1.00  0.00    -0.275 OA
ATOM      5  H   UNL     1      -5.341   2.516   0.792  1.00  0.00     0.163 HD
BRANCH   3   6
ATOM      6  C   UNL     1      -7.830   0.824   2.295  1.00  0.00     0.110 C 
BRANCH   6   7
ATOM      7  C   UNL     1      -7.976  -0.536   1.636  1.00  0.00     0.112 C 
BRANCH   7   8
ATOM      8  C   UNL     1      -6.718  -1.376   1.686  1.00  0.00     0.243 C 
ATOM      9  O   UNL     1      -6.445  -2.055   2.672  1.00  0.00    -0.273 OA
BRANCH   8  10
ATOM     10  N   UNL     1      -5.850  -1.180   0.580  1.00  0.00    -0.230 N 
ATOM     11  C   UNL     1      -3.118  -0.448   0.285  1.00  0.00     0.070 C 
ATOM     12  N   UNL     1      -4.078  -1.458   0.979  1.00  0.00    -0.174 NA
ATOM     13  C   UNL     1      -4.256   1.004  -0.770  1.00  0.00     0.086 C 
ATOM     14  C   UNL     1      -6.126   0.176  -0.691  1.00  0.00     0.118 C 
BRANCH  11  15
ATOM     15  C   UNL     1      -1.569  -1.203   0.089  1.00  0.00    -0.002 A 
ATOM     16  C   UNL     1       2.737  -1.852   0.362  1.00  0.00     0.044 C 
ATOM     17  C   UNL     1       1.244  -1.882   0.234  1.00  0.00    -0.051 A 
ATOM     18  C   UNL     1       0.353  -2.192   1.270  1.00  0.00     0.004 A 
ATOM     19  C   UNL     1       0.702  -1.454  -0.951  1.00  0.00     0.004 A 
ATOM     20  C   UNL     1      -1.037  -1.871   1.197  1.00  0.00     0.010 A 
ATOM     21  C   UNL     1      -0.668  -1.184  -1.019  1.00  0.00     0.010 A 
ENDBRANCH  11  15
BRANCH  14  22
ATOM     22  C   UNL     1      -6.991  -0.538  -1.992  1.00  0.00     0.045 C 
BRANCH  22  23
ATOM     23  C   UNL     1      -7.870  -1.819  -1.668  1.00  0.00     0.106 C 
ATOM     24  C   UNL     1      -7.241  -2.953  -0.893  1.00  0.00    -0.003 C 
ATOM     25  C   UNL     1      -8.617  -2.542  -2.804  1.00  0.00     0.253 C 
ATOM     26  C   UNL     1      -8.047  -3.891  -0.393  1.00  0.00    -0.003 A 
ATOM     27  N   UNL     1      -9.404  -3.643  -2.443  1.00  0.00    -0.212 NA
ATOM     28  O   UNL     1      -8.565  -2.120  -3.956  1.00  0.00    -0.272 OA
ATOM     29  C   UNL     1      -7.885  -4.524   0.891  1.00  0.00     0.010 A 
ATOM     30  C   UNL     1      -9.150  -4.264  -1.325  1.00  0.00     0.077 A 
ATOM     31  C   UNL     1      -8.759  -5.454   1.291  1.00  0.00     0.001 A 
ATOM     32  C   UNL     1      -9.857  -5.533  -0.901  1.00  0.00    -0.025 A 
ATOM     33  C   UNL     1      -9.688  -6.021   0.345  1.00  0.00     0.005 A 
ATOM     34  C   UNL     1     -10.556  -6.322  -1.958  1.00  0.00     0.047 C 
ENDBRANCH  22  23
ENDBRANCH  14  22
ENDBRANCH   8  10
ENDBRANCH   7   8
ENDBRANCH   6   7
ENDBRANCH   3   6
ENDBRANCH   1   2
BRANCH   1  35
ATOM     35  C   UNL     1      -4.421  -0.789  -0.918  1.00  0.00     0.023 C 
BRANCH  35  36
ATOM     36  C   UNL     1      -3.041  -0.206  -2.119  1.00  0.00     0.023 C 
BRANCH  36  37
ATOM     37  C   UNL     1      -1.938   1.174  -1.728  1.00  0.00     0.116 C 
BRANCH  37  38
ATOM     38  N   UNL     1      -1.584   1.467  -0.282  1.00  0.00    -0.352 N 
ATOM     39  C   UNL     1      -0.495   1.287   0.572  1.00  0.00     0.251 C 
ATOM     40  H   UNL     1      -2.331   1.907   0.184  1.00  0.00     0.163 HD
ATOM     41  O   UNL     1      -0.761   1.001   1.746  1.00  0.00    -0.269 OA
BRANCH  39  42
ATOM     42  C   UNL     1       0.887   1.831   0.216  1.00  0.00     0.039 A 
ATOM     43  C   UNL     1       1.591   2.081   1.420  1.00  0.00     0.014 A 
ATOM     44  C   UNL     1       0.619   2.943  -0.555  1.00  0.00     0.014 A 
ATOM     45  C   UNL     1       1.223   3.201   2.162  1.00  0.00     0.010 A 
ATOM     46  C   UNL     1       0.045   3.957   0.175  1.00  0.00     0.010 A 
ATOM     47  C   UNL     1       0.308   4.050   1.562  1.00  0.00    -0.014 A 
BRANCH  47  48
ATOM     48  C   UNL     1      -0.336   5.175   2.194  1.00  0.00     0.031 A 
ATOM     49  C   UNL     1       0.198   6.484   1.776  1.00  0.00     0.074 A 
ATOM     50  C   UNL     1      -1.454   5.031   2.937  1.00  0.00     0.049 A 
ATOM     51  N   UNL     1       0.002   7.588   2.400  1.00  0.00    -0.248 NA
ATOM     52  C   UNL     1       1.123   6.630   0.646  1.00  0.00     0.031 C 
ATOM     53  C   UNL     1      -2.463   6.054   3.196  1.00  0.00     0.029 A 
ATOM     54  N   UNL     1      -1.862   3.946   3.718  1.00  0.00    -0.354 N 
ATOM     55  C   UNL     1       0.431   8.590   1.558  1.00  0.00     0.074 A 
ATOM     56  C   UNL     1       1.295   7.947   0.616  1.00  0.00     0.031 C 
ATOM     57  C   UNL     1      -3.247   5.659   4.211  1.00  0.00     0.029 A 
ATOM     58  C   UNL     1      -2.668   4.450   4.765  1.00  0.00     0.049 A 
ATOM     59  H   UNL     1      -1.630   3.001   3.567  1.00  0.00     0.167 HD
ATOM     60  C   UNL     1      -0.186   9.798   1.647  1.00  0.00     0.037 A 
ATOM     61  C   UNL     1      -2.266   4.333   6.069  1.00  0.00     0.037 A 
ATOM     62  C   UNL     1      -1.015   9.832   2.860  1.00  0.00     0.049 A 
ATOM     63  C   UNL     1      -1.863   5.641   6.718  1.00  0.00     0.074 A 
ATOM     64  C   UNL     1      -2.379   9.740   3.083  1.00  0.00     0.029 A 
ATOM     65  N   UNL     1      -0.407   9.589   4.091  1.00  0.00    -0.354 N 
ATOM     66  N   UNL     1      -1.737   6.765   6.066  1.00  0.00    -0.248 NA
ATOM     67  C   UNL     1      -1.541   5.790   8.134  1.00  0.00     0.031 C 
ATOM     68  C   UNL     1      -2.579   9.374   4.445  1.00  0.00     0.029 A 
ATOM     69  C   UNL     1      -1.342   9.274   5.060  1.00  0.00     0.049 A 
ATOM     70  H   UNL     1       0.563   9.635   4.250  1.00  0.00     0.167 HD
ATOM     71  C   UNL     1      -1.258   7.741   6.899  1.00  0.00     0.074 A 
ATOM     72  C   UNL     1      -1.209   7.093   8.197  1.00  0.00     0.031 C 
ATOM     73  C   UNL     1      -0.907   8.976   6.425  1.00  0.00     0.037 A 
BRANCH  60  74
ATOM     74  C   UNL     1      -0.272  10.814   0.518  1.00  0.00     0.064 A 
ATOM     75  C   UNL     1      -1.150  11.912   0.641  1.00  0.00     0.173 A 
ATOM     76  C   UNL     1       0.379  10.744  -0.737  1.00  0.00     0.173 A 
ATOM     77  F   UNL     1      -1.820  12.142   1.778  1.00  0.00    -0.203 F 
ATOM     78  C   UNL     1      -1.388  12.815  -0.403  1.00  0.00     0.198 A 
ATOM     79  C   UNL     1       0.148  11.650  -1.776  1.00  0.00     0.198 A 
ATOM     80  F   UNL     1       1.267   9.803  -1.049  1.00  0.00    -0.203 F 
ATOM     81  F   UNL     1      -2.263  13.814  -0.228  1.00  0.00    -0.200 F 
ATOM     82  C   UNL     1      -0.744  12.681  -1.614  1.00  0.00     0.200 A 
ATOM     83  F   UNL     1       0.796  11.496  -2.941  1.00  0.00    -0.200 F 
ATOM     84  F   UNL     1      -0.975  13.539  -2.616  1.00  0.00    -0.200 F 
ENDBRANCH  60  74
BRANCH  61  85
ATOM     85  C   UNL     1      -1.684   2.990   6.344  1.00  0.00     0.064 A 
ATOM     86  C   UNL     1      -2.591   1.914   6.324  1.00  0.00     0.173 A 
ATOM     87  C   UNL     1      -0.347   2.725   6.021  1.00  0.00     0.173 A 
ATOM     88  F   UNL     1      -3.870   2.113   6.684  1.00  0.00    -0.203 F 
ATOM     89  C   UNL     1      -2.229   0.684   5.782  1.00  0.00     0.198 A 
ATOM     90  C   UNL     1       0.014   1.488   5.482  1.00  0.00     0.198 A 
ATOM     91  F   UNL     1       0.568   3.704   6.073  1.00  0.00    -0.203 F 
ATOM     92  F   UNL     1      -3.154  -0.272   5.626  1.00  0.00    -0.200 F 
ATOM     93  C   UNL     1      -0.939   0.490   5.314  1.00  0.00     0.200 A 
ATOM     94  F   UNL     1       1.265   1.294   5.039  1.00  0.00    -0.200 F 
ATOM     95  F   UNL     1      -0.621  -0.649   4.681  1.00  0.00    -0.200 F 
ENDBRANCH  61  85
BRANCH  73  96
ATOM     96  C   UNL     1      -0.147  10.053   7.180  1.00  0.00     0.064 A 
ATOM     97  C   UNL     1       0.687   9.822   8.285  1.00  0.00     0.173 A 
ATOM     98  C   UNL     1      -0.135  11.386   6.691  1.00  0.00     0.173 A 
ATOM     99  F   UNL     1       0.886   8.591   8.773  1.00  0.00    -0.203 F 
ATOM    100  C   UNL     1       1.413  10.851   8.896  1.00  0.00     0.198 A 
ATOM    101  C   UNL     1       0.658  12.388   7.247  1.00  0.00     0.198 A 
ATOM    102  F   UNL     1      -0.873  11.759   5.635  1.00  0.00    -0.203 F 
ATOM    103  F   UNL     1       2.144  10.586   9.988  1.00  0.00    -0.200 F 
ATOM    104  C   UNL     1       1.413  12.127   8.368  1.00  0.00     0.200 A 
ATOM    105  F   UNL     1       0.697  13.600   6.675  1.00  0.00    -0.200 F 
ATOM    106  F   UNL     1       2.155  13.094   8.922  1.00  0.00    -0.200 F 
ENDBRANCH  73  96
ENDBRANCH  47  48
ENDBRANCH  39  42
ENDBRANCH  37  38
ENDBRANCH  36  37
ENDBRANCH  35  36
ENDBRANCH   1  35
TORSDOF 17
