REMARK SMILES Cc1cc(F)c(C(=O)NCCCCNC(=O)c2ccc(-c3c4nc(c(-c5c(F)c(F)c(F)c(F)c5F)c5ccc([nH]5)c(-c5c(F)c(F)c(F)c(F)c5F)c5nc(c(-c6c(F)c(F)c(F)c(F)c6F)c6ccc3[nH]6)C=C5)C=C4)cc2)cc1F
REMARK SMILES IDX 12 1 11 2 10 3 9 4 7 5 8 6 6 8 1 9 2 10 3 11 81 12 4 13
REMARK SMILES IDX 80 14 82 15 5 16 13 17 14 18 15 19 16 21 17 22 18 23 79 24
REMARK SMILES IDX 19 25 78 26 20 27 21 28 22 29 72 30 23 31 77 32 71 33 73 34
REMARK SMILES IDX 24 35 76 36 70 37 69 38 25 40 57 41 37 42 56 43 38 44 41 45
REMARK SMILES IDX 55 46 74 47 39 48 40 49 54 51 75 52 42 53 26 54 27 55 35 56
REMARK SMILES IDX 28 57 29 58 33 59 36 60 30 61 31 62 34 63 32 64 58 65 59 66
REMARK SMILES IDX 67 67 60 68 61 69 65 70 68 71 62 72 63 73 66 74 64 75 43 76
REMARK SMILES IDX 44 77 52 78 45 79 46 80 50 81 53 82 47 83 48 84 51 85 49 86
REMARK H PARENT 9 7 14 20 73 39 41 50
REMARK Flexibility Score: inf
ROOT
ATOM      1  C   UNL     1       2.443   8.208  -1.309  1.00  0.00     0.023 C 
ENDROOT
BRANCH   1   2
ATOM      2  C   UNL     1       2.602   6.782  -0.792  1.00  0.00     0.023 C 
BRANCH   2   3
ATOM      3  C   UNL     1       1.319   5.982  -0.599  1.00  0.00     0.116 C 
BRANCH   3   4
ATOM      4  N   UNL     1       0.482   5.895  -1.784  1.00  0.00    -0.352 N 
ATOM      5  C   UNL     1      -0.206   4.825  -2.310  1.00  0.00     0.254 C 
ATOM      6  O   UNL     1      -0.914   4.996  -3.297  1.00  0.00    -0.269 OA
ATOM      7  H   UNL     1       0.393   6.735  -2.290  1.00  0.00     0.163 HD
BRANCH   5   8
ATOM      8  C   UNL     1      -0.087   3.484  -1.708  1.00  0.00     0.078 A 
ATOM      9  C   UNL     1       0.721  -0.386  -0.009  1.00  0.00     0.047 C 
ATOM     10  C   UNL     1       0.352   0.936  -0.609  1.00  0.00    -0.012 A 
ATOM     11  C   UNL     1       0.405   1.127  -1.995  1.00  0.00     0.046 A 
ATOM     12  C   UNL     1       0.026   2.025   0.204  1.00  0.00     0.127 A 
ATOM     13  C   UNL     1       0.187   2.394  -2.536  1.00  0.00     0.136 A 
ATOM     14  C   UNL     1      -0.228   3.283  -0.333  1.00  0.00     0.056 A 
ATOM     15  F   UNL     1      -0.014   1.878   1.536  1.00  0.00    -0.207 F 
ATOM     16  F   UNL     1       0.300   2.542  -3.863  1.00  0.00    -0.206 F 
ENDBRANCH   5   8
ENDBRANCH   3   4
ENDBRANCH   2   3
ENDBRANCH   1   2
BRANCH   1  17
ATOM     17  C   UNL     1       1.390   9.062  -0.614  1.00  0.00     0.116 C 
BRANCH  17  18
ATOM     18  N   UNL     1       1.637   9.271   0.805  1.00  0.00    -0.352 N 
ATOM     19  C   UNL     1       1.787  10.442   1.517  1.00  0.00     0.251 C 
ATOM     20  H   UNL     1       1.708   8.447   1.340  1.00  0.00     0.163 HD
ATOM     21  O   UNL     1       2.055  10.407   2.712  1.00  0.00    -0.269 OA
BRANCH  19  22
ATOM     22  C   UNL     1       1.686  11.744   0.823  1.00  0.00     0.039 A 
ATOM     23  C   UNL     1       0.644  12.005  -0.067  1.00  0.00     0.014 A 
ATOM     24  C   UNL     1       2.692  12.694   1.022  1.00  0.00     0.014 A 
ATOM     25  C   UNL     1       0.727  13.105  -0.915  1.00  0.00     0.010 A 
ATOM     26  C   UNL     1       2.722  13.848   0.234  1.00  0.00     0.010 A 
ATOM     27  C   UNL     1       1.780  14.026  -0.790  1.00  0.00    -0.014 A 
BRANCH  27  28
ATOM     28  C   UNL     1       1.906  15.136  -1.772  1.00  0.00     0.031 A 
ATOM     29  C   UNL     1       3.087  15.201  -2.706  1.00  0.00     0.074 A 
ATOM     30  C   UNL     1       0.922  16.049  -1.873  1.00  0.00     0.049 A 
ATOM     31  N   UNL     1       3.374  16.100  -3.616  1.00  0.00    -0.248 NA
ATOM     32  C   UNL     1       4.079  14.119  -2.606  1.00  0.00     0.031 C 
ATOM     33  C   UNL     1      -0.286  16.078  -1.048  1.00  0.00     0.029 A 
ATOM     34  N   UNL     1       0.766  17.108  -2.730  1.00  0.00    -0.354 N 
ATOM     35  C   UNL     1       4.584  15.707  -4.173  1.00  0.00     0.074 A 
ATOM     36  C   UNL     1       4.992  14.499  -3.489  1.00  0.00     0.031 C 
ATOM     37  C   UNL     1      -1.084  17.068  -1.474  1.00  0.00     0.029 A 
ATOM     38  C   UNL     1      -0.416  17.783  -2.557  1.00  0.00     0.049 A 
ATOM     39  H   UNL     1       1.438  17.361  -3.404  1.00  0.00     0.167 HD
ATOM     40  C   UNL     1       5.286  16.294  -5.173  1.00  0.00     0.037 A 
ATOM     41  C   UNL     1      -0.905  18.866  -3.189  1.00  0.00     0.037 A 
ATOM     42  C   UNL     1       4.864  17.475  -5.879  1.00  0.00     0.049 A 
ATOM     43  C   UNL     1      -0.092  19.516  -4.271  1.00  0.00     0.074 A 
ATOM     44  C   UNL     1       5.503  18.138  -6.913  1.00  0.00     0.029 A 
ATOM     45  N   UNL     1       3.686  18.164  -5.632  1.00  0.00    -0.354 N 
ATOM     46  N   UNL     1       1.067  19.153  -4.764  1.00  0.00    -0.248 NA
ATOM     47  C   UNL     1      -0.648  20.735  -4.873  1.00  0.00     0.031 C 
ATOM     48  C   UNL     1       4.728  19.246  -7.270  1.00  0.00     0.029 A 
ATOM     49  C   UNL     1       3.587  19.252  -6.485  1.00  0.00     0.049 A 
ATOM     50  H   UNL     1       3.018  17.917  -4.952  1.00  0.00     0.167 HD
ATOM     51  C   UNL     1       1.380  20.096  -5.733  1.00  0.00     0.074 A 
ATOM     52  C   UNL     1       0.276  21.032  -5.778  1.00  0.00     0.031 C 
ATOM     53  C   UNL     1       2.487  20.181  -6.509  1.00  0.00     0.037 A 
BRANCH  40  54
ATOM     54  C   UNL     1       6.597  15.677  -5.563  1.00  0.00     0.064 A 
ATOM     55  C   UNL     1       6.659  14.489  -6.305  1.00  0.00     0.173 A 
ATOM     56  C   UNL     1       7.804  16.318  -5.247  1.00  0.00     0.173 A 
ATOM     57  F   UNL     1       5.533  13.831  -6.620  1.00  0.00    -0.203 F 
ATOM     58  C   UNL     1       7.883  13.957  -6.705  1.00  0.00     0.198 A 
ATOM     59  C   UNL     1       9.025  15.797  -5.668  1.00  0.00     0.198 A 
ATOM     60  F   UNL     1       7.799  17.460  -4.544  1.00  0.00    -0.203 F 
ATOM     61  F   UNL     1       7.920  12.804  -7.387  1.00  0.00    -0.200 F 
ATOM     62  C   UNL     1       9.063  14.616  -6.394  1.00  0.00     0.200 A 
ATOM     63  F   UNL     1      10.164  16.440  -5.376  1.00  0.00    -0.200 F 
ATOM     64  F   UNL     1      10.239  14.109  -6.790  1.00  0.00    -0.200 F 
ENDBRANCH  40  54
BRANCH  41  65
ATOM     65  C   UNL     1      -2.234  19.400  -2.801  1.00  0.00     0.064 A 
ATOM     66  C   UNL     1      -3.337  19.269  -3.655  1.00  0.00     0.173 A 
ATOM     67  C   UNL     1      -2.436  20.016  -1.558  1.00  0.00     0.173 A 
ATOM     68  F   UNL     1      -3.187  18.706  -4.862  1.00  0.00    -0.203 F 
ATOM     69  C   UNL     1      -4.595  19.736  -3.278  1.00  0.00     0.198 A 
ATOM     70  C   UNL     1      -3.698  20.459  -1.172  1.00  0.00     0.198 A 
ATOM     71  F   UNL     1      -1.410  20.162  -0.707  1.00  0.00    -0.203 F 
ATOM     72  F   UNL     1      -5.629  19.622  -4.121  1.00  0.00    -0.200 F 
ATOM     73  C   UNL     1      -4.776  20.321  -2.033  1.00  0.00     0.200 A 
ATOM     74  F   UNL     1      -3.872  21.009   0.037  1.00  0.00    -0.200 F 
ATOM     75  F   UNL     1      -5.989  20.755  -1.665  1.00  0.00    -0.200 F 
ENDBRANCH  41  65
BRANCH  53  76
ATOM     76  C   UNL     1       2.560  21.327  -7.472  1.00  0.00     0.064 A 
ATOM     77  C   UNL     1       2.824  22.632  -7.031  1.00  0.00     0.173 A 
ATOM     78  C   UNL     1       2.405  21.114  -8.849  1.00  0.00     0.173 A 
ATOM     79  F   UNL     1       2.965  22.886  -5.722  1.00  0.00    -0.203 F 
ATOM     80  C   UNL     1       2.911  23.687  -7.935  1.00  0.00     0.198 A 
ATOM     81  C   UNL     1       2.516  22.167  -9.752  1.00  0.00     0.198 A 
ATOM     82  F   UNL     1       2.157  19.882  -9.319  1.00  0.00    -0.203 F 
ATOM     83  F   UNL     1       3.126  24.933  -7.489  1.00  0.00    -0.200 F 
ATOM     84  C   UNL     1       2.763  23.453  -9.294  1.00  0.00     0.200 A 
ATOM     85  F   UNL     1       2.382  21.939 -11.066  1.00  0.00    -0.200 F 
ATOM     86  F   UNL     1       2.852  24.469 -10.163  1.00  0.00    -0.200 F 
ENDBRANCH  53  76
ENDBRANCH  27  28
ENDBRANCH  19  22
ENDBRANCH  17  18
ENDBRANCH   1  17
TORSDOF 11
