REMARK SMILES C[C@](NC(=O)c1c(F)cccc1F)(C(=O)NCCCCNC(=O)c1ccc(-c2c3nc(c(-c4c(F)c(F)c(F)c(F)c4F)c4ccc([nH]4)c(-c4c(F)c(F)c(F)c(F)c4F)c4nc(c(-c5c(F)c(F)c(F)c(F)c5F)c5ccc2[nH]5)C=C4)C=C3)cc1)C(F)(F)F
REMARK SMILES IDX 18 1 17 2 16 3 14 4 15 5 2 7 1 8 87 9 88 10 89 11 90 12 3 13
REMARK SMILES IDX 4 14 5 16 6 17 7 18 12 19 8 20 9 21 11 22 13 23 10 24 19 25
REMARK SMILES IDX 20 26 21 27 22 28 23 30 24 31 25 32 86 33 26 34 85 35 27 36
REMARK SMILES IDX 28 37 29 38 79 39 30 40 84 41 78 42 80 43 31 44 83 45 77 46
REMARK SMILES IDX 76 47 32 49 64 50 44 51 63 52 45 53 48 54 62 55 81 56 46 57
REMARK SMILES IDX 47 58 61 60 82 61 49 62 33 63 34 64 42 65 35 66 36 67 40 68
REMARK SMILES IDX 43 69 37 70 38 71 41 72 39 73 65 74 66 75 74 76 67 77 68 78
REMARK SMILES IDX 72 79 75 80 69 81 70 82 73 83 71 84 50 85 51 86 59 87 52 88
REMARK SMILES IDX 53 89 57 90 60 91 54 92 55 93 58 94 56 95
REMARK H PARENT 16 6 3 15 21 29 80 48 48 59
REMARK Flexibility Score: inf
ROOT
ATOM      1  C   UNL     1      -1.163   2.683   0.023  1.00  0.00     0.023 C 
ENDROOT
BRANCH   1   2
ATOM      2  C   UNL     1      -0.737   1.837   1.221  1.00  0.00     0.116 C 
BRANCH   2   3
ATOM      3  N   UNL     1      -1.433   0.565   1.238  1.00  0.00    -0.354 N 
ATOM      4  C   UNL     1      -1.000  -0.726   1.289  1.00  0.00     0.254 C 
ATOM      5  O   UNL     1      -1.889  -1.543   1.556  1.00  0.00    -0.272 OA
ATOM      6  H   UNL     1      -2.413   0.651   1.208  1.00  0.00     0.163 HD
BRANCH   4   7
ATOM      7  C   UNL     1       0.498  -1.111   1.298  1.00  0.00     0.212 C 
ATOM      8  C   UNL     1       0.929  -0.898   2.760  1.00  0.00     0.056 C 
BRANCH   7   9
ATOM      9  C   UNL     1       0.510  -2.610   0.873  1.00  0.00     0.420 C 
ATOM     10  F   UNL     1      -0.455  -2.915  -0.027  1.00  0.00    -0.168 F 
ATOM     11  F   UNL     1       1.664  -2.936   0.241  1.00  0.00    -0.168 F 
ATOM     12  F   UNL     1       0.389  -3.447   1.927  1.00  0.00    -0.168 F 
ENDBRANCH   7   9
BRANCH   7  13
ATOM     13  N   UNL     1       1.297  -0.274   0.341  1.00  0.00    -0.330 N 
ATOM     14  C   UNL     1       2.633   0.036   0.228  1.00  0.00     0.258 C 
ATOM     15  H   UNL     1       0.745   0.144  -0.358  1.00  0.00     0.165 HD
ATOM     16  O   UNL     1       3.007   0.581  -0.809  1.00  0.00    -0.269 OA
BRANCH  14  17
ATOM     17  C   UNL     1       3.612  -0.129   1.317  1.00  0.00     0.111 A 
ATOM     18  C   UNL     1       4.002  -1.360   1.832  1.00  0.00     0.138 A 
ATOM     19  C   UNL     1       4.248   1.013   1.808  1.00  0.00     0.138 A 
ATOM     20  F   UNL     1       3.485  -2.502   1.379  1.00  0.00    -0.206 F 
ATOM     21  C   UNL     1       4.927  -1.456   2.873  1.00  0.00     0.040 A 
ATOM     22  C   UNL     1       5.200   0.929   2.828  1.00  0.00     0.040 A 
ATOM     23  F   UNL     1       3.941   2.229   1.333  1.00  0.00    -0.206 F 
ATOM     24  C   UNL     1       5.528  -0.308   3.377  1.00  0.00     0.006 A 
ENDBRANCH  14  17
ENDBRANCH   7  13
ENDBRANCH   4   7
ENDBRANCH   2   3
ENDBRANCH   1   2
BRANCH   1  25
ATOM     25  C   UNL     1      -2.663   2.996  -0.043  1.00  0.00     0.023 C 
BRANCH  25  26
ATOM     26  C   UNL     1      -3.256   3.632   1.210  1.00  0.00     0.116 C 
BRANCH  26  27
ATOM     27  N   UNL     1      -2.643   4.909   1.536  1.00  0.00    -0.352 N 
ATOM     28  C   UNL     1      -3.236   6.123   1.775  1.00  0.00     0.251 C 
ATOM     29  H   UNL     1      -1.660   4.902   1.593  1.00  0.00     0.163 HD
ATOM     30  O   UNL     1      -2.549   7.136   1.882  1.00  0.00    -0.269 OA
BRANCH  28  31
ATOM     31  C   UNL     1      -4.708   6.221   1.876  1.00  0.00     0.039 A 
ATOM     32  C   UNL     1      -5.364   7.244   1.187  1.00  0.00     0.014 A 
ATOM     33  C   UNL     1      -5.439   5.306   2.639  1.00  0.00     0.014 A 
ATOM     34  C   UNL     1      -6.759   7.307   1.207  1.00  0.00     0.010 A 
ATOM     35  C   UNL     1      -6.831   5.326   2.596  1.00  0.00     0.010 A 
ATOM     36  C   UNL     1      -7.506   6.325   1.879  1.00  0.00    -0.014 A 
BRANCH  36  37
ATOM     37  C   UNL     1      -8.991   6.321   1.831  1.00  0.00     0.031 A 
ATOM     38  C   UNL     1      -9.791   6.502   3.090  1.00  0.00     0.074 A 
ATOM     39  C   UNL     1      -9.618   6.098   0.659  1.00  0.00     0.049 A 
ATOM     40  N   UNL     1     -11.089   6.462   3.257  1.00  0.00    -0.248 NA
ATOM     41  C   UNL     1      -9.035   6.736   4.331  1.00  0.00     0.031 C 
ATOM     42  C   UNL     1      -8.953   5.869  -0.624  1.00  0.00     0.029 A 
ATOM     43  N   UNL     1     -10.956   6.020   0.356  1.00  0.00    -0.354 N 
ATOM     44  C   UNL     1     -11.302   6.657   4.616  1.00  0.00     0.074 A 
ATOM     45  C   UNL     1     -10.001   6.758   5.238  1.00  0.00     0.031 C 
ATOM     46  C   UNL     1      -9.882   5.706  -1.579  1.00  0.00     0.029 A 
ATOM     47  C   UNL     1     -11.208   5.773  -0.972  1.00  0.00     0.049 A 
ATOM     48  H   UNL     1     -11.667   6.131   1.028  1.00  0.00     0.167 HD
ATOM     49  C   UNL     1     -12.477   6.769   5.277  1.00  0.00     0.037 A 
ATOM     50  C   UNL     1     -12.374   5.611  -1.626  1.00  0.00     0.037 A 
ATOM     51  C   UNL     1     -13.771   6.693   4.649  1.00  0.00     0.049 A 
ATOM     52  C   UNL     1     -13.667   5.718  -0.862  1.00  0.00     0.074 A 
ATOM     53  C   UNL     1     -15.018   6.847   5.229  1.00  0.00     0.029 A 
ATOM     54  N   UNL     1     -13.983   6.443   3.302  1.00  0.00    -0.354 N 
ATOM     55  N   UNL     1     -13.855   5.961   0.412  1.00  0.00    -0.248 NA
ATOM     56  C   UNL     1     -14.909   5.531  -1.625  1.00  0.00     0.031 C 
ATOM     57  C   UNL     1     -15.986   6.635   4.245  1.00  0.00     0.029 A 
ATOM     58  C   UNL     1     -15.344   6.413   3.038  1.00  0.00     0.049 A 
ATOM     59  H   UNL     1     -13.274   6.308   2.632  1.00  0.00     0.167 HD
ATOM     60  C   UNL     1     -15.230   5.985   0.598  1.00  0.00     0.074 A 
ATOM     61  C   UNL     1     -15.831   5.745  -0.697  1.00  0.00     0.031 C 
ATOM     62  C   UNL     1     -15.930   6.186   1.741  1.00  0.00     0.037 A 
BRANCH  49  63
ATOM     63  C   UNL     1     -12.432   7.003   6.760  1.00  0.00     0.064 A 
ATOM     64  C   UNL     1     -12.904   6.027   7.651  1.00  0.00     0.173 A 
ATOM     65  C   UNL     1     -12.004   8.227   7.295  1.00  0.00     0.173 A 
ATOM     66  F   UNL     1     -13.331   4.841   7.191  1.00  0.00    -0.203 F 
ATOM     67  C   UNL     1     -12.964   6.274   9.020  1.00  0.00     0.198 A 
ATOM     68  C   UNL     1     -12.036   8.459   8.668  1.00  0.00     0.198 A 
ATOM     69  F   UNL     1     -11.534   9.190   6.488  1.00  0.00    -0.203 F 
ATOM     70  F   UNL     1     -13.454   5.341   9.847  1.00  0.00    -0.200 F 
ATOM     71  C   UNL     1     -12.527   7.488   9.527  1.00  0.00     0.200 A 
ATOM     72  F   UNL     1     -11.589   9.624   9.159  1.00  0.00    -0.200 F 
ATOM     73  F   UNL     1     -12.578   7.723  10.846  1.00  0.00    -0.200 F 
ENDBRANCH  49  63
BRANCH  50  74
ATOM     74  C   UNL     1     -12.369   5.360  -3.092  1.00  0.00     0.064 A 
ATOM     75  C   UNL     1     -11.876   4.161  -3.628  1.00  0.00     0.173 A 
ATOM     76  C   UNL     1     -12.841   6.328  -3.989  1.00  0.00     0.173 A 
ATOM     77  F   UNL     1     -11.408   3.203  -2.815  1.00  0.00    -0.203 F 
ATOM     78  C   UNL     1     -11.837   3.950  -5.005  1.00  0.00     0.198 A 
ATOM     79  C   UNL     1     -12.831   6.103  -5.364  1.00  0.00     0.198 A 
ATOM     80  F   UNL     1     -13.342   7.483  -3.525  1.00  0.00    -0.203 F 
ATOM     81  F   UNL     1     -11.327   2.810  -5.492  1.00  0.00    -0.200 F 
ATOM     82  C   UNL     1     -12.320   4.918  -5.872  1.00  0.00     0.200 A 
ATOM     83  F   UNL     1     -13.324   7.031  -6.196  1.00  0.00    -0.200 F 
ATOM     84  F   UNL     1     -12.298   4.708  -7.195  1.00  0.00    -0.200 F 
ENDBRANCH  50  74
BRANCH  62  85
ATOM     85  C   UNL     1     -17.429   6.187   1.655  1.00  0.00     0.064 A 
ATOM     86  C   UNL     1     -18.152   7.370   1.875  1.00  0.00     0.173 A 
ATOM     87  C   UNL     1     -18.154   5.005   1.443  1.00  0.00     0.173 A 
ATOM     88  F   UNL     1     -17.506   8.526   2.091  1.00  0.00    -0.203 F 
ATOM     89  C   UNL     1     -19.543   7.366   1.907  1.00  0.00     0.198 A 
ATOM     90  C   UNL     1     -19.547   5.011   1.444  1.00  0.00     0.198 A 
ATOM     91  F   UNL     1     -17.511   3.850   1.216  1.00  0.00    -0.203 F 
ATOM     92  F   UNL     1     -20.210   8.500   2.163  1.00  0.00    -0.200 F 
ATOM     93  C   UNL     1     -20.239   6.187   1.688  1.00  0.00     0.200 A 
ATOM     94  F   UNL     1     -20.219   3.876   1.208  1.00  0.00    -0.200 F 
ATOM     95  F   UNL     1     -21.579   6.185   1.712  1.00  0.00    -0.200 F 
ENDBRANCH  62  85
ENDBRANCH  36  37
ENDBRANCH  28  31
ENDBRANCH  26  27
ENDBRANCH  25  26
ENDBRANCH   1  25
TORSDOF 14
