REMARK SMILES COc1ccc2c(c1)c(CC(=O)NCCCCNC(=O)c1ccc(-c3c4nc(c(-c5c(F)c(F)c(F)c(F)c5F)c5ccc([nH]5)c(-c5c(F)c(F)c(F)c(F)c5F)c5nc(c(-c6c(F)c(F)c(F)c(F)c6F)c6ccc3[nH]6)C=C5)C=C4)cc1)c(C)n2Cc1ccc(Br)cc1
REMARK SMILES IDX 15 1 14 2 13 3 11 4 12 5 10 7 9 8 3 9 4 10 8 11 5 12 7 13
REMARK SMILES IDX 6 14 86 15 84 16 85 17 2 18 1 19 87 20 88 21 89 22 94 23
REMARK SMILES IDX 90 24 93 25 91 26 92 27 16 28 17 29 18 30 19 31 20 33 21 34
REMARK SMILES IDX 22 35 83 36 23 37 82 38 24 39 25 40 26 41 76 42 27 43 81 44
REMARK SMILES IDX 75 45 77 46 28 47 80 48 74 49 73 50 29 52 61 53 41 54 60 55
REMARK SMILES IDX 42 56 45 57 59 58 78 59 43 60 44 61 58 63 79 64 46 65 30 66
REMARK SMILES IDX 31 67 39 68 32 69 33 70 37 71 40 72 34 73 35 74 38 75 36 76
REMARK SMILES IDX 62 77 63 78 71 79 64 80 65 81 69 82 72 83 66 84 67 85 70 86
REMARK SMILES IDX 68 87 47 88 48 89 56 90 49 91 50 92 54 93 57 94 51 95 52 96
REMARK SMILES IDX 55 97 53 98
REMARK H PARENT 13 6 18 32 77 51 45 62
REMARK Flexibility Score: inf
ROOT
ATOM      1  C   UNL     1       0.639   1.486   7.527  1.00  0.00     0.023 C 
ENDROOT
BRANCH   1   2
ATOM      2  C   UNL     1      -0.734   0.852   7.751  1.00  0.00     0.116 C 
BRANCH   2   3
ATOM      3  N   UNL     1      -1.672   1.193   6.699  1.00  0.00    -0.356 N 
ATOM      4  C   UNL     1      -2.279   0.376   5.788  1.00  0.00     0.224 C 
ATOM      5  O   UNL     1      -3.064   0.888   4.986  1.00  0.00    -0.275 OA
ATOM      6  H   UNL     1      -1.904   2.148   6.632  1.00  0.00     0.163 HD
BRANCH   4   7
ATOM      7  C   UNL     1      -2.052  -1.130   5.821  1.00  0.00     0.138 C 
BRANCH   7   8
ATOM      8  C   UNL     1      -0.616  -1.514   5.623  1.00  0.00    -0.010 A 
ATOM      9  C   UNL     1       1.001  -0.254   2.411  1.00  0.00     0.119 A 
ATOM     10  C   UNL     1       2.278  -0.732   2.687  1.00  0.00     0.048 A 
ATOM     11  C   UNL     1      -0.022  -0.413   3.345  1.00  0.00     0.057 A 
ATOM     12  C   UNL     1       2.557  -1.395   3.893  1.00  0.00     0.031 A 
ATOM     13  C   UNL     1       0.219  -1.126   4.538  1.00  0.00     0.007 A 
ATOM     14  C   UNL     1       1.507  -1.597   4.808  1.00  0.00     0.049 A 
ATOM     15  N   UNL     1       1.459  -2.206   6.059  1.00  0.00    -0.340 N 
ATOM     16  C   UNL     1       0.132  -2.365   6.427  1.00  0.00     0.020 A 
ATOM     17  C   UNL     1      -0.360  -3.240   7.528  1.00  0.00     0.065 C 
BRANCH   9  18
ATOM     18  O   UNL     1       0.670   0.446   1.281  1.00  0.00    -0.497 OA
ATOM     19  C   UNL     1       1.147  -0.139   0.073  1.00  0.00     0.278 C 
ENDBRANCH   9  18
BRANCH  15  20
ATOM     20  C   UNL     1       2.625  -2.710   6.793  1.00  0.00     0.157 C 
BRANCH  20  21
ATOM     21  C   UNL     1       3.050  -1.846   7.971  1.00  0.00    -0.028 A 
ATOM     22  C   UNL     1       2.274  -1.741   9.139  1.00  0.00     0.007 A 
ATOM     23  C   UNL     1       4.294  -1.193   7.958  1.00  0.00     0.007 A 
ATOM     24  C   UNL     1       2.710  -1.004  10.246  1.00  0.00     0.016 A 
ATOM     25  C   UNL     1       4.743  -0.469   9.071  1.00  0.00     0.016 A 
ATOM     26  C   UNL     1       3.948  -0.376  10.209  1.00  0.00     0.017 A 
ATOM     27  Br  UNL     1       4.563   0.583  11.718  1.00  0.00    -0.051 Br
ENDBRANCH  20  21
ENDBRANCH  15  20
ENDBRANCH   7   8
ENDBRANCH   4   7
ENDBRANCH   2   3
ENDBRANCH   1   2
BRANCH   1  28
ATOM     28  C   UNL     1       0.669   3.015   7.654  1.00  0.00     0.023 C 
BRANCH  28  29
ATOM     29  C   UNL     1      -0.030   3.565   8.900  1.00  0.00     0.116 C 
BRANCH  29  30
ATOM     30  N   UNL     1       0.473   3.000  10.138  1.00  0.00    -0.352 N 
ATOM     31  C   UNL     1       1.416   3.371  11.053  1.00  0.00     0.251 C 
ATOM     32  H   UNL     1       0.031   2.152  10.373  1.00  0.00     0.163 HD
ATOM     33  O   UNL     1       1.459   2.698  12.088  1.00  0.00    -0.269 OA
BRANCH  31  34
ATOM     34  C   UNL     1       2.401   4.472  10.873  1.00  0.00     0.039 A 
ATOM     35  C   UNL     1       2.506   5.282   9.743  1.00  0.00     0.014 A 
ATOM     36  C   UNL     1       3.348   4.637  11.902  1.00  0.00     0.014 A 
ATOM     37  C   UNL     1       3.572   6.161   9.598  1.00  0.00     0.010 A 
ATOM     38  C   UNL     1       4.413   5.523  11.768  1.00  0.00     0.010 A 
ATOM     39  C   UNL     1       4.556   6.241  10.584  1.00  0.00    -0.014 A 
BRANCH  39  40
ATOM     40  C   UNL     1       5.733   7.049  10.274  1.00  0.00     0.031 A 
ATOM     41  C   UNL     1       5.516   8.498   9.985  1.00  0.00     0.074 A 
ATOM     42  C   UNL     1       6.979   6.537  10.260  1.00  0.00     0.049 A 
ATOM     43  N   UNL     1       5.816   9.165   8.913  1.00  0.00    -0.248 NA
ATOM     44  C   UNL     1       4.846   9.298  11.020  1.00  0.00     0.031 C 
ATOM     45  C   UNL     1       7.446   5.239  10.752  1.00  0.00     0.029 A 
ATOM     46  N   UNL     1       8.127   7.149   9.858  1.00  0.00    -0.354 N 
ATOM     47  C   UNL     1       5.484  10.494   9.174  1.00  0.00     0.074 A 
ATOM     48  C   UNL     1       4.834  10.509  10.461  1.00  0.00     0.031 C 
ATOM     49  C   UNL     1       8.795   5.255  10.829  1.00  0.00     0.029 A 
ATOM     50  C   UNL     1       9.280   6.499  10.257  1.00  0.00     0.049 A 
ATOM     51  H   UNL     1       8.136   7.981   9.331  1.00  0.00     0.167 HD
ATOM     52  C   UNL     1       5.872  11.531   8.379  1.00  0.00     0.037 A 
ATOM     53  C   UNL     1      10.536   6.999  10.200  1.00  0.00     0.037 A 
ATOM     54  C   UNL     1       6.272  11.108   7.069  1.00  0.00     0.049 A 
ATOM     55  C   UNL     1      10.549   8.090   9.195  1.00  0.00     0.074 A 
ATOM     56  C   UNL     1       5.629  10.514   6.000  1.00  0.00     0.029 A 
ATOM     57  N   UNL     1       7.608  11.026   6.773  1.00  0.00    -0.354 N 
ATOM     58  N   UNL     1      10.415   7.910   7.911  1.00  0.00    -0.248 NA
ATOM     59  C   UNL     1      10.323   9.449   9.664  1.00  0.00     0.031 C 
ATOM     60  C   UNL     1       6.611   9.675   5.395  1.00  0.00     0.029 A 
ATOM     61  C   UNL     1       7.786   9.828   6.130  1.00  0.00     0.049 A 
ATOM     62  H   UNL     1       8.301  11.694   6.980  1.00  0.00     0.167 HD
ATOM     63  C   UNL     1       9.705   9.016   7.471  1.00  0.00     0.074 A 
ATOM     64  C   UNL     1       9.765   9.972   8.571  1.00  0.00     0.031 C 
ATOM     65  C   UNL     1       8.906   8.952   6.366  1.00  0.00     0.037 A 
BRANCH  52  66
ATOM     66  C   UNL     1       6.109  12.930   8.872  1.00  0.00     0.064 A 
ATOM     67  C   UNL     1       6.150  14.011   7.970  1.00  0.00     0.173 A 
ATOM     68  C   UNL     1       6.568  13.200  10.178  1.00  0.00     0.173 A 
ATOM     69  F   UNL     1       5.774  13.848   6.692  1.00  0.00    -0.203 F 
ATOM     70  C   UNL     1       6.645  15.263   8.344  1.00  0.00     0.198 A 
ATOM     71  C   UNL     1       7.017  14.462  10.561  1.00  0.00     0.198 A 
ATOM     72  F   UNL     1       6.688  12.225  11.090  1.00  0.00    -0.203 F 
ATOM     73  F   UNL     1       6.755  16.237   7.430  1.00  0.00    -0.200 F 
ATOM     74  C   UNL     1       7.078  15.488   9.639  1.00  0.00     0.200 A 
ATOM     75  F   UNL     1       7.455  14.656  11.813  1.00  0.00    -0.200 F 
ATOM     76  F   UNL     1       7.596  16.673   9.987  1.00  0.00    -0.200 F 
ENDBRANCH  52  66
BRANCH  53  77
ATOM     77  C   UNL     1      11.593   6.846  11.224  1.00  0.00     0.064 A 
ATOM     78  C   UNL     1      12.930   7.146  10.928  1.00  0.00     0.173 A 
ATOM     79  C   UNL     1      11.271   6.673  12.586  1.00  0.00     0.173 A 
ATOM     80  F   UNL     1      13.305   7.372   9.661  1.00  0.00    -0.203 F 
ATOM     81  C   UNL     1      13.885   7.292  11.939  1.00  0.00     0.198 A 
ATOM     82  C   UNL     1      12.227   6.807  13.591  1.00  0.00     0.198 A 
ATOM     83  F   UNL     1      10.005   6.470  12.976  1.00  0.00    -0.203 F 
ATOM     84  F   UNL     1      15.140   7.645  11.626  1.00  0.00    -0.200 F 
ATOM     85  C   UNL     1      13.531   7.132  13.269  1.00  0.00     0.200 A 
ATOM     86  F   UNL     1      11.861   6.686  14.875  1.00  0.00    -0.200 F 
ATOM     87  F   UNL     1      14.432   7.332  14.240  1.00  0.00    -0.200 F 
ENDBRANCH  53  77
BRANCH  65  88
ATOM     88  C   UNL     1       9.006   7.727   5.505  1.00  0.00     0.064 A 
ATOM     89  C   UNL     1       8.651   6.442   5.952  1.00  0.00     0.173 A 
ATOM     90  C   UNL     1       9.329   7.873   4.150  1.00  0.00     0.173 A 
ATOM     91  F   UNL     1       8.223   6.244   7.205  1.00  0.00    -0.203 F 
ATOM     92  C   UNL     1       8.673   5.346   5.092  1.00  0.00     0.198 A 
ATOM     93  C   UNL     1       9.316   6.782   3.285  1.00  0.00     0.198 A 
ATOM     94  F   UNL     1       9.611   9.088   3.653  1.00  0.00    -0.203 F 
ATOM     95  F   UNL     1       8.344   4.127   5.547  1.00  0.00    -0.200 F 
ATOM     96  C   UNL     1       9.000   5.518   3.758  1.00  0.00     0.200 A 
ATOM     97  F   UNL     1       9.582   6.960   1.983  1.00  0.00    -0.200 F 
ATOM     98  F   UNL     1       8.983   4.471   2.921  1.00  0.00    -0.200 F 
ENDBRANCH  65  88
ENDBRANCH  39  40
ENDBRANCH  31  34
ENDBRANCH  29  30
ENDBRANCH  28  29
ENDBRANCH   1  28
TORSDOF 15
