REMARK SMILES C[C@H](Sc1ccccc1C(=O)NCCCCNC(=O)c1ccc(-c2c3nc(c(-c4c(F)c(F)c(F)c(F)c4F)c4ccc([nH]4)c(-c4c(F)c(F)c(F)c(F)c4F)c4nc(c(-c5c(F)c(F)c(F)c(F)c5F)c5ccc2[nH]5)C=C4)C=C3)cc1)C(=O)Nc1ccc(N2CCCCC2)cc1
REMARK SMILES IDX 13 1 12 2 10 3 11 4 9 6 4 7 5 8 6 9 8 10 7 11 3 12 2 13 1 14
REMARK SMILES IDX 83 15 84 16 85 17 86 19 87 20 97 21 88 22 96 23 89 24 90 25
REMARK SMILES IDX 91 26 95 27 92 28 94 29 93 30 14 31 15 32 16 33 17 34 18 35
REMARK SMILES IDX 19 37 20 38 21 39 82 40 22 41 81 42 23 43 24 44 25 45 75 46
REMARK SMILES IDX 26 47 80 48 74 49 76 50 27 51 79 52 73 53 72 54 28 56 60 57
REMARK SMILES IDX 40 58 59 59 41 60 44 61 58 62 77 63 42 64 43 65 57 67 78 68
REMARK SMILES IDX 45 69 29 70 30 71 38 72 31 73 32 74 36 75 39 76 33 77 34 78
REMARK SMILES IDX 37 79 35 80 61 81 62 82 70 83 63 84 64 85 68 86 71 87 65 88
REMARK SMILES IDX 66 89 69 90 67 91 46 92 47 93 55 94 48 95 49 96 53 97 56 98
REMARK SMILES IDX 50 99 51 100 54 101 52 102
REMARK H PARENT 12 5 85 18 17 36 76 55 44 66
REMARK Flexibility Score: inf
ROOT
ATOM      1  C   UNL     1       2.347  -1.077  -1.141  1.00  0.00     0.116 C 
ENDROOT
BRANCH   1   2
ATOM      2  N   UNL     1       2.262  -2.392  -0.563  1.00  0.00    -0.352 N 
ATOM      3  C   UNL     1       1.427  -3.017   0.317  1.00  0.00     0.252 C 
ATOM      4  O   UNL     1       1.735  -4.198   0.529  1.00  0.00    -0.269 OA
ATOM      5  H   UNL     1       2.980  -2.985  -0.880  1.00  0.00     0.163 HD
BRANCH   3   6
ATOM      6  C   UNL     1       0.183  -2.493   0.985  1.00  0.00     0.053 A 
ATOM      7  C   UNL     1      -0.130  -1.209   1.487  1.00  0.00     0.021 A 
ATOM      8  C   UNL     1      -1.264  -1.069   2.321  1.00  0.00     0.016 A 
ATOM      9  C   UNL     1      -2.126  -2.127   2.600  1.00  0.00     0.001 A 
ATOM     10  C   UNL     1      -0.731  -3.545   1.269  1.00  0.00     0.015 A 
ATOM     11  C   UNL     1      -1.866  -3.370   2.061  1.00  0.00     0.001 A 
BRANCH   7  12
ATOM     12  S   UNL     1       0.896   0.242   1.419  1.00  0.00    -0.112 SA
BRANCH  12  13
ATOM     13  C   UNL     1      -0.088   1.587   0.624  1.00  0.00     0.138 C 
ATOM     14  C   UNL     1       0.743   2.328  -0.423  1.00  0.00     0.030 C 
BRANCH  13  15
ATOM     15  C   UNL     1      -1.569   1.368   0.279  1.00  0.00     0.237 C 
ATOM     16  O   UNL     1      -2.425   1.444   1.172  1.00  0.00    -0.273 OA
ATOM     17  N   UNL     1      -2.040   1.311  -1.004  1.00  0.00    -0.325 N 
ATOM     18  H   UNL     1      -2.978   1.593  -1.103  1.00  0.00     0.169 HD
BRANCH  17  19
ATOM     19  C   UNL     1      -1.428   0.925  -2.197  1.00  0.00     0.041 A 
ATOM     20  C   UNL     1      -1.614   1.702  -3.333  1.00  0.00     0.028 A 
ATOM     21  C   UNL     1      -0.740  -0.272  -2.312  1.00  0.00     0.028 A 
ATOM     22  C   UNL     1      -0.983   1.351  -4.535  1.00  0.00     0.028 A 
ATOM     23  C   UNL     1      -0.139  -0.632  -3.531  1.00  0.00     0.028 A 
ATOM     24  C   UNL     1      -0.197   0.195  -4.660  1.00  0.00     0.037 A 
BRANCH  24  25
ATOM     25  N   UNL     1       0.457  -0.107  -5.842  1.00  0.00    -0.372 N 
ATOM     26  C   UNL     1       1.030   0.953  -6.677  1.00  0.00     0.116 C 
ATOM     27  C   UNL     1       0.810  -1.474  -6.232  1.00  0.00     0.116 C 
ATOM     28  C   UNL     1       0.573   0.772  -8.118  1.00  0.00     0.021 C 
ATOM     29  C   UNL     1       0.413  -1.706  -7.694  1.00  0.00     0.021 C 
ATOM     30  C   UNL     1       0.951  -0.619  -8.625  1.00  0.00     0.004 C 
ENDBRANCH  24  25
ENDBRANCH  17  19
ENDBRANCH  13  15
ENDBRANCH  12  13
ENDBRANCH   7  12
ENDBRANCH   3   6
ENDBRANCH   1   2
BRANCH   1  31
ATOM     31  C   UNL     1       3.537  -0.300  -0.576  1.00  0.00     0.023 C 
BRANCH  31  32
ATOM     32  C   UNL     1       4.749  -0.267  -1.500  1.00  0.00     0.023 C 
BRANCH  32  33
ATOM     33  C   UNL     1       4.507   0.412  -2.844  1.00  0.00     0.116 C 
BRANCH  33  34
ATOM     34  N   UNL     1       4.034   1.786  -2.749  1.00  0.00    -0.352 N 
ATOM     35  C   UNL     1       4.260   2.824  -3.623  1.00  0.00     0.251 C 
ATOM     36  H   UNL     1       3.483   1.999  -1.962  1.00  0.00     0.163 HD
ATOM     37  O   UNL     1       3.843   3.953  -3.386  1.00  0.00    -0.269 OA
BRANCH  35  38
ATOM     38  C   UNL     1       5.056   2.569  -4.842  1.00  0.00     0.039 A 
ATOM     39  C   UNL     1       6.142   3.396  -5.133  1.00  0.00     0.014 A 
ATOM     40  C   UNL     1       4.773   1.463  -5.646  1.00  0.00     0.014 A 
ATOM     41  C   UNL     1       7.000   3.056  -6.180  1.00  0.00     0.010 A 
ATOM     42  C   UNL     1       5.655   1.093  -6.651  1.00  0.00     0.010 A 
ATOM     43  C   UNL     1       6.786   1.877  -6.913  1.00  0.00    -0.014 A 
BRANCH  43  44
ATOM     44  C   UNL     1       7.763   1.401  -7.918  1.00  0.00     0.031 A 
ATOM     45  C   UNL     1       7.387   1.344  -9.368  1.00  0.00     0.074 A 
ATOM     46  C   UNL     1       8.944   0.911  -7.495  1.00  0.00     0.049 A 
ATOM     47  N   UNL     1       8.081   0.899 -10.384  1.00  0.00    -0.248 NA
ATOM     48  C   UNL     1       6.040   1.819  -9.721  1.00  0.00     0.031 C 
ATOM     49  C   UNL     1       9.375   0.836  -6.097  1.00  0.00     0.029 A 
ATOM     50  N   UNL     1       9.989   0.364  -8.195  1.00  0.00    -0.354 N 
ATOM     51  C   UNL     1       7.258   1.039 -11.492  1.00  0.00     0.074 A 
ATOM     52  C   UNL     1       5.992   1.554 -11.019  1.00  0.00     0.031 C 
ATOM     53  C   UNL     1      10.600   0.288  -6.044  1.00  0.00     0.029 A 
ATOM     54  C   UNL     1      11.029  -0.047  -7.398  1.00  0.00     0.049 A 
ATOM     55  H   UNL     1       9.992   0.274  -9.175  1.00  0.00     0.167 HD
ATOM     56  C   UNL     1       7.548   0.783 -12.790  1.00  0.00     0.037 A 
ATOM     57  C   UNL     1      12.197  -0.629  -7.727  1.00  0.00     0.037 A 
ATOM     58  C   UNL     1       8.817   0.285 -13.249  1.00  0.00     0.049 A 
ATOM     59  C   UNL     1      12.499  -0.884  -9.179  1.00  0.00     0.074 A 
ATOM     60  C   UNL     1       9.239   0.065 -14.548  1.00  0.00     0.029 A 
ATOM     61  N   UNL     1       9.869  -0.076 -12.419  1.00  0.00    -0.354 N 
ATOM     62  N   UNL     1      11.754  -0.648 -10.232  1.00  0.00    -0.248 NA
ATOM     63  C   UNL     1      13.809  -1.472  -9.489  1.00  0.00     0.031 C 
ATOM     64  C   UNL     1      10.531  -0.470 -14.503  1.00  0.00     0.029 A 
ATOM     65  C   UNL     1      10.932  -0.537 -13.178  1.00  0.00     0.049 A 
ATOM     66  H   UNL     1       9.861  -0.013 -11.437  1.00  0.00     0.167 HD
ATOM     67  C   UNL     1      12.515  -1.028 -11.329  1.00  0.00     0.074 A 
ATOM     68  C   UNL     1      13.784  -1.497 -10.814  1.00  0.00     0.031 C 
ATOM     69  C   UNL     1      12.192  -0.990 -12.645  1.00  0.00     0.037 A 
BRANCH  56  70
ATOM     70  C   UNL     1       6.479   1.055 -13.808  1.00  0.00     0.064 A 
ATOM     71  C   UNL     1       6.092   2.365 -14.129  1.00  0.00     0.173 A 
ATOM     72  C   UNL     1       5.871   0.001 -14.505  1.00  0.00     0.173 A 
ATOM     73  F   UNL     1       6.633   3.408 -13.482  1.00  0.00    -0.203 F 
ATOM     74  C   UNL     1       5.119   2.608 -15.095  1.00  0.00     0.198 A 
ATOM     75  C   UNL     1       4.919   0.250 -15.491  1.00  0.00     0.198 A 
ATOM     76  F   UNL     1       6.207  -1.270 -14.239  1.00  0.00    -0.203 F 
ATOM     77  F   UNL     1       4.734   3.866 -15.354  1.00  0.00    -0.200 F 
ATOM     78  C   UNL     1       4.540   1.552 -15.781  1.00  0.00     0.200 A 
ATOM     79  F   UNL     1       4.368  -0.772 -16.160  1.00  0.00    -0.200 F 
ATOM     80  F   UNL     1       3.611   1.788 -16.717  1.00  0.00    -0.200 F 
ENDBRANCH  56  70
BRANCH  57  81
ATOM     81  C   UNL     1      13.184  -0.966  -6.670  1.00  0.00     0.064 A 
ATOM     82  C   UNL     1      14.383  -0.248  -6.553  1.00  0.00     0.173 A 
ATOM     83  C   UNL     1      12.957  -2.010  -5.761  1.00  0.00     0.173 A 
ATOM     84  F   UNL     1      14.652   0.748  -7.410  1.00  0.00    -0.203 F 
ATOM     85  C   UNL     1      15.327  -0.576  -5.583  1.00  0.00     0.198 A 
ATOM     86  C   UNL     1      13.891  -2.319  -4.774  1.00  0.00     0.198 A 
ATOM     87  F   UNL     1      11.822  -2.721  -5.826  1.00  0.00    -0.203 F 
ATOM     88  F   UNL     1      16.484   0.097  -5.524  1.00  0.00    -0.200 F 
ATOM     89  C   UNL     1      15.079  -1.608  -4.691  1.00  0.00     0.200 A 
ATOM     90  F   UNL     1      13.641  -3.308  -3.906  1.00  0.00    -0.200 F 
ATOM     91  F   UNL     1      15.987  -1.923  -3.758  1.00  0.00    -0.200 F 
ENDBRANCH  57  81
BRANCH  69  92
ATOM     92  C   UNL     1      13.241  -1.434 -13.620  1.00  0.00     0.064 A 
ATOM     93  C   UNL     1      13.587  -2.785 -13.764  1.00  0.00     0.173 A 
ATOM     94  C   UNL     1      13.879  -0.499 -14.449  1.00  0.00     0.173 A 
ATOM     95  F   UNL     1      13.015  -3.715 -12.983  1.00  0.00    -0.203 F 
ATOM     96  C   UNL     1      14.552  -3.181 -14.685  1.00  0.00     0.198 A 
ATOM     97  C   UNL     1      14.822  -0.902 -15.389  1.00  0.00     0.198 A 
ATOM     98  F   UNL     1      13.578   0.805 -14.354  1.00  0.00    -0.203 F 
ATOM     99  F   UNL     1      14.901  -4.472 -14.774  1.00  0.00    -0.200 F 
ATOM    100  C   UNL     1      15.163  -2.241 -15.502  1.00  0.00     0.200 A 
ATOM    101  F   UNL     1      15.401   0.006 -16.186  1.00  0.00    -0.200 F 
ATOM    102  F   UNL     1      16.087  -2.625 -16.393  1.00  0.00    -0.200 F 
ENDBRANCH  69  92
ENDBRANCH  43  44
ENDBRANCH  35  38
ENDBRANCH  33  34
ENDBRANCH  32  33
ENDBRANCH  31  32
ENDBRANCH   1  31
TORSDOF 16
