REMARK SMILES CC(=O)N[C@H](CC(=O)NCC(=O)NCCCCNC(=O)c1ccc(-c2c3nc(c(-c4c(F)c(F)c(F)c(F)c4F)c4ccc([nH]4)c(-c4c(F)c(F)c(F)c(F)c4F)c4nc(c(-c5c(F)c(F)c(F)c(F)c5F)c5ccc2[nH]5)C=C4)C=C3)cc1)c1cccs1
REMARK SMILES IDX 14 1 13 2 11 3 12 4 10 6 9 7 7 8 8 9 6 11 5 12 4 13 1 14
REMARK SMILES IDX 2 15 3 16 84 18 85 19 88 20 86 21 87 22 15 23 16 24 17 25
REMARK SMILES IDX 18 26 19 27 20 29 21 30 22 31 83 32 23 33 82 34 24 35 25 36
REMARK SMILES IDX 26 37 76 38 27 39 81 40 75 41 77 42 28 43 80 44 74 45 73 46
REMARK SMILES IDX 29 48 61 49 41 50 60 51 42 52 45 53 59 54 78 55 43 56 44 57
REMARK SMILES IDX 58 59 79 60 46 61 30 62 31 63 39 64 32 65 33 66 37 67 40 68
REMARK SMILES IDX 34 69 35 70 38 71 36 72 62 73 63 74 71 75 64 76 65 77 69 78
REMARK SMILES IDX 72 79 66 80 67 81 70 82 68 83 47 84 48 85 56 86 49 87 50 88
REMARK SMILES IDX 54 89 57 90 51 91 52 92 55 93 53 94
REMARK H PARENT 13 5 9 10 4 17 18 28 77 47 45 58
REMARK Flexibility Score: inf
ROOT
ATOM      1  C   UNL     1       2.140   2.809  -4.746  1.00  0.00     0.116 C 
ENDROOT
BRANCH   1   2
ATOM      2  N   UNL     1       1.298   3.838  -3.768  1.00  0.00    -0.355 N 
ATOM      3  C   UNL     1      -0.283   3.860  -2.530  1.00  0.00     0.239 C 
ATOM      4  O   UNL     1      -0.756   4.809  -1.811  1.00  0.00    -0.273 OA
ATOM      5  H   UNL     1       1.704   4.734  -3.804  1.00  0.00     0.163 HD
BRANCH   3   6
ATOM      6  C   UNL     1      -1.267   2.421  -1.994  1.00  0.00     0.216 C 
BRANCH   6   7
ATOM      7  N   UNL     1      -1.536   1.122  -2.636  1.00  0.00    -0.347 N 
ATOM      8  C   UNL     1      -0.682   0.066  -2.780  1.00  0.00     0.222 C 
ATOM      9  O   UNL     1      -0.928  -0.786  -3.633  1.00  0.00    -0.275 OA
ATOM     10  H   UNL     1      -2.441   1.002  -3.006  1.00  0.00     0.164 HD
BRANCH   8  11
ATOM     11  C   UNL     1       0.541  -0.034  -1.897  1.00  0.00     0.130 C 
BRANCH  11  12
ATOM     12  C   UNL     1       1.529   1.128  -1.954  1.00  0.00     0.131 C 
BRANCH  12  13
ATOM     13  N   UNL     1       2.780   0.751  -2.601  1.00  0.00    -0.348 N 
ATOM     14  C   UNL     1       4.345   1.537  -0.852  1.00  0.00     0.114 C 
ATOM     15  C   UNL     1       4.056   1.082  -2.254  1.00  0.00     0.217 C 
ATOM     16  O   UNL     1       4.940   0.998  -3.106  1.00  0.00    -0.275 OA
ATOM     17  H   UNL     1       2.691   0.180  -3.398  1.00  0.00     0.164 HD
ENDBRANCH  12  13
BRANCH  12  18
ATOM     18  C   UNL     1       0.974   2.340  -2.665  1.00  0.00     0.027 A 
ATOM     19  C   UNL     1      -0.151   2.647  -4.092  1.00  0.00     0.017 A 
ATOM     20  S   UNL     1       1.738   4.374  -1.800  1.00  0.00    -0.147 S 
ATOM     21  C   UNL     1      -0.407   4.533  -4.448  1.00  0.00     0.012 A 
ATOM     22  C   UNL     1       0.509   5.583  -3.382  1.00  0.00     0.065 A 
ENDBRANCH  12  18
ENDBRANCH  11  12
ENDBRANCH   8  11
ENDBRANCH   6   7
ENDBRANCH   3   6
ENDBRANCH   1   2
BRANCH   1  23
ATOM     23  C   UNL     1       2.185   3.180  -6.216  1.00  0.00     0.023 C 
BRANCH  23  24
ATOM     24  C   UNL     1       3.051   4.376  -6.539  1.00  0.00     0.023 C 
BRANCH  24  25
ATOM     25  C   UNL     1       4.356   4.442  -5.758  1.00  0.00     0.116 C 
BRANCH  25  26
ATOM     26  N   UNL     1       5.156   3.216  -5.821  1.00  0.00    -0.352 N 
ATOM     27  C   UNL     1       6.423   3.033  -6.316  1.00  0.00     0.251 C 
ATOM     28  H   UNL     1       4.724   2.410  -5.456  1.00  0.00     0.163 HD
ATOM     29  O   UNL     1       6.909   1.918  -6.454  1.00  0.00    -0.269 OA
BRANCH  27  30
ATOM     30  C   UNL     1       7.176   4.226  -6.717  1.00  0.00     0.039 A 
ATOM     31  C   UNL     1       7.727   4.279  -7.995  1.00  0.00     0.014 A 
ATOM     32  C   UNL     1       7.210   5.331  -5.864  1.00  0.00     0.014 A 
ATOM     33  C   UNL     1       8.237   5.489  -8.454  1.00  0.00     0.010 A 
ATOM     34  C   UNL     1       7.586   6.560  -6.374  1.00  0.00     0.010 A 
ATOM     35  C   UNL     1       8.117   6.649  -7.668  1.00  0.00    -0.014 A 
BRANCH  35  36
ATOM     36  C   UNL     1       8.556   7.966  -8.180  1.00  0.00     0.031 A 
ATOM     37  C   UNL     1       9.628   8.724  -7.450  1.00  0.00     0.074 A 
ATOM     38  C   UNL     1       7.959   8.492  -9.266  1.00  0.00     0.049 A 
ATOM     39  N   UNL     1      10.128   9.903  -7.713  1.00  0.00    -0.248 NA
ATOM     40  C   UNL     1      10.191   8.088  -6.247  1.00  0.00     0.031 C 
ATOM     41  C   UNL     1       6.871   7.869 -10.022  1.00  0.00     0.029 A 
ATOM     42  N   UNL     1       8.184   9.674  -9.924  1.00  0.00    -0.354 N 
ATOM     43  C   UNL     1      11.054  10.148  -6.708  1.00  0.00     0.074 A 
ATOM     44  C   UNL     1      10.990   9.037  -5.787  1.00  0.00     0.031 C 
ATOM     45  C   UNL     1       6.556   8.651 -11.066  1.00  0.00     0.029 A 
ATOM     46  C   UNL     1       7.377   9.856 -11.020  1.00  0.00     0.049 A 
ATOM     47  H   UNL     1       8.861  10.330  -9.639  1.00  0.00     0.167 HD
ATOM     48  C   UNL     1      11.906  11.191  -6.585  1.00  0.00     0.037 A 
ATOM     49  C   UNL     1       7.302  10.887 -11.883  1.00  0.00     0.037 A 
ATOM     50  C   UNL     1      11.966  12.287  -7.513  1.00  0.00     0.049 A 
ATOM     51  C   UNL     1       8.232  12.056 -11.697  1.00  0.00     0.074 A 
ATOM     52  C   UNL     1      12.823  13.373  -7.508  1.00  0.00     0.029 A 
ATOM     53  N   UNL     1      11.125  12.445  -8.605  1.00  0.00    -0.354 N 
ATOM     54  N   UNL     1       9.159  12.243 -10.788  1.00  0.00    -0.248 NA
ATOM     55  C   UNL     1       8.111  13.157 -12.662  1.00  0.00     0.031 C 
ATOM     56  C   UNL     1      12.448  14.227  -8.548  1.00  0.00     0.029 A 
ATOM     57  C   UNL     1      11.417  13.631  -9.258  1.00  0.00     0.049 A 
ATOM     58  H   UNL     1      10.424  11.808  -8.876  1.00  0.00     0.167 HD
ATOM     59  C   UNL     1       9.753  13.461 -11.091  1.00  0.00     0.074 A 
ATOM     60  C   UNL     1       9.093  13.960 -12.280  1.00  0.00     0.031 C 
ATOM     61  C   UNL     1      10.754  14.109 -10.445  1.00  0.00     0.037 A 
BRANCH  48  62
ATOM     62  C   UNL     1      12.829  11.198  -5.399  1.00  0.00     0.064 A 
ATOM     63  C   UNL     1      13.849  10.245  -5.247  1.00  0.00     0.173 A 
ATOM     64  C   UNL     1      12.707  12.189  -4.414  1.00  0.00     0.173 A 
ATOM     65  F   UNL     1      14.002   9.267  -6.152  1.00  0.00    -0.203 F 
ATOM     66  C   UNL     1      14.687  10.263  -4.135  1.00  0.00     0.198 A 
ATOM     67  C   UNL     1      13.574  12.229  -3.325  1.00  0.00     0.198 A 
ATOM     68  F   UNL     1      11.752  13.126  -4.509  1.00  0.00    -0.203 F 
ATOM     69  F   UNL     1      15.611   9.305  -3.979  1.00  0.00    -0.200 F 
ATOM     70  C   UNL     1      14.555  11.260  -3.181  1.00  0.00     0.200 A 
ATOM     71  F   UNL     1      13.457  13.204  -2.414  1.00  0.00    -0.200 F 
ATOM     72  F   UNL     1      15.370  11.283  -2.117  1.00  0.00    -0.200 F 
ENDBRANCH  48  62
BRANCH  49  73
ATOM     73  C   UNL     1       6.321  10.858 -13.001  1.00  0.00     0.064 A 
ATOM     74  C   UNL     1       6.745  10.815 -14.337  1.00  0.00     0.173 A 
ATOM     75  C   UNL     1       4.939  10.894 -12.760  1.00  0.00     0.173 A 
ATOM     76  F   UNL     1       8.056  10.796 -14.624  1.00  0.00    -0.203 F 
ATOM     77  C   UNL     1       5.828  10.844 -15.386  1.00  0.00     0.198 A 
ATOM     78  C   UNL     1       4.023  10.883 -13.808  1.00  0.00     0.198 A 
ATOM     79  F   UNL     1       4.477  10.929 -11.501  1.00  0.00    -0.203 F 
ATOM     80  F   UNL     1       6.264  10.867 -16.653  1.00  0.00    -0.200 F 
ATOM     81  C   UNL     1       4.468  10.872 -15.121  1.00  0.00     0.200 A 
ATOM     82  F   UNL     1       2.709  10.889 -13.546  1.00  0.00    -0.200 F 
ATOM     83  F   UNL     1       3.587  10.899 -16.130  1.00  0.00    -0.200 F 
ENDBRANCH  49  73
BRANCH  61  84
ATOM     84  C   UNL     1      11.235  15.405 -11.037  1.00  0.00     0.064 A 
ATOM     85  C   UNL     1      10.438  16.559 -11.050  1.00  0.00     0.173 A 
ATOM     86  C   UNL     1      12.533  15.501 -11.563  1.00  0.00     0.173 A 
ATOM     87  F   UNL     1       9.185  16.521 -10.569  1.00  0.00    -0.203 F 
ATOM     88  C   UNL     1      10.908  17.748 -11.600  1.00  0.00     0.198 A 
ATOM     89  C   UNL     1      13.016  16.703 -12.071  1.00  0.00     0.198 A 
ATOM     90  F   UNL     1      13.344  14.431 -11.566  1.00  0.00    -0.203 F 
ATOM     91  F   UNL     1      10.105  18.820 -11.660  1.00  0.00    -0.200 F 
ATOM     92  C   UNL     1      12.199  17.822 -12.101  1.00  0.00     0.200 A 
ATOM     93  F   UNL     1      14.272  16.776 -12.532  1.00  0.00    -0.200 F 
ATOM     94  F   UNL     1      12.654  18.970 -12.620  1.00  0.00    -0.200 F 
ENDBRANCH  61  84
ENDBRANCH  35  36
ENDBRANCH  27  30
ENDBRANCH  25  26
ENDBRANCH  24  25
ENDBRANCH  23  24
ENDBRANCH   1  23
TORSDOF 16
