REMARK SMILES CCn1c(N2CCC(C(=O)NCCCCNC(=O)c3ccc(-c4c5nc(c(-c6c(F)c(F)c(F)c(F)c6F)c6ccc([nH]6)c(-c6c(F)c(F)c(F)c(F)c6F)c6nc(c(-c7c(F)c(F)c(F)c(F)c7F)c7ccc4[nH]7)C=C6)C=C5)cc3)CC2)nc2cc(C)ccc21
REMARK SMILES IDX 13 1 12 2 11 3 9 4 10 5 8 7 5 8 6 9 83 10 7 11 82 12 4 13
REMARK SMILES IDX 3 14 91 15 84 16 85 17 90 18 86 19 89 20 87 21 88 22 2 23
REMARK SMILES IDX 1 24 14 25 15 26 16 27 17 28 18 30 19 31 20 32 81 33 21 34
REMARK SMILES IDX 80 35 22 36 23 37 24 38 74 39 25 40 79 41 73 42 75 43 26 44
REMARK SMILES IDX 78 45 72 46 71 47 27 49 59 50 39 51 58 52 40 53 43 54 57 55
REMARK SMILES IDX 76 56 41 57 42 58 56 60 77 61 44 62 28 63 29 64 37 65 30 66
REMARK SMILES IDX 31 67 35 68 38 69 32 70 33 71 36 72 34 73 60 74 61 75 69 76
REMARK SMILES IDX 62 77 63 78 67 79 70 80 64 81 65 82 68 83 66 84 45 85 46 86
REMARK SMILES IDX 54 87 47 88 48 89 52 90 55 91 49 92 50 93 53 94 51 95
REMARK H PARENT 11 6 16 29 75 48 43 59
REMARK Flexibility Score: inf
ROOT
ATOM      1  C   UNL     1       5.105  -2.199  -7.016  1.00  0.00     0.023 C 
ENDROOT
BRANCH   1   2
ATOM      2  C   UNL     1       5.382  -1.108  -5.988  1.00  0.00     0.116 C 
BRANCH   2   3
ATOM      3  N   UNL     1       5.718   0.161  -6.614  1.00  0.00    -0.356 N 
ATOM      4  C   UNL     1       5.135   1.385  -6.498  1.00  0.00     0.223 C 
ATOM      5  O   UNL     1       5.644   2.324  -7.115  1.00  0.00    -0.275 OA
ATOM      6  H   UNL     1       6.493   0.129  -7.220  1.00  0.00     0.163 HD
BRANCH   4   7
ATOM      7  C   UNL     1       3.903   1.610  -5.633  1.00  0.00     0.082 C 
ATOM      8  N   UNL     1       1.947   0.537  -3.851  1.00  0.00    -0.342 N 
ATOM      9  C   UNL     1       1.518   0.851  -5.205  1.00  0.00     0.120 C 
ATOM     10  C   UNL     1       2.972   1.388  -3.270  1.00  0.00     0.120 C 
ATOM     11  C   UNL     1       2.693   0.832  -6.168  1.00  0.00     0.035 C 
ATOM     12  C   UNL     1       4.219   1.399  -4.145  1.00  0.00     0.035 C 
BRANCH   8  13
ATOM     13  C   UNL     1       1.640  -0.672  -3.321  1.00  0.00     0.206 A 
ATOM     14  N   UNL     1       0.974  -0.786  -2.116  1.00  0.00    -0.310 N 
ATOM     15  C   UNL     1       0.656  -2.114  -1.925  1.00  0.00     0.070 A 
ATOM     16  N   UNL     1       1.782  -1.851  -3.888  1.00  0.00    -0.213 NA
ATOM     17  C   UNL     1       1.196  -2.756  -3.032  1.00  0.00     0.091 A 
ATOM     18  C   UNL     1      -0.053  -2.792  -0.925  1.00  0.00     0.029 A 
ATOM     19  C   UNL     1       1.059  -4.151  -3.146  1.00  0.00     0.034 A 
ATOM     20  C   UNL     1      -0.187  -4.177  -1.059  1.00  0.00     0.006 A 
ATOM     21  C   UNL     1       0.364  -4.864  -2.148  1.00  0.00    -0.049 A 
ATOM     22  C   UNL     1       0.203  -6.352  -2.265  1.00  0.00     0.044 C 
BRANCH  14  23
ATOM     23  C   UNL     1       0.518   0.297  -1.267  1.00  0.00     0.122 C 
ATOM     24  C   UNL     1       1.240   0.349   0.069  1.00  0.00     0.028 C 
ENDBRANCH  14  23
ENDBRANCH   8  13
ENDBRANCH   4   7
ENDBRANCH   2   3
ENDBRANCH   1   2
BRANCH   1  25
ATOM     25  C   UNL     1       6.322  -2.642  -7.832  1.00  0.00     0.023 C 
BRANCH  25  26
ATOM     26  C   UNL     1       7.553  -3.035  -7.009  1.00  0.00     0.116 C 
BRANCH  26  27
ATOM     27  N   UNL     1       7.275  -3.979  -5.943  1.00  0.00    -0.352 N 
ATOM     28  C   UNL     1       7.242  -5.341  -5.840  1.00  0.00     0.251 C 
ATOM     29  H   UNL     1       7.060  -3.533  -5.093  1.00  0.00     0.163 HD
ATOM     30  O   UNL     1       7.095  -5.796  -4.701  1.00  0.00    -0.269 OA
BRANCH  28  31
ATOM     31  C   UNL     1       7.333  -6.298  -6.978  1.00  0.00     0.039 A 
ATOM     32  C   UNL     1       7.435  -5.944  -8.320  1.00  0.00     0.014 A 
ATOM     33  C   UNL     1       7.252  -7.668  -6.655  1.00  0.00     0.014 A 
ATOM     34  C   UNL     1       7.390  -6.918  -9.312  1.00  0.00     0.010 A 
ATOM     35  C   UNL     1       7.228  -8.651  -7.644  1.00  0.00     0.010 A 
ATOM     36  C   UNL     1       7.263  -8.272  -8.981  1.00  0.00    -0.014 A 
BRANCH  36  37
ATOM     37  C   UNL     1       7.247  -9.223 -10.091  1.00  0.00     0.031 A 
ATOM     38  C   UNL     1       8.443  -9.194 -10.976  1.00  0.00     0.074 A 
ATOM     39  C   UNL     1       6.265 -10.112 -10.338  1.00  0.00     0.049 A 
ATOM     40  N   UNL     1       8.493  -8.878 -12.230  1.00  0.00    -0.248 NA
ATOM     41  C   UNL     1       9.752  -9.489 -10.378  1.00  0.00     0.031 C 
ATOM     42  C   UNL     1       5.166 -10.501  -9.453  1.00  0.00     0.029 A 
ATOM     43  N   UNL     1       6.089 -10.916 -11.434  1.00  0.00    -0.354 N 
ATOM     44  C   UNL     1       9.813  -9.084 -12.628  1.00  0.00     0.074 A 
ATOM     45  C   UNL     1      10.563  -9.362 -11.431  1.00  0.00     0.031 C 
ATOM     46  C   UNL     1       4.558 -11.598  -9.957  1.00  0.00     0.029 A 
ATOM     47  C   UNL     1       5.119 -11.890 -11.267  1.00  0.00     0.049 A 
ATOM     48  H   UNL     1       6.606 -10.811 -12.265  1.00  0.00     0.167 HD
ATOM     49  C   UNL     1      10.138  -9.216 -13.943  1.00  0.00     0.037 A 
ATOM     50  C   UNL     1       4.801 -12.884 -12.127  1.00  0.00     0.037 A 
ATOM     51  C   UNL     1       9.089  -8.743 -14.803  1.00  0.00     0.049 A 
ATOM     52  C   UNL     1       5.185 -12.475 -13.497  1.00  0.00     0.074 A 
ATOM     53  C   UNL     1       8.659  -7.534 -15.303  1.00  0.00     0.029 A 
ATOM     54  N   UNL     1       8.108  -9.659 -15.052  1.00  0.00    -0.354 N 
ATOM     55  N   UNL     1       4.606 -11.512 -14.158  1.00  0.00    -0.248 NA
ATOM     56  C   UNL     1       6.405 -13.002 -14.101  1.00  0.00     0.031 C 
ATOM     57  C   UNL     1       7.307  -7.728 -15.720  1.00  0.00     0.029 A 
ATOM     58  C   UNL     1       6.952  -9.047 -15.458  1.00  0.00     0.049 A 
ATOM     59  H   UNL     1       8.217 -10.632 -14.951  1.00  0.00     0.167 HD
ATOM     60  C   UNL     1       5.587 -11.047 -15.006  1.00  0.00     0.074 A 
ATOM     61  C   UNL     1       6.582 -12.104 -15.073  1.00  0.00     0.031 C 
ATOM     62  C   UNL     1       5.686  -9.720 -15.293  1.00  0.00     0.037 A 
BRANCH  49  63
ATOM     63  C   UNL     1      11.194 -10.157 -14.482  1.00  0.00     0.064 A 
ATOM     64  C   UNL     1      11.511 -10.122 -15.858  1.00  0.00     0.173 A 
ATOM     65  C   UNL     1      11.647 -11.297 -13.785  1.00  0.00     0.173 A 
ATOM     66  F   UNL     1      11.116  -9.095 -16.625  1.00  0.00    -0.203 F 
ATOM     67  C   UNL     1      12.163 -11.182 -16.496  1.00  0.00     0.198 A 
ATOM     68  C   UNL     1      12.343 -12.330 -14.416  1.00  0.00     0.198 A 
ATOM     69  F   UNL     1      11.337 -11.512 -12.501  1.00  0.00    -0.203 F 
ATOM     70  F   UNL     1      12.334 -11.157 -17.825  1.00  0.00    -0.200 F 
ATOM     71  C   UNL     1      12.573 -12.287 -15.775  1.00  0.00     0.200 A 
ATOM     72  F   UNL     1      12.713 -13.405 -13.706  1.00  0.00    -0.200 F 
ATOM     73  F   UNL     1      13.145 -13.330 -16.393  1.00  0.00    -0.200 F 
ENDBRANCH  49  63
BRANCH  50  74
ATOM     74  C   UNL     1       4.340 -14.258 -11.826  1.00  0.00     0.064 A 
ATOM     75  C   UNL     1       3.753 -15.057 -12.822  1.00  0.00     0.173 A 
ATOM     76  C   UNL     1       4.736 -14.914 -10.646  1.00  0.00     0.173 A 
ATOM     77  F   UNL     1       3.376 -14.515 -13.989  1.00  0.00    -0.203 F 
ATOM     78  C   UNL     1       3.622 -16.439 -12.668  1.00  0.00     0.198 A 
ATOM     79  C   UNL     1       4.593 -16.293 -10.489  1.00  0.00     0.198 A 
ATOM     80  F   UNL     1       5.361 -14.248  -9.664  1.00  0.00    -0.203 F 
ATOM     81  F   UNL     1       3.135 -17.178 -13.674  1.00  0.00    -0.200 F 
ATOM     82  C   UNL     1       4.056 -17.057 -11.508  1.00  0.00     0.200 A 
ATOM     83  F   UNL     1       5.044 -16.884  -9.373  1.00  0.00    -0.200 F 
ATOM     84  F   UNL     1       3.998 -18.391 -11.390  1.00  0.00    -0.200 F 
ENDBRANCH  50  74
BRANCH  62  85
ATOM     85  C   UNL     1       4.441  -8.903 -15.198  1.00  0.00     0.064 A 
ATOM     86  C   UNL     1       3.771  -8.628 -13.996  1.00  0.00     0.173 A 
ATOM     87  C   UNL     1       3.934  -8.334 -16.373  1.00  0.00     0.173 A 
ATOM     88  F   UNL     1       4.245  -9.076 -12.825  1.00  0.00    -0.203 F 
ATOM     89  C   UNL     1       2.612  -7.854 -13.984  1.00  0.00     0.198 A 
ATOM     90  C   UNL     1       2.797  -7.533 -16.354  1.00  0.00     0.198 A 
ATOM     91  F   UNL     1       4.562  -8.533 -17.543  1.00  0.00    -0.203 F 
ATOM     92  F   UNL     1       1.970  -7.623 -12.829  1.00  0.00    -0.200 F 
ATOM     93  C   UNL     1       2.129  -7.304 -15.162  1.00  0.00     0.200 A 
ATOM     94  F   UNL     1       2.358  -6.971 -17.488  1.00  0.00    -0.200 F 
ATOM     95  F   UNL     1       1.031  -6.536 -15.146  1.00  0.00    -0.200 F 
ENDBRANCH  62  85
ENDBRANCH  36  37
ENDBRANCH  28  31
ENDBRANCH  26  27
ENDBRANCH  25  26
ENDBRANCH   1  25
TORSDOF 13
