REMARK SMILES N#Cc1cc2c(nc1N(CC(=O)NCCCCNC(=O)c1ccc(-c3c4nc(c(-c5c(F)c(F)c(F)c(F)c5F)c5ccc([nH]5)c(-c5c(F)c(F)c(F)c(F)c5F)c5nc(c(-c6c(F)c(F)c(F)c(F)c6F)c6ccc3[nH]6)C=C5)C=C4)cc1)CC(F)(F)F)CCC2
REMARK SMILES IDX 15 1 14 2 13 3 11 4 12 5 10 7 9 8 8 9 3 10 4 11 5 12 7 13
REMARK SMILES IDX 6 14 91 15 89 16 90 17 2 18 1 19 84 20 85 21 86 22 87 23
REMARK SMILES IDX 88 24 16 25 17 26 18 27 19 28 20 30 21 31 22 32 83 33 23 34
REMARK SMILES IDX 82 35 24 36 25 37 26 38 76 39 27 40 81 41 75 42 77 43 28 44
REMARK SMILES IDX 80 45 74 46 73 47 29 49 61 50 41 51 60 52 42 53 45 54 59 55
REMARK SMILES IDX 78 56 43 57 44 58 58 60 79 61 46 62 30 63 31 64 39 65 32 66
REMARK SMILES IDX 33 67 37 68 40 69 34 70 35 71 38 72 36 73 62 74 63 75 71 76
REMARK SMILES IDX 64 77 65 78 69 79 72 80 66 81 67 82 70 83 68 84 47 85 48 86
REMARK SMILES IDX 56 87 49 88 50 89 54 90 57 91 51 92 52 93 55 94 53 95
REMARK H PARENT 13 6 18 29 77 48 45 59
REMARK Flexibility Score: inf
ROOT
ATOM      1  C   UNL     1       4.311  -1.822   3.252  1.00  0.00     0.023 C 
ENDROOT
BRANCH   1   2
ATOM      2  C   UNL     1       5.234  -2.838   2.584  1.00  0.00     0.116 C 
BRANCH   2   3
ATOM      3  N   UNL     1       4.525  -4.038   2.191  1.00  0.00    -0.355 N 
ATOM      4  C   UNL     1       4.087  -4.385   0.945  1.00  0.00     0.239 C 
ATOM      5  O   UNL     1       3.448  -5.432   0.816  1.00  0.00    -0.273 OA
ATOM      6  H   UNL     1       4.336  -4.683   2.911  1.00  0.00     0.163 HD
BRANCH   4   7
ATOM      7  C   UNL     1       4.380  -3.478  -0.258  1.00  0.00     0.218 C 
BRANCH   7   8
ATOM      8  N   UNL     1       3.540  -2.247  -0.269  1.00  0.00    -0.337 N 
BRANCH   8   9
ATOM      9  C   UNL     1       4.183  -1.019  -0.332  1.00  0.00     0.147 A 
ATOM     10  C   UNL     1       3.579   0.256  -0.433  1.00  0.00     0.095 A 
ATOM     11  C   UNL     1       4.356   1.432  -0.331  1.00  0.00     0.029 A 
ATOM     12  C   UNL     1       5.719   1.317  -0.207  1.00  0.00    -0.025 A 
ATOM     13  N   UNL     1       5.544  -1.079  -0.253  1.00  0.00    -0.234 NA
ATOM     14  C   UNL     1       6.263   0.055  -0.203  1.00  0.00     0.046 A 
ATOM     15  C   UNL     1       6.766   2.365  -0.042  1.00  0.00     0.038 C 
ATOM     16  C   UNL     1       7.759   0.111  -0.071  1.00  0.00     0.057 C 
ATOM     17  C   UNL     1       8.027   1.580  -0.436  1.00  0.00     0.011 C 
BRANCH  10  18
ATOM     18  C   UNL     1       2.187   0.471  -0.688  1.00  0.00     0.103 C 
ATOM     19  N   UNL     1       1.067   0.659  -0.914  1.00  0.00    -0.192 NA
ENDBRANCH  10  18
ENDBRANCH   8   9
BRANCH   8  20
ATOM     20  C   UNL     1       2.068  -2.493  -0.288  1.00  0.00     0.234 C 
BRANCH  20  21
ATOM     21  C   UNL     1       1.291  -2.238   1.020  1.00  0.00     0.405 C 
ATOM     22  F   UNL     1       1.527  -1.012   1.538  1.00  0.00    -0.169 F 
ATOM     23  F   UNL     1      -0.042  -2.333   0.806  1.00  0.00    -0.169 F 
ATOM     24  F   UNL     1       1.602  -3.141   1.977  1.00  0.00    -0.169 F 
ENDBRANCH  20  21
ENDBRANCH   8  20
ENDBRANCH   7   8
ENDBRANCH   4   7
ENDBRANCH   2   3
ENDBRANCH   1   2
BRANCH   1  25
ATOM     25  C   UNL     1       3.779  -2.275   4.609  1.00  0.00     0.023 C 
BRANCH  25  26
ATOM     26  C   UNL     1       4.874  -2.569   5.622  1.00  0.00     0.116 C 
BRANCH  26  27
ATOM     27  N   UNL     1       5.710  -1.404   5.890  1.00  0.00    -0.352 N 
ATOM     28  C   UNL     1       6.002  -0.824   7.099  1.00  0.00     0.251 C 
ATOM     29  H   UNL     1       6.117  -0.979   5.101  1.00  0.00     0.163 HD
ATOM     30  O   UNL     1       6.577   0.256   7.162  1.00  0.00    -0.269 OA
BRANCH  28  31
ATOM     31  C   UNL     1       5.578  -1.522   8.325  1.00  0.00     0.039 A 
ATOM     32  C   UNL     1       4.848  -0.825   9.286  1.00  0.00     0.014 A 
ATOM     33  C   UNL     1       5.834  -2.889   8.468  1.00  0.00     0.014 A 
ATOM     34  C   UNL     1       4.321  -1.521  10.371  1.00  0.00     0.010 A 
ATOM     35  C   UNL     1       5.216  -3.596   9.488  1.00  0.00     0.010 A 
ATOM     36  C   UNL     1       4.473  -2.916  10.463  1.00  0.00    -0.014 A 
BRANCH  36  37
ATOM     37  C   UNL     1       3.903  -3.664  11.608  1.00  0.00     0.031 A 
ATOM     38  C   UNL     1       4.823  -4.371  12.563  1.00  0.00     0.074 A 
ATOM     39  C   UNL     1       2.568  -3.710  11.782  1.00  0.00     0.049 A 
ATOM     40  N   UNL     1       4.528  -5.039  13.649  1.00  0.00    -0.248 NA
ATOM     41  C   UNL     1       6.262  -4.345  12.251  1.00  0.00     0.031 C 
ATOM     42  C   UNL     1       1.578  -3.108  10.888  1.00  0.00     0.029 A 
ATOM     43  N   UNL     1       1.813  -4.276  12.780  1.00  0.00    -0.354 N 
ATOM     44  C   UNL     1       5.740  -5.500  14.144  1.00  0.00     0.074 A 
ATOM     45  C   UNL     1       6.764  -5.117  13.201  1.00  0.00     0.031 C 
ATOM     46  C   UNL     1       0.352  -3.289  11.405  1.00  0.00     0.029 A 
ATOM     47  C   UNL     1       0.465  -4.049  12.647  1.00  0.00     0.049 A 
ATOM     48  H   UNL     1       2.202  -4.796  13.520  1.00  0.00     0.167 HD
ATOM     49  C   UNL     1       5.983  -6.141  15.309  1.00  0.00     0.037 A 
ATOM     50  C   UNL     1      -0.561  -4.405  13.445  1.00  0.00     0.037 A 
ATOM     51  C   UNL     1       4.964  -6.493  16.256  1.00  0.00     0.049 A 
ATOM     52  C   UNL     1      -0.267  -5.158  14.717  1.00  0.00     0.074 A 
ATOM     53  C   UNL     1       5.111  -7.098  17.490  1.00  0.00     0.029 A 
ATOM     54  N   UNL     1       3.607  -6.272  16.072  1.00  0.00    -0.354 N 
ATOM     55  N   UNL     1       0.892  -5.506  15.222  1.00  0.00    -0.248 NA
ATOM     56  C   UNL     1      -1.421  -5.568  15.531  1.00  0.00     0.031 C 
ATOM     57  C   UNL     1       3.838  -7.298  18.028  1.00  0.00     0.029 A 
ATOM     58  C   UNL     1       2.901  -6.766  17.155  1.00  0.00     0.049 A 
ATOM     59  H   UNL     1       3.206  -5.830  15.289  1.00  0.00     0.167 HD
ATOM     60  C   UNL     1       0.611  -6.156  16.416  1.00  0.00     0.074 A 
ATOM     61  C   UNL     1      -0.828  -6.136  16.573  1.00  0.00     0.031 C 
ATOM     62  C   UNL     1       1.468  -6.726  17.297  1.00  0.00     0.037 A 
BRANCH  49  63
ATOM     63  C   UNL     1       7.408  -6.475  15.639  1.00  0.00     0.064 A 
ATOM     64  C   UNL     1       8.338  -5.473  15.956  1.00  0.00     0.173 A 
ATOM     65  C   UNL     1       7.832  -7.810  15.703  1.00  0.00     0.173 A 
ATOM     66  F   UNL     1       7.986  -4.180  15.896  1.00  0.00    -0.203 F 
ATOM     67  C   UNL     1       9.646  -5.795  16.306  1.00  0.00     0.198 A 
ATOM     68  C   UNL     1       9.132  -8.130  16.086  1.00  0.00     0.198 A 
ATOM     69  F   UNL     1       6.982  -8.806  15.412  1.00  0.00    -0.203 F 
ATOM     70  F   UNL     1      10.528  -4.820  16.564  1.00  0.00    -0.200 F 
ATOM     71  C   UNL     1      10.039  -7.123  16.382  1.00  0.00     0.200 A 
ATOM     72  F   UNL     1       9.506  -9.414  16.174  1.00  0.00    -0.200 F 
ATOM     73  F   UNL     1      11.293  -7.432  16.739  1.00  0.00    -0.200 F 
ENDBRANCH  49  63
BRANCH  50  74
ATOM     74  C   UNL     1      -1.951  -4.017  13.086  1.00  0.00     0.064 A 
ATOM     75  C   UNL     1      -2.659  -3.082  13.854  1.00  0.00     0.173 A 
ATOM     76  C   UNL     1      -2.596  -4.557  11.963  1.00  0.00     0.173 A 
ATOM     77  F   UNL     1      -2.094  -2.550  14.949  1.00  0.00    -0.203 F 
ATOM     78  C   UNL     1      -3.961  -2.711  13.521  1.00  0.00     0.198 A 
ATOM     79  C   UNL     1      -3.887  -4.163  11.614  1.00  0.00     0.198 A 
ATOM     80  F   UNL     1      -1.965  -5.454  11.192  1.00  0.00    -0.203 F 
ATOM     81  F   UNL     1      -4.627  -1.845  14.296  1.00  0.00    -0.200 F 
ATOM     82  C   UNL     1      -4.571  -3.246  12.397  1.00  0.00     0.200 A 
ATOM     83  F   UNL     1      -4.466  -4.671  10.518  1.00  0.00    -0.200 F 
ATOM     84  F   UNL     1      -5.818  -2.881  12.071  1.00  0.00    -0.200 F 
ENDBRANCH  50  74
BRANCH  62  85
ATOM     85  C   UNL     1       0.892  -7.384  18.516  1.00  0.00     0.064 A 
ATOM     86  C   UNL     1       0.230  -8.617  18.430  1.00  0.00     0.173 A 
ATOM     87  C   UNL     1       1.125  -6.848  19.792  1.00  0.00     0.173 A 
ATOM     88  F   UNL     1      -0.025  -9.164  17.232  1.00  0.00    -0.203 F 
ATOM     89  C   UNL     1      -0.175  -9.291  19.578  1.00  0.00     0.198 A 
ATOM     90  C   UNL     1       0.747  -7.541  20.939  1.00  0.00     0.198 A 
ATOM     91  F   UNL     1       1.766  -5.677  19.928  1.00  0.00    -0.203 F 
ATOM     92  F   UNL     1      -0.820 -10.461  19.472  1.00  0.00    -0.200 F 
ATOM     93  C   UNL     1       0.098  -8.761  20.830  1.00  0.00     0.200 A 
ATOM     94  F   UNL     1       1.033  -7.039  22.148  1.00  0.00    -0.200 F 
ATOM     95  F   UNL     1      -0.259  -9.431  21.935  1.00  0.00    -0.200 F 
ENDBRANCH  62  85
ENDBRANCH  36  37
ENDBRANCH  28  31
ENDBRANCH  26  27
ENDBRANCH  25  26
ENDBRANCH   1  25
TORSDOF 16
