REMARK SMILES CCOc1cc(C(=O)NCCCCNC(=O)c2ccc(-c3c4nc(c(-c5c(F)c(F)c(F)c(F)c5F)c5ccc([nH]5)c(-c5c(F)c(F)c(F)c(F)c5F)c5nc(c(-c6c(F)c(F)c(F)c(F)c6F)c6ccc3[nH]6)C=C5)C=C4)cc2)ccc1OCc1ccc(Cl)c(Cl)c1
REMARK SMILES IDX 11 1 10 2 9 3 7 4 8 5 6 7 4 8 5 9 82 10 81 11 80 12 3 13
REMARK SMILES IDX 2 14 1 15 83 16 84 17 85 18 86 19 92 20 87 21 90 22 88 23
REMARK SMILES IDX 91 24 89 25 12 26 13 27 14 28 15 29 16 31 17 32 18 33 79 34
REMARK SMILES IDX 19 35 78 36 20 37 21 38 22 39 72 40 23 41 77 42 71 43 73 44
REMARK SMILES IDX 24 45 76 46 70 47 69 48 25 50 57 51 37 52 56 53 38 54 41 55
REMARK SMILES IDX 55 56 74 57 39 58 40 59 54 61 75 62 42 63 26 64 27 65 35 66
REMARK SMILES IDX 28 67 29 68 33 69 36 70 30 71 31 72 34 73 32 74 58 75 59 76
REMARK SMILES IDX 67 77 60 78 61 79 65 80 68 81 62 82 63 83 66 84 64 85 43 86
REMARK SMILES IDX 44 87 52 88 45 89 46 90 50 91 53 92 47 93 48 94 51 95 49 96
REMARK H PARENT 9 6 14 30 73 49 41 60
REMARK Flexibility Score: inf
ROOT
ATOM      1  C   UNL     1       7.123   5.423  -1.996  1.00  0.00     0.023 C 
ENDROOT
BRANCH   1   2
ATOM      2  C   UNL     1       6.594   4.864  -0.683  1.00  0.00     0.116 C 
BRANCH   2   3
ATOM      3  N   UNL     1       5.590   5.702  -0.038  1.00  0.00    -0.352 N 
ATOM      4  C   UNL     1       4.333   5.359   0.419  1.00  0.00     0.251 C 
ATOM      5  O   UNL     1       3.578   6.214   0.871  1.00  0.00    -0.269 OA
ATOM      6  H   UNL     1       5.844   6.645   0.089  1.00  0.00     0.163 HD
BRANCH   4   7
ATOM      7  C   UNL     1       3.884   3.948   0.344  1.00  0.00     0.043 A 
ATOM      8  C   UNL     1       2.281   2.299  -0.403  1.00  0.00     0.161 A 
ATOM      9  C   UNL     1       2.618   3.638  -0.184  1.00  0.00     0.064 A 
ATOM     10  C   UNL     1       3.224   1.300  -0.121  1.00  0.00     0.161 A 
ATOM     11  C   UNL     1       4.455   1.613   0.451  1.00  0.00     0.051 A 
ATOM     12  C   UNL     1       4.755   2.931   0.751  1.00  0.00     0.018 A 
BRANCH   8  13
ATOM     13  O   UNL     1       1.091   1.943  -0.976  1.00  0.00    -0.490 OA
BRANCH  13  14
ATOM     14  C   UNL     1      -0.041   2.123  -0.112  1.00  0.00     0.226 C 
ATOM     15  C   UNL     1      -0.951   0.910  -0.255  1.00  0.00     0.049 C 
ENDBRANCH  13  14
ENDBRANCH   8  13
BRANCH  10  16
ATOM     16  O   UNL     1       3.044  -0.009  -0.407  1.00  0.00    -0.485 OA
BRANCH  16  17
ATOM     17  C   UNL     1       2.217  -0.787   0.461  1.00  0.00     0.265 C 
BRANCH  17  18
ATOM     18  C   UNL     1       1.910  -0.512   1.937  1.00  0.00    -0.009 A 
ATOM     19  C   UNL     1       1.980   0.718   2.601  1.00  0.00     0.009 A 
ATOM     20  C   UNL     1       1.391  -1.598   2.671  1.00  0.00     0.029 A 
ATOM     21  C   UNL     1       1.540   0.873   3.921  1.00  0.00     0.022 A 
ATOM     22  C   UNL     1       0.950  -1.454   3.994  1.00  0.00     0.060 A 
ATOM     23  C   UNL     1       1.016  -0.209   4.618  1.00  0.00     0.059 A 
ATOM     24  Cl  UNL     1       0.314  -2.853   4.782  1.00  0.00    -0.083 Cl
ATOM     25  Cl  UNL     1       0.451   0.065   6.225  1.00  0.00    -0.083 Cl
ENDBRANCH  17  18
ENDBRANCH  16  17
ENDBRANCH  10  16
ENDBRANCH   4   7
ENDBRANCH   2   3
ENDBRANCH   1   2
BRANCH   1  26
ATOM     26  C   UNL     1       7.986   6.672  -1.882  1.00  0.00     0.023 C 
BRANCH  26  27
ATOM     27  C   UNL     1       9.192   6.562  -0.956  1.00  0.00     0.116 C 
BRANCH  27  28
ATOM     28  N   UNL     1      10.138   5.522  -1.341  1.00  0.00    -0.352 N 
ATOM     29  C   UNL     1      11.487   5.609  -1.596  1.00  0.00     0.251 C 
ATOM     30  H   UNL     1       9.753   4.621  -1.431  1.00  0.00     0.163 HD
ATOM     31  O   UNL     1      12.103   4.625  -1.998  1.00  0.00    -0.269 OA
BRANCH  29  32
ATOM     32  C   UNL     1      12.193   6.899  -1.431  1.00  0.00     0.039 A 
ATOM     33  C   UNL     1      13.050   7.334  -2.445  1.00  0.00     0.014 A 
ATOM     34  C   UNL     1      11.988   7.691  -0.300  1.00  0.00     0.014 A 
ATOM     35  C   UNL     1      13.623   8.607  -2.370  1.00  0.00     0.010 A 
ATOM     36  C   UNL     1      12.486   8.991  -0.269  1.00  0.00     0.010 A 
ATOM     37  C   UNL     1      13.303   9.466  -1.306  1.00  0.00    -0.014 A 
BRANCH  37  38
ATOM     38  C   UNL     1      13.798  10.866  -1.264  1.00  0.00     0.031 A 
ATOM     39  C   UNL     1      14.689  11.320  -0.141  1.00  0.00     0.074 A 
ATOM     40  C   UNL     1      13.380  11.751  -2.191  1.00  0.00     0.049 A 
ATOM     41  N   UNL     1      15.152  12.518   0.118  1.00  0.00    -0.248 NA
ATOM     42  C   UNL     1      15.086  10.299   0.839  1.00  0.00     0.031 C 
ATOM     43  C   UNL     1      12.474  11.452  -3.300  1.00  0.00     0.029 A 
ATOM     44  N   UNL     1      13.654  13.089  -2.340  1.00  0.00    -0.354 N 
ATOM     45  C   UNL     1      15.877  12.395   1.295  1.00  0.00     0.074 A 
ATOM     46  C   UNL     1      15.744  11.022   1.732  1.00  0.00     0.031 C 
ATOM     47  C   UNL     1      12.287  12.563  -4.029  1.00  0.00     0.029 A 
ATOM     48  C   UNL     1      13.026  13.664  -3.418  1.00  0.00     0.049 A 
ATOM     49  H   UNL     1      14.245  13.589  -1.731  1.00  0.00     0.167 HD
ATOM     50  C   UNL     1      16.610  13.334   1.940  1.00  0.00     0.037 A 
ATOM     51  C   UNL     1      13.039  14.936  -3.860  1.00  0.00     0.037 A 
ATOM     52  C   UNL     1      16.762  14.693   1.490  1.00  0.00     0.049 A 
ATOM     53  C   UNL     1      13.854  15.963  -3.122  1.00  0.00     0.074 A 
ATOM     54  C   UNL     1      17.534  15.702   2.037  1.00  0.00     0.029 A 
ATOM     55  N   UNL     1      16.123  15.233   0.383  1.00  0.00    -0.354 N 
ATOM     56  N   UNL     1      14.595  15.818  -2.050  1.00  0.00    -0.248 NA
ATOM     57  C   UNL     1      13.838  17.331  -3.659  1.00  0.00     0.031 C 
ATOM     58  C   UNL     1      17.326  16.866   1.290  1.00  0.00     0.029 A 
ATOM     59  C   UNL     1      16.465  16.570   0.246  1.00  0.00     0.049 A 
ATOM     60  H   UNL     1      15.516  14.741  -0.216  1.00  0.00     0.167 HD
ATOM     61  C   UNL     1      15.155  17.064  -1.801  1.00  0.00     0.074 A 
ATOM     62  C   UNL     1      14.678  17.951  -2.843  1.00  0.00     0.031 C 
ATOM     63  C   UNL     1      15.988  17.439  -0.800  1.00  0.00     0.037 A 
BRANCH  50  64
ATOM     64  C   UNL     1      17.306  12.919   3.205  1.00  0.00     0.064 A 
ATOM     65  C   UNL     1      18.386  12.022   3.191  1.00  0.00     0.173 A 
ATOM     66  C   UNL     1      16.904  13.441   4.444  1.00  0.00     0.173 A 
ATOM     67  F   UNL     1      18.803  11.486   2.034  1.00  0.00    -0.203 F 
ATOM     68  C   UNL     1      19.012  11.635   4.373  1.00  0.00     0.198 A 
ATOM     69  C   UNL     1      17.555  13.076   5.620  1.00  0.00     0.198 A 
ATOM     70  F   UNL     1      15.882  14.306   4.515  1.00  0.00    -0.203 F 
ATOM     71  F   UNL     1      20.002  10.732   4.339  1.00  0.00    -0.200 F 
ATOM     72  C   UNL     1      18.600  12.167   5.585  1.00  0.00     0.200 A 
ATOM     73  F   UNL     1      17.164  13.601   6.790  1.00  0.00    -0.200 F 
ATOM     74  F   UNL     1      19.206  11.795   6.721  1.00  0.00    -0.200 F 
ENDBRANCH  50  64
BRANCH  51  75
ATOM     75  C   UNL     1      12.276  15.304  -5.082  1.00  0.00     0.064 A 
ATOM     76  C   UNL     1      12.943  15.641  -6.268  1.00  0.00     0.173 A 
ATOM     77  C   UNL     1      10.874  15.328  -5.092  1.00  0.00     0.173 A 
ATOM     78  F   UNL     1      14.284  15.654  -6.302  1.00  0.00    -0.203 F 
ATOM     79  C   UNL     1      12.237  16.005  -7.413  1.00  0.00     0.198 A 
ATOM     80  C   UNL     1      10.169  15.665  -6.245  1.00  0.00     0.198 A 
ATOM     81  F   UNL     1      10.189  15.011  -3.984  1.00  0.00    -0.203 F 
ATOM     82  F   UNL     1      12.900  16.364  -8.520  1.00  0.00    -0.200 F 
ATOM     83  C   UNL     1      10.850  16.011  -7.402  1.00  0.00     0.200 A 
ATOM     84  F   UNL     1       8.829  15.656  -6.235  1.00  0.00    -0.200 F 
ATOM     85  F   UNL     1      10.171  16.355  -8.505  1.00  0.00    -0.200 F 
ENDBRANCH  51  75
BRANCH  63  86
ATOM     86  C   UNL     1      16.467  18.862  -0.798  1.00  0.00     0.064 A 
ATOM     87  C   UNL     1      15.613  19.927  -0.475  1.00  0.00     0.173 A 
ATOM     88  C   UNL     1      17.808  19.159  -1.084  1.00  0.00     0.173 A 
ATOM     89  F   UNL     1      14.318  19.698  -0.210  1.00  0.00    -0.203 F 
ATOM     90  C   UNL     1      16.079  21.239  -0.463  1.00  0.00     0.198 A 
ATOM     91  C   UNL     1      18.278  20.468  -1.040  1.00  0.00     0.198 A 
ATOM     92  F   UNL     1      18.668  18.176  -1.393  1.00  0.00    -0.203 F 
ATOM     93  F   UNL     1      15.235  22.245  -0.198  1.00  0.00    -0.200 F 
ATOM     94  C   UNL     1      17.412  21.508  -0.737  1.00  0.00     0.200 A 
ATOM     95  F   UNL     1      19.569  20.724  -1.292  1.00  0.00    -0.200 F 
ATOM     96  F   UNL     1      17.861  22.770  -0.716  1.00  0.00    -0.200 F 
ENDBRANCH  63  86
ENDBRANCH  37  38
ENDBRANCH  29  32
ENDBRANCH  27  28
ENDBRANCH  26  27
ENDBRANCH   1  26
TORSDOF 16
