REMARK SMILES Cc1cccc2sc(NC(=O)/C=C/C(=O)NCCCCNC(=O)c3ccc(-c4c5nc(c(-c6c(F)c(F)c(F)c(F)c6F)c6ccc([nH]6)c(-c6c(F)c(F)c(F)c(F)c6F)c6nc(c(-c7c(F)c(F)c(F)c(F)c7F)c7ccc4[nH]7)C=C6)C=C5)cc3)nc12
REMARK SMILES IDX 18 1 17 2 16 3 14 4 15 5 13 7 12 8 10 9 9 10 11 12 8 13 1 14
REMARK SMILES IDX 2 15 3 16 88 17 4 18 6 19 87 20 5 21 7 22 19 23 20 24 21 25
REMARK SMILES IDX 22 26 23 28 24 29 25 30 86 31 26 32 85 33 27 34 28 35 29 36
REMARK SMILES IDX 79 37 30 38 84 39 78 40 80 41 31 42 83 43 77 44 76 45 32 47
REMARK SMILES IDX 64 48 44 49 63 50 45 51 48 52 62 53 81 54 46 55 47 56 61 58
REMARK SMILES IDX 82 59 49 60 33 61 34 62 42 63 35 64 36 65 40 66 43 67 37 68
REMARK SMILES IDX 38 69 41 70 39 71 65 72 66 73 74 74 67 75 68 76 72 77 75 78
REMARK SMILES IDX 69 79 70 80 73 81 71 82 50 83 51 84 59 85 52 86 53 87 57 88
REMARK SMILES IDX 60 89 54 90 55 91 58 92 56 93
REMARK H PARENT 16 6 9 11 21 27 80 46 48 57
REMARK Flexibility Score: inf
ROOT
ATOM      1  C   UNL     1      -7.413   1.532   1.379  1.00  0.00     0.023 C 
ENDROOT
BRANCH   1   2
ATOM      2  C   UNL     1      -6.889   1.423  -0.050  1.00  0.00     0.116 C 
BRANCH   2   3
ATOM      3  N   UNL     1      -5.686   2.208  -0.239  1.00  0.00    -0.353 N 
ATOM      4  C   UNL     1      -4.457   1.804  -0.649  1.00  0.00     0.244 C 
ATOM      5  O   UNL     1      -3.593   2.630  -0.929  1.00  0.00    -0.270 OA
ATOM      6  H   UNL     1      -5.773   3.169  -0.043  1.00  0.00     0.163 HD
BRANCH   4   7
ATOM      7  C   UNL     1      -4.161   0.366  -0.780  1.00  0.00     0.077 C 
ATOM      8  C   UNL     1      -4.281  -0.445   0.281  1.00  0.00     0.077 C 
BRANCH   8   9
ATOM      9  C   UNL     1      -3.773  -1.822   0.199  1.00  0.00     0.250 C 
ATOM     10  N   UNL     1      -2.441  -2.090   0.251  1.00  0.00    -0.298 N 
ATOM     11  H   UNL     1      -2.222  -3.042   0.130  1.00  0.00     0.172 HD
ATOM     12  O   UNL     1      -4.590  -2.734   0.069  1.00  0.00    -0.270 OA
BRANCH  10  13
ATOM     13  C   UNL     1      -1.342  -1.289   0.440  1.00  0.00     0.190 A 
ATOM     14  C   UNL     1       2.848  -2.079  -0.245  1.00  0.00     0.047 C 
ATOM     15  C   UNL     1       2.165  -0.767   0.008  1.00  0.00    -0.024 A 
ATOM     16  C   UNL     1       2.897   0.436  -0.053  1.00  0.00     0.006 A 
ATOM     17  C   UNL     1       0.777  -0.688   0.277  1.00  0.00     0.087 A 
ATOM     18  C   UNL     1       2.294   1.669   0.190  1.00  0.00     0.002 A 
ATOM     19  C   UNL     1       0.215   0.553   0.573  1.00  0.00     0.057 A 
ATOM     20  N   UNL     1      -0.128  -1.745   0.247  1.00  0.00    -0.220 NA
ATOM     21  C   UNL     1       0.947   1.746   0.534  1.00  0.00     0.021 A 
ATOM     22  S   UNL     1      -1.431   0.320   0.977  1.00  0.00    -0.097 S 
ENDBRANCH  10  13
ENDBRANCH   8   9
ENDBRANCH   4   7
ENDBRANCH   2   3
ENDBRANCH   1   2
BRANCH   1  23
ATOM     23  C   UNL     1      -7.962   2.911   1.759  1.00  0.00     0.023 C 
BRANCH  23  24
ATOM     24  C   UNL     1      -8.969   3.505   0.779  1.00  0.00     0.116 C 
BRANCH  24  25
ATOM     25  N   UNL     1     -10.067   2.606   0.457  1.00  0.00    -0.352 N 
ATOM     26  C   UNL     1     -11.355   2.927   0.109  1.00  0.00     0.251 C 
ATOM     27  H   UNL     1      -9.859   1.644   0.493  1.00  0.00     0.163 HD
ATOM     28  O   UNL     1     -12.194   2.051  -0.072  1.00  0.00    -0.269 OA
BRANCH  26  29
ATOM     29  C   UNL     1     -11.733   4.348   0.005  1.00  0.00     0.039 A 
ATOM     30  C   UNL     1     -12.827   4.805   0.742  1.00  0.00     0.014 A 
ATOM     31  C   UNL     1     -10.977   5.230  -0.772  1.00  0.00     0.014 A 
ATOM     32  C   UNL     1     -13.124   6.167   0.756  1.00  0.00     0.010 A 
ATOM     33  C   UNL     1     -11.236   6.595  -0.707  1.00  0.00     0.010 A 
ATOM     34  C   UNL     1     -12.309   7.074   0.061  1.00  0.00    -0.014 A 
BRANCH  34  35
ATOM     35  C   UNL     1     -12.559   8.534   0.129  1.00  0.00     0.031 A 
ATOM     36  C   UNL     1     -12.981   9.279  -1.104  1.00  0.00     0.074 A 
ATOM     37  C   UNL     1     -12.337   9.193   1.282  1.00  0.00     0.049 A 
ATOM     38  N   UNL     1     -13.177  10.562  -1.269  1.00  0.00    -0.248 NA
ATOM     39  C   UNL     1     -13.181   8.478  -2.322  1.00  0.00     0.031 C 
ATOM     40  C   UNL     1     -11.875   8.582   2.530  1.00  0.00     0.029 A 
ATOM     41  N   UNL     1     -12.457  10.524   1.588  1.00  0.00    -0.354 N 
ATOM     42  C   UNL     1     -13.503  10.723  -2.608  1.00  0.00     0.074 A 
ATOM     43  C   UNL     1     -13.433   9.415  -3.223  1.00  0.00     0.031 C 
ATOM     44  C   UNL     1     -11.769   9.533   3.471  1.00  0.00     0.029 A 
ATOM     45  C   UNL     1     -12.125  10.822   2.887  1.00  0.00     0.049 A 
ATOM     46  H   UNL     1     -12.754  11.202   0.939  1.00  0.00     0.167 HD
ATOM     47  C   UNL     1     -13.853  11.857  -3.259  1.00  0.00     0.037 A 
ATOM     48  C   UNL     1     -12.107  12.005   3.530  1.00  0.00     0.037 A 
ATOM     49  C   UNL     1     -13.953  13.149  -2.634  1.00  0.00     0.049 A 
ATOM     50  C   UNL     1     -12.518  13.248   2.788  1.00  0.00     0.074 A 
ATOM     51  C   UNL     1     -14.359  14.349  -3.190  1.00  0.00     0.029 A 
ATOM     52  N   UNL     1     -13.644  13.407  -1.306  1.00  0.00    -0.354 N 
ATOM     53  N   UNL     1     -12.893  13.379   1.538  1.00  0.00    -0.248 NA
ATOM     54  C   UNL     1     -12.512  14.506   3.547  1.00  0.00     0.031 C 
ATOM     55  C   UNL     1     -14.262  15.340  -2.208  1.00  0.00     0.029 A 
ATOM     56  C   UNL     1     -13.837  14.750  -1.028  1.00  0.00     0.049 A 
ATOM     57  H   UNL     1     -13.333  12.734  -0.657  1.00  0.00     0.167 HD
ATOM     58  C   UNL     1     -13.195  14.722   1.369  1.00  0.00     0.074 A 
ATOM     59  C   UNL     1     -12.970  15.365   2.647  1.00  0.00     0.031 C 
ATOM     60  C   UNL     1     -13.621  15.366   0.256  1.00  0.00     0.037 A 
BRANCH  47  61
ATOM     61  C   UNL     1     -14.161  11.747  -4.723  1.00  0.00     0.064 A 
ATOM     62  C   UNL     1     -15.322  11.107  -5.183  1.00  0.00     0.173 A 
ATOM     63  C   UNL     1     -13.301  12.312  -5.677  1.00  0.00     0.173 A 
ATOM     64  F   UNL     1     -16.170  10.540  -4.312  1.00  0.00    -0.203 F 
ATOM     65  C   UNL     1     -15.595  11.010  -6.545  1.00  0.00     0.198 A 
ATOM     66  C   UNL     1     -13.592  12.238  -7.037  1.00  0.00     0.198 A 
ATOM     67  F   UNL     1     -12.180  12.938  -5.290  1.00  0.00    -0.203 F 
ATOM     68  F   UNL     1     -16.685  10.351  -6.962  1.00  0.00    -0.200 F 
ATOM     69  C   UNL     1     -14.734  11.581  -7.470  1.00  0.00     0.200 A 
ATOM     70  F   UNL     1     -12.765  12.800  -7.929  1.00  0.00    -0.200 F 
ATOM     71  F   UNL     1     -15.001  11.491  -8.780  1.00  0.00    -0.200 F 
ENDBRANCH  47  61
BRANCH  48  72
ATOM     72  C   UNL     1     -11.722  12.065   4.963  1.00  0.00     0.064 A 
ATOM     73  C   UNL     1     -12.678  12.329   5.953  1.00  0.00     0.173 A 
ATOM     74  C   UNL     1     -10.397  11.857   5.373  1.00  0.00     0.173 A 
ATOM     75  F   UNL     1     -13.955  12.553   5.606  1.00  0.00    -0.203 F 
ATOM     76  C   UNL     1     -12.322  12.403   7.297  1.00  0.00     0.198 A 
ATOM     77  C   UNL     1     -10.046  11.907   6.721  1.00  0.00     0.198 A 
ATOM     78  F   UNL     1      -9.446  11.594   4.466  1.00  0.00    -0.203 F 
ATOM     79  F   UNL     1     -13.249  12.699   8.219  1.00  0.00    -0.200 F 
ATOM     80  C   UNL     1     -11.007  12.187   7.681  1.00  0.00     0.200 A 
ATOM     81  F   UNL     1      -8.777  11.684   7.089  1.00  0.00    -0.200 F 
ATOM     82  F   UNL     1     -10.665  12.255   8.975  1.00  0.00    -0.200 F 
ENDBRANCH  48  72
BRANCH  60  83
ATOM     83  C   UNL     1     -13.912  16.832   0.378  1.00  0.00     0.064 A 
ATOM     84  C   UNL     1     -12.883  17.779   0.476  1.00  0.00     0.173 A 
ATOM     85  C   UNL     1     -15.236  17.296   0.344  1.00  0.00     0.173 A 
ATOM     86  F   UNL     1     -11.603  17.382   0.527  1.00  0.00    -0.203 F 
ATOM     87  C   UNL     1     -13.171  19.139   0.556  1.00  0.00     0.198 A 
ATOM     88  C   UNL     1     -15.518  18.657   0.397  1.00  0.00     0.198 A 
ATOM     89  F   UNL     1     -16.254  16.428   0.245  1.00  0.00    -0.203 F 
ATOM     90  F   UNL     1     -12.174  20.026   0.688  1.00  0.00    -0.200 F 
ATOM     91  C   UNL     1     -14.486  19.577   0.508  1.00  0.00     0.200 A 
ATOM     92  F   UNL     1     -16.788  19.080   0.340  1.00  0.00    -0.200 F 
ATOM     93  F   UNL     1     -14.760  20.887   0.575  1.00  0.00    -0.200 F 
ENDBRANCH  60  83
ENDBRANCH  34  35
ENDBRANCH  26  29
ENDBRANCH  24  25
ENDBRANCH  23  24
ENDBRANCH   1  23
TORSDOF 13
