REMARK SMILES COc1ccc2c(c1)c(CC(=O)NCCCCNC(=O)c1ccc(-c3c4nc(c(-c5c(F)c(F)c(F)c(F)c5F)c5ccc([nH]5)c(-c5c(F)c(F)c(F)c(F)c5F)c5nc(c(-c6c(F)c(F)c(F)c(F)c6F)c6ccc3[nH]6)C=C5)C=C4)cc1)c(C)n2C(=O)c1ccc(Cl)cc1
REMARK SMILES IDX 15 1 14 2 13 3 11 4 12 5 10 7 9 8 3 9 4 10 8 11 5 12 7 13
REMARK SMILES IDX 6 14 86 15 84 16 85 17 2 18 1 19 87 20 88 21 89 22 90 23
REMARK SMILES IDX 95 24 91 25 94 26 92 27 93 28 16 29 17 30 18 31 19 32 20 34
REMARK SMILES IDX 21 35 22 36 83 37 23 38 82 39 24 40 25 41 26 42 76 43 27 44
REMARK SMILES IDX 81 45 75 46 77 47 28 48 80 49 74 50 73 51 29 53 61 54 41 55
REMARK SMILES IDX 60 56 42 57 45 58 59 59 78 60 43 61 44 62 58 64 79 65 46 66
REMARK SMILES IDX 30 67 31 68 39 69 32 70 33 71 37 72 40 73 34 74 35 75 38 76
REMARK SMILES IDX 36 77 62 78 63 79 71 80 64 81 65 82 69 83 72 84 66 85 67 86
REMARK SMILES IDX 70 87 68 88 47 89 48 90 56 91 49 92 50 93 54 94 57 95 51 96
REMARK SMILES IDX 52 97 55 98 53 99
REMARK H PARENT 13 6 18 33 77 52 45 63
REMARK Flexibility Score: inf
ROOT
ATOM      1  C   UNL     1       0.164  -7.059  -3.355  1.00  0.00     0.023 C 
ENDROOT
BRANCH   1   2
ATOM      2  C   UNL     1      -1.201  -6.720  -3.951  1.00  0.00     0.116 C 
BRANCH   2   3
ATOM      3  N   UNL     1      -2.051  -6.028  -3.007  1.00  0.00    -0.356 N 
ATOM      4  C   UNL     1      -2.507  -4.742  -3.072  1.00  0.00     0.224 C 
ATOM      5  O   UNL     1      -3.244  -4.337  -2.170  1.00  0.00    -0.275 OA
ATOM      6  H   UNL     1      -2.334  -6.547  -2.220  1.00  0.00     0.163 HD
BRANCH   4   7
ATOM      7  C   UNL     1      -2.156  -3.868  -4.269  1.00  0.00     0.138 C 
BRANCH   7   8
ATOM      8  C   UNL     1      -0.688  -3.555  -4.370  1.00  0.00    -0.009 A 
ATOM      9  C   UNL     1       0.761  -1.764  -1.331  1.00  0.00     0.119 A 
ATOM     10  C   UNL     1       2.039  -1.608  -1.841  1.00  0.00     0.048 A 
ATOM     11  C   UNL     1      -0.209  -2.430  -2.078  1.00  0.00     0.057 A 
ATOM     12  C   UNL     1       2.363  -2.088  -3.113  1.00  0.00     0.031 A 
ATOM     13  C   UNL     1       0.097  -2.926  -3.366  1.00  0.00     0.008 A 
ATOM     14  C   UNL     1       1.396  -2.786  -3.865  1.00  0.00     0.057 A 
ATOM     15  N   UNL     1       1.457  -3.459  -5.098  1.00  0.00    -0.280 N 
ATOM     16  C   UNL     1       0.138  -3.760  -5.471  1.00  0.00     0.028 A 
ATOM     17  C   UNL     1      -0.270  -4.258  -6.824  1.00  0.00     0.065 C 
BRANCH   9  18
ATOM     18  O   UNL     1       0.379  -1.320  -0.095  1.00  0.00    -0.497 OA
ATOM     19  C   UNL     1       0.829   0.002   0.195  1.00  0.00     0.278 C 
ENDBRANCH   9  18
BRANCH  15  20
ATOM     20  C   UNL     1       2.635  -3.793  -5.836  1.00  0.00     0.262 C 
ATOM     21  O   UNL     1       2.535  -4.425  -6.873  1.00  0.00    -0.268 OA
BRANCH  20  22
ATOM     22  C   UNL     1       4.010  -3.436  -5.433  1.00  0.00     0.040 A 
ATOM     23  C   UNL     1       4.612  -4.042  -4.326  1.00  0.00     0.015 A 
ATOM     24  C   UNL     1       4.680  -2.452  -6.168  1.00  0.00     0.015 A 
ATOM     25  C   UNL     1       5.864  -3.590  -3.899  1.00  0.00     0.021 A 
ATOM     26  C   UNL     1       5.935  -2.014  -5.742  1.00  0.00     0.021 A 
ATOM     27  C   UNL     1       6.511  -2.570  -4.599  1.00  0.00     0.041 A 
ATOM     28  Cl  UNL     1       8.022  -1.973  -4.034  1.00  0.00    -0.084 Cl
ENDBRANCH  20  22
ENDBRANCH  15  20
ENDBRANCH   7   8
ENDBRANCH   4   7
ENDBRANCH   2   3
ENDBRANCH   1   2
BRANCH   1  29
ATOM     29  C   UNL     1       0.127  -8.172  -2.298  1.00  0.00     0.023 C 
BRANCH  29  30
ATOM     30  C   UNL     1      -0.641  -9.421  -2.737  1.00  0.00     0.116 C 
BRANCH  30  31
ATOM     31  N   UNL     1      -0.134  -9.990  -3.970  1.00  0.00    -0.352 N 
ATOM     32  C   UNL     1       0.777 -10.956  -4.283  1.00  0.00     0.251 C 
ATOM     33  H   UNL     1      -0.544  -9.586  -4.769  1.00  0.00     0.163 HD
ATOM     34  O   UNL     1       0.873 -11.248  -5.478  1.00  0.00    -0.269 OA
BRANCH  32  35
ATOM     35  C   UNL     1       1.685 -11.620  -3.313  1.00  0.00     0.039 A 
ATOM     36  C   UNL     1       1.705 -11.395  -1.937  1.00  0.00     0.014 A 
ATOM     37  C   UNL     1       2.644 -12.491  -3.868  1.00  0.00     0.014 A 
ATOM     38  C   UNL     1       2.708 -11.936  -1.149  1.00  0.00     0.010 A 
ATOM     39  C   UNL     1       3.644 -13.046  -3.085  1.00  0.00     0.010 A 
ATOM     40  C   UNL     1       3.702 -12.717  -1.736  1.00  0.00    -0.014 A 
BRANCH  40  41
ATOM     41  C   UNL     1       4.764 -13.197  -0.867  1.00  0.00     0.031 A 
ATOM     42  C   UNL     1       4.333 -14.113   0.227  1.00  0.00     0.074 A 
ATOM     43  C   UNL     1       6.056 -12.893  -1.092  1.00  0.00     0.049 A 
ATOM     44  N   UNL     1       4.515 -13.987   1.504  1.00  0.00    -0.248 NA
ATOM     45  C   UNL     1       3.513 -15.276  -0.150  1.00  0.00     0.031 C 
ATOM     46  C   UNL     1       6.645 -12.225  -2.255  1.00  0.00     0.029 A 
ATOM     47  N   UNL     1       7.143 -13.221  -0.344  1.00  0.00    -0.354 N 
ATOM     48  C   UNL     1       3.964 -15.129   2.083  1.00  0.00     0.074 A 
ATOM     49  C   UNL     1       3.264 -15.828   1.037  1.00  0.00     0.031 C 
ATOM     50  C   UNL     1       7.983 -12.416  -2.244  1.00  0.00     0.029 A 
ATOM     51  C   UNL     1       8.347 -13.101  -1.016  1.00  0.00     0.049 A 
ATOM     52  H   UNL     1       7.079 -13.518   0.592  1.00  0.00     0.167 HD
ATOM     53  C   UNL     1       4.275 -15.523   3.349  1.00  0.00     0.037 A 
ATOM     54  C   UNL     1       9.533 -13.627  -0.627  1.00  0.00     0.037 A 
ATOM     55  C   UNL     1       4.776 -14.437   4.143  1.00  0.00     0.049 A 
ATOM     56  C   UNL     1       9.446 -13.888   0.835  1.00  0.00     0.074 A 
ATOM     57  C   UNL     1       4.246 -13.232   4.562  1.00  0.00     0.029 A 
ATOM     58  N   UNL     1       6.129 -14.330   4.347  1.00  0.00    -0.354 N 
ATOM     59  N   UNL     1       9.347 -12.947   1.735  1.00  0.00    -0.248 NA
ATOM     60  C   UNL     1       8.994 -15.207   1.258  1.00  0.00     0.031 C 
ATOM     61  C   UNL     1       5.331 -12.310   4.491  1.00  0.00     0.029 A 
ATOM     62  C   UNL     1       6.459 -13.024   4.087  1.00  0.00     0.049 A 
ATOM     63  H   UNL     1       6.742 -15.049   4.626  1.00  0.00     0.167 HD
ATOM     64  C   UNL     1       8.457 -13.446   2.676  1.00  0.00     0.074 A 
ATOM     65  C   UNL     1       8.331 -14.868   2.366  1.00  0.00     0.031 C 
ATOM     66  C   UNL     1       7.684 -12.618   3.439  1.00  0.00     0.037 A 
BRANCH  53  67
ATOM     67  C   UNL     1       4.393 -16.964   3.766  1.00  0.00     0.064 A 
ATOM     68  C   UNL     1       4.493 -17.300   5.130  1.00  0.00     0.173 A 
ATOM     69  C   UNL     1       4.692 -18.003   2.857  1.00  0.00     0.173 A 
ATOM     70  F   UNL     1       4.270 -16.379   6.079  1.00  0.00    -0.203 F 
ATOM     71  C   UNL     1       4.906 -18.569   5.547  1.00  0.00     0.198 A 
ATOM     72  C   UNL     1       5.051 -19.281   3.276  1.00  0.00     0.198 A 
ATOM     73  F   UNL     1       4.755 -17.790   1.537  1.00  0.00    -0.203 F 
ATOM     74  F   UNL     1       5.094 -18.813   6.851  1.00  0.00    -0.200 F 
ATOM     75  C   UNL     1       5.185 -19.558   4.620  1.00  0.00     0.200 A 
ATOM     76  F   UNL     1       5.340 -20.218   2.361  1.00  0.00    -0.200 F 
ATOM     77  F   UNL     1       5.630 -20.758   5.016  1.00  0.00    -0.200 F 
ENDBRANCH  53  67
BRANCH  54  78
ATOM     78  C   UNL     1      10.538 -14.262  -1.516  1.00  0.00     0.064 A 
ATOM     79  C   UNL     1      11.847 -14.513  -1.080  1.00  0.00     0.173 A 
ATOM     80  C   UNL     1      10.164 -14.857  -2.740  1.00  0.00     0.173 A 
ATOM     81  F   UNL     1      12.266 -14.039   0.102  1.00  0.00    -0.203 F 
ATOM     82  C   UNL     1      12.728 -15.308  -1.825  1.00  0.00     0.198 A 
ATOM     83  C   UNL     1      11.046 -15.637  -3.487  1.00  0.00     0.198 A 
ATOM     84  F   UNL     1       8.907 -14.770  -3.196  1.00  0.00    -0.203 F 
ATOM     85  F   UNL     1      13.956 -15.568  -1.353  1.00  0.00    -0.200 F 
ATOM     86  C   UNL     1      12.325 -15.870  -3.026  1.00  0.00     0.200 A 
ATOM     87  F   UNL     1      10.626 -16.205  -4.627  1.00  0.00    -0.200 F 
ATOM     88  F   UNL     1      13.153 -16.668  -3.716  1.00  0.00    -0.200 F 
ENDBRANCH  54  78
BRANCH  66  89
ATOM     89  C   UNL     1       7.949 -11.139   3.383  1.00  0.00     0.064 A 
ATOM     90  C   UNL     1       7.770 -10.365   2.223  1.00  0.00     0.173 A 
ATOM     91  C   UNL     1       8.184 -10.451   4.582  1.00  0.00     0.173 A 
ATOM     92  F   UNL     1       7.436 -10.935   1.060  1.00  0.00    -0.203 F 
ATOM     93  C   UNL     1       7.849  -8.974   2.257  1.00  0.00     0.198 A 
ATOM     94  C   UNL     1       8.228  -9.059   4.620  1.00  0.00     0.198 A 
ATOM     95  F   UNL     1       8.301 -11.130   5.734  1.00  0.00    -0.203 F 
ATOM     96  F   UNL     1       7.664  -8.262   1.135  1.00  0.00    -0.200 F 
ATOM     97  C   UNL     1       8.067  -8.322   3.458  1.00  0.00     0.200 A 
ATOM     98  F   UNL     1       8.383  -8.430   5.793  1.00  0.00    -0.200 F 
ATOM     99  F   UNL     1       8.083  -6.982   3.502  1.00  0.00    -0.200 F 
ENDBRANCH  66  89
ENDBRANCH  40  41
ENDBRANCH  32  35
ENDBRANCH  30  31
ENDBRANCH  29  30
ENDBRANCH   1  29
TORSDOF 15
