REMARK SMILES Cc1ccccc1N[C@H](C(=O)NCCCCNC(=O)c1ccc(-c2c3nc(c(-c4c(F)c(F)c(F)c(F)c4F)c4ccc([nH]4)c(-c4c(F)c(F)c(F)c(F)c4F)c4nc(c(-c5c(F)c(F)c(F)c(F)c5F)c5ccc2[nH]5)C=C4)C=C3)cc1)c1cccc(C2CC2)c1
REMARK SMILES IDX 14 1 13 2 12 3 10 4 11 5 9 7 8 8 7 10 1 11 2 12 3 13 4 14
REMARK SMILES IDX 6 15 5 16 83 17 84 18 91 19 85 20 87 21 86 22 88 23 89 24
REMARK SMILES IDX 90 25 15 26 16 27 17 28 18 29 19 31 20 32 21 33 82 34 22 35
REMARK SMILES IDX 81 36 23 37 24 38 25 39 75 40 26 41 80 42 74 43 76 44 27 45
REMARK SMILES IDX 79 46 73 47 72 48 28 50 60 51 40 52 59 53 41 54 44 55 58 56
REMARK SMILES IDX 77 57 42 58 43 59 57 61 78 62 45 63 29 64 30 65 38 66 31 67
REMARK SMILES IDX 32 68 36 69 39 70 33 71 34 72 37 73 35 74 61 75 62 76 70 77
REMARK SMILES IDX 63 78 64 79 68 80 71 81 65 82 66 83 69 84 67 85 46 86 47 87
REMARK SMILES IDX 55 88 48 89 49 90 53 91 56 92 50 93 51 94 54 95 52 96
REMARK H PARENT 12 6 8 9 17 30 76 49 44 60
REMARK Flexibility Score: inf
ROOT
ATOM      1  C   UNL     1       2.068   3.557   3.809  1.00  0.00     0.023 C 
ENDROOT
BRANCH   1   2
ATOM      2  C   UNL     1       1.870   3.758   2.310  1.00  0.00     0.116 C 
BRANCH   2   3
ATOM      3  N   UNL     1       1.379   2.566   1.634  1.00  0.00    -0.354 N 
ATOM      4  C   UNL     1       0.551   2.490   0.537  1.00  0.00     0.247 C 
ATOM      5  O   UNL     1       0.364   1.370   0.047  1.00  0.00    -0.272 OA
ATOM      6  H   UNL     1       1.677   1.706   2.009  1.00  0.00     0.163 HD
BRANCH   4   7
ATOM      7  C   UNL     1      -0.121   3.768  -0.084  1.00  0.00     0.200 C 
BRANCH   7   8
ATOM      8  N   UNL     1      -1.149   4.232   0.872  1.00  0.00    -0.370 N 
ATOM      9  H   UNL     1      -1.931   3.635   0.860  1.00  0.00     0.161 HD
BRANCH   8  10
ATOM     10  C   UNL     1      -1.332   5.255   1.771  1.00  0.00     0.038 A 
ATOM     11  C   UNL     1      -2.810   3.752   3.243  1.00  0.00     0.046 C 
ATOM     12  C   UNL     1      -2.241   5.091   2.843  1.00  0.00    -0.028 A 
ATOM     13  C   UNL     1      -2.625   6.192   3.638  1.00  0.00     0.005 A 
ATOM     14  C   UNL     1      -2.051   7.441   3.454  1.00  0.00     0.000 A 
ATOM     15  C   UNL     1      -0.668   6.484   1.728  1.00  0.00     0.026 A 
ATOM     16  C   UNL     1      -1.035   7.575   2.526  1.00  0.00     0.002 A 
ENDBRANCH   8  10
ENDBRANCH   7   8
BRANCH   7  17
ATOM     17  C   UNL     1       0.864   4.756  -0.683  1.00  0.00    -0.016 A 
ATOM     18  C   UNL     1       0.491   6.011  -1.164  1.00  0.00     0.006 A 
ATOM     19  C   UNL     1       2.222   4.408  -0.772  1.00  0.00     0.010 A 
ATOM     20  C   UNL     1       1.472   6.966  -1.429  1.00  0.00     0.001 A 
ATOM     21  C   UNL     1       3.238   5.337  -0.980  1.00  0.00    -0.045 A 
ATOM     22  C   UNL     1       2.823   6.637  -1.285  1.00  0.00     0.004 A 
BRANCH  21  23
ATOM     23  C   UNL     1       4.686   4.971  -0.742  1.00  0.00     0.019 C 
ATOM     24  C   UNL     1       5.167   3.535  -0.692  1.00  0.00     0.009 C 
ATOM     25  C   UNL     1       5.526   4.403  -1.857  1.00  0.00     0.009 C 
ENDBRANCH  21  23
ENDBRANCH   7  17
ENDBRANCH   4   7
ENDBRANCH   2   3
ENDBRANCH   1   2
BRANCH   1  26
ATOM     26  C   UNL     1       3.342   2.787   4.160  1.00  0.00     0.023 C 
BRANCH  26  27
ATOM     27  C   UNL     1       4.639   3.564   3.939  1.00  0.00     0.116 C 
BRANCH  27  28
ATOM     28  N   UNL     1       4.981   4.490   5.014  1.00  0.00    -0.352 N 
ATOM     29  C   UNL     1       6.026   5.382   5.145  1.00  0.00     0.251 C 
ATOM     30  H   UNL     1       4.359   4.476   5.777  1.00  0.00     0.163 HD
ATOM     31  O   UNL     1       6.142   6.015   6.174  1.00  0.00    -0.269 OA
BRANCH  29  32
ATOM     32  C   UNL     1       6.949   5.670   4.002  1.00  0.00     0.039 A 
ATOM     33  C   UNL     1       7.433   6.981   3.858  1.00  0.00     0.014 A 
ATOM     34  C   UNL     1       7.249   4.729   3.025  1.00  0.00     0.014 A 
ATOM     35  C   UNL     1       8.008   7.388   2.651  1.00  0.00     0.010 A 
ATOM     36  C   UNL     1       7.748   5.145   1.804  1.00  0.00     0.010 A 
ATOM     37  C   UNL     1       8.061   6.489   1.586  1.00  0.00    -0.014 A 
BRANCH  37  38
ATOM     38  C   UNL     1       8.168   6.899   0.187  1.00  0.00     0.031 A 
ATOM     39  C   UNL     1       9.240   6.440  -0.725  1.00  0.00     0.074 A 
ATOM     40  C   UNL     1       7.101   7.525  -0.361  1.00  0.00     0.049 A 
ATOM     41  N   UNL     1       9.523   7.042  -1.835  1.00  0.00    -0.248 NA
ATOM     42  C   UNL     1      10.070   5.263  -0.491  1.00  0.00     0.031 C 
ATOM     43  C   UNL     1       6.771   7.607  -1.782  1.00  0.00     0.029 A 
ATOM     44  N   UNL     1       6.095   8.271   0.266  1.00  0.00    -0.354 N 
ATOM     45  C   UNL     1      10.300   6.194  -2.582  1.00  0.00     0.074 A 
ATOM     46  C   UNL     1      10.684   5.135  -1.675  1.00  0.00     0.031 C 
ATOM     47  C   UNL     1       5.814   8.523  -1.964  1.00  0.00     0.029 A 
ATOM     48  C   UNL     1       5.592   9.174  -0.690  1.00  0.00     0.049 A 
ATOM     49  H   UNL     1       5.796   8.181   1.200  1.00  0.00     0.167 HD
ATOM     50  C   UNL     1      10.424   6.385  -3.927  1.00  0.00     0.037 A 
ATOM     51  C   UNL     1       5.643  10.522  -0.494  1.00  0.00     0.037 A 
ATOM     52  C   UNL     1       9.610   7.498  -4.409  1.00  0.00     0.049 A 
ATOM     53  C   UNL     1       6.490  11.230  -1.521  1.00  0.00     0.074 A 
ATOM     54  C   UNL     1       8.391   7.551  -5.066  1.00  0.00     0.029 A 
ATOM     55  N   UNL     1       9.869   8.794  -3.970  1.00  0.00    -0.354 N 
ATOM     56  N   UNL     1       7.324  10.604  -2.304  1.00  0.00    -0.248 NA
ATOM     57  C   UNL     1       6.486  12.668  -1.758  1.00  0.00     0.031 C 
ATOM     58  C   UNL     1       7.912   8.881  -5.015  1.00  0.00     0.029 A 
ATOM     59  C   UNL     1       8.841   9.645  -4.330  1.00  0.00     0.049 A 
ATOM     60  H   UNL     1      10.674   9.067  -3.472  1.00  0.00     0.167 HD
ATOM     61  C   UNL     1       7.954  11.493  -3.125  1.00  0.00     0.074 A 
ATOM     62  C   UNL     1       7.392  12.777  -2.749  1.00  0.00     0.031 C 
ATOM     63  C   UNL     1       8.886  11.071  -4.031  1.00  0.00     0.037 A 
BRANCH  50  64
ATOM     64  C   UNL     1      11.089   5.374  -4.828  1.00  0.00     0.064 A 
ATOM     65  C   UNL     1      10.588   5.063  -6.109  1.00  0.00     0.173 A 
ATOM     66  C   UNL     1      12.248   4.670  -4.452  1.00  0.00     0.173 A 
ATOM     67  F   UNL     1       9.529   5.698  -6.624  1.00  0.00    -0.203 F 
ATOM     68  C   UNL     1      11.151   4.067  -6.912  1.00  0.00     0.198 A 
ATOM     69  C   UNL     1      12.782   3.640  -5.233  1.00  0.00     0.198 A 
ATOM     70  F   UNL     1      12.901   4.978  -3.321  1.00  0.00    -0.203 F 
ATOM     71  F   UNL     1      10.628   3.811  -8.120  1.00  0.00    -0.200 F 
ATOM     72  C   UNL     1      12.229   3.334  -6.461  1.00  0.00     0.200 A 
ATOM     73  F   UNL     1      13.833   2.940  -4.782  1.00  0.00    -0.200 F 
ATOM     74  F   UNL     1      12.740   2.348  -7.210  1.00  0.00    -0.200 F 
ENDBRANCH  50  64
BRANCH  51  75
ATOM     75  C   UNL     1       5.454  10.887   0.931  1.00  0.00     0.064 A 
ATOM     76  C   UNL     1       4.172  10.673   1.477  1.00  0.00     0.173 A 
ATOM     77  C   UNL     1       6.537  10.941   1.816  1.00  0.00     0.173 A 
ATOM     78  F   UNL     1       3.105  10.596   0.665  1.00  0.00    -0.203 F 
ATOM     79  C   UNL     1       4.000  10.388   2.829  1.00  0.00     0.198 A 
ATOM     80  C   UNL     1       6.359  10.661   3.174  1.00  0.00     0.198 A 
ATOM     81  F   UNL     1       7.783  11.112   1.351  1.00  0.00    -0.203 F 
ATOM     82  F   UNL     1       2.786  10.059   3.293  1.00  0.00    -0.200 F 
ATOM     83  C   UNL     1       5.099  10.348   3.670  1.00  0.00     0.200 A 
ATOM     84  F   UNL     1       7.424  10.587   3.984  1.00  0.00    -0.200 F 
ATOM     85  F   UNL     1       4.954   9.961   4.945  1.00  0.00    -0.200 F 
ENDBRANCH  51  75
BRANCH  63  86
ATOM     86  C   UNL     1       9.848  11.940  -4.803  1.00  0.00     0.064 A 
ATOM     87  C   UNL     1      10.275  13.207  -4.375  1.00  0.00     0.173 A 
ATOM     88  C   UNL     1      10.506  11.435  -5.954  1.00  0.00     0.173 A 
ATOM     89  F   UNL     1       9.819  13.752  -3.240  1.00  0.00    -0.203 F 
ATOM     90  C   UNL     1      11.244  13.935  -5.071  1.00  0.00     0.198 A 
ATOM     91  C   UNL     1      11.513  12.139  -6.610  1.00  0.00     0.198 A 
ATOM     92  F   UNL     1      10.215  10.227  -6.460  1.00  0.00    -0.203 F 
ATOM     93  F   UNL     1      11.589  15.156  -4.640  1.00  0.00    -0.200 F 
ATOM     94  C   UNL     1      11.872  13.396  -6.178  1.00  0.00     0.200 A 
ATOM     95  F   UNL     1      12.148  11.577  -7.649  1.00  0.00    -0.200 F 
ATOM     96  F   UNL     1      12.837  14.078  -6.810  1.00  0.00    -0.200 F 
ENDBRANCH  63  86
ENDBRANCH  37  38
ENDBRANCH  29  32
ENDBRANCH  27  28
ENDBRANCH  26  27
ENDBRANCH   1  26
TORSDOF 15
