REMARK SMILES Cc1cc(F)ccc1S(=O)(=O)N1CCO[C@H](CC(=O)NCCCCNC(=O)c2ccc(-c3c4nc(c(-c5c(F)c(F)c(F)c(F)c5F)c5ccc([nH]5)c(-c5c(F)c(F)c(F)c(F)c5F)c5nc(c(-c6c(F)c(F)c(F)c(F)c6F)c6ccc3[nH]6)C=C5)C=C4)cc2)C1
REMARK SMILES IDX 22 1 21 2 20 3 18 4 19 5 17 7 16 8 12 9 13 10 91 11 14 12
REMARK SMILES IDX 15 13 9 14 10 15 11 16 8 17 1 18 2 19 3 20 4 21 7 22 5 23
REMARK SMILES IDX 6 24 23 25 24 26 25 27 26 28 27 30 28 31 29 32 90 33 30 34
REMARK SMILES IDX 89 35 31 36 32 37 33 38 83 39 34 40 88 41 82 42 84 43 35 44
REMARK SMILES IDX 87 45 81 46 80 47 36 49 68 50 48 51 67 52 49 53 52 54 66 55
REMARK SMILES IDX 85 56 50 57 51 58 65 60 86 61 53 62 37 63 38 64 46 65 39 66
REMARK SMILES IDX 40 67 44 68 47 69 41 70 42 71 45 72 43 73 69 74 70 75 78 76
REMARK SMILES IDX 71 77 72 78 76 79 79 80 73 81 74 82 77 83 75 84 54 85 55 86
REMARK SMILES IDX 63 87 56 88 57 89 61 90 64 91 58 92 59 93 62 94 60 95
REMARK H PARENT 20 6 25 29 84 48 52 59
REMARK Flexibility Score: inf
ROOT
ATOM      1  C   UNL     1       5.309   4.008  -3.127  1.00  0.00     0.023 C 
ENDROOT
BRANCH   1   2
ATOM      2  C   UNL     1       3.805   3.907  -2.849  1.00  0.00     0.116 C 
BRANCH   2   3
ATOM      3  N   UNL     1       3.165   3.025  -3.802  1.00  0.00    -0.356 N 
ATOM      4  C   UNL     1       3.057   1.671  -3.715  1.00  0.00     0.222 C 
ATOM      5  O   UNL     1       2.761   1.021  -4.715  1.00  0.00    -0.275 OA
ATOM      6  H   UNL     1       2.766   3.449  -4.596  1.00  0.00     0.163 HD
BRANCH   4   7
ATOM      7  C   UNL     1       3.235   1.026  -2.368  1.00  0.00     0.133 C 
BRANCH   7   8
ATOM      8  C   UNL     1       4.689   0.682  -2.010  1.00  0.00     0.142 C 
ATOM      9  N   UNL     1       3.986  -0.615  -0.120  1.00  0.00    -0.193 NA
ATOM     10  C   UNL     1       4.750   0.162   0.871  1.00  0.00     0.131 C 
ATOM     11  C   UNL     1       4.734  -0.715  -1.393  1.00  0.00     0.135 C 
ATOM     12  C   UNL     1       5.099   1.550   0.283  1.00  0.00     0.177 C 
ATOM     13  O   UNL     1       5.351   1.625  -1.131  1.00  0.00    -0.375 OA
BRANCH   9  14
ATOM     14  S   UNL     1       2.860  -1.767   0.321  1.00  0.00     0.243 S 
ATOM     15  O   UNL     1       3.057  -2.075   1.726  1.00  0.00    -0.207 OA
ATOM     16  O   UNL     1       2.914  -2.801  -0.687  1.00  0.00    -0.207 OA
BRANCH  14  17
ATOM     17  C   UNL     1       1.192  -1.062   0.198  1.00  0.00     0.085 A 
ATOM     18  C   UNL     1       1.683   1.399   0.835  1.00  0.00     0.046 C 
ATOM     19  C   UNL     1       0.806   0.281   0.389  1.00  0.00    -0.028 A 
ATOM     20  C   UNL     1      -0.557   0.626   0.244  1.00  0.00     0.044 A 
ATOM     21  C   UNL     1      -1.515  -0.335  -0.037  1.00  0.00     0.123 A 
ATOM     22  C   UNL     1       0.192  -2.020  -0.087  1.00  0.00     0.025 A 
ATOM     23  F   UNL     1      -2.800   0.027  -0.135  1.00  0.00    -0.207 F 
ATOM     24  C   UNL     1      -1.154  -1.660  -0.190  1.00  0.00     0.040 A 
ENDBRANCH  14  17
ENDBRANCH   9  14
ENDBRANCH   7   8
ENDBRANCH   4   7
ENDBRANCH   2   3
ENDBRANCH   1   2
BRANCH   1  25
ATOM     25  C   UNL     1       5.676   4.472  -4.540  1.00  0.00     0.023 C 
BRANCH  25  26
ATOM     26  C   UNL     1       5.213   5.881  -4.818  1.00  0.00     0.116 C 
BRANCH  26  27
ATOM     27  N   UNL     1       5.940   6.860  -4.007  1.00  0.00    -0.352 N 
ATOM     28  C   UNL     1       5.880   8.233  -4.121  1.00  0.00     0.251 C 
ATOM     29  H   UNL     1       6.533   6.501  -3.308  1.00  0.00     0.163 HD
ATOM     30  O   UNL     1       6.766   8.962  -3.701  1.00  0.00    -0.269 OA
BRANCH  28  31
ATOM     31  C   UNL     1       4.664   8.791  -4.723  1.00  0.00     0.039 A 
ATOM     32  C   UNL     1       4.671   9.884  -5.594  1.00  0.00     0.014 A 
ATOM     33  C   UNL     1       3.480   8.162  -4.357  1.00  0.00     0.014 A 
ATOM     34  C   UNL     1       3.456  10.335  -6.100  1.00  0.00     0.010 A 
ATOM     35  C   UNL     1       2.346   8.432  -5.046  1.00  0.00     0.010 A 
ATOM     36  C   UNL     1       2.308   9.594  -5.809  1.00  0.00    -0.014 A 
BRANCH  36  37
ATOM     37  C   UNL     1       0.956   9.957  -6.174  1.00  0.00     0.031 A 
ATOM     38  C   UNL     1       0.600  10.010  -7.585  1.00  0.00     0.074 A 
ATOM     39  C   UNL     1       0.088  10.070  -5.143  1.00  0.00     0.049 A 
ATOM     40  N   UNL     1      -0.275  10.806  -8.078  1.00  0.00    -0.248 NA
ATOM     41  C   UNL     1       1.263   9.180  -8.584  1.00  0.00     0.031 C 
ATOM     42  C   UNL     1      -1.357  10.173  -5.117  1.00  0.00     0.029 A 
ATOM     43  N   UNL     1       0.453  10.220  -3.791  1.00  0.00    -0.354 N 
ATOM     44  C   UNL     1      -0.563  10.330  -9.338  1.00  0.00     0.074 A 
ATOM     45  C   UNL     1       0.553   9.480  -9.677  1.00  0.00     0.031 C 
ATOM     46  C   UNL     1      -1.719  10.709  -3.933  1.00  0.00     0.029 A 
ATOM     47  C   UNL     1      -0.503  11.069  -3.214  1.00  0.00     0.049 A 
ATOM     48  H   UNL     1       1.226   9.809  -3.339  1.00  0.00     0.167 HD
ATOM     49  C   UNL     1      -1.823  10.534  -9.824  1.00  0.00     0.037 A 
ATOM     50  C   UNL     1      -0.081  12.330  -2.886  1.00  0.00     0.037 A 
ATOM     51  C   UNL     1      -2.621  11.264  -8.824  1.00  0.00     0.049 A 
ATOM     52  C   UNL     1      -0.608  13.370  -3.846  1.00  0.00     0.074 A 
ATOM     53  C   UNL     1      -3.557  10.872  -7.880  1.00  0.00     0.029 A 
ATOM     54  N   UNL     1      -2.211  12.528  -8.440  1.00  0.00    -0.354 N 
ATOM     55  N   UNL     1      -1.257  13.081  -4.941  1.00  0.00    -0.248 NA
ATOM     56  C   UNL     1      -0.429  14.806  -3.671  1.00  0.00     0.031 C 
ATOM     57  C   UNL     1      -3.663  11.911  -6.902  1.00  0.00     0.029 A 
ATOM     58  C   UNL     1      -2.804  12.935  -7.261  1.00  0.00     0.049 A 
ATOM     59  H   UNL     1      -1.570  13.075  -8.949  1.00  0.00     0.167 HD
ATOM     60  C   UNL     1      -1.634  14.226  -5.576  1.00  0.00     0.074 A 
ATOM     61  C   UNL     1      -1.046  15.283  -4.767  1.00  0.00     0.031 C 
ATOM     62  C   UNL     1      -2.415  14.222  -6.699  1.00  0.00     0.037 A 
BRANCH  49  63
ATOM     63  C   UNL     1      -2.446   9.844 -11.023  1.00  0.00     0.064 A 
ATOM     64  C   UNL     1      -3.849   9.867 -11.196  1.00  0.00     0.173 A 
ATOM     65  C   UNL     1      -1.755   9.131 -12.023  1.00  0.00     0.173 A 
ATOM     66  F   UNL     1      -4.641  10.592 -10.394  1.00  0.00    -0.203 F 
ATOM     67  C   UNL     1      -4.501   9.159 -12.210  1.00  0.00     0.198 A 
ATOM     68  C   UNL     1      -2.407   8.398 -13.022  1.00  0.00     0.198 A 
ATOM     69  F   UNL     1      -0.424   9.155 -12.122  1.00  0.00    -0.203 F 
ATOM     70  F   UNL     1      -5.836   9.215 -12.305  1.00  0.00    -0.200 F 
ATOM     71  C   UNL     1      -3.781   8.403 -13.110  1.00  0.00     0.200 A 
ATOM     72  F   UNL     1      -1.684   7.696 -13.908  1.00  0.00    -0.200 F 
ATOM     73  F   UNL     1      -4.404   7.710 -14.072  1.00  0.00    -0.200 F 
ENDBRANCH  49  63
BRANCH  50  74
ATOM     74  C   UNL     1       1.280  12.284  -2.249  1.00  0.00     0.064 A 
ATOM     75  C   UNL     1       1.381  11.524  -1.062  1.00  0.00     0.173 A 
ATOM     76  C   UNL     1       2.453  12.451  -3.000  1.00  0.00     0.173 A 
ATOM     77  F   UNL     1       0.303  11.370  -0.275  1.00  0.00    -0.203 F 
ATOM     78  C   UNL     1       2.516  10.767  -0.781  1.00  0.00     0.198 A 
ATOM     79  C   UNL     1       3.612  11.735  -2.677  1.00  0.00     0.198 A 
ATOM     80  F   UNL     1       2.443  13.193  -4.117  1.00  0.00    -0.203 F 
ATOM     81  F   UNL     1       2.501   9.890   0.234  1.00  0.00    -0.200 F 
ATOM     82  C   UNL     1       3.615  10.837  -1.618  1.00  0.00     0.200 A 
ATOM     83  F   UNL     1       4.703  11.851  -3.446  1.00  0.00    -0.200 F 
ATOM     84  F   UNL     1       4.648  10.004  -1.429  1.00  0.00    -0.200 F 
ENDBRANCH  50  74
BRANCH  62  85
ATOM     85  C   UNL     1      -2.892  15.478  -7.367  1.00  0.00     0.064 A 
ATOM     86  C   UNL     1      -3.350  16.583  -6.636  1.00  0.00     0.173 A 
ATOM     87  C   UNL     1      -3.003  15.578  -8.772  1.00  0.00     0.173 A 
ATOM     88  F   UNL     1      -3.413  16.547  -5.297  1.00  0.00    -0.203 F 
ATOM     89  C   UNL     1      -3.777  17.750  -7.268  1.00  0.00     0.198 A 
ATOM     90  C   UNL     1      -3.501  16.715  -9.397  1.00  0.00     0.198 A 
ATOM     91  F   UNL     1      -2.608  14.594  -9.590  1.00  0.00    -0.203 F 
ATOM     92  F   UNL     1      -4.115  18.816  -6.530  1.00  0.00    -0.200 F 
ATOM     93  C   UNL     1      -3.857  17.814  -8.647  1.00  0.00     0.200 A 
ATOM     94  F   UNL     1      -3.616  16.738 -10.733  1.00  0.00    -0.200 F 
ATOM     95  F   UNL     1      -4.275  18.932  -9.253  1.00  0.00    -0.200 F 
ENDBRANCH  62  85
ENDBRANCH  36  37
ENDBRANCH  28  31
ENDBRANCH  26  27
ENDBRANCH  25  26
ENDBRANCH   1  25
TORSDOF 14
