REMARK SMILES O=C(COc1ccc(Br)cc1)NC(=S)Nc1ccc(Cl)cc1C(=O)NCCCCNC(=O)c1ccc(-c2c3nc(c(-c4c(F)c(F)c(F)c(F)c4F)c4ccc([nH]4)c(-c4c(F)c(F)c(F)c(F)c4F)c4nc(c(-c5c(F)c(F)c(F)c(F)c5F)c5ccc2[nH]5)C=C4)C=C3)cc1
REMARK SMILES IDX 23 1 24 2 25 3 22 5 16 6 17 7 18 8 21 9 19 10 20 11 15 12
REMARK SMILES IDX 13 14 14 15 12 16 1 17 2 18 3 20 4 21 5 22 6 23 11 24 7 25
REMARK SMILES IDX 10 26 8 27 9 28 26 29 27 30 28 31 29 32 30 33 31 34 32 36
REMARK SMILES IDX 33 37 34 38 95 39 35 40 94 41 36 42 37 43 38 44 88 45 39 46
REMARK SMILES IDX 93 47 87 48 89 49 40 50 92 51 86 52 85 53 41 55 73 56 53 57
REMARK SMILES IDX 72 58 54 59 57 60 71 61 90 62 55 63 56 64 70 66 91 67 58 68
REMARK SMILES IDX 42 69 43 70 51 71 44 72 45 73 49 74 52 75 46 76 47 77 50 78
REMARK SMILES IDX 48 79 74 80 75 81 83 82 76 83 77 84 81 85 84 86 78 87 79 88
REMARK SMILES IDX 82 89 80 90 59 91 60 92 68 93 61 94 62 95 66 96 69 97 63 98
REMARK SMILES IDX 64 99 67 100 65 101
REMARK H PARENT 25 4 15 13 12 19 30 35 89 54 57 65
REMARK Flexibility Score: inf
ROOT
ATOM      1  C   UNL     1      -1.373   0.961  -2.518  1.00  0.00     0.253 C 
ATOM      2  O   UNL     1      -2.500   0.798  -2.998  1.00  0.00    -0.269 OA
ATOM      3  N   UNL     1      -0.402   1.329  -3.419  1.00  0.00    -0.352 N 
ATOM      4  H   UNL     1      -0.720   1.380  -4.349  1.00  0.00     0.163 HD
ENDROOT
BRANCH   1   5
ATOM      5  C   UNL     1      -1.204   0.702  -1.050  1.00  0.00     0.064 A 
ATOM      6  C   UNL     1      -0.335   1.313  -0.124  1.00  0.00     0.053 A 
ATOM      7  C   UNL     1      -0.398   0.974   1.246  1.00  0.00     0.028 A 
ATOM      8  C   UNL     1      -1.253  -0.023   1.701  1.00  0.00     0.023 A 
ATOM      9  C   UNL     1      -2.051  -0.320  -0.560  1.00  0.00     0.036 A 
ATOM     10  C   UNL     1      -2.058  -0.686   0.788  1.00  0.00     0.041 A 
ATOM     11  Cl  UNL     1      -3.070  -1.968   1.329  1.00  0.00    -0.084 Cl
BRANCH   6  12
ATOM     12  N   UNL     1       0.623   2.273  -0.472  1.00  0.00    -0.332 N 
ATOM     13  H   UNL     1       0.302   3.030  -1.014  1.00  0.00     0.169 HD
BRANCH  12  14
ATOM     14  C   UNL     1       1.945   2.286  -0.148  1.00  0.00     0.177 C 
ATOM     15  S   UNL     1       2.795   3.720  -0.283  1.00  0.00    -0.040 S 
BRANCH  14  16
ATOM     16  N   UNL     1       2.658   1.149   0.171  1.00  0.00    -0.300 N 
ATOM     17  O   UNL     1       1.341  -0.737  -0.280  1.00  0.00    -0.271 OA
ATOM     18  C   UNL     1       2.389  -0.228   0.104  1.00  0.00     0.264 C 
ATOM     19  H   UNL     1       3.555   1.347   0.524  1.00  0.00     0.172 HD
BRANCH  18  20
ATOM     20  C   UNL     1       3.576  -1.127   0.473  1.00  0.00     0.329 C 
BRANCH  20  21
ATOM     21  O   UNL     1       4.284  -1.625  -0.666  1.00  0.00    -0.484 OA
BRANCH  21  22
ATOM     22  C   UNL     1       3.549  -2.569  -1.338  1.00  0.00     0.120 A 
ATOM     23  C   UNL     1       2.789  -2.174  -2.440  1.00  0.00     0.047 A 
ATOM     24  C   UNL     1       3.586  -3.907  -0.950  1.00  0.00     0.047 A 
ATOM     25  C   UNL     1       1.990  -3.103  -3.107  1.00  0.00     0.019 A 
ATOM     26  C   UNL     1       2.806  -4.845  -1.633  1.00  0.00     0.019 A 
ATOM     27  C   UNL     1       2.001  -4.435  -2.698  1.00  0.00     0.018 A 
ATOM     28  Br  UNL     1       0.916  -5.696  -3.598  1.00  0.00    -0.051 Br
ENDBRANCH  21  22
ENDBRANCH  20  21
ENDBRANCH  18  20
ENDBRANCH  14  16
ENDBRANCH  12  14
ENDBRANCH   6  12
ENDBRANCH   1   5
BRANCH   3  29
ATOM     29  C   UNL     1       0.994   1.654  -3.262  1.00  0.00     0.116 C 
BRANCH  29  30
ATOM     30  C   UNL     1       1.851   1.539  -4.519  1.00  0.00     0.023 C 
BRANCH  30  31
ATOM     31  C   UNL     1       1.417   2.357  -5.736  1.00  0.00     0.023 C 
BRANCH  31  32
ATOM     32  C   UNL     1       0.989   3.802  -5.493  1.00  0.00     0.116 C 
BRANCH  32  33
ATOM     33  N   UNL     1       2.026   4.656  -4.931  1.00  0.00    -0.352 N 
ATOM     34  C   UNL     1       2.669   5.761  -5.447  1.00  0.00     0.251 C 
ATOM     35  H   UNL     1       2.318   4.400  -4.027  1.00  0.00     0.163 HD
ATOM     36  O   UNL     1       3.554   6.305  -4.800  1.00  0.00    -0.269 OA
BRANCH  34  37
ATOM     37  C   UNL     1       2.349   6.262  -6.802  1.00  0.00     0.039 A 
ATOM     38  C   UNL     1       3.405   6.568  -7.668  1.00  0.00     0.014 A 
ATOM     39  C   UNL     1       1.033   6.417  -7.240  1.00  0.00     0.014 A 
ATOM     40  C   UNL     1       3.146   6.901  -8.999  1.00  0.00     0.010 A 
ATOM     41  C   UNL     1       0.774   6.662  -8.587  1.00  0.00     0.010 A 
ATOM     42  C   UNL     1       1.830   6.882  -9.487  1.00  0.00    -0.014 A 
BRANCH  42  43
ATOM     43  C   UNL     1       1.534   7.041 -10.937  1.00  0.00     0.031 A 
ATOM     44  C   UNL     1       0.678   8.177 -11.420  1.00  0.00     0.074 A 
ATOM     45  C   UNL     1       1.956   6.102 -11.807  1.00  0.00     0.049 A 
ATOM     46  N   UNL     1       0.206   8.408 -12.620  1.00  0.00    -0.248 NA
ATOM     47  C   UNL     1       0.270   9.169 -10.414  1.00  0.00     0.031 C 
ATOM     48  C   UNL     1       2.749   4.920 -11.462  1.00  0.00     0.029 A 
ATOM     49  N   UNL     1       1.762   5.983 -13.162  1.00  0.00    -0.354 N 
ATOM     50  C   UNL     1      -0.572   9.552 -12.507  1.00  0.00     0.074 A 
ATOM     51  C   UNL     1      -0.548   9.943 -11.114  1.00  0.00     0.031 C 
ATOM     52  C   UNL     1       2.994   4.212 -12.575  1.00  0.00     0.029 A 
ATOM     53  C   UNL     1       2.340   4.862 -13.706  1.00  0.00     0.049 A 
ATOM     54  H   UNL     1       1.256   6.640 -13.693  1.00  0.00     0.167 HD
ATOM     55  C   UNL     1      -1.231  10.227 -13.480  1.00  0.00     0.037 A 
ATOM     56  C   UNL     1       2.336   4.403 -14.972  1.00  0.00     0.037 A 
ATOM     57  C   UNL     1      -1.225   9.860 -14.871  1.00  0.00     0.049 A 
ATOM     58  C   UNL     1       1.605   5.176 -16.035  1.00  0.00     0.074 A 
ATOM     59  C   UNL     1      -1.806  10.519 -15.941  1.00  0.00     0.029 A 
ATOM     60  N   UNL     1      -0.601   8.733 -15.387  1.00  0.00    -0.354 N 
ATOM     61  N   UNL     1       0.922   6.289 -15.925  1.00  0.00    -0.248 NA
ATOM     62  C   UNL     1       1.647   4.629 -17.399  1.00  0.00     0.031 C 
ATOM     63  C   UNL     1      -1.562   9.773 -17.100  1.00  0.00     0.029 A 
ATOM     64  C   UNL     1      -0.795   8.671 -16.758  1.00  0.00     0.049 A 
ATOM     65  H   UNL     1      -0.094   8.076 -14.858  1.00  0.00     0.167 HD
ATOM     66  C   UNL     1       0.475   6.590 -17.204  1.00  0.00     0.074 A 
ATOM     67  C   UNL     1       0.975   5.549 -18.078  1.00  0.00     0.031 C 
ATOM     68  C   UNL     1      -0.281   7.636 -17.616  1.00  0.00     0.037 A 
BRANCH  55  69
ATOM     69  C   UNL     1      -2.009  11.443 -13.069  1.00  0.00     0.064 A 
ATOM     70  C   UNL     1      -1.367  12.623 -12.665  1.00  0.00     0.173 A 
ATOM     71  C   UNL     1      -3.412  11.438 -13.106  1.00  0.00     0.173 A 
ATOM     72  F   UNL     1      -0.028  12.674 -12.603  1.00  0.00    -0.203 F 
ATOM     73  C   UNL     1      -2.100  13.742 -12.282  1.00  0.00     0.198 A 
ATOM     74  C   UNL     1      -4.141  12.569 -12.750  1.00  0.00     0.198 A 
ATOM     75  F   UNL     1      -4.075  10.338 -13.492  1.00  0.00    -0.203 F 
ATOM     76  F   UNL     1      -1.464  14.841 -11.850  1.00  0.00    -0.200 F 
ATOM     77  C   UNL     1      -3.485  13.717 -12.330  1.00  0.00     0.200 A 
ATOM     78  F   UNL     1      -5.480  12.548 -12.808  1.00  0.00    -0.200 F 
ATOM     79  F   UNL     1      -4.189  14.797 -11.963  1.00  0.00    -0.200 F 
ENDBRANCH  55  69
BRANCH  56  80
ATOM     80  C   UNL     1       3.073   3.159 -15.313  1.00  0.00     0.064 A 
ATOM     81  C   UNL     1       4.252   3.212 -16.071  1.00  0.00     0.173 A 
ATOM     82  C   UNL     1       2.620   1.899 -14.898  1.00  0.00     0.173 A 
ATOM     83  F   UNL     1       4.711   4.393 -16.510  1.00  0.00    -0.203 F 
ATOM     84  C   UNL     1       4.940   2.051 -16.416  1.00  0.00     0.198 A 
ATOM     85  C   UNL     1       3.323   0.740 -15.222  1.00  0.00     0.198 A 
ATOM     86  F   UNL     1       1.501   1.795 -14.167  1.00  0.00    -0.203 F 
ATOM     87  F   UNL     1       6.040   2.128 -17.176  1.00  0.00    -0.200 F 
ATOM     88  C   UNL     1       4.478   0.816 -15.986  1.00  0.00     0.200 A 
ATOM     89  F   UNL     1       2.881  -0.451 -14.795  1.00  0.00    -0.200 F 
ATOM     90  F   UNL     1       5.141  -0.301 -16.315  1.00  0.00    -0.200 F 
ENDBRANCH  56  80
BRANCH  68  91
ATOM     91  C   UNL     1      -0.585   7.728 -19.081  1.00  0.00     0.064 A 
ATOM     92  C   UNL     1      -1.514   6.875 -19.694  1.00  0.00     0.173 A 
ATOM     93  C   UNL     1       0.029   8.711 -19.872  1.00  0.00     0.173 A 
ATOM     94  F   UNL     1      -2.113   5.908 -18.983  1.00  0.00    -0.203 F 
ATOM     95  C   UNL     1      -1.804   6.991 -21.051  1.00  0.00     0.198 A 
ATOM     96  C   UNL     1      -0.282   8.841 -21.222  1.00  0.00     0.198 A 
ATOM     97  F   UNL     1       0.921   9.554 -19.331  1.00  0.00    -0.203 F 
ATOM     98  F   UNL     1      -2.665   6.140 -21.626  1.00  0.00    -0.200 F 
ATOM     99  C   UNL     1      -1.194   7.978 -21.812  1.00  0.00     0.200 A 
ATOM    100  F   UNL     1       0.300   9.802 -21.953  1.00  0.00    -0.200 F 
ATOM    101  F   UNL     1      -1.480   8.093 -23.116  1.00  0.00    -0.200 F 
ENDBRANCH  68  91
ENDBRANCH  42  43
ENDBRANCH  34  37
ENDBRANCH  32  33
ENDBRANCH  31  32
ENDBRANCH  30  31
ENDBRANCH  29  30
ENDBRANCH   3  29
TORSDOF 17
