REMARK SMILES CN(CC1CCC1)C(=O)N(CC(=O)NCCCCNC(=O)c1ccc(-c2c3nc(c(-c4c(F)c(F)c(F)c(F)c4F)c4ccc([nH]4)c(-c4c(F)c(F)c(F)c(F)c4F)c4nc(c(-c5c(F)c(F)c(F)c(F)c5F)c5ccc2[nH]5)C=C4)C=C3)cc1)C(C)(C)C
REMARK SMILES IDX 15 1 14 2 12 3 13 4 11 6 10 7 8 8 9 9 2 10 1 11 3 12 4 13
REMARK SMILES IDX 5 14 7 15 6 16 85 17 86 18 87 19 88 20 16 21 17 22 18 23
REMARK SMILES IDX 19 24 20 25 21 27 22 28 23 29 84 30 24 31 83 32 25 33 26 34
REMARK SMILES IDX 27 35 77 36 28 37 82 38 76 39 78 40 29 41 81 42 75 43 74 44
REMARK SMILES IDX 30 46 62 47 42 48 61 49 43 50 46 51 60 52 79 53 44 54 45 55
REMARK SMILES IDX 59 57 80 58 47 59 31 60 32 61 40 62 33 63 34 64 38 65 41 66
REMARK SMILES IDX 35 67 36 68 39 69 37 70 63 71 64 72 72 73 65 74 66 75 70 76
REMARK SMILES IDX 73 77 67 78 68 79 71 80 69 81 48 82 49 83 57 84 50 85 51 86
REMARK SMILES IDX 55 87 58 88 52 89 53 90 56 91 54 92
REMARK H PARENT 14 5 19 26 78 45 46 56
REMARK Flexibility Score: inf
ROOT
ATOM      1  C   UNL     1      -2.041   3.404  -1.835  1.00  0.00     0.116 C 
ENDROOT
BRANCH   1   2
ATOM      2  N   UNL     1      -2.520   3.181  -3.186  1.00  0.00    -0.355 N 
ATOM      3  C   UNL     1      -2.075   2.360  -4.174  1.00  0.00     0.239 C 
ATOM      4  O   UNL     1      -2.840   2.205  -5.135  1.00  0.00    -0.273 OA
ATOM      5  H   UNL     1      -3.307   3.719  -3.431  1.00  0.00     0.163 HD
BRANCH   3   6
ATOM      6  C   UNL     1      -0.809   1.493  -4.074  1.00  0.00     0.221 C 
BRANCH   6   7
ATOM      7  N   UNL     1       0.399   1.952  -3.392  1.00  0.00    -0.311 N 
BRANCH   7   8
ATOM      8  C   UNL     1       0.829   1.484  -2.151  1.00  0.00     0.320 C 
ATOM      9  O   UNL     1       1.605   2.180  -1.485  1.00  0.00    -0.248 OA
BRANCH   8  10
ATOM     10  N   UNL     1       0.406   0.274  -1.597  1.00  0.00    -0.327 N 
ATOM     11  C   UNL     1       0.879   0.058  -0.227  1.00  0.00     0.148 C 
BRANCH  10  12
ATOM     12  C   UNL     1      -0.118  -0.954  -2.229  1.00  0.00     0.124 C 
BRANCH  12  13
ATOM     13  C   UNL     1      -1.641  -1.064  -2.045  1.00  0.00     0.008 C 
ATOM     14  C   UNL     1      -2.340  -2.160  -1.176  1.00  0.00     0.005 C 
ATOM     15  C   UNL     1      -2.407  -0.053  -1.145  1.00  0.00     0.005 C 
ATOM     16  C   UNL     1      -3.476  -1.129  -0.952  1.00  0.00     0.001 C 
ENDBRANCH  12  13
ENDBRANCH  10  12
ENDBRANCH   8  10
ENDBRANCH   7   8
BRANCH   7  17
ATOM     17  C   UNL     1       1.105   3.164  -4.008  1.00  0.00     0.037 C 
ATOM     18  C   UNL     1       0.817   4.470  -3.232  1.00  0.00     0.034 C 
ATOM     19  C   UNL     1       2.637   2.951  -4.067  1.00  0.00     0.034 C 
ATOM     20  C   UNL     1       0.682   3.446  -5.478  1.00  0.00     0.034 C 
ENDBRANCH   7  17
ENDBRANCH   6   7
ENDBRANCH   3   6
ENDBRANCH   1   2
BRANCH   1  21
ATOM     21  C   UNL     1      -2.401   4.782  -1.295  1.00  0.00     0.023 C 
BRANCH  21  22
ATOM     22  C   UNL     1      -3.902   5.053  -1.185  1.00  0.00     0.023 C 
BRANCH  22  23
ATOM     23  C   UNL     1      -4.745   3.919  -0.607  1.00  0.00     0.116 C 
BRANCH  23  24
ATOM     24  N   UNL     1      -4.351   3.520   0.736  1.00  0.00    -0.352 N 
ATOM     25  C   UNL     1      -5.075   3.544   1.910  1.00  0.00     0.251 C 
ATOM     26  H   UNL     1      -3.430   3.182   0.819  1.00  0.00     0.163 HD
ATOM     27  O   UNL     1      -4.564   3.241   2.970  1.00  0.00    -0.269 OA
BRANCH  25  28
ATOM     28  C   UNL     1      -6.480   4.001   1.864  1.00  0.00     0.039 A 
ATOM     29  C   UNL     1      -6.864   5.066   2.679  1.00  0.00     0.014 A 
ATOM     30  C   UNL     1      -7.377   3.437   0.955  1.00  0.00     0.014 A 
ATOM     31  C   UNL     1      -8.123   5.641   2.505  1.00  0.00     0.010 A 
ATOM     32  C   UNL     1      -8.594   4.066   0.723  1.00  0.00     0.010 A 
ATOM     33  C   UNL     1      -8.973   5.184   1.484  1.00  0.00    -0.014 A 
BRANCH  33  34
ATOM     34  C   UNL     1     -10.246   5.881   1.170  1.00  0.00     0.031 A 
ATOM     35  C   UNL     1     -11.554   5.156   1.301  1.00  0.00     0.074 A 
ATOM     36  C   UNL     1     -10.214   7.135   0.675  1.00  0.00     0.049 A 
ATOM     37  N   UNL     1     -12.759   5.559   0.986  1.00  0.00    -0.248 NA
ATOM     38  C   UNL     1     -11.497   3.781   1.820  1.00  0.00     0.031 C 
ATOM     39  C   UNL     1      -9.003   7.920   0.433  1.00  0.00     0.029 A 
ATOM     40  N   UNL     1     -11.231   7.963   0.270  1.00  0.00    -0.354 N 
ATOM     41  C   UNL     1     -13.595   4.481   1.244  1.00  0.00     0.074 A 
ATOM     42  C   UNL     1     -12.756   3.391   1.692  1.00  0.00     0.031 C 
ATOM     43  C   UNL     1      -9.347   9.121  -0.059  1.00  0.00     0.029 A 
ATOM     44  C   UNL     1     -10.798   9.179  -0.201  1.00  0.00     0.049 A 
ATOM     45  H   UNL     1     -12.182   7.710   0.313  1.00  0.00     0.167 HD
ATOM     46  C   UNL     1     -14.943   4.415   1.139  1.00  0.00     0.037 A 
ATOM     47  C   UNL     1     -11.493  10.221  -0.697  1.00  0.00     0.037 A 
ATOM     48  C   UNL     1     -15.778   5.514   0.733  1.00  0.00     0.049 A 
ATOM     49  C   UNL     1     -12.993  10.134  -0.771  1.00  0.00     0.074 A 
ATOM     50  C   UNL     1     -17.159   5.576   0.683  1.00  0.00     0.029 A 
ATOM     51  N   UNL     1     -15.306   6.747   0.306  1.00  0.00    -0.354 N 
ATOM     52  N   UNL     1     -13.780   9.140  -0.442  1.00  0.00    -0.248 NA
ATOM     53  C   UNL     1     -13.701  11.317  -1.280  1.00  0.00     0.031 C 
ATOM     54  C   UNL     1     -17.523   6.832   0.185  1.00  0.00     0.029 A 
ATOM     55  C   UNL     1     -16.369   7.569  -0.030  1.00  0.00     0.049 A 
ATOM     56  H   UNL     1     -14.356   7.000   0.251  1.00  0.00     0.167 HD
ATOM     57  C   UNL     1     -15.074   9.582  -0.679  1.00  0.00     0.074 A 
ATOM     58  C   UNL     1     -14.967  10.942  -1.167  1.00  0.00     0.031 C 
ATOM     59  C   UNL     1     -16.245   8.921  -0.510  1.00  0.00     0.037 A 
BRANCH  46  60
ATOM     60  C   UNL     1     -15.600   3.109   1.478  1.00  0.00     0.064 A 
ATOM     61  C   UNL     1     -15.652   2.631   2.796  1.00  0.00     0.173 A 
ATOM     62  C   UNL     1     -16.205   2.337   0.476  1.00  0.00     0.173 A 
ATOM     63  F   UNL     1     -15.077   3.326   3.789  1.00  0.00    -0.203 F 
ATOM     64  C   UNL     1     -16.258   1.414   3.094  1.00  0.00     0.198 A 
ATOM     65  C   UNL     1     -16.837   1.134   0.781  1.00  0.00     0.198 A 
ATOM     66  F   UNL     1     -16.188   2.750  -0.801  1.00  0.00    -0.203 F 
ATOM     67  F   UNL     1     -16.248   0.953   4.352  1.00  0.00    -0.200 F 
ATOM     68  C   UNL     1     -16.855   0.669   2.088  1.00  0.00     0.200 A 
ATOM     69  F   UNL     1     -17.424   0.421  -0.190  1.00  0.00    -0.200 F 
ATOM     70  F   UNL     1     -17.441  -0.501   2.376  1.00  0.00    -0.200 F 
ENDBRANCH  46  60
BRANCH  47  71
ATOM     71  C   UNL     1     -10.777  11.447  -1.136  1.00  0.00     0.064 A 
ATOM     72  C   UNL     1     -10.868  12.635  -0.397  1.00  0.00     0.173 A 
ATOM     73  C   UNL     1      -9.989  11.457  -2.295  1.00  0.00     0.173 A 
ATOM     74  F   UNL     1     -11.627  12.679   0.708  1.00  0.00    -0.203 F 
ATOM     75  C   UNL     1     -10.213  13.792  -0.812  1.00  0.00     0.198 A 
ATOM     76  C   UNL     1      -9.312  12.608  -2.695  1.00  0.00     0.198 A 
ATOM     77  F   UNL     1      -9.865  10.345  -3.033  1.00  0.00    -0.203 F 
ATOM     78  F   UNL     1     -10.351  14.925  -0.110  1.00  0.00    -0.200 F 
ATOM     79  C   UNL     1      -9.431  13.777  -1.957  1.00  0.00     0.200 A 
ATOM     80  F   UNL     1      -8.547  12.586  -3.794  1.00  0.00    -0.200 F 
ATOM     81  F   UNL     1      -8.796  14.889  -2.352  1.00  0.00    -0.200 F 
ENDBRANCH  47  71
BRANCH  59  82
ATOM     82  C   UNL     1     -17.507   9.667  -0.829  1.00  0.00     0.064 A 
ATOM     83  C   UNL     1     -17.885   9.940  -2.151  1.00  0.00     0.173 A 
ATOM     84  C   UNL     1     -18.370  10.073   0.200  1.00  0.00     0.173 A 
ATOM     85  F   UNL     1     -17.085   9.585  -3.168  1.00  0.00    -0.203 F 
ATOM     86  C   UNL     1     -19.072  10.611  -2.432  1.00  0.00     0.198 A 
ATOM     87  C   UNL     1     -19.570  10.720  -0.085  1.00  0.00     0.198 A 
ATOM     88  F   UNL     1     -18.057   9.831   1.481  1.00  0.00    -0.203 F 
ATOM     89  F   UNL     1     -19.392  10.900  -3.700  1.00  0.00    -0.200 F 
ATOM     90  C   UNL     1     -19.916  10.994  -1.400  1.00  0.00     0.200 A 
ATOM     91  F   UNL     1     -20.390  11.077   0.912  1.00  0.00    -0.200 F 
ATOM     92  F   UNL     1     -21.062  11.633  -1.672  1.00  0.00    -0.200 F 
ENDBRANCH  59  82
ENDBRANCH  33  34
ENDBRANCH  25  28
ENDBRANCH  23  24
ENDBRANCH  22  23
ENDBRANCH  21  22
ENDBRANCH   1  21
TORSDOF 17
