REMARK SMILES CC(C)(C)OC(=O)N1C[C@H](Oc2ccncc2)C[C@H]1C(=O)NCCCCNC(=O)c1ccc(-c2c3nc(c(-c4c(F)c(F)c(F)c(F)c4F)c4ccc([nH]4)c(-c4c(F)c(F)c(F)c(F)c4F)c4nc(c(-c5c(F)c(F)c(F)c(F)c5F)c5ccc2[nH]5)C=C4)C=C3)cc1
REMARK SMILES IDX 24 1 23 2 22 3 20 4 21 5 19 7 8 8 9 9 10 10 18 11 6 12 7 13
REMARK SMILES IDX 5 14 2 15 1 16 3 17 4 18 11 19 12 20 13 21 17 22 14 23 16 24
REMARK SMILES IDX 15 25 25 26 26 27 27 28 28 29 29 31 30 32 31 33 92 34 32 35
REMARK SMILES IDX 91 36 33 37 34 38 35 39 85 40 36 41 90 42 84 43 86 44 37 45
REMARK SMILES IDX 89 46 83 47 82 48 38 50 70 51 50 52 69 53 51 54 54 55 68 56
REMARK SMILES IDX 87 57 52 58 53 59 67 61 88 62 55 63 39 64 40 65 48 66 41 67
REMARK SMILES IDX 42 68 46 69 49 70 43 71 44 72 47 73 45 74 71 75 72 76 80 77
REMARK SMILES IDX 73 78 74 79 78 80 81 81 75 82 76 83 79 84 77 85 56 86 57 87
REMARK SMILES IDX 65 88 58 89 59 90 63 91 66 92 60 93 61 94 64 95 62 96
REMARK H PARENT 22 6 27 30 86 49 54 60
REMARK Flexibility Score: inf
ROOT
ATOM      1  C   UNL     1      -3.556   4.647   5.239  1.00  0.00     0.023 C 
ENDROOT
BRANCH   1   2
ATOM      2  C   UNL     1      -2.357   4.471   4.314  1.00  0.00     0.116 C 
BRANCH   2   3
ATOM      3  N   UNL     1      -1.206   5.243   4.754  1.00  0.00    -0.354 N 
ATOM      4  C   UNL     1       0.073   4.824   4.997  1.00  0.00     0.243 C 
ATOM      5  O   UNL     1       0.942   5.684   5.170  1.00  0.00    -0.273 OA
ATOM      6  H   UNL     1      -1.371   6.203   4.897  1.00  0.00     0.163 HD
BRANCH   4   7
ATOM      7  C   UNL     1       0.403   3.321   4.991  1.00  0.00     0.181 C 
ATOM      8  N   UNL     1       1.164   2.931   3.804  1.00  0.00    -0.292 N 
ATOM      9  C   UNL     1       2.461   2.376   4.152  1.00  0.00     0.169 C 
ATOM     10  C   UNL     1       2.314   1.951   5.612  1.00  0.00     0.195 C 
ATOM     11  C   UNL     1       1.308   2.954   6.183  1.00  0.00     0.082 C 
BRANCH   8  12
ATOM     12  C   UNL     1       0.577   2.901   2.565  1.00  0.00     0.411 C 
ATOM     13  O   UNL     1      -0.451   3.507   2.294  1.00  0.00    -0.224 OA
BRANCH  12  14
ATOM     14  O   UNL     1       1.224   2.071   1.710  1.00  0.00    -0.444 OA
BRANCH  14  15
ATOM     15  C   UNL     1       0.703   1.815   0.377  1.00  0.00     0.106 C 
ATOM     16  C   UNL     1       1.389   0.514  -0.063  1.00  0.00     0.056 C 
ATOM     17  C   UNL     1       1.127   2.958  -0.547  1.00  0.00     0.056 C 
ATOM     18  C   UNL     1      -0.816   1.586   0.323  1.00  0.00     0.056 C 
ENDBRANCH  14  15
ENDBRANCH  12  14
ENDBRANCH   8  12
BRANCH  10  19
ATOM     19  O   UNL     1       1.994   0.565   5.840  1.00  0.00    -0.488 OA
BRANCH  19  20
ATOM     20  C   UNL     1       0.821   0.089   5.333  1.00  0.00     0.122 A 
ATOM     21  C   UNL     1       0.741  -0.360   4.022  1.00  0.00     0.066 A 
ATOM     22  C   UNL     1      -0.264  -0.075   6.185  1.00  0.00     0.066 A 
ATOM     23  C   UNL     1      -0.469  -0.869   3.584  1.00  0.00     0.115 A 
ATOM     24  C   UNL     1      -1.427  -0.607   5.657  1.00  0.00     0.115 A 
ATOM     25  N   UNL     1      -1.561  -0.988   4.368  1.00  0.00    -0.264 NA
ENDBRANCH  19  20
ENDBRANCH  10  19
ENDBRANCH   4   7
ENDBRANCH   2   3
ENDBRANCH   1   2
BRANCH   1  26
ATOM     26  C   UNL     1      -4.161   6.051   5.243  1.00  0.00     0.023 C 
BRANCH  26  27
ATOM     27  C   UNL     1      -4.569   6.596   3.877  1.00  0.00     0.116 C 
BRANCH  27  28
ATOM     28  N   UNL     1      -5.541   5.759   3.190  1.00  0.00    -0.352 N 
ATOM     29  C   UNL     1      -6.670   6.130   2.501  1.00  0.00     0.251 C 
ATOM     30  H   UNL     1      -5.365   4.791   3.224  1.00  0.00     0.163 HD
ATOM     31  O   UNL     1      -7.444   5.279   2.073  1.00  0.00    -0.269 OA
BRANCH  29  32
ATOM     32  C   UNL     1      -6.976   7.563   2.306  1.00  0.00     0.039 A 
ATOM     33  C   UNL     1      -8.268   8.018   2.584  1.00  0.00     0.014 A 
ATOM     34  C   UNL     1      -5.996   8.455   1.861  1.00  0.00     0.014 A 
ATOM     35  C   UNL     1      -8.558   9.380   2.489  1.00  0.00     0.010 A 
ATOM     36  C   UNL     1      -6.270   9.820   1.825  1.00  0.00     0.010 A 
ATOM     37  C   UNL     1      -7.551  10.296   2.145  1.00  0.00    -0.014 A 
BRANCH  37  38
ATOM     38  C   UNL     1      -7.814  11.756   2.126  1.00  0.00     0.031 A 
ATOM     39  C   UNL     1      -7.757  12.518   0.833  1.00  0.00     0.074 A 
ATOM     40  C   UNL     1      -8.034  12.408   3.284  1.00  0.00     0.049 A 
ATOM     41  N   UNL     1      -7.868  13.806   0.625  1.00  0.00    -0.248 NA
ATOM     42  C   UNL     1      -7.519  11.730  -0.387  1.00  0.00     0.031 C 
ATOM     43  C   UNL     1      -8.067  11.788   4.610  1.00  0.00     0.029 A 
ATOM     44  N   UNL     1      -8.256  13.739   3.534  1.00  0.00    -0.354 N 
ATOM     45  C   UNL     1      -7.698  13.984  -0.741  1.00  0.00     0.074 A 
ATOM     46  C   UNL     1      -7.435  12.679  -1.309  1.00  0.00     0.031 C 
ATOM     47  C   UNL     1      -8.306  12.735   5.532  1.00  0.00     0.029 A 
ATOM     48  C   UNL     1      -8.412  14.030   4.867  1.00  0.00     0.049 A 
ATOM     49  H   UNL     1      -8.299  14.421   2.825  1.00  0.00     0.167 HD
ATOM     50  C   UNL     1      -7.775  15.129  -1.459  1.00  0.00     0.037 A 
ATOM     51  C   UNL     1      -8.610  15.211   5.484  1.00  0.00     0.037 A 
ATOM     52  C   UNL     1      -8.065  16.422  -0.899  1.00  0.00     0.049 A 
ATOM     53  C   UNL     1      -8.705  16.466   4.660  1.00  0.00     0.074 A 
ATOM     54  C   UNL     1      -8.213  17.634  -1.553  1.00  0.00     0.029 A 
ATOM     55  N   UNL     1      -8.256  16.671   0.452  1.00  0.00    -0.354 N 
ATOM     56  N   UNL     1      -8.597  16.613   3.363  1.00  0.00    -0.248 NA
ATOM     57  C   UNL     1      -8.957  17.718   5.387  1.00  0.00     0.031 C 
ATOM     58  C   UNL     1      -8.465  18.621  -0.594  1.00  0.00     0.029 A 
ATOM     59  C   UNL     1      -8.510  18.018   0.652  1.00  0.00     0.049 A 
ATOM     60  H   UNL     1      -8.216  15.991   1.163  1.00  0.00     0.167 HD
ATOM     61  C   UNL     1      -8.791  17.964   3.115  1.00  0.00     0.074 A 
ATOM     62  C   UNL     1      -9.037  18.594   4.396  1.00  0.00     0.031 C 
ATOM     63  C   UNL     1      -8.765  18.625   1.933  1.00  0.00     0.037 A 
BRANCH  50  64
ATOM     64  C   UNL     1      -7.553  15.034  -2.939  1.00  0.00     0.064 A 
ATOM     65  C   UNL     1      -8.511  14.457  -3.786  1.00  0.00     0.173 A 
ATOM     66  C   UNL     1      -6.392  15.563  -3.523  1.00  0.00     0.173 A 
ATOM     67  F   UNL     1      -9.632  13.926  -3.275  1.00  0.00    -0.203 F 
ATOM     68  C   UNL     1      -8.305  14.394  -5.162  1.00  0.00     0.198 A 
ATOM     69  C   UNL     1      -6.201  15.521  -4.901  1.00  0.00     0.198 A 
ATOM     70  F   UNL     1      -5.448  16.131  -2.757  1.00  0.00    -0.203 F 
ATOM     71  F   UNL     1      -9.216  13.803  -5.947  1.00  0.00    -0.200 F 
ATOM     72  C   UNL     1      -7.154  14.932  -5.718  1.00  0.00     0.200 A 
ATOM     73  F   UNL     1      -5.094  16.052  -5.440  1.00  0.00    -0.200 F 
ATOM     74  F   UNL     1      -6.962  14.878  -7.044  1.00  0.00    -0.200 F 
ENDBRANCH  50  64
BRANCH  51  75
ATOM     75  C   UNL     1      -8.752  15.261   6.961  1.00  0.00     0.064 A 
ATOM     76  C   UNL     1      -9.992  15.535   7.554  1.00  0.00     0.173 A 
ATOM     77  C   UNL     1      -7.655  15.048   7.808  1.00  0.00     0.173 A 
ATOM     78  F   UNL     1     -11.065  15.767   6.784  1.00  0.00    -0.203 F 
ATOM     79  C   UNL     1     -10.126  15.613   8.939  1.00  0.00     0.198 A 
ATOM     80  C   UNL     1      -7.795  15.102   9.193  1.00  0.00     0.198 A 
ATOM     81  F   UNL     1      -6.448  14.779   7.288  1.00  0.00    -0.203 F 
ATOM     82  F   UNL     1     -11.313  15.920   9.478  1.00  0.00    -0.200 F 
ATOM     83  C   UNL     1      -9.028  15.392   9.757  1.00  0.00     0.200 A 
ATOM     84  F   UNL     1      -6.735  14.877   9.981  1.00  0.00    -0.200 F 
ATOM     85  F   UNL     1      -9.157  15.467  11.088  1.00  0.00    -0.200 F 
ENDBRANCH  51  75
BRANCH  63  86
ATOM     86  C   UNL     1      -9.041  20.098   1.964  1.00  0.00     0.064 A 
ATOM     87  C   UNL     1      -8.091  21.013   2.439  1.00  0.00     0.173 A 
ATOM     88  C   UNL     1     -10.256  20.603   1.476  1.00  0.00     0.173 A 
ATOM     89  F   UNL     1      -6.921  20.576   2.931  1.00  0.00    -0.203 F 
ATOM     90  C   UNL     1      -8.354  22.380   2.443  1.00  0.00     0.198 A 
ATOM     91  C   UNL     1     -10.507  21.972   1.459  1.00  0.00     0.198 A 
ATOM     92  F   UNL     1     -11.195  19.768   1.006  1.00  0.00    -0.203 F 
ATOM     93  F   UNL     1      -7.448  23.233   2.939  1.00  0.00    -0.200 F 
ATOM     94  C   UNL     1      -9.559  22.858   1.948  1.00  0.00     0.200 A 
ATOM     95  F   UNL     1     -11.666  22.433   0.971  1.00  0.00    -0.200 F 
ATOM     96  F   UNL     1      -9.808  24.175   1.948  1.00  0.00    -0.200 F 
ENDBRANCH  63  86
ENDBRANCH  37  38
ENDBRANCH  29  32
ENDBRANCH  27  28
ENDBRANCH  26  27
ENDBRANCH   1  26
TORSDOF 16
