REMARK SMILES Cc1cc2nc(NC3=[NH+][C@H](CC(=O)NCCCCNC(=O)c4ccc(-c5c6nc(c(-c7c(F)c(F)c(F)c(F)c7F)c7ccc([nH]7)c(-c7c(F)c(F)c(F)c(F)c7F)c7nc(c(-c8c(F)c(F)c(F)c(F)c8F)c8ccc5[nH]8)C=C7)C=C6)cc4)C(=O)N3)nc(C)c2cc1C
REMARK SMILES IDX 16 1 15 2 14 3 12 4 13 5 11 7 10 8 7 9 8 10 9 12 87 13 85 15
REMARK SMILES IDX 86 17 6 18 1 19 2 20 3 21 93 22 4 23 92 24 94 25 5 26 91 27
REMARK SMILES IDX 89 28 88 29 90 30 17 31 18 32 19 33 20 34 21 36 22 37 23 38
REMARK SMILES IDX 84 39 24 40 83 41 25 42 26 43 27 44 77 45 28 46 82 47 76 48
REMARK SMILES IDX 78 49 29 50 81 51 75 52 74 53 30 55 62 56 42 57 61 58 43 59
REMARK SMILES IDX 46 60 60 61 79 62 44 63 45 64 59 66 80 67 47 68 31 69 32 70
REMARK SMILES IDX 40 71 33 72 34 73 38 74 41 75 35 76 36 77 39 78 37 79 63 80
REMARK SMILES IDX 64 81 72 82 65 83 66 84 70 85 73 86 67 87 68 88 71 89 69 90
REMARK SMILES IDX 48 91 49 92 57 93 50 94 51 95 55 96 58 97 52 98 53 99 56 100
REMARK SMILES IDX 54 101
REMARK H PARENT 14 6 7 11 9 14 87 16 19 35 78 54 46 65
REMARK Flexibility Score: inf
ROOT
ATOM      1  C   UNL     1      -3.888  -2.403  -2.638  1.00  0.00     0.023 C 
ENDROOT
BRANCH   1   2
ATOM      2  C   UNL     1      -2.706  -3.053  -1.911  1.00  0.00     0.116 C 
BRANCH   2   3
ATOM      3  N   UNL     1      -3.051  -4.365  -1.399  1.00  0.00    -0.356 N 
ATOM      4  C   UNL     1      -2.807  -5.586  -1.960  1.00  0.00     0.224 C 
ATOM      5  O   UNL     1      -3.274  -6.582  -1.406  1.00  0.00    -0.275 OA
ATOM      6  H   UNL     1      -3.523  -4.378  -0.535  1.00  0.00     0.163 HD
BRANCH   4   7
ATOM      7  C   UNL     1      -1.947  -5.717  -3.204  1.00  0.00     0.153 C 
BRANCH   7   8
ATOM      8  C   UNL     1      -2.708  -5.434  -4.492  1.00  0.00     0.260 C 
ATOM      9  N   UNL     1      -1.797  -2.495  -6.288  1.00  0.00    -0.212 N 
ATOM     10  C   UNL     1      -2.074  -3.725  -5.797  1.00  0.00     0.358 C 
ATOM     11  H   UNL     1      -1.914  -2.347  -7.254  1.00  0.00     0.270 HD
ATOM     12  N   UNL     1      -2.753  -3.972  -4.726  1.00  0.00    -0.263 N 
ATOM     13  N   UNL     1      -1.645  -4.825  -6.440  1.00  0.00    -0.211 N 
ATOM     14  H   UNL     1      -3.217  -3.308  -4.167  1.00  0.00     0.261 HD
ATOM     15  C   UNL     1      -1.953  -5.933  -5.710  1.00  0.00     0.320 C 
ATOM     16  H   UNL     1      -1.179  -4.830  -7.307  1.00  0.00     0.270 HD
ATOM     17  O   UNL     1      -1.639  -7.074  -5.979  1.00  0.00    -0.252 OA
BRANCH   9  18
ATOM     18  C   UNL     1      -1.358  -1.426  -5.514  1.00  0.00     0.291 A 
ATOM     19  C   UNL     1       1.139  -0.180  -0.121  1.00  0.00     0.044 C 
ATOM     20  C   UNL     1       0.590   0.179  -1.475  1.00  0.00    -0.046 A 
ATOM     21  C   UNL     1       0.188  -0.851  -2.343  1.00  0.00     0.033 A 
ATOM     22  C   UNL     1       0.495   1.506  -1.912  1.00  0.00    -0.047 A 
ATOM     23  C   UNL     1      -0.362  -0.608  -3.598  1.00  0.00     0.078 A 
ATOM     24  C   UNL     1      -0.041   1.760  -3.185  1.00  0.00     0.016 A 
ATOM     25  C   UNL     1       0.917   2.657  -1.041  1.00  0.00     0.044 C 
ATOM     26  N   UNL     1      -0.779  -1.649  -4.326  1.00  0.00    -0.198 NA
ATOM     27  C   UNL     1      -0.483   0.709  -4.030  1.00  0.00     0.022 A 
ATOM     28  C   UNL     1      -1.068   0.852  -5.298  1.00  0.00     0.052 A 
ATOM     29  N   UNL     1      -1.490  -0.204  -6.040  1.00  0.00    -0.203 NA
ATOM     30  C   UNL     1      -1.245   2.200  -5.936  1.00  0.00     0.067 C 
ENDBRANCH   9  18
ENDBRANCH   7   8
ENDBRANCH   4   7
ENDBRANCH   2   3
ENDBRANCH   1   2
BRANCH   1  31
ATOM     31  C   UNL     1      -4.762  -1.515  -1.766  1.00  0.00     0.023 C 
BRANCH  31  32
ATOM     32  C   UNL     1      -4.069  -0.260  -1.259  1.00  0.00     0.116 C 
BRANCH  32  33
ATOM     33  N   UNL     1      -3.642   0.667  -2.302  1.00  0.00    -0.352 N 
ATOM     34  C   UNL     1      -3.593   2.043  -2.249  1.00  0.00     0.251 C 
ATOM     35  H   UNL     1      -3.353   0.258  -3.150  1.00  0.00     0.163 HD
ATOM     36  O   UNL     1      -3.251   2.713  -3.217  1.00  0.00    -0.269 OA
BRANCH  34  37
ATOM     37  C   UNL     1      -4.042   2.719  -1.015  1.00  0.00     0.039 A 
ATOM     38  C   UNL     1      -3.615   2.263   0.232  1.00  0.00     0.014 A 
ATOM     39  C   UNL     1      -5.005   3.725  -1.112  1.00  0.00     0.014 A 
ATOM     40  C   UNL     1      -4.326   2.634   1.363  1.00  0.00     0.010 A 
ATOM     41  C   UNL     1      -5.637   4.186   0.044  1.00  0.00     0.010 A 
ATOM     42  C   UNL     1      -5.356   3.588   1.282  1.00  0.00    -0.014 A 
BRANCH  42  43
ATOM     43  C   UNL     1      -6.138   3.918   2.500  1.00  0.00     0.031 A 
ATOM     44  C   UNL     1      -7.616   3.636   2.571  1.00  0.00     0.074 A 
ATOM     45  C   UNL     1      -5.490   4.410   3.574  1.00  0.00     0.049 A 
ATOM     46  N   UNL     1      -8.450   3.851   3.559  1.00  0.00    -0.248 NA
ATOM     47  C   UNL     1      -8.246   3.042   1.381  1.00  0.00     0.031 C 
ATOM     48  C   UNL     1      -4.057   4.703   3.626  1.00  0.00     0.029 A 
ATOM     49  N   UNL     1      -5.939   4.715   4.832  1.00  0.00    -0.354 N 
ATOM     50  C   UNL     1      -9.697   3.441   3.103  1.00  0.00     0.074 A 
ATOM     51  C   UNL     1      -9.522   2.994   1.739  1.00  0.00     0.031 C 
ATOM     52  C   UNL     1      -3.731   5.078   4.870  1.00  0.00     0.029 A 
ATOM     53  C   UNL     1      -4.942   5.128   5.681  1.00  0.00     0.049 A 
ATOM     54  H   UNL     1      -6.883   4.645   5.102  1.00  0.00     0.167 HD
ATOM     55  C   UNL     1     -10.876   3.427   3.769  1.00  0.00     0.037 A 
ATOM     56  C   UNL     1      -4.997   5.521   6.967  1.00  0.00     0.037 A 
ATOM     57  C   UNL     1     -11.036   3.844   5.138  1.00  0.00     0.049 A 
ATOM     58  C   UNL     1      -6.325   5.540   7.666  1.00  0.00     0.074 A 
ATOM     59  C   UNL     1     -12.186   3.850   5.909  1.00  0.00     0.029 A 
ATOM     60  N   UNL     1     -10.013   4.322   5.944  1.00  0.00    -0.354 N 
ATOM     61  N   UNL     1      -7.496   5.159   7.220  1.00  0.00    -0.248 NA
ATOM     62  C   UNL     1      -6.341   6.059   9.039  1.00  0.00     0.031 C 
ATOM     63  C   UNL     1     -11.867   4.373   7.166  1.00  0.00     0.029 A 
ATOM     64  C   UNL     1     -10.509   4.648   7.196  1.00  0.00     0.049 A 
ATOM     65  H   UNL     1      -9.073   4.417   5.667  1.00  0.00     0.167 HD
ATOM     66  C   UNL     1      -8.389   5.382   8.257  1.00  0.00     0.074 A 
ATOM     67  C   UNL     1      -7.619   5.911   9.365  1.00  0.00     0.031 C 
ATOM     68  C   UNL     1      -9.727   5.174   8.286  1.00  0.00     0.037 A 
BRANCH  55  69
ATOM     69  C   UNL     1     -12.098   2.951   3.035  1.00  0.00     0.064 A 
ATOM     70  C   UNL     1     -12.288   1.597   2.723  1.00  0.00     0.173 A 
ATOM     71  C   UNL     1     -13.125   3.849   2.705  1.00  0.00     0.173 A 
ATOM     72  F   UNL     1     -11.333   0.698   3.008  1.00  0.00    -0.203 F 
ATOM     73  C   UNL     1     -13.453   1.162   2.095  1.00  0.00     0.198 A 
ATOM     74  C   UNL     1     -14.300   3.407   2.102  1.00  0.00     0.198 A 
ATOM     75  F   UNL     1     -12.999   5.154   2.988  1.00  0.00    -0.203 F 
ATOM     76  F   UNL     1     -13.598  -0.132   1.778  1.00  0.00    -0.200 F 
ATOM     77  C   UNL     1     -14.462   2.065   1.794  1.00  0.00     0.200 A 
ATOM     78  F   UNL     1     -15.280   4.279   1.827  1.00  0.00    -0.200 F 
ATOM     79  F   UNL     1     -15.589   1.642   1.205  1.00  0.00    -0.200 F 
ENDBRANCH  55  69
BRANCH  56  80
ATOM     80  C   UNL     1      -3.746   5.919   7.662  1.00  0.00     0.064 A 
ATOM     81  C   UNL     1      -3.207   5.123   8.681  1.00  0.00     0.173 A 
ATOM     82  C   UNL     1      -3.038   7.071   7.287  1.00  0.00     0.173 A 
ATOM     83  F   UNL     1      -3.856   4.021   9.084  1.00  0.00    -0.203 F 
ATOM     84  C   UNL     1      -2.006   5.465   9.298  1.00  0.00     0.198 A 
ATOM     85  C   UNL     1      -1.823   7.395   7.884  1.00  0.00     0.198 A 
ATOM     86  F   UNL     1      -3.509   7.862   6.311  1.00  0.00    -0.203 F 
ATOM     87  F   UNL     1      -1.523   4.699  10.286  1.00  0.00    -0.200 F 
ATOM     88  C   UNL     1      -1.309   6.593   8.892  1.00  0.00     0.200 A 
ATOM     89  F   UNL     1      -1.143   8.473   7.473  1.00  0.00    -0.200 F 
ATOM     90  F   UNL     1      -0.143   6.908   9.471  1.00  0.00    -0.200 F 
ENDBRANCH  56  80
BRANCH  68  91
ATOM     91  C   UNL     1     -10.451   5.509   9.556  1.00  0.00     0.064 A 
ATOM     92  C   UNL     1     -10.691   6.839   9.928  1.00  0.00     0.173 A 
ATOM     93  C   UNL     1     -10.971   4.491  10.369  1.00  0.00     0.173 A 
ATOM     94  F   UNL     1     -10.200   7.846   9.190  1.00  0.00    -0.203 F 
ATOM     95  C   UNL     1     -11.419   7.138  11.076  1.00  0.00     0.198 A 
ATOM     96  C   UNL     1     -11.722   4.794  11.501  1.00  0.00     0.198 A 
ATOM     97  F   UNL     1     -10.773   3.203  10.051  1.00  0.00    -0.203 F 
ATOM     98  F   UNL     1     -11.611   8.416  11.431  1.00  0.00    -0.200 F 
ATOM     99  C   UNL     1     -11.942   6.116  11.855  1.00  0.00     0.200 A 
ATOM    100  F   UNL     1     -12.239   3.806  12.244  1.00  0.00    -0.200 F 
ATOM    101  F   UNL     1     -12.658   6.407  12.950  1.00  0.00    -0.200 F 
ENDBRANCH  68  91
ENDBRANCH  42  43
ENDBRANCH  34  37
ENDBRANCH  32  33
ENDBRANCH  31  32
ENDBRANCH   1  31
TORSDOF 13
