REMARK SMILES O=C(NCCCCNC(=O)[C@H](c1ccccc1)C(c1ccccc1)c1ccccc1)c1ccc(-c2c3nc(c(-c4c(F)c(F)c(F)c(F)c4F)c4ccc([nH]4)c(-c4c(F)c(F)c(F)c(F)c4F)c4nc(c(-c5c(F)c(F)c(F)c(F)c5F)c5ccc2[nH]5)C=C4)C=C3)cc1
REMARK SMILES IDX 5 1 4 2 3 3 1 4 2 5 31 7 32 8 93 9 33 10 92 11 34 12 35 13
REMARK SMILES IDX 36 14 86 15 37 16 91 17 85 18 87 19 38 20 90 21 84 22 83 23
REMARK SMILES IDX 39 25 71 26 51 27 70 28 52 29 55 30 69 31 88 32 53 33 54 34
REMARK SMILES IDX 68 36 89 37 56 38 40 39 41 40 49 41 42 42 43 43 47 44 50 45
REMARK SMILES IDX 44 46 45 47 48 48 46 49 72 50 73 51 81 52 74 53 75 54 79 55
REMARK SMILES IDX 82 56 76 57 77 58 80 59 78 60 57 61 58 62 66 63 59 64 60 65
REMARK SMILES IDX 64 66 67 67 61 68 62 69 65 70 63 71 6 72 7 73 8 74 9 75
REMARK SMILES IDX 10 77 11 78 18 79 19 80 20 81 24 82 21 83 23 84 22 85 25 86
REMARK SMILES IDX 26 87 30 88 27 89 29 90 28 91 12 92 13 93 17 94 14 95 16 96
REMARK SMILES IDX 15 97
REMARK H PARENT 3 6 87 24 55 35 8 76
REMARK Flexibility Score: inf
ROOT
ATOM      1  C   UNL     1       6.984  -6.685  -0.834  1.00  0.00     0.023 C 
ENDROOT
BRANCH   1   2
ATOM      2  C   UNL     1       7.302  -8.169  -0.749  1.00  0.00     0.116 C 
BRANCH   2   3
ATOM      3  N   UNL     1       8.717  -8.450  -0.550  1.00  0.00    -0.352 N 
ATOM      4  O   UNL     1      10.510  -9.457   0.397  1.00  0.00    -0.269 OA
ATOM      5  C   UNL     1       9.296  -9.404   0.259  1.00  0.00     0.251 C 
ATOM      6  H   UNL     1       9.342  -7.886  -1.060  1.00  0.00     0.163 HD
BRANCH   5   7
ATOM      7  C   UNL     1       8.419 -10.336   1.000  1.00  0.00     0.039 A 
ATOM      8  C   UNL     1       7.354 -10.963   0.352  1.00  0.00     0.014 A 
ATOM      9  C   UNL     1       8.621 -10.521   2.370  1.00  0.00     0.014 A 
ATOM     10  C   UNL     1       6.388 -11.617   1.103  1.00  0.00     0.010 A 
ATOM     11  C   UNL     1       7.699 -11.268   3.109  1.00  0.00     0.010 A 
ATOM     12  C   UNL     1       6.548 -11.777   2.490  1.00  0.00    -0.014 A 
BRANCH  12  13
ATOM     13  C   UNL     1       5.498 -12.500   3.252  1.00  0.00     0.031 A 
ATOM     14  C   UNL     1       4.681 -11.804   4.307  1.00  0.00     0.074 A 
ATOM     15  C   UNL     1       5.241 -13.783   2.935  1.00  0.00     0.049 A 
ATOM     16  N   UNL     1       3.692 -12.275   5.026  1.00  0.00    -0.248 NA
ATOM     17  C   UNL     1       5.020 -10.404   4.603  1.00  0.00     0.031 C 
ATOM     18  C   UNL     1       5.974 -14.563   1.934  1.00  0.00     0.029 A 
ATOM     19  N   UNL     1       4.278 -14.646   3.388  1.00  0.00    -0.354 N 
ATOM     20  C   UNL     1       3.316 -11.246   5.880  1.00  0.00     0.074 A 
ATOM     21  C   UNL     1       4.191 -10.127   5.601  1.00  0.00     0.031 C 
ATOM     22  C   UNL     1       5.391 -15.761   1.798  1.00  0.00     0.029 A 
ATOM     23  C   UNL     1       4.287 -15.860   2.745  1.00  0.00     0.049 A 
ATOM     24  H   UNL     1       3.642 -14.419   4.104  1.00  0.00     0.167 HD
ATOM     25  C   UNL     1       2.328 -11.237   6.808  1.00  0.00     0.037 A 
ATOM     26  C   UNL     1       3.497 -16.937   2.904  1.00  0.00     0.037 A 
ATOM     27  C   UNL     1       1.433 -12.340   7.052  1.00  0.00     0.049 A 
ATOM     28  C   UNL     1       2.400 -16.891   3.927  1.00  0.00     0.074 A 
ATOM     29  C   UNL     1       0.373 -12.412   7.940  1.00  0.00     0.029 A 
ATOM     30  N   UNL     1       1.492 -13.564   6.401  1.00  0.00    -0.354 N 
ATOM     31  N   UNL     1       2.044 -15.904   4.712  1.00  0.00    -0.248 NA
ATOM     32  C   UNL     1       1.601 -18.111   4.090  1.00  0.00     0.031 C 
ATOM     33  C   UNL     1      -0.185 -13.692   7.853  1.00  0.00     0.029 A 
ATOM     34  C   UNL     1       0.498 -14.403   6.880  1.00  0.00     0.049 A 
ATOM     35  H   UNL     1       2.143 -13.801   5.702  1.00  0.00     0.167 HD
ATOM     36  C   UNL     1       0.972 -16.377   5.453  1.00  0.00     0.074 A 
ATOM     37  C   UNL     1       0.721 -17.732   5.006  1.00  0.00     0.031 C 
ATOM     38  C   UNL     1       0.262 -15.747   6.421  1.00  0.00     0.037 A 
BRANCH  25  39
ATOM     39  C   UNL     1       2.170 -10.004   7.649  1.00  0.00     0.064 A 
ATOM     40  C   UNL     1       1.637  -8.815   7.130  1.00  0.00     0.173 A 
ATOM     41  C   UNL     1       2.512 -10.030   9.011  1.00  0.00     0.173 A 
ATOM     42  F   UNL     1       1.305  -8.734   5.833  1.00  0.00    -0.203 F 
ATOM     43  C   UNL     1       1.472  -7.691   7.938  1.00  0.00     0.198 A 
ATOM     44  C   UNL     1       2.322  -8.913   9.821  1.00  0.00     0.198 A 
ATOM     45  F   UNL     1       3.020 -11.143   9.559  1.00  0.00    -0.203 F 
ATOM     46  F   UNL     1       0.996  -6.554   7.412  1.00  0.00    -0.200 F 
ATOM     47  C   UNL     1       1.807  -7.743   9.283  1.00  0.00     0.200 A 
ATOM     48  F   UNL     1       2.636  -8.969  11.123  1.00  0.00    -0.200 F 
ATOM     49  F   UNL     1       1.639  -6.664  10.060  1.00  0.00    -0.200 F 
ENDBRANCH  25  39
BRANCH  26  50
ATOM     50  C   UNL     1       3.714 -18.138   2.060  1.00  0.00     0.064 A 
ATOM     51  C   UNL     1       2.788 -18.501   1.073  1.00  0.00     0.173 A 
ATOM     52  C   UNL     1       4.862 -18.931   2.204  1.00  0.00     0.173 A 
ATOM     53  F   UNL     1       1.668 -17.782   0.910  1.00  0.00    -0.203 F 
ATOM     54  C   UNL     1       2.997 -19.618   0.269  1.00  0.00     0.198 A 
ATOM     55  C   UNL     1       5.084 -20.031   1.380  1.00  0.00     0.198 A 
ATOM     56  F   UNL     1       5.781 -18.620   3.130  1.00  0.00    -0.203 F 
ATOM     57  F   UNL     1       2.080 -19.964  -0.645  1.00  0.00    -0.200 F 
ATOM     58  C   UNL     1       4.149 -20.378   0.417  1.00  0.00     0.200 A 
ATOM     59  F   UNL     1       6.207 -20.750   1.514  1.00  0.00    -0.200 F 
ATOM     60  F   UNL     1       4.355 -21.445  -0.366  1.00  0.00    -0.200 F 
ENDBRANCH  26  50
BRANCH  38  61
ATOM     61  C   UNL     1      -0.869 -16.514   7.037  1.00  0.00     0.064 A 
ATOM     62  C   UNL     1      -0.639 -17.574   7.926  1.00  0.00     0.173 A 
ATOM     63  C   UNL     1      -2.199 -16.176   6.743  1.00  0.00     0.173 A 
ATOM     64  F   UNL     1       0.616 -17.945   8.223  1.00  0.00    -0.203 F 
ATOM     65  C   UNL     1      -1.699 -18.288   8.476  1.00  0.00     0.198 A 
ATOM     66  C   UNL     1      -3.257 -16.875   7.316  1.00  0.00     0.198 A 
ATOM     67  F   UNL     1      -2.470 -15.168   5.902  1.00  0.00    -0.203 F 
ATOM     68  F   UNL     1      -1.456 -19.331   9.282  1.00  0.00    -0.200 F 
ATOM     69  C   UNL     1      -3.007 -17.936   8.175  1.00  0.00     0.200 A 
ATOM     70  F   UNL     1      -4.519 -16.529   7.030  1.00  0.00    -0.200 F 
ATOM     71  F   UNL     1      -4.026 -18.626   8.703  1.00  0.00    -0.200 F 
ENDBRANCH  38  61
ENDBRANCH  12  13
ENDBRANCH   5   7
ENDBRANCH   2   3
ENDBRANCH   1   2
BRANCH   1  72
ATOM     72  C   UNL     1       7.626  -5.965  -2.017  1.00  0.00     0.023 C 
BRANCH  72  73
ATOM     73  C   UNL     1       7.102  -6.404  -3.386  1.00  0.00     0.116 C 
BRANCH  73  74
ATOM     74  N   UNL     1       5.762  -5.903  -3.612  1.00  0.00    -0.356 N 
ATOM     75  C   UNL     1       5.362  -4.730  -4.193  1.00  0.00     0.228 C 
ATOM     76  H   UNL     1       5.034  -6.490  -3.304  1.00  0.00     0.163 HD
ATOM     77  O   UNL     1       4.184  -4.399  -4.035  1.00  0.00    -0.274 OA
BRANCH  75  78
ATOM     78  C   UNL     1       6.362  -3.881  -5.002  1.00  0.00     0.120 C 
BRANCH  78  79
ATOM     79  C   UNL     1       5.598  -3.226  -6.209  1.00  0.00     0.066 C 
BRANCH  79  80
ATOM     80  C   UNL     1       6.459  -2.218  -6.975  1.00  0.00    -0.039 A 
ATOM     81  C   UNL     1       7.674  -2.582  -7.573  1.00  0.00     0.004 A 
ATOM     82  C   UNL     1       6.029  -0.884  -7.080  1.00  0.00     0.004 A 
ATOM     83  C   UNL     1       8.450  -1.627  -8.235  1.00  0.00     0.000 A 
ATOM     84  C   UNL     1       6.804   0.067  -7.743  1.00  0.00     0.000 A 
ATOM     85  C   UNL     1       8.017  -0.305  -8.316  1.00  0.00     0.000 A 
ENDBRANCH  79  80
BRANCH  79  86
ATOM     86  C   UNL     1       4.918  -4.204  -7.184  1.00  0.00    -0.039 A 
ATOM     87  C   UNL     1       3.822  -3.740  -7.938  1.00  0.00     0.004 A 
ATOM     88  C   UNL     1       5.318  -5.538  -7.359  1.00  0.00     0.004 A 
ATOM     89  C   UNL     1       3.138  -4.583  -8.815  1.00  0.00     0.000 A 
ATOM     90  C   UNL     1       4.623  -6.385  -8.230  1.00  0.00     0.000 A 
ATOM     91  C   UNL     1       3.533  -5.909  -8.954  1.00  0.00     0.000 A 
ENDBRANCH  79  86
ENDBRANCH  78  79
BRANCH  78  92
ATOM     92  C   UNL     1       7.062  -2.886  -4.068  1.00  0.00    -0.035 A 
ATOM     93  C   UNL     1       8.380  -3.128  -3.641  1.00  0.00     0.004 A 
ATOM     94  C   UNL     1       6.410  -1.744  -3.579  1.00  0.00     0.004 A 
ATOM     95  C   UNL     1       9.003  -2.290  -2.715  1.00  0.00     0.000 A 
ATOM     96  C   UNL     1       7.051  -0.880  -2.688  1.00  0.00     0.000 A 
ATOM     97  C   UNL     1       8.339  -1.162  -2.241  1.00  0.00     0.000 A 
ENDBRANCH  78  92
ENDBRANCH  75  78
ENDBRANCH  73  74
ENDBRANCH  72  73
ENDBRANCH   1  72
TORSDOF 15
