REMARK SMILES C[C@@H](Sc1ccccc1[N+](=O)[O-])[C@@H](C)C(=O)NCCCCNC(=O)c1ccc(-c2c3nc(c(-c4c(F)c(F)c(F)c(F)c4F)c4ccc([nH]4)c(-c4c(F)c(F)c(F)c(F)c4F)c4nc(c(-c5c(F)c(F)c(F)c(F)c5F)c5ccc2[nH]5)C=C4)C=C3)cc1
REMARK SMILES IDX 18 1 17 2 15 3 16 4 13 6 14 7 2 8 1 9 3 10 4 11 5 12 9 13
REMARK SMILES IDX 6 14 8 15 7 16 10 17 11 18 12 19 19 20 20 21 21 22 22 23
REMARK SMILES IDX 23 24 24 26 25 27 26 28 87 29 27 30 86 31 28 32 29 33 30 34
REMARK SMILES IDX 80 35 31 36 85 37 79 38 81 39 32 40 84 41 78 42 77 43 33 45
REMARK SMILES IDX 65 46 45 47 64 48 46 49 49 50 63 51 82 52 47 53 48 54 62 56
REMARK SMILES IDX 83 57 50 58 34 59 35 60 43 61 36 62 37 63 41 64 44 65 38 66
REMARK SMILES IDX 39 67 42 68 40 69 66 70 67 71 75 72 68 73 69 74 73 75 76 76
REMARK SMILES IDX 70 77 71 78 74 79 72 80 51 81 52 82 60 83 53 84 54 85 58 86
REMARK SMILES IDX 61 87 55 88 56 89 59 90 57 91
REMARK H PARENT 17 5 22 25 81 44 49 55
REMARK Flexibility Score: inf
ROOT
ATOM      1  C   UNL     1      -0.242   3.896   0.945  1.00  0.00     0.116 C 
ENDROOT
BRANCH   1   2
ATOM      2  N   UNL     1      -1.044   3.723  -0.250  1.00  0.00    -0.356 N 
ATOM      3  C   UNL     1      -1.383   2.615  -0.961  1.00  0.00     0.223 C 
ATOM      4  O   UNL     1      -2.160   2.769  -1.907  1.00  0.00    -0.275 OA
ATOM      5  H   UNL     1      -1.409   4.562  -0.614  1.00  0.00     0.163 HD
BRANCH   3   6
ATOM      6  C   UNL     1      -0.895   1.219  -0.583  1.00  0.00     0.088 C 
ATOM      7  C   UNL     1      -1.562   0.785   0.729  1.00  0.00     0.019 C 
BRANCH   6   8
ATOM      8  C   UNL     1       0.647   1.069  -0.649  1.00  0.00     0.061 C 
ATOM      9  C   UNL     1       1.136  -0.219   0.017  1.00  0.00     0.020 C 
BRANCH   8  10
ATOM     10  S   UNL     1       1.175   1.104  -2.430  1.00  0.00    -0.115 SA
BRANCH  10  11
ATOM     11  C   UNL     1       2.935   1.407  -2.302  1.00  0.00     0.085 A 
ATOM     12  C   UNL     1       3.739   0.257  -2.200  1.00  0.00     0.022 A 
ATOM     13  C   UNL     1       3.587   2.653  -2.329  1.00  0.00     0.282 A 
ATOM     14  C   UNL     1       5.127   0.342  -2.057  1.00  0.00     0.002 A 
ATOM     15  C   UNL     1       4.988   2.739  -2.180  1.00  0.00     0.087 A 
ATOM     16  C   UNL     1       5.751   1.583  -2.034  1.00  0.00     0.007 A 
BRANCH  13  17
ATOM     17  N   UNL     1       2.879   3.919  -2.525  1.00  0.00     0.063 N 
ATOM     18  O   UNL     1       3.341   4.914  -1.943  1.00  0.00    -0.258 OA
ATOM     19  O   UNL     1       1.896   3.947  -3.272  1.00  0.00    -0.258 OA
ENDBRANCH  13  17
ENDBRANCH  10  11
ENDBRANCH   8  10
ENDBRANCH   6   8
ENDBRANCH   3   6
ENDBRANCH   1   2
BRANCH   1  20
ATOM     20  C   UNL     1       1.047   4.661   0.666  1.00  0.00     0.023 C 
BRANCH  20  21
ATOM     21  C   UNL     1       0.855   6.106   0.207  1.00  0.00     0.023 C 
BRANCH  21  22
ATOM     22  C   UNL     1       0.056   6.981   1.165  1.00  0.00     0.116 C 
BRANCH  22  23
ATOM     23  N   UNL     1       0.634   7.028   2.502  1.00  0.00    -0.352 N 
ATOM     24  C   UNL     1       0.916   8.116   3.290  1.00  0.00     0.251 C 
ATOM     25  H   UNL     1       0.854   6.154   2.897  1.00  0.00     0.163 HD
ATOM     26  O   UNL     1       1.541   7.978   4.338  1.00  0.00    -0.269 OA
BRANCH  24  27
ATOM     27  C   UNL     1       0.494   9.461   2.853  1.00  0.00     0.039 A 
ATOM     28  C   UNL     1       1.426  10.501   2.873  1.00  0.00     0.014 A 
ATOM     29  C   UNL     1      -0.806   9.683   2.389  1.00  0.00     0.014 A 
ATOM     30  C   UNL     1       1.082  11.744   2.341  1.00  0.00     0.010 A 
ATOM     31  C   UNL     1      -1.126  10.901   1.799  1.00  0.00     0.010 A 
ATOM     32  C   UNL     1      -0.180  11.936   1.754  1.00  0.00    -0.014 A 
BRANCH  32  33
ATOM     33  C   UNL     1      -0.513  13.192   1.038  1.00  0.00     0.031 A 
ATOM     34  C   UNL     1      -1.609  14.085   1.542  1.00  0.00     0.074 A 
ATOM     35  C   UNL     1       0.116  13.476  -0.119  1.00  0.00     0.049 A 
ATOM     36  N   UNL     1      -2.109  15.166   1.000  1.00  0.00    -0.248 NA
ATOM     37  C   UNL     1      -2.244  13.697   2.810  1.00  0.00     0.031 C 
ATOM     38  C   UNL     1       1.163  12.659  -0.733  1.00  0.00     0.029 A 
ATOM     39  N   UNL     1      -0.048  14.519  -0.996  1.00  0.00    -0.354 N 
ATOM     40  C   UNL     1      -3.122  15.581   1.853  1.00  0.00     0.074 A 
ATOM     41  C   UNL     1      -3.199  14.610   2.924  1.00  0.00     0.031 C 
ATOM     42  C   UNL     1       1.559  13.238  -1.877  1.00  0.00     0.029 A 
ATOM     43  C   UNL     1       0.763  14.440  -2.101  1.00  0.00     0.049 A 
ATOM     44  H   UNL     1      -0.687  15.253  -0.847  1.00  0.00     0.167 HD
ATOM     45  C   UNL     1      -3.902  16.684   1.760  1.00  0.00     0.037 A 
ATOM     46  C   UNL     1       0.844  15.238  -3.183  1.00  0.00     0.037 A 
ATOM     47  C   UNL     1      -3.809  17.655   0.701  1.00  0.00     0.049 A 
ATOM     48  C   UNL     1      -0.060  16.436  -3.279  1.00  0.00     0.074 A 
ATOM     49  C   UNL     1      -4.499  18.846   0.559  1.00  0.00     0.029 A 
ATOM     50  N   UNL     1      -2.980  17.538  -0.406  1.00  0.00    -0.354 N 
ATOM     51  N   UNL     1      -0.959  16.864  -2.426  1.00  0.00    -0.248 NA
ATOM     52  C   UNL     1       0.057  17.258  -4.491  1.00  0.00     0.031 C 
ATOM     53  C   UNL     1      -4.128  19.423  -0.660  1.00  0.00     0.029 A 
ATOM     54  C   UNL     1      -3.171  18.617  -1.255  1.00  0.00     0.049 A 
ATOM     55  H   UNL     1      -2.350  16.799  -0.565  1.00  0.00     0.167 HD
ATOM     56  C   UNL     1      -1.505  18.009  -2.990  1.00  0.00     0.074 A 
ATOM     57  C   UNL     1      -0.819  18.223  -4.248  1.00  0.00     0.031 C 
ATOM     58  C   UNL     1      -2.489  18.808  -2.510  1.00  0.00     0.037 A 
BRANCH  45  59
ATOM     59  C   UNL     1      -4.927  16.902   2.835  1.00  0.00     0.064 A 
ATOM     60  C   UNL     1      -4.559  17.247   4.144  1.00  0.00     0.173 A 
ATOM     61  C   UNL     1      -6.296  16.801   2.544  1.00  0.00     0.173 A 
ATOM     62  F   UNL     1      -3.263  17.346   4.477  1.00  0.00    -0.203 F 
ATOM     63  C   UNL     1      -5.521  17.453   5.129  1.00  0.00     0.198 A 
ATOM     64  C   UNL     1      -7.256  17.038   3.524  1.00  0.00     0.198 A 
ATOM     65  F   UNL     1      -6.703  16.480   1.307  1.00  0.00    -0.203 F 
ATOM     66  F   UNL     1      -5.143  17.734   6.384  1.00  0.00    -0.200 F 
ATOM     67  C   UNL     1      -6.868  17.356   4.817  1.00  0.00     0.200 A 
ATOM     68  F   UNL     1      -8.559  16.956   3.218  1.00  0.00    -0.200 F 
ATOM     69  F   UNL     1      -7.794  17.561   5.764  1.00  0.00    -0.200 F 
ENDBRANCH  45  59
BRANCH  46  70
ATOM     70  C   UNL     1       1.820  14.929  -4.259  1.00  0.00     0.064 A 
ATOM     71  C   UNL     1       2.938  15.747  -4.469  1.00  0.00     0.173 A 
ATOM     72  C   UNL     1       1.661  13.814  -5.094  1.00  0.00     0.173 A 
ATOM     73  F   UNL     1       3.121  16.838  -3.711  1.00  0.00    -0.203 F 
ATOM     74  C   UNL     1       3.853  15.469  -5.482  1.00  0.00     0.198 A 
ATOM     75  C   UNL     1       2.591  13.521  -6.089  1.00  0.00     0.198 A 
ATOM     76  F   UNL     1       0.607  12.999  -4.933  1.00  0.00    -0.203 F 
ATOM     77  F   UNL     1       4.893  16.290  -5.687  1.00  0.00    -0.200 F 
ATOM     78  C   UNL     1       3.683  14.352  -6.287  1.00  0.00     0.200 A 
ATOM     79  F   UNL     1       2.429  12.434  -6.856  1.00  0.00    -0.200 F 
ATOM     80  F   UNL     1       4.567  14.081  -7.256  1.00  0.00    -0.200 F 
ENDBRANCH  46  70
BRANCH  58  81
ATOM     81  C   UNL     1      -2.882  19.989  -3.348  1.00  0.00     0.064 A 
ATOM     82  C   UNL     1      -3.614  19.831  -4.534  1.00  0.00     0.173 A 
ATOM     83  C   UNL     1      -2.566  21.293  -2.939  1.00  0.00     0.173 A 
ATOM     84  F   UNL     1      -3.925  18.603  -4.976  1.00  0.00    -0.203 F 
ATOM     85  C   UNL     1      -3.998  20.935  -5.290  1.00  0.00     0.198 A 
ATOM     86  C   UNL     1      -2.977  22.396  -3.682  1.00  0.00     0.198 A 
ATOM     87  F   UNL     1      -1.871  21.498  -1.810  1.00  0.00    -0.203 F 
ATOM     88  F   UNL     1      -4.661  20.758  -6.442  1.00  0.00    -0.200 F 
ATOM     89  C   UNL     1      -3.688  22.216  -4.859  1.00  0.00     0.200 A 
ATOM     90  F   UNL     1      -2.687  23.634  -3.258  1.00  0.00    -0.200 F 
ATOM     91  F   UNL     1      -4.068  23.278  -5.583  1.00  0.00    -0.200 F 
ENDBRANCH  58  81
ENDBRANCH  32  33
ENDBRANCH  24  27
ENDBRANCH  22  23
ENDBRANCH  21  22
ENDBRANCH  20  21
ENDBRANCH   1  20
TORSDOF 15
