REMARK SMILES Cc1cccc(-c2ccc(Cl)c(C(=O)NCCCCNC(=O)c3ccc(-c4c5nc(c(-c6c(F)c(F)c(F)c(F)c6F)c6ccc([nH]6)c(-c6c(F)c(F)c(F)c(F)c6F)c6nc(c(-c7c(F)c(F)c(F)c(F)c7F)c7ccc4[nH]7)C=C6)C=C5)cc3)c2)c1
REMARK SMILES IDX 18 1 17 2 16 3 15 4 13 5 14 6 12 8 7 9 8 10 86 11 9 12 10 13
REMARK SMILES IDX 11 14 6 15 1 16 2 17 3 18 87 19 4 20 5 21 19 22 20 23 21 24
REMARK SMILES IDX 22 26 23 27 24 28 85 29 25 30 84 31 26 32 27 33 28 34 78 35
REMARK SMILES IDX 29 36 83 37 77 38 79 39 30 40 82 41 76 42 75 43 31 45 63 46
REMARK SMILES IDX 43 47 62 48 44 49 47 50 61 51 80 52 45 53 46 54 60 56 81 57
REMARK SMILES IDX 48 58 32 59 33 60 41 61 34 62 35 63 39 64 42 65 36 66 37 67
REMARK SMILES IDX 40 68 38 69 64 70 65 71 73 72 66 73 67 74 71 75 74 76 68 77
REMARK SMILES IDX 69 78 72 79 70 80 49 81 50 82 58 83 51 84 52 85 56 86 59 87
REMARK SMILES IDX 53 88 54 89 57 90 55 91
REMARK H PARENT 15 7 20 25 79 44 47 55
REMARK Flexibility Score: inf
ROOT
ATOM      1  C   UNL     1      -7.924   6.571   1.032  1.00  0.00     0.023 C 
ENDROOT
BRANCH   1   2
ATOM      2  C   UNL     1      -6.873   6.153   0.010  1.00  0.00     0.023 C 
BRANCH   2   3
ATOM      3  C   UNL     1      -5.411   6.276   0.436  1.00  0.00     0.116 C 
BRANCH   3   4
ATOM      4  N   UNL     1      -5.048   5.533   1.634  1.00  0.00    -0.352 N 
ATOM      5  C   UNL     1      -3.966   4.722   1.899  1.00  0.00     0.252 C 
ATOM      6  O   UNL     1      -3.856   4.237   3.025  1.00  0.00    -0.269 OA
ATOM      7  H   UNL     1      -5.683   5.626   2.381  1.00  0.00     0.163 HD
BRANCH   5   8
ATOM      8  C   UNL     1      -2.982   4.337   0.856  1.00  0.00     0.059 A 
ATOM      9  C   UNL     1      -1.699   2.502  -0.156  1.00  0.00    -0.017 A 
ATOM     10  C   UNL     1      -1.243   3.409  -1.125  1.00  0.00     0.010 A 
ATOM     11  C   UNL     1      -2.623   2.970   0.794  1.00  0.00     0.024 A 
ATOM     12  C   UNL     1      -1.533   4.769  -1.028  1.00  0.00     0.022 A 
ATOM     13  C   UNL     1      -2.330   5.243   0.015  1.00  0.00     0.053 A 
ATOM     14  Cl  UNL     1      -2.315   6.954   0.277  1.00  0.00    -0.083 Cl
BRANCH   9  15
ATOM     15  C   UNL     1      -1.092   1.159  -0.080  1.00  0.00    -0.018 A 
ATOM     16  C   UNL     1       2.471  -0.244   0.033  1.00  0.00     0.044 C 
ATOM     17  C   UNL     1       0.973  -0.180   0.017  1.00  0.00    -0.051 A 
ATOM     18  C   UNL     1       0.206  -1.344   0.058  1.00  0.00     0.003 A 
ATOM     19  C   UNL     1       0.316   1.054  -0.049  1.00  0.00     0.012 A 
ATOM     20  C   UNL     1      -1.189  -1.267   0.043  1.00  0.00     0.001 A 
ATOM     21  C   UNL     1      -1.835  -0.025  -0.022  1.00  0.00     0.009 A 
ENDBRANCH   9  15
ENDBRANCH   5   8
ENDBRANCH   3   4
ENDBRANCH   2   3
ENDBRANCH   1   2
BRANCH   1  22
ATOM     22  C   UNL     1      -7.861   8.014   1.518  1.00  0.00     0.116 C 
BRANCH  22  23
ATOM     23  N   UNL     1      -8.435   9.007   0.619  1.00  0.00    -0.352 N 
ATOM     24  C   UNL     1      -8.568  10.381   0.778  1.00  0.00     0.251 C 
ATOM     25  H   UNL     1      -8.781   8.649  -0.230  1.00  0.00     0.163 HD
ATOM     26  O   UNL     1      -9.130  11.037  -0.083  1.00  0.00    -0.269 OA
BRANCH  24  27
ATOM     27  C   UNL     1      -7.907  11.077   1.919  1.00  0.00     0.039 A 
ATOM     28  C   UNL     1      -7.287  12.312   1.677  1.00  0.00     0.014 A 
ATOM     29  C   UNL     1      -7.734  10.458   3.150  1.00  0.00     0.014 A 
ATOM     30  C   UNL     1      -6.294  12.767   2.546  1.00  0.00     0.010 A 
ATOM     31  C   UNL     1      -6.671  10.834   3.943  1.00  0.00     0.010 A 
ATOM     32  C   UNL     1      -5.900  11.946   3.598  1.00  0.00    -0.014 A 
BRANCH  32  33
ATOM     33  C   UNL     1      -4.630  12.064   4.306  1.00  0.00     0.031 A 
ATOM     34  C   UNL     1      -4.587  12.431   5.735  1.00  0.00     0.074 A 
ATOM     35  C   UNL     1      -3.518  11.603   3.690  1.00  0.00     0.049 A 
ATOM     36  N   UNL     1      -3.515  12.735   6.386  1.00  0.00    -0.248 NA
ATOM     37  C   UNL     1      -5.791  12.518   6.549  1.00  0.00     0.031 C 
ATOM     38  C   UNL     1      -2.240  11.249   4.302  1.00  0.00     0.029 A 
ATOM     39  N   UNL     1      -3.266  11.545   2.307  1.00  0.00    -0.354 N 
ATOM     40  C   UNL     1      -3.826  12.772   7.728  1.00  0.00     0.074 A 
ATOM     41  C   UNL     1      -5.269  12.710   7.763  1.00  0.00     0.031 C 
ATOM     42  C   UNL     1      -1.281  11.324   3.367  1.00  0.00     0.029 A 
ATOM     43  C   UNL     1      -1.894  11.880   2.174  1.00  0.00     0.049 A 
ATOM     44  H   UNL     1      -3.902  11.322   1.590  1.00  0.00     0.167 HD
ATOM     45  C   UNL     1      -2.808  12.727   8.639  1.00  0.00     0.037 A 
ATOM     46  C   UNL     1      -1.532  13.059   1.587  1.00  0.00     0.037 A 
ATOM     47  C   UNL     1      -1.506  12.877   7.978  1.00  0.00     0.049 A 
ATOM     48  C   UNL     1      -0.809  14.030   2.499  1.00  0.00     0.074 A 
ATOM     49  C   UNL     1      -0.490  12.009   7.609  1.00  0.00     0.029 A 
ATOM     50  N   UNL     1      -1.234  14.072   7.333  1.00  0.00    -0.354 N 
ATOM     51  N   UNL     1      -0.594  13.833   3.770  1.00  0.00    -0.248 NA
ATOM     52  C   UNL     1      -0.359  15.352   2.058  1.00  0.00     0.031 C 
ATOM     53  C   UNL     1       0.362  12.690   6.688  1.00  0.00     0.029 A 
ATOM     54  C   UNL     1      -0.132  13.969   6.508  1.00  0.00     0.049 A 
ATOM     55  H   UNL     1      -1.763  14.894   7.449  1.00  0.00     0.167 HD
ATOM     56  C   UNL     1      -0.054  14.963   4.318  1.00  0.00     0.074 A 
ATOM     57  C   UNL     1       0.083  15.887   3.209  1.00  0.00     0.031 C 
ATOM     58  C   UNL     1       0.210  15.089   5.649  1.00  0.00     0.037 A 
BRANCH  45  59
ATOM     59  C   UNL     1      -2.954  12.329  10.100  1.00  0.00     0.064 A 
ATOM     60  C   UNL     1      -1.839  11.845  10.824  1.00  0.00     0.173 A 
ATOM     61  C   UNL     1      -4.156  12.323  10.834  1.00  0.00     0.173 A 
ATOM     62  F   UNL     1      -0.601  11.882  10.313  1.00  0.00    -0.203 F 
ATOM     63  C   UNL     1      -1.946  11.302  12.110  1.00  0.00     0.198 A 
ATOM     64  C   UNL     1      -4.274  11.740  12.101  1.00  0.00     0.198 A 
ATOM     65  F   UNL     1      -5.254  12.941  10.398  1.00  0.00    -0.203 F 
ATOM     66  F   UNL     1      -0.849  10.850  12.734  1.00  0.00    -0.200 F 
ATOM     67  C   UNL     1      -3.170  11.217  12.735  1.00  0.00     0.200 A 
ATOM     68  F   UNL     1      -5.472  11.703  12.703  1.00  0.00    -0.200 F 
ATOM     69  F   UNL     1      -3.282  10.666  13.951  1.00  0.00    -0.200 F 
ENDBRANCH  45  59
BRANCH  46  70
ATOM     70  C   UNL     1      -2.450  13.450   0.484  1.00  0.00     0.064 A 
ATOM     71  C   UNL     1      -2.549  12.601  -0.636  1.00  0.00     0.173 A 
ATOM     72  C   UNL     1      -3.469  14.387   0.678  1.00  0.00     0.173 A 
ATOM     73  F   UNL     1      -1.595  11.684  -0.869  1.00  0.00    -0.203 F 
ATOM     74  C   UNL     1      -3.679  12.607  -1.450  1.00  0.00     0.198 A 
ATOM     75  C   UNL     1      -4.591  14.403  -0.152  1.00  0.00     0.198 A 
ATOM     76  F   UNL     1      -3.445  15.208   1.739  1.00  0.00    -0.203 F 
ATOM     77  F   UNL     1      -3.796  11.708  -2.438  1.00  0.00    -0.200 F 
ATOM     78  C   UNL     1      -4.712  13.490  -1.189  1.00  0.00     0.200 A 
ATOM     79  F   UNL     1      -5.604  15.239   0.117  1.00  0.00    -0.200 F 
ATOM     80  F   UNL     1      -5.841  13.436  -1.910  1.00  0.00    -0.200 F 
ENDBRANCH  46  70
BRANCH  58  81
ATOM     81  C   UNL     1       0.831  16.318   6.231  1.00  0.00     0.064 A 
ATOM     82  C   UNL     1       2.014  16.863   5.710  1.00  0.00     0.173 A 
ATOM     83  C   UNL     1       0.322  16.914   7.402  1.00  0.00     0.173 A 
ATOM     84  F   UNL     1       2.584  16.337   4.616  1.00  0.00    -0.203 F 
ATOM     85  C   UNL     1       2.639  17.955   6.313  1.00  0.00     0.198 A 
ATOM     86  C   UNL     1       0.974  17.973   8.028  1.00  0.00     0.198 A 
ATOM     87  F   UNL     1      -0.829  16.495   7.949  1.00  0.00    -0.203 F 
ATOM     88  F   UNL     1       3.744  18.476   5.762  1.00  0.00    -0.200 F 
ATOM     89  C   UNL     1       2.128  18.499   7.479  1.00  0.00     0.200 A 
ATOM     90  F   UNL     1       0.476  18.482   9.164  1.00  0.00    -0.200 F 
ATOM     91  F   UNL     1       2.744  19.532   8.070  1.00  0.00    -0.200 F 
ENDBRANCH  58  81
ENDBRANCH  32  33
ENDBRANCH  24  27
ENDBRANCH  22  23
ENDBRANCH   1  22
TORSDOF 12
