REMARK SMILES [NH3+][C@@H](CNc1ccc(C(=O)NCCCCNC(=O)c2ccc(-c3c4nc(c(-c5c(F)c(F)c(F)c(F)c5F)c5ccc([nH]5)c(-c5c(F)c(F)c(F)c(F)c5F)c5nc(c(-c6c(F)c(F)c(F)c(F)c6F)c6ccc3[nH]6)C=C5)C=C4)cc2)c(F)c1F)c1ccccc1
REMARK SMILES IDX 12 1 11 2 9 3 10 4 8 6 5 7 6 8 84 9 7 10 82 11 85 12 83 13
REMARK SMILES IDX 4 14 3 16 2 17 1 18 86 22 87 23 91 24 88 25 90 26 89 27
REMARK SMILES IDX 13 28 14 29 15 30 16 31 17 32 18 34 19 35 20 36 81 37 21 38
REMARK SMILES IDX 80 39 22 40 23 41 24 42 74 43 25 44 79 45 73 46 75 47 26 48
REMARK SMILES IDX 78 49 72 50 71 51 27 53 59 54 39 55 58 56 40 57 43 58 57 59
REMARK SMILES IDX 76 60 41 61 42 62 56 64 77 65 44 66 28 67 29 68 37 69 30 70
REMARK SMILES IDX 31 71 35 72 38 73 32 74 33 75 36 76 34 77 60 78 61 79 69 80
REMARK SMILES IDX 62 81 63 82 67 83 70 84 64 85 65 86 68 87 66 88 45 89 46 90
REMARK SMILES IDX 54 91 47 92 48 93 52 94 55 95 49 96 50 97 53 98 51 99
REMARK H PARENT 11 5 4 15 1 19 1 20 1 21 16 33 75 52 43 63
REMARK Flexibility Score: inf
ROOT
ATOM      1  C   UNL     1      -4.540   6.291   0.556  1.00  0.00     0.116 C 
ENDROOT
BRANCH   1   2
ATOM      2  N   UNL     1      -3.868   7.175   1.494  1.00  0.00    -0.352 N 
ATOM      3  C   UNL     1      -2.559   7.212   1.910  1.00  0.00     0.254 C 
ATOM      4  O   UNL     1      -2.225   8.074   2.722  1.00  0.00    -0.269 OA
ATOM      5  H   UNL     1      -4.447   7.860   1.899  1.00  0.00     0.163 HD
BRANCH   3   6
ATOM      6  C   UNL     1      -1.560   6.202   1.500  1.00  0.00     0.078 A 
ATOM      7  C   UNL     1       0.249   4.098   0.940  1.00  0.00     0.074 A 
ATOM      8  C   UNL     1       0.208   4.687   2.208  1.00  0.00     0.030 A 
ATOM      9  C   UNL     1      -0.543   4.678  -0.066  1.00  0.00     0.182 A 
ATOM     10  C   UNL     1      -0.693   5.720   2.491  1.00  0.00     0.019 A 
ATOM     11  C   UNL     1      -1.422   5.727   0.202  1.00  0.00     0.173 A 
ATOM     12  F   UNL     1      -0.506   4.159  -1.305  1.00  0.00    -0.201 F 
ATOM     13  F   UNL     1      -2.143   6.240  -0.806  1.00  0.00    -0.203 F 
BRANCH   7  14
ATOM     14  N   UNL     1       0.953   2.929   0.683  1.00  0.00    -0.376 N 
ATOM     15  H   UNL     1       1.349   2.805  -0.210  1.00  0.00     0.160 HD
BRANCH  14  16
ATOM     16  C   UNL     1       1.132   1.870   1.684  1.00  0.00     0.183 C 
BRANCH  16  17
ATOM     17  C   UNL     1       0.482   0.508   1.261  1.00  0.00     0.231 C 
BRANCH  17  18
ATOM     18  N   UNL     1       0.898   0.114  -0.101  1.00  0.00    -0.350 N 
ATOM     19  H   UNL     1       1.910   0.206  -0.187  1.00  0.00     0.345 HD
ATOM     20  H   UNL     1       0.442   0.720  -0.784  1.00  0.00     0.345 HD
ATOM     21  H   UNL     1       0.628  -0.855  -0.272  1.00  0.00     0.345 HD
ENDBRANCH  17  18
BRANCH  17  22
ATOM     22  C   UNL     1      -1.034   0.372   1.394  1.00  0.00     0.011 A 
ATOM     23  C   UNL     1      -1.895   1.439   1.682  1.00  0.00     0.010 A 
ATOM     24  C   UNL     1      -1.617  -0.897   1.214  1.00  0.00     0.010 A 
ATOM     25  C   UNL     1      -3.281   1.261   1.753  1.00  0.00     0.001 A 
ATOM     26  C   UNL     1      -3.000  -1.081   1.297  1.00  0.00     0.001 A 
ATOM     27  C   UNL     1      -3.833   0.001   1.558  1.00  0.00     0.000 A 
ENDBRANCH  17  22
ENDBRANCH  16  17
ENDBRANCH  14  16
ENDBRANCH   7  14
ENDBRANCH   3   6
ENDBRANCH   1   2
BRANCH   1  28
ATOM     28  C   UNL     1      -5.950   5.893   0.986  1.00  0.00     0.023 C 
BRANCH  28  29
ATOM     29  C   UNL     1      -6.950   7.029   1.195  1.00  0.00     0.023 C 
BRANCH  29  30
ATOM     30  C   UNL     1      -7.086   8.035   0.056  1.00  0.00     0.116 C 
BRANCH  30  31
ATOM     31  N   UNL     1      -7.451   7.435  -1.217  1.00  0.00    -0.352 N 
ATOM     32  C   UNL     1      -8.472   7.737  -2.090  1.00  0.00     0.251 C 
ATOM     33  H   UNL     1      -6.874   6.690  -1.502  1.00  0.00     0.163 HD
ATOM     34  O   UNL     1      -8.649   7.044  -3.082  1.00  0.00    -0.269 OA
BRANCH  32  35
ATOM     35  C   UNL     1      -9.391   8.868  -1.816  1.00  0.00     0.039 A 
ATOM     36  C   UNL     1     -10.762   8.674  -2.015  1.00  0.00     0.014 A 
ATOM     37  C   UNL     1      -8.923  10.105  -1.369  1.00  0.00     0.014 A 
ATOM     38  C   UNL     1     -11.665   9.685  -1.677  1.00  0.00     0.010 A 
ATOM     39  C   UNL     1      -9.827  11.083  -0.957  1.00  0.00     0.010 A 
ATOM     40  C   UNL     1     -11.208  10.878  -1.095  1.00  0.00    -0.014 A 
BRANCH  40  41
ATOM     41  C   UNL     1     -12.162  11.901  -0.595  1.00  0.00     0.031 A 
ATOM     42  C   UNL     1     -12.211  13.270  -1.209  1.00  0.00     0.074 A 
ATOM     43  C   UNL     1     -12.952  11.610   0.456  1.00  0.00     0.049 A 
ATOM     44  N   UNL     1     -12.955  14.297  -0.882  1.00  0.00    -0.248 NA
ATOM     45  C   UNL     1     -11.285  13.528  -2.322  1.00  0.00     0.031 C 
ATOM     46  C   UNL     1     -12.968  10.332   1.169  1.00  0.00     0.029 A 
ATOM     47  N   UNL     1     -13.896  12.365   1.107  1.00  0.00    -0.354 N 
ATOM     48  C   UNL     1     -12.587  15.319  -1.746  1.00  0.00     0.074 A 
ATOM     49  C   UNL     1     -11.509  14.811  -2.567  1.00  0.00     0.031 C 
ATOM     50  C   UNL     1     -13.907  10.374   2.126  1.00  0.00     0.029 A 
ATOM     51  C   UNL     1     -14.534  11.693   2.121  1.00  0.00     0.049 A 
ATOM     52  H   UNL     1     -14.097  13.299   0.870  1.00  0.00     0.167 HD
ATOM     53  C   UNL     1     -13.119  16.559  -1.864  1.00  0.00     0.037 A 
ATOM     54  C   UNL     1     -15.519  12.090   2.950  1.00  0.00     0.037 A 
ATOM     55  C   UNL     1     -14.198  17.060  -1.052  1.00  0.00     0.049 A 
ATOM     56  C   UNL     1     -16.078  13.478   2.821  1.00  0.00     0.074 A 
ATOM     57  C   UNL     1     -14.828  18.290  -1.118  1.00  0.00     0.029 A 
ATOM     58  N   UNL     1     -14.805  16.354  -0.023  1.00  0.00    -0.354 N 
ATOM     59  N   UNL     1     -15.753  14.422   1.971  1.00  0.00    -0.248 NA
ATOM     60  C   UNL     1     -17.139  13.858   3.764  1.00  0.00     0.031 C 
ATOM     61  C   UNL     1     -15.787  18.345  -0.102  1.00  0.00     0.029 A 
ATOM     62  C   UNL     1     -15.790  17.131   0.566  1.00  0.00     0.049 A 
ATOM     63  H   UNL     1     -14.570  15.437   0.249  1.00  0.00     0.167 HD
ATOM     64  C   UNL     1     -16.580  15.498   2.260  1.00  0.00     0.074 A 
ATOM     65  C   UNL     1     -17.429  15.089   3.361  1.00  0.00     0.031 C 
ATOM     66  C   UNL     1     -16.630  16.712   1.661  1.00  0.00     0.037 A 
BRANCH  53  67
ATOM     67  C   UNL     1     -12.547  17.456  -2.924  1.00  0.00     0.064 A 
ATOM     68  C   UNL     1     -11.818  18.603  -2.578  1.00  0.00     0.173 A 
ATOM     69  C   UNL     1     -12.746  17.193  -4.288  1.00  0.00     0.173 A 
ATOM     70  F   UNL     1     -11.605  18.907  -1.288  1.00  0.00    -0.203 F 
ATOM     71  C   UNL     1     -11.306  19.450  -3.558  1.00  0.00     0.198 A 
ATOM     72  C   UNL     1     -12.206  18.024  -5.266  1.00  0.00     0.198 A 
ATOM     73  F   UNL     1     -13.428  16.103  -4.673  1.00  0.00    -0.203 F 
ATOM     74  F   UNL     1     -10.629  20.551  -3.203  1.00  0.00    -0.200 F 
ATOM     75  C   UNL     1     -11.492  19.155  -4.900  1.00  0.00     0.200 A 
ATOM     76  F   UNL     1     -12.362  17.721  -6.562  1.00  0.00    -0.200 F 
ATOM     77  F   UNL     1     -10.976  19.957  -5.842  1.00  0.00    -0.200 F 
ENDBRANCH  53  67
BRANCH  54  78
ATOM     78  C   UNL     1     -16.077  11.119   3.924  1.00  0.00     0.064 A 
ATOM     79  C   UNL     1     -15.346  10.698   5.044  1.00  0.00     0.173 A 
ATOM     80  C   UNL     1     -17.331  10.534   3.702  1.00  0.00     0.173 A 
ATOM     81  F   UNL     1     -14.138  11.224   5.294  1.00  0.00    -0.203 F 
ATOM     82  C   UNL     1     -15.838   9.706   5.890  1.00  0.00     0.198 A 
ATOM     83  C   UNL     1     -17.830   9.557   4.560  1.00  0.00     0.198 A 
ATOM     84  F   UNL     1     -18.072  10.918   2.653  1.00  0.00    -0.203 F 
ATOM     85  F   UNL     1     -15.102   9.289   6.930  1.00  0.00    -0.200 F 
ATOM     86  C   UNL     1     -17.078   9.135   5.647  1.00  0.00     0.200 A 
ATOM     87  F   UNL     1     -19.036   9.019   4.331  1.00  0.00    -0.200 F 
ATOM     88  F   UNL     1     -17.548   8.177   6.457  1.00  0.00    -0.200 F 
ENDBRANCH  54  78
BRANCH  66  89
ATOM     89  C   UNL     1     -17.646  17.696   2.162  1.00  0.00     0.064 A 
ATOM     90  C   UNL     1     -18.758  18.030   1.375  1.00  0.00     0.173 A 
ATOM     91  C   UNL     1     -17.471  18.375   3.376  1.00  0.00     0.173 A 
ATOM     92  F   UNL     1     -18.966  17.413   0.202  1.00  0.00    -0.203 F 
ATOM     93  C   UNL     1     -19.647  19.023   1.775  1.00  0.00     0.198 A 
ATOM     94  C   UNL     1     -18.376  19.351   3.786  1.00  0.00     0.198 A 
ATOM     95  F   UNL     1     -16.430  18.081   4.170  1.00  0.00    -0.203 F 
ATOM     96  F   UNL     1     -20.682  19.352   0.990  1.00  0.00    -0.200 F 
ATOM     97  C   UNL     1     -19.456  19.682   2.981  1.00  0.00     0.200 A 
ATOM     98  F   UNL     1     -18.202  19.972   4.960  1.00  0.00    -0.200 F 
ATOM     99  F   UNL     1     -20.313  20.637   3.367  1.00  0.00    -0.200 F 
ENDBRANCH  66  89
ENDBRANCH  40  41
ENDBRANCH  32  35
ENDBRANCH  30  31
ENDBRANCH  29  30
ENDBRANCH  28  29
ENDBRANCH   1  28
TORSDOF 16
