REMARK SMILES CCCCCCNC(=O)Oc1cccc(-c2ccc([C@@H](C)C(=O)NCCCCNC(=O)c3ccc(-c4c5nc(c(-c6c(F)c(F)c(F)c(F)c6F)c6ccc([nH]6)c(-c6c(F)c(F)c(F)c(F)c6F)c6nc(c(-c7c(F)c(F)c(F)c(F)c7F)c7ccc4[nH]7)C=C6)C=C5)cc3)cc2C(F)(F)F)c1
REMARK SMILES IDX 20 1 21 2 19 3 16 4 17 5 96 6 18 7 95 8 15 9 11 10 12 11
REMARK SMILES IDX 101 12 13 13 14 14 10 15 8 16 7 17 9 19 6 20 5 21 4 22 3 23
REMARK SMILES IDX 2 24 1 25 97 26 98 27 99 28 100 29 22 30 23 31 24 32 25 34
REMARK SMILES IDX 26 35 27 36 28 37 29 38 30 39 31 41 32 42 33 43 94 44 34 45
REMARK SMILES IDX 93 46 35 47 36 48 37 49 87 50 38 51 92 52 86 53 88 54 39 55
REMARK SMILES IDX 91 56 85 57 84 58 40 60 72 61 52 62 71 63 53 64 56 65 70 66
REMARK SMILES IDX 89 67 54 68 55 69 69 71 90 72 57 73 41 74 42 75 50 76 43 77
REMARK SMILES IDX 44 78 48 79 51 80 45 81 46 82 49 83 47 84 73 85 74 86 82 87
REMARK SMILES IDX 75 88 76 89 80 90 83 91 77 92 78 93 81 94 79 95 58 96 59 97
REMARK SMILES IDX 67 98 60 99 61 100 65 101 68 102 62 103 63 104 66 105 64 106
REMARK H PARENT 7 18 24 33 29 40 88 59 56 70
REMARK Flexibility Score: inf
ROOT
ATOM      1  C   UNL     1      -4.829 -13.216  -2.068  1.00  0.00     0.105 C 
ATOM      2  C   UNL     1      -6.052 -14.122  -2.202  1.00  0.00     0.023 C 
ENDROOT
BRANCH   1   3
ATOM      3  C   UNL     1      -5.042 -11.768  -2.485  1.00  0.00    -0.035 A 
ATOM      4  C   UNL     1      -5.216  -9.018  -3.282  1.00  0.00    -0.006 A 
ATOM      5  C   UNL     1      -5.660 -10.072  -4.104  1.00  0.00     0.009 A 
ATOM      6  C   UNL     1      -4.775  -9.360  -1.986  1.00  0.00     0.064 A 
ATOM      7  C   UNL     1      -5.633 -11.406  -3.690  1.00  0.00     0.005 A 
ATOM      8  C   UNL     1      -4.634 -10.729  -1.637  1.00  0.00     0.018 A 
BRANCH   4   9
ATOM      9  C   UNL     1      -5.252  -7.642  -3.831  1.00  0.00    -0.014 A 
ATOM     10  C   UNL     1      -4.247  -5.462  -4.209  1.00  0.00     0.133 A 
ATOM     11  C   UNL     1      -5.378  -5.018  -4.888  1.00  0.00     0.047 A 
ATOM     12  C   UNL     1      -4.163  -6.763  -3.707  1.00  0.00     0.056 A 
ATOM     13  C   UNL     1      -6.446  -5.888  -5.065  1.00  0.00     0.004 A 
ATOM     14  C   UNL     1      -6.388  -7.178  -4.527  1.00  0.00     0.009 A 
BRANCH  10  15
ATOM     15  O   UNL     1      -3.287  -4.483  -3.895  1.00  0.00    -0.410 OA
BRANCH  15  16
ATOM     16  C   UNL     1      -1.936  -4.755  -4.036  1.00  0.00     0.412 C 
ATOM     17  N   UNL     1      -1.143  -3.798  -3.463  1.00  0.00    -0.321 N 
ATOM     18  H   UNL     1      -0.171  -3.903  -3.577  1.00  0.00     0.167 HD
ATOM     19  O   UNL     1      -1.456  -5.723  -4.610  1.00  0.00    -0.224 OA
BRANCH  17  20
ATOM     20  C   UNL     1      -1.589  -2.644  -2.706  1.00  0.00     0.119 C 
BRANCH  20  21
ATOM     21  C   UNL     1      -1.008  -2.626  -1.291  1.00  0.00     0.021 C 
BRANCH  21  22
ATOM     22  C   UNL     1       0.519  -2.509  -1.222  1.00  0.00     0.002 C 
BRANCH  22  23
ATOM     23  C   UNL     1       1.119  -1.280  -1.913  1.00  0.00    -0.000 C 
BRANCH  23  24
ATOM     24  C   UNL     1       0.629   0.072  -1.389  1.00  0.00    -0.003 C 
ATOM     25  C   UNL     1       0.995   0.322   0.066  1.00  0.00     0.004 C 
ENDBRANCH  23  24
ENDBRANCH  22  23
ENDBRANCH  21  22
ENDBRANCH  20  21
ENDBRANCH  17  20
ENDBRANCH  15  16
ENDBRANCH  10  15
ENDBRANCH   4   9
BRANCH   6  26
ATOM     26  C   UNL     1      -4.464  -8.361  -0.890  1.00  0.00     0.417 C 
ATOM     27  F   UNL     1      -5.024  -8.732   0.301  1.00  0.00    -0.166 F 
ATOM     28  F   UNL     1      -3.128  -8.258  -0.645  1.00  0.00    -0.166 F 
ATOM     29  F   UNL     1      -4.909  -7.093  -1.095  1.00  0.00    -0.166 F 
ENDBRANCH   6  26
ENDBRANCH   1   3
BRANCH   1  30
ATOM     30  C   UNL     1      -3.522 -13.837  -2.592  1.00  0.00     0.227 C 
ATOM     31  O   UNL     1      -2.572 -14.009  -1.819  1.00  0.00    -0.274 OA
ATOM     32  N   UNL     1      -3.329 -14.243  -3.876  1.00  0.00    -0.356 N 
ATOM     33  H   UNL     1      -2.473 -14.705  -4.028  1.00  0.00     0.163 HD
BRANCH  32  34
ATOM     34  C   UNL     1      -4.152 -14.120  -5.059  1.00  0.00     0.116 C 
BRANCH  34  35
ATOM     35  C   UNL     1      -3.786 -12.883  -5.882  1.00  0.00     0.023 C 
BRANCH  35  36
ATOM     36  C   UNL     1      -2.685 -13.098  -6.916  1.00  0.00     0.023 C 
BRANCH  36  37
ATOM     37  C   UNL     1      -3.009 -14.115  -8.002  1.00  0.00     0.116 C 
BRANCH  37  38
ATOM     38  N   UNL     1      -4.221 -13.823  -8.754  1.00  0.00    -0.352 N 
ATOM     39  C   UNL     1      -4.484 -14.093 -10.077  1.00  0.00     0.251 C 
ATOM     40  H   UNL     1      -4.942 -13.376  -8.253  1.00  0.00     0.163 HD
ATOM     41  O   UNL     1      -5.530 -13.727 -10.600  1.00  0.00    -0.269 OA
BRANCH  39  42
ATOM     42  C   UNL     1      -3.454 -14.788 -10.875  1.00  0.00     0.039 A 
ATOM     43  C   UNL     1      -3.017 -14.207 -12.067  1.00  0.00     0.014 A 
ATOM     44  C   UNL     1      -2.860 -15.957 -10.394  1.00  0.00     0.014 A 
ATOM     45  C   UNL     1      -1.918 -14.751 -12.732  1.00  0.00     0.010 A 
ATOM     46  C   UNL     1      -1.717 -16.448 -11.012  1.00  0.00     0.010 A 
ATOM     47  C   UNL     1      -1.229 -15.844 -12.182  1.00  0.00    -0.014 A 
BRANCH  47  48
ATOM     48  C   UNL     1       0.016 -16.364 -12.800  1.00  0.00     0.031 A 
ATOM     49  C   UNL     1       0.062 -17.769 -13.328  1.00  0.00     0.074 A 
ATOM     50  C   UNL     1       1.127 -15.601 -12.802  1.00  0.00     0.049 A 
ATOM     51  N   UNL     1       1.075 -18.436 -13.819  1.00  0.00    -0.248 NA
ATOM     52  C   UNL     1      -1.190 -18.539 -13.265  1.00  0.00     0.031 C 
ATOM     53  C   UNL     1       1.224 -14.245 -12.259  1.00  0.00     0.029 A 
ATOM     54  N   UNL     1       2.393 -15.865 -13.263  1.00  0.00    -0.354 N 
ATOM     55  C   UNL     1       0.588 -19.705 -14.101  1.00  0.00     0.074 A 
ATOM     56  C   UNL     1      -0.795 -19.733 -13.680  1.00  0.00     0.031 C 
ATOM     57  C   UNL     1       2.475 -13.788 -12.436  1.00  0.00     0.029 A 
ATOM     58  C   UNL     1       3.276 -14.830 -13.071  1.00  0.00     0.049 A 
ATOM     59  H   UNL     1       2.644 -16.715 -13.691  1.00  0.00     0.167 HD
ATOM     60  C   UNL     1       1.231 -20.744 -14.684  1.00  0.00     0.037 A 
ATOM     61  C   UNL     1       4.586 -14.737 -13.368  1.00  0.00     0.037 A 
ATOM     62  C   UNL     1       2.596 -20.699 -15.135  1.00  0.00     0.049 A 
ATOM     63  C   UNL     1       5.272 -15.901 -14.029  1.00  0.00     0.074 A 
ATOM     64  C   UNL     1       3.314 -21.669 -15.812  1.00  0.00     0.029 A 
ATOM     65  N   UNL     1       3.451 -19.621 -14.954  1.00  0.00    -0.354 N 
ATOM     66  N   UNL     1       4.780 -17.068 -14.368  1.00  0.00    -0.248 NA
ATOM     67  C   UNL     1       6.696 -15.734 -14.355  1.00  0.00     0.031 C 
ATOM     68  C   UNL     1       4.616 -21.196 -16.002  1.00  0.00     0.029 A 
ATOM     69  C   UNL     1       4.697 -19.913 -15.486  1.00  0.00     0.049 A 
ATOM     70  H   UNL     1       3.208 -18.775 -14.514  1.00  0.00     0.167 HD
ATOM     71  C   UNL     1       5.821 -17.763 -14.967  1.00  0.00     0.074 A 
ATOM     72  C   UNL     1       6.970 -16.881 -14.960  1.00  0.00     0.031 C 
ATOM     73  C   UNL     1       5.827 -19.020 -15.474  1.00  0.00     0.037 A 
BRANCH  60  74
ATOM     74  C   UNL     1       0.461 -22.018 -14.873  1.00  0.00     0.064 A 
ATOM     75  C   UNL     1      -0.584 -22.114 -15.805  1.00  0.00     0.173 A 
ATOM     76  C   UNL     1       0.793 -23.167 -14.140  1.00  0.00     0.173 A 
ATOM     77  F   UNL     1      -0.949 -21.041 -16.523  1.00  0.00    -0.203 F 
ATOM     78  C   UNL     1      -1.286 -23.304 -15.975  1.00  0.00     0.198 A 
ATOM     79  C   UNL     1       0.109 -24.364 -14.334  1.00  0.00     0.198 A 
ATOM     80  F   UNL     1       1.787 -23.131 -13.239  1.00  0.00    -0.203 F 
ATOM     81  F   UNL     1      -2.313 -23.357 -16.834  1.00  0.00    -0.200 F 
ATOM     82  C   UNL     1      -0.935 -24.429 -15.245  1.00  0.00     0.200 A 
ATOM     83  F   UNL     1       0.457 -25.454 -13.636  1.00  0.00    -0.200 F 
ATOM     84  F   UNL     1      -1.607 -25.576 -15.414  1.00  0.00    -0.200 F 
ENDBRANCH  60  74
BRANCH  61  85
ATOM     85  C   UNL     1       5.330 -13.486 -13.065  1.00  0.00     0.064 A 
ATOM     86  C   UNL     1       5.769 -12.644 -14.095  1.00  0.00     0.173 A 
ATOM     87  C   UNL     1       5.623 -13.111 -11.746  1.00  0.00     0.173 A 
ATOM     88  F   UNL     1       5.532 -12.972 -15.374  1.00  0.00    -0.203 F 
ATOM     89  C   UNL     1       6.491 -11.484 -13.820  1.00  0.00     0.198 A 
ATOM     90  C   UNL     1       6.321 -11.937 -11.470  1.00  0.00     0.198 A 
ATOM     91  F   UNL     1       5.221 -13.880 -10.723  1.00  0.00    -0.203 F 
ATOM     92  F   UNL     1       6.938 -10.721 -14.827  1.00  0.00    -0.200 F 
ATOM     93  C   UNL     1       6.761 -11.129 -12.507  1.00  0.00     0.200 A 
ATOM     94  F   UNL     1       6.569 -11.590 -10.200  1.00  0.00    -0.200 F 
ATOM     95  F   UNL     1       7.453 -10.012 -12.243  1.00  0.00    -0.200 F 
ENDBRANCH  61  85
BRANCH  73  96
ATOM     96  C   UNL     1       7.106 -19.507 -16.089  1.00  0.00     0.064 A 
ATOM     97  C   UNL     1       8.216 -19.845 -15.302  1.00  0.00     0.173 A 
ATOM     98  C   UNL     1       7.205 -19.680 -17.478  1.00  0.00     0.173 A 
ATOM     99  F   UNL     1       8.175 -19.682 -13.971  1.00  0.00    -0.203 F 
ATOM    100  C   UNL     1       9.387 -20.320 -15.886  1.00  0.00     0.198 A 
ATOM    101  C   UNL     1       8.367 -20.182 -18.055  1.00  0.00     0.198 A 
ATOM    102  F   UNL     1       6.168 -19.377 -18.273  1.00  0.00    -0.203 F 
ATOM    103  F   UNL     1      10.451 -20.596 -15.120  1.00  0.00    -0.200 F 
ATOM    104  C   UNL     1       9.459 -20.495 -17.260  1.00  0.00     0.200 A 
ATOM    105  F   UNL     1       8.430 -20.364 -19.382  1.00  0.00    -0.200 F 
ATOM    106  F   UNL     1      10.585 -20.961 -17.819  1.00  0.00    -0.200 F 
ENDBRANCH  73  96
ENDBRANCH  47  48
ENDBRANCH  39  42
ENDBRANCH  37  38
ENDBRANCH  36  37
ENDBRANCH  35  36
ENDBRANCH  34  35
ENDBRANCH  32  34
ENDBRANCH   1  30
TORSDOF 21
