REMARK SMILES CC(C)COc1cccc(C(=O)Nc2ccc(O)c(C(=O)NCCCCNC(=O)c3ccc(-c4c5nc(c(-c6c(F)c(F)c(F)c(F)c6F)c6ccc([nH]6)c(-c6c(F)c(F)c(F)c(F)c6F)c6nc(c(-c7c(F)c(F)c(F)c(F)c7F)c7ccc4[nH]7)C=C6)C=C5)cc3)c2)c1
REMARK SMILES IDX 23 1 22 2 20 3 21 4 19 6 14 7 15 8 93 9 16 10 17 11 13 12
REMARK SMILES IDX 11 13 12 14 10 16 6 17 7 18 94 19 8 20 9 21 5 22 4 23 2 24
REMARK SMILES IDX 1 25 3 26 18 27 24 29 25 30 26 31 27 32 28 33 29 35 30 36
REMARK SMILES IDX 31 37 92 38 32 39 91 40 33 41 34 42 35 43 85 44 36 45 90 46
REMARK SMILES IDX 84 47 86 48 37 49 89 50 83 51 82 52 38 54 70 55 50 56 69 57
REMARK SMILES IDX 51 58 54 59 68 60 87 61 52 62 53 63 67 65 88 66 55 67 39 68
REMARK SMILES IDX 40 69 48 70 41 71 42 72 46 73 49 74 43 75 44 76 47 77 45 78
REMARK SMILES IDX 71 79 72 80 80 81 73 82 74 83 78 84 81 85 75 86 76 87 79 88
REMARK SMILES IDX 77 89 56 90 57 91 65 92 58 93 59 94 63 95 66 96 60 97 61 98
REMARK SMILES IDX 64 99 62 100
REMARK H PARENT 22 5 13 15 18 28 27 34 86 53 54 64
REMARK Flexibility Score: inf
ROOT
ATOM      1  C   UNL     1       0.337   2.978  -2.541  1.00  0.00     0.116 C 
ENDROOT
BRANCH   1   2
ATOM      2  N   UNL     1       0.564   1.799  -3.341  1.00  0.00    -0.352 N 
ATOM      3  C   UNL     1       1.421   0.739  -3.212  1.00  0.00     0.255 C 
ATOM      4  O   UNL     1       1.397  -0.088  -4.130  1.00  0.00    -0.269 OA
ATOM      5  H   UNL     1      -0.011   1.747  -4.138  1.00  0.00     0.163 HD
BRANCH   3   6
ATOM      6  C   UNL     1       2.332   0.476  -2.048  1.00  0.00     0.083 A 
ATOM      7  C   UNL     1       3.146   0.905   0.223  1.00  0.00     0.042 A 
ATOM      8  C   UNL     1       3.905  -0.262   0.187  1.00  0.00     0.030 A 
ATOM      9  C   UNL     1       2.462   1.309  -0.929  1.00  0.00     0.043 A 
ATOM     10  C   UNL     1       3.850  -1.086  -0.937  1.00  0.00     0.049 A 
ATOM     11  C   UNL     1       3.043  -0.739  -2.022  1.00  0.00     0.128 A 
BRANCH   7  12
ATOM     12  N   UNL     1       3.074   1.617   1.437  1.00  0.00    -0.322 N 
ATOM     13  C   UNL     1       2.114   2.477   1.949  1.00  0.00     0.255 C 
ATOM     14  O   UNL     1       2.408   3.196   2.904  1.00  0.00    -0.269 OA
ATOM     15  H   UNL     1       3.847   1.479   2.030  1.00  0.00     0.170 HD
BRANCH  13  16
ATOM     16  C   UNL     1       0.706   2.510   1.451  1.00  0.00     0.043 A 
ATOM     17  C   UNL     1      -1.195   1.428   0.386  1.00  0.00     0.120 A 
ATOM     18  C   UNL     1      -1.864   2.655   0.367  1.00  0.00     0.046 A 
ATOM     19  C   UNL     1       0.053   1.355   0.997  1.00  0.00     0.060 A 
ATOM     20  C   UNL     1      -1.278   3.794   0.928  1.00  0.00     0.005 A 
ATOM     21  C   UNL     1       0.015   3.727   1.452  1.00  0.00     0.014 A 
BRANCH  17  22
ATOM     22  O   UNL     1      -1.741   0.436  -0.381  1.00  0.00    -0.493 OA
BRANCH  22  23
ATOM     23  C   UNL     1      -1.632  -0.932   0.043  1.00  0.00     0.232 C 
BRANCH  23  24
ATOM     24  C   UNL     1      -0.396  -1.677  -0.519  1.00  0.00     0.020 C 
ATOM     25  C   UNL     1       0.595  -2.067   0.587  1.00  0.00     0.011 C 
ATOM     26  C   UNL     1      -0.790  -2.969  -1.244  1.00  0.00     0.011 C 
ENDBRANCH  23  24
ENDBRANCH  22  23
ENDBRANCH  17  22
ENDBRANCH  13  16
ENDBRANCH   7  12
BRANCH  11  27
ATOM     27  O   UNL     1       2.978  -1.680  -3.019  1.00  0.00    -0.507 OA
ATOM     28  H   UNL     1       3.474  -2.472  -2.948  1.00  0.00     0.293 HD
ENDBRANCH  11  27
ENDBRANCH   3   6
ENDBRANCH   1   2
BRANCH   1  29
ATOM     29  C   UNL     1       1.430   4.018  -2.774  1.00  0.00     0.023 C 
BRANCH  29  30
ATOM     30  C   UNL     1       1.069   5.003  -3.880  1.00  0.00     0.023 C 
BRANCH  30  31
ATOM     31  C   UNL     1      -0.101   5.911  -3.528  1.00  0.00     0.116 C 
BRANCH  31  32
ATOM     32  N   UNL     1       0.144   6.738  -2.353  1.00  0.00    -0.352 N 
ATOM     33  C   UNL     1      -0.271   8.029  -2.141  1.00  0.00     0.251 C 
ATOM     34  H   UNL     1       0.666   6.323  -1.629  1.00  0.00     0.163 HD
ATOM     35  O   UNL     1       0.076   8.661  -1.149  1.00  0.00    -0.269 OA
BRANCH  33  36
ATOM     36  C   UNL     1      -1.120   8.652  -3.169  1.00  0.00     0.039 A 
ATOM     37  C   UNL     1      -0.668   9.803  -3.813  1.00  0.00     0.014 A 
ATOM     38  C   UNL     1      -2.290   8.005  -3.578  1.00  0.00     0.014 A 
ATOM     39  C   UNL     1      -1.359  10.272  -4.929  1.00  0.00     0.010 A 
ATOM     40  C   UNL     1      -2.930   8.428  -4.734  1.00  0.00     0.010 A 
ATOM     41  C   UNL     1      -2.467   9.562  -5.422  1.00  0.00    -0.014 A 
BRANCH  41  42
ATOM     42  C   UNL     1      -3.160   9.980  -6.663  1.00  0.00     0.031 A 
ATOM     43  C   UNL     1      -4.592  10.422  -6.600  1.00  0.00     0.074 A 
ATOM     44  C   UNL     1      -2.526   9.880  -7.847  1.00  0.00     0.049 A 
ATOM     45  N   UNL     1      -5.406  10.735  -7.576  1.00  0.00    -0.248 NA
ATOM     46  C   UNL     1      -5.202  10.490  -5.263  1.00  0.00     0.031 C 
ATOM     47  C   UNL     1      -1.152   9.413  -8.036  1.00  0.00     0.029 A 
ATOM     48  N   UNL     1      -2.962  10.151  -9.120  1.00  0.00    -0.354 N 
ATOM     49  C   UNL     1      -6.622  11.021  -6.972  1.00  0.00     0.074 A 
ATOM     50  C   UNL     1      -6.459  10.788  -5.554  1.00  0.00     0.031 C 
ATOM     51  C   UNL     1      -0.851   9.450  -9.344  1.00  0.00     0.029 A 
ATOM     52  C   UNL     1      -2.021   9.905 -10.089  1.00  0.00     0.049 A 
ATOM     53  H   UNL     1      -3.865  10.491  -9.319  1.00  0.00     0.167 HD
ATOM     54  C   UNL     1      -7.764  11.463  -7.548  1.00  0.00     0.037 A 
ATOM     55  C   UNL     1      -2.099  10.025 -11.428  1.00  0.00     0.037 A 
ATOM     56  C   UNL     1      -7.910  11.718  -8.955  1.00  0.00     0.049 A 
ATOM     57  C   UNL     1      -3.384  10.509 -12.044  1.00  0.00     0.074 A 
ATOM     58  C   UNL     1      -9.002  12.232  -9.631  1.00  0.00     0.029 A 
ATOM     59  N   UNL     1      -6.929  11.473  -9.906  1.00  0.00    -0.354 N 
ATOM     60  N   UNL     1      -4.507  10.847 -11.457  1.00  0.00    -0.248 NA
ATOM     61  C   UNL     1      -3.413  10.629 -13.508  1.00  0.00     0.031 C 
ATOM     62  C   UNL     1      -8.699  12.255 -10.996  1.00  0.00     0.029 A 
ATOM     63  C   UNL     1      -7.400  11.801 -11.166  1.00  0.00     0.049 A 
ATOM     64  H   UNL     1      -6.031  11.119  -9.713  1.00  0.00     0.167 HD
ATOM     65  C   UNL     1      -5.364  11.244 -12.473  1.00  0.00     0.074 A 
ATOM     66  C   UNL     1      -4.628  11.118 -13.714  1.00  0.00     0.031 C 
ATOM     67  C   UNL     1      -6.647  11.674 -12.388  1.00  0.00     0.037 A 
BRANCH  54  68
ATOM     68  C   UNL     1      -8.943  11.702  -6.651  1.00  0.00     0.064 A 
ATOM     69  C   UNL     1      -8.961  12.758  -5.726  1.00  0.00     0.173 A 
ATOM     70  C   UNL     1     -10.079  10.883  -6.733  1.00  0.00     0.173 A 
ATOM     71  F   UNL     1      -7.895  13.562  -5.598  1.00  0.00    -0.203 F 
ATOM     72  C   UNL     1     -10.059  12.965  -4.896  1.00  0.00     0.198 A 
ATOM     73  C   UNL     1     -11.188  11.112  -5.923  1.00  0.00     0.198 A 
ATOM     74  F   UNL     1     -10.114   9.861  -7.601  1.00  0.00    -0.203 F 
ATOM     75  F   UNL     1     -10.032  13.947  -3.984  1.00  0.00    -0.200 F 
ATOM     76  C   UNL     1     -11.174  12.147  -5.000  1.00  0.00     0.200 A 
ATOM     77  F   UNL     1     -12.269  10.328  -6.032  1.00  0.00    -0.200 F 
ATOM     78  F   UNL     1     -12.233  12.351  -4.204  1.00  0.00    -0.200 F 
ENDBRANCH  54  68
BRANCH  55  79
ATOM     79  C   UNL     1      -0.921   9.702 -12.274  1.00  0.00     0.064 A 
ATOM     80  C   UNL     1      -0.222  10.714 -12.947  1.00  0.00     0.173 A 
ATOM     81  C   UNL     1      -0.469   8.383 -12.428  1.00  0.00     0.173 A 
ATOM     82  F   UNL     1      -0.628  11.988 -12.846  1.00  0.00    -0.203 F 
ATOM     83  C   UNL     1       0.872  10.417 -13.757  1.00  0.00     0.198 A 
ATOM     84  C   UNL     1       0.641   8.091 -13.217  1.00  0.00     0.198 A 
ATOM     85  F   UNL     1      -1.100   7.379 -11.802  1.00  0.00    -0.203 F 
ATOM     86  F   UNL     1       1.495  11.399 -14.423  1.00  0.00    -0.200 F 
ATOM     87  C   UNL     1       1.307   9.107 -13.887  1.00  0.00     0.200 A 
ATOM     88  F   UNL     1       1.066   6.825 -13.329  1.00  0.00    -0.200 F 
ATOM     89  F   UNL     1       2.361   8.822 -14.663  1.00  0.00    -0.200 F 
ENDBRANCH  55  79
BRANCH  67  90
ATOM     90  C   UNL     1      -7.328  12.065 -13.666  1.00  0.00     0.064 A 
ATOM     91  C   UNL     1      -7.739  11.106 -14.603  1.00  0.00     0.173 A 
ATOM     92  C   UNL     1      -7.620  13.412 -13.931  1.00  0.00     0.173 A 
ATOM     93  F   UNL     1      -7.469   9.807 -14.402  1.00  0.00    -0.203 F 
ATOM     94  C   UNL     1      -8.401  11.484 -15.768  1.00  0.00     0.198 A 
ATOM     95  C   UNL     1      -8.308  13.783 -15.082  1.00  0.00     0.198 A 
ATOM     96  F   UNL     1      -7.254  14.367 -13.062  1.00  0.00    -0.203 F 
ATOM     97  F   UNL     1      -8.748  10.555 -16.670  1.00  0.00    -0.200 F 
ATOM     98  C   UNL     1      -8.692  12.819 -16.002  1.00  0.00     0.200 A 
ATOM     99  F   UNL     1      -8.601  15.072 -15.300  1.00  0.00    -0.200 F 
ATOM    100  F   UNL     1      -9.339  13.179 -17.119  1.00  0.00    -0.200 F 
ENDBRANCH  67  90
ENDBRANCH  41  42
ENDBRANCH  33  36
ENDBRANCH  31  32
ENDBRANCH  30  31
ENDBRANCH  29  30
ENDBRANCH   1  29
TORSDOF 17
