REMARK SMILES Cc1ccc(NC(=O)[C@@H]2[C@@H](C(=O)NCCCCNC(=O)c3ccc(-c4c5nc(c(-c6c(F)c(F)c(F)c(F)c6F)c6ccc([nH]6)c(-c6c(F)c(F)c(F)c(F)c6F)c6nc(c(-c7c(F)c(F)c(F)c(F)c7F)c7ccc4[nH]7)C=C6)C=C5)cc3)[C@@H]3C=C[C@H]2C3)cc1NC(=O)c1ccc(Cl)cc1
REMARK SMILES IDX 14 1 13 2 11 3 12 4 10 6 9 7 87 8 84 9 86 10 88 11 85 12
REMARK SMILES IDX 7 13 6 14 8 16 5 17 1 18 2 19 3 20 90 21 4 22 89 23 91 24
REMARK SMILES IDX 92 25 93 27 94 28 95 29 100 30 96 31 99 32 97 33 98 34 15 35
REMARK SMILES IDX 16 36 17 37 18 38 19 39 20 41 21 42 22 43 83 44 23 45 82 46
REMARK SMILES IDX 24 47 25 48 26 49 76 50 27 51 81 52 75 53 77 54 28 55 80 56
REMARK SMILES IDX 74 57 73 58 29 60 61 61 41 62 60 63 42 64 45 65 59 66 78 67
REMARK SMILES IDX 43 68 44 69 58 71 79 72 46 73 30 74 31 75 39 76 32 77 33 78
REMARK SMILES IDX 37 79 40 80 34 81 35 82 38 83 36 84 62 85 63 86 71 87 64 88
REMARK SMILES IDX 65 89 69 90 72 91 66 92 67 93 70 94 68 95 47 96 48 97 56 98
REMARK SMILES IDX 49 99 50 100 54 101 57 102 51 103 52 104 55 105 53 106
REMARK H PARENT 13 5 6 15 91 26 18 40 77 59 45 70
REMARK Flexibility Score: inf
ROOT
ATOM      1  C   UNL     1      -0.548  -5.783  -0.401  1.00  0.00     0.116 C 
ENDROOT
BRANCH   1   2
ATOM      2  N   UNL     1      -1.486  -5.287  -1.395  1.00  0.00    -0.356 N 
ATOM      3  C   UNL     1      -2.711  -4.705  -1.373  1.00  0.00     0.224 C 
ATOM      4  O   UNL     1      -3.183  -4.469  -2.494  1.00  0.00    -0.275 OA
ATOM      5  H   UNL     1      -1.149  -5.402  -2.313  1.00  0.00     0.163 HD
BRANCH   3   6
ATOM      6  C   UNL     1      -3.473  -4.196  -0.143  1.00  0.00     0.098 C 
ATOM      7  C   UNL     1      -3.017  -2.761   0.219  1.00  0.00     0.099 C 
ATOM      8  C   UNL     1      -2.968  -2.776   1.769  1.00  0.00     0.025 C 
ATOM      9  C   UNL     1      -3.268  -4.923   1.211  1.00  0.00     0.025 C 
ATOM     10  C   UNL     1      -4.293  -3.220   2.357  1.00  0.00    -0.027 C 
ATOM     11  C   UNL     1      -2.213  -4.074   1.964  1.00  0.00     0.017 C 
ATOM     12  C   UNL     1      -4.456  -4.519   2.055  1.00  0.00    -0.027 C 
BRANCH   7  13
ATOM     13  C   UNL     1      -3.719  -1.500  -0.205  1.00  0.00     0.228 C 
ATOM     14  N   UNL     1      -3.001  -0.316  -0.234  1.00  0.00    -0.326 N 
ATOM     15  H   UNL     1      -3.576   0.482  -0.210  1.00  0.00     0.169 HD
ATOM     16  O   UNL     1      -4.929  -1.467  -0.425  1.00  0.00    -0.274 OA
BRANCH  14  17
ATOM     17  C   UNL     1      -1.614  -0.001  -0.289  1.00  0.00     0.043 A 
ATOM     18  C   UNL     1       2.260   1.033  -1.838  1.00  0.00     0.046 C 
ATOM     19  C   UNL     1       0.976   0.745  -1.117  1.00  0.00    -0.027 A 
ATOM     20  C   UNL     1       0.684  -0.571  -0.790  1.00  0.00     0.008 A 
ATOM     21  C   UNL     1       0.051   1.733  -0.754  1.00  0.00     0.046 A 
ATOM     22  C   UNL     1      -0.561  -0.910  -0.278  1.00  0.00     0.026 A 
ATOM     23  C   UNL     1      -1.268   1.349  -0.460  1.00  0.00     0.052 A 
BRANCH  21  24
ATOM     24  N   UNL     1       0.516   3.057  -0.696  1.00  0.00    -0.322 N 
ATOM     25  C   UNL     1       0.094   4.182  -0.034  1.00  0.00     0.255 C 
ATOM     26  H   UNL     1       1.315   3.210  -1.250  1.00  0.00     0.170 HD
ATOM     27  O   UNL     1       0.690   5.241  -0.241  1.00  0.00    -0.269 OA
BRANCH  25  28
ATOM     28  C   UNL     1      -1.000   4.193   0.960  1.00  0.00     0.040 A 
ATOM     29  C   UNL     1      -1.899   5.266   0.899  1.00  0.00     0.015 A 
ATOM     30  C   UNL     1      -1.110   3.251   1.990  1.00  0.00     0.015 A 
ATOM     31  C   UNL     1      -2.945   5.361   1.817  1.00  0.00     0.021 A 
ATOM     32  C   UNL     1      -2.171   3.337   2.899  1.00  0.00     0.021 A 
ATOM     33  C   UNL     1      -3.085   4.388   2.805  1.00  0.00     0.041 A 
ATOM     34  Cl  UNL     1      -4.389   4.492   3.922  1.00  0.00    -0.084 Cl
ENDBRANCH  25  28
ENDBRANCH  21  24
ENDBRANCH  14  17
ENDBRANCH   7  13
ENDBRANCH   3   6
ENDBRANCH   1   2
BRANCH   1  35
ATOM     35  C   UNL     1      -0.295  -7.289  -0.499  1.00  0.00     0.023 C 
BRANCH  35  36
ATOM     36  C   UNL     1       0.481  -7.740  -1.734  1.00  0.00     0.023 C 
BRANCH  36  37
ATOM     37  C   UNL     1       1.958  -7.364  -1.717  1.00  0.00     0.116 C 
BRANCH  37  38
ATOM     38  N   UNL     1       2.831  -8.322  -1.050  1.00  0.00    -0.352 N 
ATOM     39  C   UNL     1       4.190  -8.227  -0.772  1.00  0.00     0.251 C 
ATOM     40  H   UNL     1       2.397  -9.155  -0.754  1.00  0.00     0.163 HD
ATOM     41  O   UNL     1       4.784  -9.153  -0.257  1.00  0.00    -0.269 OA
BRANCH  39  42
ATOM     42  C   UNL     1       4.877  -6.927  -0.987  1.00  0.00     0.039 A 
ATOM     43  C   UNL     1       5.658  -6.420   0.058  1.00  0.00     0.014 A 
ATOM     44  C   UNL     1       4.581  -6.132  -2.090  1.00  0.00     0.014 A 
ATOM     45  C   UNL     1       5.912  -5.052   0.114  1.00  0.00     0.010 A 
ATOM     46  C   UNL     1       4.731  -4.764  -1.984  1.00  0.00     0.010 A 
ATOM     47  C   UNL     1       5.342  -4.221  -0.852  1.00  0.00    -0.014 A 
BRANCH  47  48
ATOM     48  C   UNL     1       5.266  -2.776  -0.691  1.00  0.00     0.031 A 
ATOM     49  C   UNL     1       6.136  -1.891  -1.490  1.00  0.00     0.074 A 
ATOM     50  C   UNL     1       4.356  -2.250   0.159  1.00  0.00     0.049 A 
ATOM     51  N   UNL     1       6.504  -0.714  -1.114  1.00  0.00    -0.248 NA
ATOM     52  C   UNL     1       6.678  -2.273  -2.789  1.00  0.00     0.031 C 
ATOM     53  C   UNL     1       4.024  -0.841   0.326  1.00  0.00     0.029 A 
ATOM     54  N   UNL     1       3.630  -2.897   1.173  1.00  0.00    -0.354 N 
ATOM     55  C   UNL     1       7.104  -0.095  -2.183  1.00  0.00     0.074 A 
ATOM     56  C   UNL     1       7.231  -1.124  -3.190  1.00  0.00     0.031 C 
ATOM     57  C   UNL     1       3.358  -0.670   1.477  1.00  0.00     0.029 A 
ATOM     58  C   UNL     1       3.420  -1.933   2.183  1.00  0.00     0.049 A 
ATOM     59  H   UNL     1       3.328  -3.834   1.177  1.00  0.00     0.167 HD
ATOM     60  C   UNL     1       7.312   1.254  -2.148  1.00  0.00     0.037 A 
ATOM     61  C   UNL     1       3.989  -2.079   3.415  1.00  0.00     0.037 A 
ATOM     62  C   UNL     1       6.835   1.831  -0.892  1.00  0.00     0.049 A 
ATOM     63  C   UNL     1       4.976  -0.980   3.742  1.00  0.00     0.074 A 
ATOM     64  C   UNL     1       5.678   2.518  -0.564  1.00  0.00     0.029 A 
ATOM     65  N   UNL     1       7.423   1.459   0.316  1.00  0.00    -0.354 N 
ATOM     66  N   UNL     1       5.595  -0.266   2.839  1.00  0.00    -0.248 NA
ATOM     67  C   UNL     1       5.312  -0.577   5.102  1.00  0.00     0.031 C 
ATOM     68  C   UNL     1       5.531   2.494   0.844  1.00  0.00     0.029 A 
ATOM     69  C   UNL     1       6.626   1.839   1.380  1.00  0.00     0.049 A 
ATOM     70  H   UNL     1       8.285   0.991   0.400  1.00  0.00     0.167 HD
ATOM     71  C   UNL     1       6.346   0.699   3.458  1.00  0.00     0.074 A 
ATOM     72  C   UNL     1       6.147   0.452   4.875  1.00  0.00     0.031 C 
ATOM     73  C   UNL     1       7.045   1.643   2.759  1.00  0.00     0.037 A 
BRANCH  60  74
ATOM     74  C   UNL     1       7.659   2.055  -3.384  1.00  0.00     0.064 A 
ATOM     75  C   UNL     1       7.149   3.356  -3.589  1.00  0.00     0.173 A 
ATOM     76  C   UNL     1       8.452   1.561  -4.436  1.00  0.00     0.173 A 
ATOM     77  F   UNL     1       6.480   4.006  -2.631  1.00  0.00    -0.203 F 
ATOM     78  C   UNL     1       7.301   4.039  -4.799  1.00  0.00     0.198 A 
ATOM     79  C   UNL     1       8.558   2.219  -5.668  1.00  0.00     0.198 A 
ATOM     80  F   UNL     1       9.174   0.442  -4.288  1.00  0.00    -0.203 F 
ATOM     81  F   UNL     1       6.776   5.264  -4.941  1.00  0.00    -0.200 F 
ATOM     82  C   UNL     1       7.968   3.452  -5.854  1.00  0.00     0.200 A 
ATOM     83  F   UNL     1       9.228   1.641  -6.675  1.00  0.00    -0.200 F 
ATOM     84  F   UNL     1       8.060   4.080  -7.034  1.00  0.00    -0.200 F 
ENDBRANCH  60  74
BRANCH  61  85
ATOM     85  C   UNL     1       4.062  -3.498   3.851  1.00  0.00     0.064 A 
ATOM     86  C   UNL     1       2.844  -4.185   4.034  1.00  0.00     0.173 A 
ATOM     87  C   UNL     1       5.219  -4.267   3.694  1.00  0.00     0.173 A 
ATOM     88  F   UNL     1       1.701  -3.494   4.176  1.00  0.00    -0.203 F 
ATOM     89  C   UNL     1       2.769  -5.572   3.934  1.00  0.00     0.198 A 
ATOM     90  C   UNL     1       5.143  -5.662   3.615  1.00  0.00     0.198 A 
ATOM     91  F   UNL     1       6.404  -3.675   3.490  1.00  0.00    -0.203 F 
ATOM     92  F   UNL     1       1.575  -6.181   3.979  1.00  0.00    -0.200 F 
ATOM     93  C   UNL     1       3.917  -6.308   3.697  1.00  0.00     0.200 A 
ATOM     94  F   UNL     1       6.250  -6.375   3.364  1.00  0.00    -0.200 F 
ATOM     95  F   UNL     1       3.833  -7.631   3.501  1.00  0.00    -0.200 F 
ENDBRANCH  61  85
BRANCH  73  96
ATOM     96  C   UNL     1       8.084   2.585   3.326  1.00  0.00     0.064 A 
ATOM     97  C   UNL     1       8.865   2.295   4.455  1.00  0.00     0.173 A 
ATOM     98  C   UNL     1       8.440   3.770   2.631  1.00  0.00     0.173 A 
ATOM     99  F   UNL     1       8.714   1.149   5.131  1.00  0.00    -0.203 F 
ATOM    100  C   UNL     1       9.879   3.153   4.894  1.00  0.00     0.198 A 
ATOM    101  C   UNL     1       9.489   4.592   3.037  1.00  0.00     0.198 A 
ATOM    102  F   UNL     1       7.802   4.154   1.516  1.00  0.00    -0.203 F 
ATOM    103  F   UNL     1      10.568   2.849   6.002  1.00  0.00    -0.200 F 
ATOM    104  C   UNL     1      10.199   4.292   4.179  1.00  0.00     0.200 A 
ATOM    105  F   UNL     1       9.820   5.662   2.300  1.00  0.00    -0.200 F 
ATOM    106  F   UNL     1      11.205   5.082   4.575  1.00  0.00    -0.200 F 
ENDBRANCH  73  96
ENDBRANCH  47  48
ENDBRANCH  39  42
ENDBRANCH  37  38
ENDBRANCH  36  37
ENDBRANCH  35  36
ENDBRANCH   1  35
TORSDOF 15
