REMARK SMILES O=C(NCCCCNC(=O)c1ccc(-c2c3nc(c(-c4c(F)c(F)c(F)c(F)c4F)c4ccc([nH]4)c(-c4c(F)c(F)c(F)c(F)c4F)c4nc(c(-c5c(F)c(F)c(F)c(F)c5F)c5ccc2[nH]5)C=C4)C=C3)cc1)c1ccc(/C=C2\SC(=S)N(NC(=O)c3ccc(Cl)cc3)C2=O)cc1
REMARK SMILES IDX 5 1 4 2 3 3 1 4 2 5 74 7 75 8 97 9 76 10 96 11 77 12 78 13
REMARK SMILES IDX 79 14 80 15 94 16 81 17 83 18 95 19 82 20 84 21 85 22 86 24
REMARK SMILES IDX 87 25 88 26 93 27 89 28 92 29 90 30 91 31 6 32 7 33 8 34
REMARK SMILES IDX 9 35 10 37 11 38 12 39 73 40 13 41 72 42 14 43 15 44 16 45
REMARK SMILES IDX 66 46 17 47 71 48 65 49 67 50 18 51 70 52 64 53 63 54 19 56
REMARK SMILES IDX 51 57 31 58 50 59 32 60 35 61 49 62 68 63 33 64 34 65 48 67
REMARK SMILES IDX 69 68 36 69 20 70 21 71 29 72 22 73 23 74 27 75 30 76 24 77
REMARK SMILES IDX 25 78 28 79 26 80 52 81 53 82 61 83 54 84 55 85 59 86 62 87
REMARK SMILES IDX 56 88 57 89 60 90 58 91 37 92 38 93 46 94 39 95 40 96 44 97
REMARK SMILES IDX 47 98 41 99 42 100 45 101 43 102
REMARK H PARENT 3 6 84 23 8 36 67 55 35 66
REMARK Flexibility Score: inf
ROOT
ATOM      1  C   UNL     1       4.889  -2.294  -0.271  1.00  0.00     0.023 C 
ENDROOT
BRANCH   1   2
ATOM      2  C   UNL     1       4.557  -0.865  -0.690  1.00  0.00     0.116 C 
BRANCH   2   3
ATOM      3  N   UNL     1       3.124  -0.613  -0.775  1.00  0.00    -0.352 N 
ATOM      4  O   UNL     1       1.133   0.266  -0.149  1.00  0.00    -0.269 OA
ATOM      5  C   UNL     1       2.352   0.252  -0.034  1.00  0.00     0.251 C 
ATOM      6  H   UNL     1       2.642  -1.133  -1.458  1.00  0.00     0.163 HD
BRANCH   5   7
ATOM      7  C   UNL     1       3.016   1.131   0.947  1.00  0.00     0.039 A 
ATOM      8  C   UNL     1       4.035   1.996   0.545  1.00  0.00     0.014 A 
ATOM      9  C   UNL     1       2.675   1.015   2.293  1.00  0.00     0.014 A 
ATOM     10  C   UNL     1       4.833   2.603   1.512  1.00  0.00     0.009 A 
ATOM     11  C   UNL     1       3.456   1.660   3.254  1.00  0.00     0.009 A 
ATOM     12  C   UNL     1       4.598   2.381   2.878  1.00  0.00    -0.024 A 
BRANCH  12  13
ATOM     13  C   UNL     1       5.593   2.914   3.821  1.00  0.00     0.029 C 
ATOM     14  C   UNL     1       6.008   2.410   4.993  1.00  0.00     0.082 C 
ATOM     15  S   UNL     1       5.438   1.050   5.878  1.00  0.00    -0.052 SA
ATOM     16  C   UNL     1       7.088   3.082   5.764  1.00  0.00     0.285 C 
ATOM     17  C   UNL     1       6.226   1.572   7.359  1.00  0.00     0.168 C 
ATOM     18  N   UNL     1       6.987   2.696   7.087  1.00  0.00    -0.198 N 
ATOM     19  O   UNL     1       7.923   3.826   5.256  1.00  0.00    -0.266 OA
ATOM     20  S   UNL     1       6.053   0.789   8.819  1.00  0.00    -0.050 S 
BRANCH  18  21
ATOM     21  N   UNL     1       7.734   3.312   8.102  1.00  0.00    -0.255 N 
ATOM     22  C   UNL     1       7.775   4.661   8.382  1.00  0.00     0.270 C 
ATOM     23  H   UNL     1       8.283   2.723   8.670  1.00  0.00     0.192 HD
ATOM     24  O   UNL     1       8.373   5.073   9.373  1.00  0.00    -0.267 OA
BRANCH  22  25
ATOM     25  C   UNL     1       7.176   5.647   7.456  1.00  0.00     0.041 A 
ATOM     26  C   UNL     1       8.042   6.579   6.869  1.00  0.00     0.015 A 
ATOM     27  C   UNL     1       5.817   5.632   7.120  1.00  0.00     0.015 A 
ATOM     28  C   UNL     1       7.566   7.451   5.890  1.00  0.00     0.021 A 
ATOM     29  C   UNL     1       5.347   6.506   6.135  1.00  0.00     0.021 A 
ATOM     30  C   UNL     1       6.224   7.399   5.516  1.00  0.00     0.041 A 
ATOM     31  Cl  UNL     1       5.648   8.438   4.270  1.00  0.00    -0.084 Cl
ENDBRANCH  22  25
ENDBRANCH  18  21
ENDBRANCH  12  13
ENDBRANCH   5   7
ENDBRANCH   2   3
ENDBRANCH   1   2
BRANCH   1  32
ATOM     32  C   UNL     1       4.423  -3.381  -1.236  1.00  0.00     0.023 C 
BRANCH  32  33
ATOM     33  C   UNL     1       4.828  -3.182  -2.692  1.00  0.00     0.116 C 
BRANCH  33  34
ATOM     34  N   UNL     1       6.268  -3.131  -2.894  1.00  0.00    -0.352 N 
ATOM     35  C   UNL     1       7.026  -3.767  -3.851  1.00  0.00     0.251 C 
ATOM     36  H   UNL     1       6.768  -2.566  -2.262  1.00  0.00     0.163 HD
ATOM     37  O   UNL     1       8.249  -3.691  -3.832  1.00  0.00    -0.269 OA
BRANCH  35  38
ATOM     38  C   UNL     1       6.351  -4.583  -4.882  1.00  0.00     0.039 A 
ATOM     39  C   UNL     1       6.774  -5.899  -5.088  1.00  0.00     0.014 A 
ATOM     40  C   UNL     1       5.273  -4.066  -5.604  1.00  0.00     0.014 A 
ATOM     41  C   UNL     1       6.058  -6.728  -5.955  1.00  0.00     0.010 A 
ATOM     42  C   UNL     1       4.524  -4.910  -6.417  1.00  0.00     0.010 A 
ATOM     43  C   UNL     1       4.901  -6.252  -6.591  1.00  0.00    -0.014 A 
BRANCH  43  44
ATOM     44  C   UNL     1       4.054  -7.128  -7.439  1.00  0.00     0.031 A 
ATOM     45  C   UNL     1       3.892  -6.817  -8.900  1.00  0.00     0.074 A 
ATOM     46  C   UNL     1       3.343  -8.126  -6.877  1.00  0.00     0.049 A 
ATOM     47  N   UNL     1       3.061  -7.330  -9.770  1.00  0.00    -0.248 NA
ATOM     48  C   UNL     1       4.761  -5.763  -9.448  1.00  0.00     0.031 C 
ATOM     49  C   UNL     1       3.381  -8.504  -5.463  1.00  0.00     0.029 A 
ATOM     50  N   UNL     1       2.423  -8.987  -7.425  1.00  0.00    -0.354 N 
ATOM     51  C   UNL     1       3.275  -6.634 -10.952  1.00  0.00     0.074 A 
ATOM     52  C   UNL     1       4.300  -5.648 -10.685  1.00  0.00     0.031 C 
ATOM     53  C   UNL     1       2.526  -9.519  -5.256  1.00  0.00     0.029 A 
ATOM     54  C   UNL     1       1.849  -9.835  -6.509  1.00  0.00     0.049 A 
ATOM     55  H   UNL     1       2.197  -8.995  -8.383  1.00  0.00     0.167 HD
ATOM     56  C   UNL     1       2.676  -6.810 -12.152  1.00  0.00     0.037 A 
ATOM     57  C   UNL     1       0.870 -10.748  -6.661  1.00  0.00     0.037 A 
ATOM     58  C   UNL     1       1.703  -7.831 -12.432  1.00  0.00     0.049 A 
ATOM     59  C   UNL     1       0.248 -10.945  -8.018  1.00  0.00     0.074 A 
ATOM     60  C   UNL     1       1.103  -8.142 -13.639  1.00  0.00     0.029 A 
ATOM     61  N   UNL     1       1.195  -8.714 -11.492  1.00  0.00    -0.354 N 
ATOM     62  N   UNL     1       0.501 -10.320  -9.141  1.00  0.00    -0.248 NA
ATOM     63  C   UNL     1      -0.794 -11.976  -8.128  1.00  0.00     0.031 C 
ATOM     64  C   UNL     1       0.210  -9.196 -13.425  1.00  0.00     0.029 A 
ATOM     65  C   UNL     1       0.280  -9.563 -12.091  1.00  0.00     0.049 A 
ATOM     66  H   UNL     1       1.447  -8.734 -10.540  1.00  0.00     0.167 HD
ATOM     67  C   UNL     1      -0.322 -10.902 -10.095  1.00  0.00     0.074 A 
ATOM     68  C   UNL     1      -1.081 -11.935  -9.422  1.00  0.00     0.031 C 
ATOM     69  C   UNL     1      -0.439 -10.607 -11.412  1.00  0.00     0.037 A 
BRANCH  56  70
ATOM     70  C   UNL     1       3.057  -5.884 -13.267  1.00  0.00     0.064 A 
ATOM     71  C   UNL     1       4.290  -5.993 -13.924  1.00  0.00     0.173 A 
ATOM     72  C   UNL     1       2.148  -4.919 -13.726  1.00  0.00     0.173 A 
ATOM     73  F   UNL     1       5.196  -6.893 -13.513  1.00  0.00    -0.203 F 
ATOM     74  C   UNL     1       4.606  -5.160 -14.993  1.00  0.00     0.198 A 
ATOM     75  C   UNL     1       2.458  -4.103 -14.811  1.00  0.00     0.198 A 
ATOM     76  F   UNL     1       0.953  -4.779 -13.133  1.00  0.00    -0.203 F 
ATOM     77  F   UNL     1       5.803  -5.261 -15.588  1.00  0.00    -0.200 F 
ATOM     78  C   UNL     1       3.687  -4.222 -15.441  1.00  0.00     0.200 A 
ATOM     79  F   UNL     1       1.565  -3.205 -15.249  1.00  0.00    -0.200 F 
ATOM     80  F   UNL     1       3.988  -3.430 -16.479  1.00  0.00    -0.200 F 
ENDBRANCH  56  70
BRANCH  57  81
ATOM     81  C   UNL     1       0.414 -11.557  -5.501  1.00  0.00     0.064 A 
ATOM     82  C   UNL     1       0.697 -12.928  -5.427  1.00  0.00     0.173 A 
ATOM     83  C   UNL     1      -0.338 -10.988  -4.463  1.00  0.00     0.173 A 
ATOM     84  F   UNL     1       1.393 -13.521  -6.408  1.00  0.00    -0.203 F 
ATOM     85  C   UNL     1       0.222 -13.705  -4.373  1.00  0.00     0.198 A 
ATOM     86  C   UNL     1      -0.790 -11.761  -3.396  1.00  0.00     0.198 A 
ATOM     87  F   UNL     1      -0.633  -9.680  -4.486  1.00  0.00    -0.203 F 
ATOM     88  F   UNL     1       0.463 -15.023  -4.354  1.00  0.00    -0.200 F 
ATOM     89  C   UNL     1      -0.518 -13.121  -3.357  1.00  0.00     0.200 A 
ATOM     90  F   UNL     1      -1.497 -11.191  -2.410  1.00  0.00    -0.200 F 
ATOM     91  F   UNL     1      -0.980 -13.869  -2.345  1.00  0.00    -0.200 F 
ENDBRANCH  57  81
BRANCH  69  92
ATOM     92  C   UNL     1      -1.375 -11.445 -12.228  1.00  0.00     0.064 A 
ATOM     93  C   UNL     1      -2.764 -11.278 -12.155  1.00  0.00     0.173 A 
ATOM     94  C   UNL     1      -0.868 -12.382 -13.142  1.00  0.00     0.173 A 
ATOM     95  F   UNL     1      -3.294 -10.405 -11.285  1.00  0.00    -0.203 F 
ATOM     96  C   UNL     1      -3.616 -12.029 -12.960  1.00  0.00     0.198 A 
ATOM     97  C   UNL     1      -1.721 -13.114 -13.961  1.00  0.00     0.198 A 
ATOM     98  F   UNL     1       0.455 -12.572 -13.250  1.00  0.00    -0.203 F 
ATOM     99  F   UNL     1      -4.943 -11.876 -12.854  1.00  0.00    -0.200 F 
ATOM    100  C   UNL     1      -3.094 -12.940 -13.868  1.00  0.00     0.200 A 
ATOM    101  F   UNL     1      -1.215 -13.986 -14.844  1.00  0.00    -0.200 F 
ATOM    102  F   UNL     1      -3.915 -13.653 -14.650  1.00  0.00    -0.200 F 
ENDBRANCH  69  92
ENDBRANCH  43  44
ENDBRANCH  35  38
ENDBRANCH  33  34
ENDBRANCH  32  33
ENDBRANCH   1  32
TORSDOF 14
