REMARK SMILES O=C(NCCCCNC(=O)c1cc(Br)ccc1OC(=O)c1ccc(F)cc1)c1ccc(-c2c3nc(c(-c4c(F)c(F)c(F)c(F)c4F)c4ccc([nH]4)c(-c4c(F)c(F)c(F)c(F)c4F)c4nc(c(-c5c(F)c(F)c(F)c(F)c5F)c5ccc2[nH]5)C=C4)C=C3)cc1
REMARK SMILES IDX 6 1 5 2 4 3 3 4 1 5 2 6 28 8 29 9 90 10 30 11 89 12 31 13
REMARK SMILES IDX 32 14 33 15 83 16 34 17 88 18 82 19 84 20 35 21 87 22 81 23
REMARK SMILES IDX 80 24 36 26 68 27 48 28 67 29 49 30 52 31 66 32 85 33 50 34
REMARK SMILES IDX 51 35 65 37 86 38 53 39 37 40 38 41 46 42 39 43 40 44 44 45
REMARK SMILES IDX 47 46 41 47 42 48 45 49 43 50 69 51 70 52 78 53 71 54 72 55
REMARK SMILES IDX 76 56 79 57 73 58 74 59 77 60 75 61 54 62 55 63 63 64 56 65
REMARK SMILES IDX 57 66 61 67 64 68 58 69 59 70 62 71 60 72 7 73 8 74 9 75
REMARK SMILES IDX 10 77 11 78 12 79 17 80 13 81 16 82 14 83 15 84 18 85 19 86
REMARK SMILES IDX 20 87 21 88 22 89 27 90 23 91 26 92 24 93 25 94
REMARK H PARENT 3 7 84 25 52 36 8 76
REMARK Flexibility Score: inf
ROOT
ATOM      1  C   UNL     1       4.556   3.958   0.855  1.00  0.00     0.023 C 
ENDROOT
BRANCH   1   2
ATOM      2  C   UNL     1       5.063   2.829  -0.039  1.00  0.00     0.023 C 
BRANCH   2   3
ATOM      3  C   UNL     1       4.654   1.424   0.380  1.00  0.00     0.116 C 
BRANCH   3   4
ATOM      4  N   UNL     1       3.215   1.220   0.397  1.00  0.00    -0.352 N 
ATOM      5  O   UNL     1       1.259   0.205  -0.087  1.00  0.00    -0.269 OA
ATOM      6  C   UNL     1       2.485   0.171  -0.105  1.00  0.00     0.251 C 
ATOM      7  H   UNL     1       2.692   1.933   0.829  1.00  0.00     0.163 HD
BRANCH   6   8
ATOM      8  C   UNL     1       3.179  -0.994  -0.699  1.00  0.00     0.039 A 
ATOM      9  C   UNL     1       4.269  -1.587  -0.057  1.00  0.00     0.014 A 
ATOM     10  C   UNL     1       2.716  -1.508  -1.914  1.00  0.00     0.014 A 
ATOM     11  C   UNL     1       4.966  -2.614  -0.683  1.00  0.00     0.010 A 
ATOM     12  C   UNL     1       3.373  -2.590  -2.508  1.00  0.00     0.010 A 
ATOM     13  C   UNL     1       4.514  -3.139  -1.905  1.00  0.00    -0.014 A 
BRANCH  13  14
ATOM     14  C   UNL     1       5.186  -4.332  -2.474  1.00  0.00     0.031 A 
ATOM     15  C   UNL     1       5.961  -4.259  -3.757  1.00  0.00     0.074 A 
ATOM     16  C   UNL     1       5.095  -5.495  -1.799  1.00  0.00     0.049 A 
ATOM     17  N   UNL     1       6.604  -5.214  -4.381  1.00  0.00    -0.248 NA
ATOM     18  C   UNL     1       6.024  -2.954  -4.432  1.00  0.00     0.031 C 
ATOM     19  C   UNL     1       4.353  -5.682  -0.550  1.00  0.00     0.029 A 
ATOM     20  N   UNL     1       5.633  -6.729  -2.053  1.00  0.00    -0.354 N 
ATOM     21  C   UNL     1       7.136  -4.632  -5.524  1.00  0.00     0.074 A 
ATOM     22  C   UNL     1       6.729  -3.243  -5.520  1.00  0.00     0.031 C 
ATOM     23  C   UNL     1       4.511  -6.944  -0.129  1.00  0.00     0.029 A 
ATOM     24  C   UNL     1       5.315  -7.670  -1.105  1.00  0.00     0.049 A 
ATOM     25  H   UNL     1       6.193  -6.923  -2.839  1.00  0.00     0.167 HD
ATOM     26  C   UNL     1       7.901  -5.211  -6.479  1.00  0.00     0.037 A 
ATOM     27  C   UNL     1       5.617  -8.980  -1.037  1.00  0.00     0.037 A 
ATOM     28  C   UNL     1       8.325  -6.588  -6.459  1.00  0.00     0.049 A 
ATOM     29  C   UNL     1       6.444  -9.596  -2.126  1.00  0.00     0.074 A 
ATOM     30  C   UNL     1       9.158  -7.242  -7.350  1.00  0.00     0.029 A 
ATOM     31  N   UNL     1       7.947  -7.520  -5.506  1.00  0.00    -0.354 N 
ATOM     32  N   UNL     1       6.974  -9.024  -3.179  1.00  0.00    -0.248 NA
ATOM     33  C   UNL     1       6.705 -11.038  -2.028  1.00  0.00     0.031 C 
ATOM     34  C   UNL     1       9.249  -8.582  -6.961  1.00  0.00     0.029 A 
ATOM     35  C   UNL     1       8.504  -8.753  -5.806  1.00  0.00     0.049 A 
ATOM     36  H   UNL     1       7.368  -7.334  -4.731  1.00  0.00     0.167 HD
ATOM     37  C   UNL     1       7.628 -10.032  -3.870  1.00  0.00     0.074 A 
ATOM     38  C   UNL     1       7.452 -11.248  -3.104  1.00  0.00     0.031 C 
ATOM     39  C   UNL     1       8.305  -9.955  -5.040  1.00  0.00     0.037 A 
BRANCH  26  40
ATOM     40  C   UNL     1       8.348  -4.375  -7.640  1.00  0.00     0.064 A 
ATOM     41  C   UNL     1       7.798  -4.583  -8.914  1.00  0.00     0.173 A 
ATOM     42  C   UNL     1       9.410  -3.469  -7.520  1.00  0.00     0.173 A 
ATOM     43  F   UNL     1       6.787  -5.449  -9.081  1.00  0.00    -0.203 F 
ATOM     44  C   UNL     1       8.313  -3.930 -10.031  1.00  0.00     0.198 A 
ATOM     45  C   UNL     1       9.911  -2.804  -8.637  1.00  0.00     0.198 A 
ATOM     46  F   UNL     1       9.965  -3.234  -6.322  1.00  0.00    -0.203 F 
ATOM     47  F   UNL     1       7.799  -4.174 -11.245  1.00  0.00    -0.200 F 
ATOM     48  C   UNL     1       9.370  -3.044  -9.892  1.00  0.00     0.200 A 
ATOM     49  F   UNL     1      10.926  -1.939  -8.501  1.00  0.00    -0.200 F 
ATOM     50  F   UNL     1       9.873  -2.425 -10.969  1.00  0.00    -0.200 F 
ENDBRANCH  26  40
BRANCH  27  51
ATOM     51  C   UNL     1       5.110  -9.788   0.100  1.00  0.00     0.064 A 
ATOM     52  C   UNL     1       3.741 -10.066   0.236  1.00  0.00     0.173 A 
ATOM     53  C   UNL     1       5.976 -10.265   1.091  1.00  0.00     0.173 A 
ATOM     54  F   UNL     1       2.871  -9.626  -0.685  1.00  0.00    -0.203 F 
ATOM     55  C   UNL     1       3.256 -10.772   1.334  1.00  0.00     0.198 A 
ATOM     56  C   UNL     1       5.494 -10.995   2.175  1.00  0.00     0.198 A 
ATOM     57  F   UNL     1       7.295 -10.040   0.992  1.00  0.00    -0.203 F 
ATOM     58  F   UNL     1       1.941 -10.991   1.459  1.00  0.00    -0.200 F 
ATOM     59  C   UNL     1       4.134 -11.240   2.300  1.00  0.00     0.200 A 
ATOM     60  F   UNL     1       6.346 -11.465   3.095  1.00  0.00    -0.200 F 
ATOM     61  F   UNL     1       3.669 -11.929   3.351  1.00  0.00    -0.200 F 
ENDBRANCH  27  51
BRANCH  39  62
ATOM     62  C   UNL     1       8.895 -11.223  -5.577  1.00  0.00     0.064 A 
ATOM     63  C   UNL     1      10.280 -11.440  -5.543  1.00  0.00     0.173 A 
ATOM     64  C   UNL     1       8.088 -12.194  -6.187  1.00  0.00     0.173 A 
ATOM     65  F   UNL     1      11.091 -10.536  -4.974  1.00  0.00    -0.203 F 
ATOM     66  C   UNL     1      10.838 -12.578  -6.116  1.00  0.00     0.198 A 
ATOM     67  C   UNL     1       8.648 -13.342  -6.739  1.00  0.00     0.198 A 
ATOM     68  F   UNL     1       6.756 -12.036  -6.229  1.00  0.00    -0.203 F 
ATOM     69  F   UNL     1      12.167 -12.752  -6.099  1.00  0.00    -0.200 F 
ATOM     70  C   UNL     1      10.022 -13.528  -6.712  1.00  0.00     0.200 A 
ATOM     71  F   UNL     1       7.857 -14.270  -7.295  1.00  0.00    -0.200 F 
ATOM     72  F   UNL     1      10.560 -14.628  -7.257  1.00  0.00    -0.200 F 
ENDBRANCH  39  62
ENDBRANCH  13  14
ENDBRANCH   6   8
ENDBRANCH   3   4
ENDBRANCH   2   3
ENDBRANCH   1   2
BRANCH   1  73
ATOM     73  C   UNL     1       4.782   3.768   2.353  1.00  0.00     0.116 C 
BRANCH  73  74
ATOM     74  N   UNL     1       6.177   3.548   2.707  1.00  0.00    -0.352 N 
ATOM     75  C   UNL     1       7.053   4.370   3.374  1.00  0.00     0.255 C 
ATOM     76  H   UNL     1       6.548   2.680   2.427  1.00  0.00     0.163 HD
ATOM     77  O   UNL     1       8.235   4.058   3.479  1.00  0.00    -0.269 OA
BRANCH  75  78
ATOM     78  C   UNL     1       6.569   5.633   3.961  1.00  0.00     0.083 A 
ATOM     79  C   UNL     1       5.509   5.598   4.877  1.00  0.00     0.033 A 
ATOM     80  C   UNL     1       7.175   6.857   3.654  1.00  0.00     0.144 A 
ATOM     81  C   UNL     1       5.013   6.788   5.404  1.00  0.00     0.019 A 
ATOM     82  C   UNL     1       6.689   8.045   4.204  1.00  0.00     0.049 A 
ATOM     83  Br  UNL     1       3.539   6.740   6.587  1.00  0.00    -0.051 Br
ATOM     84  C   UNL     1       5.589   8.012   5.063  1.00  0.00     0.019 A 
BRANCH  80  85
ATOM     85  O   UNL     1       8.353   6.961   2.899  1.00  0.00    -0.422 OA
BRANCH  85  86
ATOM     86  C   UNL     1       8.273   6.612   1.566  1.00  0.00     0.343 C 
ATOM     87  O   UNL     1       7.262   6.295   0.950  1.00  0.00    -0.246 OA
BRANCH  86  88
ATOM     88  C   UNL     1       9.627   6.678   0.954  1.00  0.00     0.060 A 
ATOM     89  C   UNL     1      10.691   7.366   1.561  1.00  0.00     0.019 A 
ATOM     90  C   UNL     1       9.829   6.050  -0.285  1.00  0.00     0.019 A 
ATOM     91  C   UNL     1      11.938   7.425   0.933  1.00  0.00     0.040 A 
ATOM     92  C   UNL     1      11.079   6.108  -0.907  1.00  0.00     0.040 A 
ATOM     93  C   UNL     1      12.120   6.796  -0.293  1.00  0.00     0.123 A 
ATOM     94  F   UNL     1      13.315   6.859  -0.894  1.00  0.00    -0.207 F 
ENDBRANCH  86  88
ENDBRANCH  85  86
ENDBRANCH  80  85
ENDBRANCH  75  78
ENDBRANCH  73  74
ENDBRANCH   1  73
TORSDOF 14
