REMARK SMILES O=C(NCCCCNC(=O)c1cn(C[C@@H]2CCS(=O)(=O)C2)c(=O)[nH]c1=O)c1ccc(-c2c3nc(c(-c4c(F)c(F)c(F)c(F)c4F)c4ccc([nH]4)c(-c4c(F)c(F)c(F)c(F)c4F)c4nc(c(-c5c(F)c(F)c(F)c(F)c5F)c5ccc2[nH]5)C=C4)C=C3)cc1
REMARK SMILES IDX 5 1 4 2 3 3 1 4 2 5 27 7 28 8 89 9 29 10 88 11 30 12 31 13
REMARK SMILES IDX 32 14 82 15 33 16 87 17 81 18 83 19 34 20 86 21 80 22 79 23
REMARK SMILES IDX 35 25 67 26 47 27 66 28 48 29 51 30 65 31 84 32 49 33 50 34
REMARK SMILES IDX 64 36 85 37 52 38 36 39 37 40 45 41 38 42 39 43 43 44 46 45
REMARK SMILES IDX 40 46 41 47 44 48 42 49 68 50 69 51 77 52 70 53 71 54 75 55
REMARK SMILES IDX 78 56 72 57 73 58 76 59 74 60 53 61 54 62 62 63 55 64 56 65
REMARK SMILES IDX 60 66 63 67 57 68 58 69 61 70 59 71 6 72 7 73 8 74 9 75
REMARK SMILES IDX 10 77 11 78 12 79 25 80 13 81 24 82 26 83 22 84 23 86 14 87
REMARK SMILES IDX 15 88 16 89 21 90 17 91 18 92 19 93 20 94
REMARK H PARENT 3 6 83 24 51 35 8 76 24 85
REMARK Flexibility Score: inf
ROOT
ATOM      1  C   UNL     1       4.950  -1.037  -2.301  1.00  0.00     0.023 C 
ENDROOT
BRANCH   1   2
ATOM      2  C   UNL     1       4.544  -0.058  -1.209  1.00  0.00     0.116 C 
BRANCH   2   3
ATOM      3  N   UNL     1       3.103   0.118  -1.105  1.00  0.00    -0.352 N 
ATOM      4  O   UNL     1       1.074   0.070  -0.127  1.00  0.00    -0.269 OA
ATOM      5  C   UNL     1       2.293   0.016  -0.001  1.00  0.00     0.251 C 
ATOM      6  H   UNL     1       2.644   0.343  -1.946  1.00  0.00     0.163 HD
BRANCH   5   7
ATOM      7  C   UNL     1       2.890  -0.181   1.337  1.00  0.00     0.039 A 
ATOM      8  C   UNL     1       2.307  -1.103   2.209  1.00  0.00     0.014 A 
ATOM      9  C   UNL     1       4.012   0.550   1.737  1.00  0.00     0.014 A 
ATOM     10  C   UNL     1       2.869  -1.315   3.469  1.00  0.00     0.010 A 
ATOM     11  C   UNL     1       4.629   0.265   2.949  1.00  0.00     0.010 A 
ATOM     12  C   UNL     1       4.044  -0.643   3.843  1.00  0.00    -0.014 A 
BRANCH  12  13
ATOM     13  C   UNL     1       4.628  -0.805   5.199  1.00  0.00     0.031 A 
ATOM     14  C   UNL     1       4.693   0.386   6.119  1.00  0.00     0.074 A 
ATOM     15  C   UNL     1       5.122  -1.994   5.592  1.00  0.00     0.049 A 
ATOM     16  N   UNL     1       5.225   0.484   7.311  1.00  0.00    -0.248 NA
ATOM     17  C   UNL     1       4.107   1.643   5.623  1.00  0.00     0.031 C 
ATOM     18  C   UNL     1       5.140  -3.212   4.782  1.00  0.00     0.029 A 
ATOM     19  N   UNL     1       5.705  -2.372   6.776  1.00  0.00    -0.354 N 
ATOM     20  C   UNL     1       5.052   1.808   7.691  1.00  0.00     0.074 A 
ATOM     21  C   UNL     1       4.428   2.494   6.584  1.00  0.00     0.031 C 
ATOM     22  C   UNL     1       5.678  -4.210   5.503  1.00  0.00     0.029 A 
ATOM     23  C   UNL     1       6.081  -3.693   6.809  1.00  0.00     0.049 A 
ATOM     24  H   UNL     1       5.842  -1.754   7.530  1.00  0.00     0.167 HD
ATOM     25  C   UNL     1       5.354   2.393   8.873  1.00  0.00     0.037 A 
ATOM     26  C   UNL     1       6.686  -4.403   7.781  1.00  0.00     0.037 A 
ATOM     27  C   UNL     1       5.931   1.696   9.991  1.00  0.00     0.049 A 
ATOM     28  C   UNL     1       7.030  -3.724   9.081  1.00  0.00     0.074 A 
ATOM     29  C   UNL     1       6.219   2.186  11.251  1.00  0.00     0.029 A 
ATOM     30  N   UNL     1       6.299   0.359   9.983  1.00  0.00    -0.354 N 
ATOM     31  N   UNL     1       6.813  -2.484   9.448  1.00  0.00    -0.248 NA
ATOM     32  C   UNL     1       7.700  -4.542  10.102  1.00  0.00     0.031 C 
ATOM     33  C   UNL     1       6.811   1.159  11.991  1.00  0.00     0.029 A 
ATOM     34  C   UNL     1       6.838   0.014  11.211  1.00  0.00     0.049 A 
ATOM     35  H   UNL     1       6.194  -0.253   9.219  1.00  0.00     0.167 HD
ATOM     36  C   UNL     1       7.297  -2.379  10.746  1.00  0.00     0.074 A 
ATOM     37  C   UNL     1       7.801  -3.686  11.110  1.00  0.00     0.031 C 
ATOM     38  C   UNL     1       7.326  -1.296  11.560  1.00  0.00     0.037 A 
BRANCH  25  39
ATOM     39  C   UNL     1       5.049   3.853   9.036  1.00  0.00     0.064 A 
ATOM     40  C   UNL     1       3.730   4.321   9.129  1.00  0.00     0.173 A 
ATOM     41  C   UNL     1       6.088   4.785   9.178  1.00  0.00     0.173 A 
ATOM     42  F   UNL     1       2.700   3.474   8.985  1.00  0.00    -0.203 F 
ATOM     43  C   UNL     1       3.462   5.670   9.345  1.00  0.00     0.198 A 
ATOM     44  C   UNL     1       5.817   6.128   9.426  1.00  0.00     0.198 A 
ATOM     45  F   UNL     1       7.368   4.390   9.100  1.00  0.00    -0.203 F 
ATOM     46  F   UNL     1       2.193   6.100   9.394  1.00  0.00    -0.200 F 
ATOM     47  C   UNL     1       4.505   6.570   9.506  1.00  0.00     0.200 A 
ATOM     48  F   UNL     1       6.826   6.993   9.597  1.00  0.00    -0.200 F 
ATOM     49  F   UNL     1       4.245   7.864   9.737  1.00  0.00    -0.200 F 
ENDBRANCH  25  39
BRANCH  26  50
ATOM     50  C   UNL     1       6.982  -5.845   7.569  1.00  0.00     0.064 A 
ATOM     51  C   UNL     1       6.301  -6.834   8.294  1.00  0.00     0.173 A 
ATOM     52  C   UNL     1       7.938  -6.267   6.633  1.00  0.00     0.173 A 
ATOM     53  F   UNL     1       5.393  -6.481   9.216  1.00  0.00    -0.203 F 
ATOM     54  C   UNL     1       6.574  -8.187   8.101  1.00  0.00     0.198 A 
ATOM     55  C   UNL     1       8.189  -7.621   6.419  1.00  0.00     0.198 A 
ATOM     56  F   UNL     1       8.616  -5.363   5.911  1.00  0.00    -0.203 F 
ATOM     57  F   UNL     1       5.938  -9.108   8.836  1.00  0.00    -0.200 F 
ATOM     58  C   UNL     1       7.511  -8.580   7.157  1.00  0.00     0.200 A 
ATOM     59  F   UNL     1       9.083  -7.997   5.494  1.00  0.00    -0.200 F 
ATOM     60  F   UNL     1       7.765  -9.881   6.963  1.00  0.00    -0.200 F 
ENDBRANCH  26  50
BRANCH  38  61
ATOM     61  C   UNL     1       7.903  -1.468  12.935  1.00  0.00     0.064 A 
ATOM     62  C   UNL     1       9.281  -1.629  13.136  1.00  0.00     0.173 A 
ATOM     63  C   UNL     1       7.079  -1.375  14.068  1.00  0.00     0.173 A 
ATOM     64  F   UNL     1      10.109  -1.732  12.085  1.00  0.00    -0.203 F 
ATOM     65  C   UNL     1       9.812  -1.704  14.420  1.00  0.00     0.198 A 
ATOM     66  C   UNL     1       7.617  -1.418  15.350  1.00  0.00     0.198 A 
ATOM     67  F   UNL     1       5.755  -1.209  13.930  1.00  0.00    -0.203 F 
ATOM     68  F   UNL     1      11.129  -1.890  14.588  1.00  0.00    -0.200 F 
ATOM     69  C   UNL     1       8.982  -1.586  15.526  1.00  0.00     0.200 A 
ATOM     70  F   UNL     1       6.817  -1.282  16.417  1.00  0.00    -0.200 F 
ATOM     71  F   UNL     1       9.499  -1.634  16.761  1.00  0.00    -0.200 F 
ENDBRANCH  38  61
ENDBRANCH  12  13
ENDBRANCH   5   7
ENDBRANCH   2   3
ENDBRANCH   1   2
BRANCH   1  72
ATOM     72  C   UNL     1       4.481  -0.672  -3.703  1.00  0.00     0.023 C 
BRANCH  72  73
ATOM     73  C   UNL     1       4.771   0.763  -4.122  1.00  0.00     0.116 C 
BRANCH  73  74
ATOM     74  N   UNL     1       6.192   1.076  -4.196  1.00  0.00    -0.352 N 
ATOM     75  C   UNL     1       6.957   1.414  -5.287  1.00  0.00     0.258 C 
ATOM     76  H   UNL     1       6.675   1.040  -3.339  1.00  0.00     0.163 HD
ATOM     77  O   UNL     1       8.145   1.677  -5.148  1.00  0.00    -0.269 OA
BRANCH  75  78
ATOM     78  C   UNL     1       6.285   1.436  -6.598  1.00  0.00     0.121 A 
ATOM     79  C   UNL     1       5.271   2.292  -6.789  1.00  0.00     0.110 A 
ATOM     80  C   UNL     1       6.583   0.447  -7.647  1.00  0.00     0.266 A 
ATOM     81  N   UNL     1       4.375   2.148  -7.835  1.00  0.00    -0.299 N 
ATOM     82  N   UNL     1       5.669   0.386  -8.664  1.00  0.00    -0.273 N 
ATOM     83  O   UNL     1       7.528  -0.330  -7.593  1.00  0.00    -0.268 OA
ATOM     84  C   UNL     1       4.514   1.112  -8.757  1.00  0.00     0.328 A 
ATOM     85  H   UNL     1       5.861  -0.241  -9.398  1.00  0.00     0.175 HD
ATOM     86  O   UNL     1       3.675   0.842  -9.611  1.00  0.00    -0.248 OA
BRANCH  81  87
ATOM     87  C   UNL     1       3.159   2.958  -7.848  1.00  0.00     0.131 C 
BRANCH  87  88
ATOM     88  C   UNL     1       3.141   4.179  -8.786  1.00  0.00     0.025 C 
ATOM     89  C   UNL     1       3.209   3.868 -10.288  1.00  0.00     0.022 C 
ATOM     90  C   UNL     1       4.234   5.211  -8.508  1.00  0.00     0.142 C 
ATOM     91  C   UNL     1       4.668   3.781 -10.723  1.00  0.00     0.137 C 
ATOM     92  S   UNL     1       5.571   4.866  -9.637  1.00  0.00     0.150 S 
ATOM     93  O   UNL     1       6.580   4.095  -8.938  1.00  0.00    -0.229 OA
ATOM     94  O   UNL     1       5.891   6.081 -10.350  1.00  0.00    -0.229 OA
ENDBRANCH  87  88
ENDBRANCH  81  87
ENDBRANCH  75  78
ENDBRANCH  73  74
ENDBRANCH  72  73
ENDBRANCH   1  72
TORSDOF 13
