REMARK SMILES N#C/C(=C/c1cc(Br)ccc1OCC(=O)NCCCCNC(=O)c1ccc(-c2c3nc(c(-c4c(F)c(F)c(F)c(F)c4F)c4ccc([nH]4)c(-c4c(F)c(F)c(F)c(F)c4F)c4nc(c(-c5c(F)c(F)c(F)c(F)c5F)c5ccc2[nH]5)C=C4)C=C3)cc1)c1ccc(F)cc1
REMARK SMILES IDX 17 1 16 2 14 3 15 4 13 6 12 7 11 8 5 9 6 10 7 11 10 12 8 13
REMARK SMILES IDX 9 14 4 15 3 16 2 17 1 18 87 19 88 20 93 21 89 22 92 23 90 24
REMARK SMILES IDX 91 25 18 26 19 27 20 28 21 29 22 30 23 32 24 33 25 34 86 35
REMARK SMILES IDX 26 36 85 37 27 38 28 39 29 40 79 41 30 42 84 43 78 44 80 45
REMARK SMILES IDX 31 46 83 47 77 48 76 49 32 51 64 52 44 53 63 54 45 55 48 56
REMARK SMILES IDX 62 57 81 58 46 59 47 60 61 62 82 63 49 64 33 65 34 66 42 67
REMARK SMILES IDX 35 68 36 69 40 70 43 71 37 72 38 73 41 74 39 75 65 76 66 77
REMARK SMILES IDX 74 78 67 79 68 80 72 81 75 82 69 83 70 84 73 85 71 86 50 87
REMARK SMILES IDX 51 88 59 89 52 90 53 91 57 92 60 93 54 94 55 95 58 96 56 97
REMARK H PARENT 16 5 21 31 80 50 48 61
REMARK Flexibility Score: inf
ROOT
ATOM      1  C   UNL     1       5.587  -5.800  -0.968  1.00  0.00     0.116 C 
ENDROOT
BRANCH   1   2
ATOM      2  N   UNL     1       4.426  -5.102  -0.463  1.00  0.00    -0.353 N 
ATOM      3  C   UNL     1       3.863  -3.961  -0.949  1.00  0.00     0.257 C 
ATOM      4  O   UNL     1       2.728  -3.670  -0.567  1.00  0.00    -0.271 OA
ATOM      5  H   UNL     1       3.991  -5.498   0.327  1.00  0.00     0.163 HD
BRANCH   3   6
ATOM      6  C   UNL     1       4.623  -3.083  -1.952  1.00  0.00     0.329 C 
BRANCH   6   7
ATOM      7  O   UNL     1       6.012  -2.888  -1.781  1.00  0.00    -0.483 OA
BRANCH   7   8
ATOM      8  C   UNL     1       6.562  -2.132  -0.785  1.00  0.00     0.127 A 
ATOM      9  C   UNL     1       5.950  -1.400   0.249  1.00  0.00     0.019 A 
ATOM     10  C   UNL     1       6.761  -0.719   1.181  1.00  0.00     0.027 A 
ATOM     11  C   UNL     1       8.149  -0.708   1.047  1.00  0.00     0.018 A 
ATOM     12  C   UNL     1       7.965  -2.121  -0.883  1.00  0.00     0.048 A 
ATOM     13  Br  UNL     1       9.204   0.306   2.242  1.00  0.00    -0.051 Br
ATOM     14  C   UNL     1       8.757  -1.406   0.014  1.00  0.00     0.019 A 
BRANCH   9  15
ATOM     15  C   UNL     1       4.497  -1.208   0.345  1.00  0.00     0.032 C 
ATOM     16  C   UNL     1       3.832  -0.079   0.035  1.00  0.00     0.060 C 
BRANCH  16  17
ATOM     17  C   UNL     1       2.312  -0.079   0.035  1.00  0.00     0.100 C 
ATOM     18  N   UNL     1       1.051  -0.079   0.035  1.00  0.00    -0.192 NA
ENDBRANCH  16  17
BRANCH  16  19
ATOM     19  C   UNL     1       4.506   1.243  -0.048  1.00  0.00    -0.008 A 
ATOM     20  C   UNL     1       5.535   1.522  -0.959  1.00  0.00     0.012 A 
ATOM     21  C   UNL     1       4.189   2.207   0.931  1.00  0.00     0.012 A 
ATOM     22  C   UNL     1       6.273   2.705  -0.849  1.00  0.00     0.040 A 
ATOM     23  C   UNL     1       4.916   3.394   1.028  1.00  0.00     0.040 A 
ATOM     24  C   UNL     1       5.963   3.624   0.148  1.00  0.00     0.123 A 
ATOM     25  F   UNL     1       6.693   4.740   0.271  1.00  0.00    -0.207 F 
ENDBRANCH  16  19
ENDBRANCH   9  15
ENDBRANCH   7   8
ENDBRANCH   6   7
ENDBRANCH   3   6
ENDBRANCH   1   2
BRANCH   1  26
ATOM     26  C   UNL     1       6.763  -5.806   0.004  1.00  0.00     0.023 C 
BRANCH  26  27
ATOM     27  C   UNL     1       6.483  -6.397   1.386  1.00  0.00     0.023 C 
BRANCH  27  28
ATOM     28  C   UNL     1       5.753  -7.734   1.399  1.00  0.00     0.116 C 
BRANCH  28  29
ATOM     29  N   UNL     1       6.425  -8.761   0.622  1.00  0.00    -0.352 N 
ATOM     30  C   UNL     1       6.680 -10.072   0.939  1.00  0.00     0.251 C 
ATOM     31  H   UNL     1       6.745  -8.473  -0.264  1.00  0.00     0.163 HD
ATOM     32  O   UNL     1       7.364 -10.758   0.188  1.00  0.00    -0.269 OA
BRANCH  30  33
ATOM     33  C   UNL     1       6.162 -10.649   2.199  1.00  0.00     0.039 A 
ATOM     34  C   UNL     1       7.010 -11.464   2.954  1.00  0.00     0.014 A 
ATOM     35  C   UNL     1       4.857 -10.404   2.635  1.00  0.00     0.014 A 
ATOM     36  C   UNL     1       6.565 -11.992   4.167  1.00  0.00     0.010 A 
ATOM     37  C   UNL     1       4.445 -10.860   3.885  1.00  0.00     0.010 A 
ATOM     38  C   UNL     1       5.289 -11.670   4.659  1.00  0.00    -0.014 A 
BRANCH  38  39
ATOM     39  C   UNL     1       4.825 -12.193   5.970  1.00  0.00     0.031 A 
ATOM     40  C   UNL     1       3.640 -13.118   6.043  1.00  0.00     0.074 A 
ATOM     41  C   UNL     1       5.449 -11.807   7.100  1.00  0.00     0.049 A 
ATOM     42  N   UNL     1       3.080 -13.666   7.093  1.00  0.00    -0.248 NA
ATOM     43  C   UNL     1       2.979 -13.452   4.771  1.00  0.00     0.031 C 
ATOM     44  C   UNL     1       6.572 -10.870   7.168  1.00  0.00     0.029 A 
ATOM     45  N   UNL     1       5.225 -12.151   8.410  1.00  0.00    -0.354 N 
ATOM     46  C   UNL     1       2.000 -14.393   6.610  1.00  0.00     0.074 A 
ATOM     47  C   UNL     1       1.945 -14.172   5.182  1.00  0.00     0.031 C 
ATOM     48  C   UNL     1       6.956 -10.736   8.448  1.00  0.00     0.029 A 
ATOM     49  C   UNL     1       6.086 -11.546   9.294  1.00  0.00     0.049 A 
ATOM     50  H   UNL     1       4.515 -12.772   8.690  1.00  0.00     0.167 HD
ATOM     51  C   UNL     1       1.146 -15.194   7.291  1.00  0.00     0.037 A 
ATOM     52  C   UNL     1       6.162 -11.634  10.636  1.00  0.00     0.037 A 
ATOM     53  C   UNL     1       1.218 -15.432   8.710  1.00  0.00     0.049 A 
ATOM     54  C   UNL     1       5.208 -12.541  11.366  1.00  0.00     0.074 A 
ATOM     55  C   UNL     1       0.439 -16.274   9.484  1.00  0.00     0.029 A 
ATOM     56  N   UNL     1       2.121 -14.822   9.569  1.00  0.00    -0.354 N 
ATOM     57  N   UNL     1       4.242 -13.288  10.887  1.00  0.00    -0.248 NA
ATOM     58  C   UNL     1       5.367 -12.631  12.823  1.00  0.00     0.031 C 
ATOM     59  C   UNL     1       0.831 -16.131  10.818  1.00  0.00     0.029 A 
ATOM     60  C   UNL     1       1.902 -15.253  10.868  1.00  0.00     0.049 A 
ATOM     61  H   UNL     1       2.814 -14.178   9.296  1.00  0.00     0.167 HD
ATOM     62  C   UNL     1       3.704 -13.961  11.977  1.00  0.00     0.074 A 
ATOM     63  C   UNL     1       4.465 -13.549  13.137  1.00  0.00     0.031 C 
ATOM     64  C   UNL     1       2.673 -14.841  12.013  1.00  0.00     0.037 A 
BRANCH  51  65
ATOM     65  C   UNL     1       0.055 -15.876   6.514  1.00  0.00     0.064 A 
ATOM     66  C   UNL     1       0.332 -16.897   5.592  1.00  0.00     0.173 A 
ATOM     67  C   UNL     1      -1.290 -15.538   6.731  1.00  0.00     0.173 A 
ATOM     68  F   UNL     1       1.600 -17.252   5.337  1.00  0.00    -0.203 F 
ATOM     69  C   UNL     1      -0.694 -17.535   4.898  1.00  0.00     0.198 A 
ATOM     70  C   UNL     1      -2.314 -16.201   6.061  1.00  0.00     0.198 A 
ATOM     71  F   UNL     1      -1.612 -14.572   7.605  1.00  0.00    -0.203 F 
ATOM     72  F   UNL     1      -0.401 -18.473   3.987  1.00  0.00    -0.200 F 
ATOM     73  C   UNL     1      -2.016 -17.194   5.140  1.00  0.00     0.200 A 
ATOM     74  F   UNL     1      -3.592 -15.881   6.309  1.00  0.00    -0.200 F 
ATOM     75  F   UNL     1      -3.002 -17.818   4.482  1.00  0.00    -0.200 F 
ENDBRANCH  51  65
BRANCH  52  76
ATOM     76  C   UNL     1       7.192 -10.859  11.379  1.00  0.00     0.064 A 
ATOM     77  C   UNL     1       8.242 -11.504  12.048  1.00  0.00     0.173 A 
ATOM     78  C   UNL     1       7.133  -9.460  11.458  1.00  0.00     0.173 A 
ATOM     79  F   UNL     1       8.334 -12.841  12.018  1.00  0.00    -0.203 F 
ATOM     80  C   UNL     1       9.171 -10.783  12.796  1.00  0.00     0.198 A 
ATOM     81  C   UNL     1       8.083  -8.737  12.177  1.00  0.00     0.198 A 
ATOM     82  F   UNL     1       6.154  -8.792  10.830  1.00  0.00    -0.203 F 
ATOM     83  F   UNL     1      10.127 -11.431  13.477  1.00  0.00    -0.200 F 
ATOM     84  C   UNL     1       9.094  -9.400  12.856  1.00  0.00     0.200 A 
ATOM     85  F   UNL     1       8.014  -7.400  12.218  1.00  0.00    -0.200 F 
ATOM     86  F   UNL     1       9.986  -8.707  13.577  1.00  0.00    -0.200 F 
ENDBRANCH  52  76
BRANCH  64  87
ATOM     87  C   UNL     1       2.345 -15.460  13.344  1.00  0.00     0.064 A 
ATOM     88  C   UNL     1       1.800 -14.711  14.398  1.00  0.00     0.173 A 
ATOM     89  C   UNL     1       2.570 -16.828  13.561  1.00  0.00     0.173 A 
ATOM     90  F   UNL     1       1.575 -13.397  14.248  1.00  0.00    -0.203 F 
ATOM     91  C   UNL     1       1.538 -15.299  15.633  1.00  0.00     0.198 A 
ATOM     92  C   UNL     1       2.269 -17.421  14.784  1.00  0.00     0.198 A 
ATOM     93  F   UNL     1       3.078 -17.595  12.584  1.00  0.00    -0.203 F 
ATOM     94  F   UNL     1       1.086 -14.548  16.647  1.00  0.00    -0.200 F 
ATOM     95  C   UNL     1       1.768 -16.653  15.824  1.00  0.00     0.200 A 
ATOM     96  F   UNL     1       2.474 -18.733  14.960  1.00  0.00    -0.200 F 
ATOM     97  F   UNL     1       1.515 -17.217  17.013  1.00  0.00    -0.200 F 
ENDBRANCH  64  87
ENDBRANCH  38  39
ENDBRANCH  30  33
ENDBRANCH  28  29
ENDBRANCH  27  28
ENDBRANCH  26  27
ENDBRANCH   1  26
TORSDOF 16
