REMARK SMILES CCOc1c(Br)cc(CNc2cccc(C(=O)NCCCCNC(=O)c3ccc(-c4c5nc(c(-c6c(F)c(F)c(F)c(F)c6F)c6ccc([nH]6)c(-c6c(F)c(F)c(F)c(F)c6F)c6nc(c(-c7c(F)c(F)c(F)c(F)c7F)c7ccc4[nH]7)C=C6)C=C5)cc3)c2C)cc1OC
REMARK SMILES IDX 19 1 18 2 16 3 17 4 15 6 11 7 12 8 89 9 13 10 90 11 14 12
REMARK SMILES IDX 10 13 9 15 8 16 4 17 5 18 92 19 6 20 7 21 91 22 3 23 2 24
REMARK SMILES IDX 1 25 93 26 94 27 20 28 21 29 22 30 23 31 24 32 25 34 26 35
REMARK SMILES IDX 27 36 88 37 28 38 87 39 29 40 30 41 31 42 81 43 32 44 86 45
REMARK SMILES IDX 80 46 82 47 33 48 85 49 79 50 78 51 34 53 66 54 46 55 65 56
REMARK SMILES IDX 47 57 50 58 64 59 83 60 48 61 49 62 63 64 84 65 51 66 35 67
REMARK SMILES IDX 36 68 44 69 37 70 38 71 42 72 45 73 39 74 40 75 43 76 41 77
REMARK SMILES IDX 67 78 68 79 76 80 69 81 70 82 74 83 77 84 71 85 72 86 75 87
REMARK SMILES IDX 73 88 52 89 53 90 61 91 54 92 55 93 59 94 62 95 56 96 57 97
REMARK SMILES IDX 60 98 58 99
REMARK H PARENT 18 5 10 14 23 33 82 52 50 63
REMARK Flexibility Score: inf
ROOT
ATOM      1  C   UNL     1      11.555   2.593  -0.140  1.00  0.00     0.116 C 
ENDROOT
BRANCH   1   2
ATOM      2  N   UNL     1      10.250   2.630  -0.792  1.00  0.00    -0.352 N 
ATOM      3  C   UNL     1       9.104   1.865  -0.695  1.00  0.00     0.251 C 
ATOM      4  O   UNL     1       8.117   2.268  -1.309  1.00  0.00    -0.269 OA
ATOM      5  H   UNL     1      10.168   3.362  -1.445  1.00  0.00     0.163 HD
BRANCH   3   6
ATOM      6  C   UNL     1       9.018   0.603   0.108  1.00  0.00     0.044 A 
ATOM      7  C   UNL     1       8.162  -1.667   0.517  1.00  0.00     0.038 A 
ATOM      8  C   UNL     1       8.941  -1.706   1.683  1.00  0.00     0.026 A 
ATOM      9  C   UNL     1       8.253  -0.522  -0.323  1.00  0.00    -0.015 A 
ATOM     10  C   UNL     1       9.648  -0.596   2.121  1.00  0.00     0.003 A 
ATOM     11  C   UNL     1       7.450  -0.483  -1.604  1.00  0.00     0.047 C 
ATOM     12  C   UNL     1       9.620   0.572   1.372  1.00  0.00     0.014 A 
BRANCH   7  13
ATOM     13  N   UNL     1       7.270  -2.702   0.249  1.00  0.00    -0.381 N 
ATOM     14  H   UNL     1       7.139  -2.989  -0.683  1.00  0.00     0.160 HD
BRANCH  13  15
ATOM     15  C   UNL     1       6.524  -3.375   1.304  1.00  0.00     0.149 C 
BRANCH  15  16
ATOM     16  C   UNL     1       5.067  -2.978   1.247  1.00  0.00    -0.024 A 
ATOM     17  C   UNL     1       2.336  -2.243   1.147  1.00  0.00     0.175 A 
ATOM     18  C   UNL     1       3.322  -1.309   1.511  1.00  0.00     0.064 A 
ATOM     19  C   UNL     1       2.712  -3.574   0.911  1.00  0.00     0.162 A 
ATOM     20  Br  UNL     1       2.893   0.470   2.028  1.00  0.00    -0.047 Br
ATOM     21  C   UNL     1       4.674  -1.667   1.539  1.00  0.00     0.025 A 
ATOM     22  C   UNL     1       4.074  -3.919   0.947  1.00  0.00     0.056 A 
BRANCH  17  23
ATOM     23  O   UNL     1       1.029  -1.828   1.095  1.00  0.00    -0.489 OA
BRANCH  23  24
ATOM     24  C   UNL     1       0.575  -1.616  -0.251  1.00  0.00     0.226 C 
ATOM     25  C   UNL     1       0.521  -0.136  -0.582  1.00  0.00     0.049 C 
ENDBRANCH  23  24
ENDBRANCH  17  23
BRANCH  19  26
ATOM     26  O   UNL     1       1.916  -4.647   0.614  1.00  0.00    -0.493 OA
ATOM     27  C   UNL     1       0.551  -4.614   1.006  1.00  0.00     0.278 C 
ENDBRANCH  19  26
ENDBRANCH  15  16
ENDBRANCH  13  15
ENDBRANCH   7  13
ENDBRANCH   3   6
ENDBRANCH   1   2
BRANCH   1  28
ATOM     28  C   UNL     1      12.742   2.326  -1.068  1.00  0.00     0.023 C 
BRANCH  28  29
ATOM     29  C   UNL     1      12.955   3.315  -2.209  1.00  0.00     0.023 C 
BRANCH  29  30
ATOM     30  C   UNL     1      13.243   4.754  -1.796  1.00  0.00     0.116 C 
BRANCH  30  31
ATOM     31  N   UNL     1      14.626   5.041  -1.433  1.00  0.00    -0.352 N 
ATOM     32  C   UNL     1      15.188   6.225  -0.967  1.00  0.00     0.251 C 
ATOM     33  H   UNL     1      15.252   4.287  -1.533  1.00  0.00     0.163 HD
ATOM     34  O   UNL     1      16.384   6.300  -0.764  1.00  0.00    -0.269 OA
BRANCH  32  35
ATOM     35  C   UNL     1      14.298   7.355  -0.585  1.00  0.00     0.039 A 
ATOM     36  C   UNL     1      14.523   7.981   0.649  1.00  0.00     0.014 A 
ATOM     37  C   UNL     1      13.148   7.644  -1.310  1.00  0.00     0.014 A 
ATOM     38  C   UNL     1      13.475   8.657   1.271  1.00  0.00     0.010 A 
ATOM     39  C   UNL     1      12.075   8.211  -0.653  1.00  0.00     0.010 A 
ATOM     40  C   UNL     1      12.219   8.643   0.668  1.00  0.00    -0.014 A 
BRANCH  40  41
ATOM     41  C   UNL     1      10.982   8.909   1.392  1.00  0.00     0.031 A 
ATOM     42  C   UNL     1      10.210  10.143   1.153  1.00  0.00     0.074 A 
ATOM     43  C   UNL     1      10.484   7.939   2.192  1.00  0.00     0.049 A 
ATOM     44  N   UNL     1       9.342  10.630   1.974  1.00  0.00    -0.248 NA
ATOM     45  C   UNL     1      10.392  10.957  -0.041  1.00  0.00     0.031 C 
ATOM     46  C   UNL     1       9.141   7.852   2.761  1.00  0.00     0.029 A 
ATOM     47  N   UNL     1      11.195   6.901   2.820  1.00  0.00    -0.354 N 
ATOM     48  C   UNL     1       8.663  11.635   1.323  1.00  0.00     0.074 A 
ATOM     49  C   UNL     1       9.399  11.842   0.097  1.00  0.00     0.031 C 
ATOM     50  C   UNL     1       9.181   7.054   3.840  1.00  0.00     0.029 A 
ATOM     51  C   UNL     1      10.578   6.737   4.081  1.00  0.00     0.049 A 
ATOM     52  H   UNL     1      11.960   6.397   2.459  1.00  0.00     0.167 HD
ATOM     53  C   UNL     1       7.478  12.078   1.839  1.00  0.00     0.037 A 
ATOM     54  C   UNL     1      11.246   7.004   5.240  1.00  0.00     0.037 A 
ATOM     55  C   UNL     1       7.197  11.444   3.127  1.00  0.00     0.049 A 
ATOM     56  C   UNL     1      10.584   8.050   6.104  1.00  0.00     0.074 A 
ATOM     57  C   UNL     1       6.393  10.376   3.493  1.00  0.00     0.029 A 
ATOM     58  N   UNL     1       8.025  11.701   4.215  1.00  0.00    -0.354 N 
ATOM     59  N   UNL     1       9.737   8.934   5.658  1.00  0.00    -0.248 NA
ATOM     60  C   UNL     1      10.860   8.204   7.529  1.00  0.00     0.031 C 
ATOM     61  C   UNL     1       6.771   9.963   4.794  1.00  0.00     0.029 A 
ATOM     62  C   UNL     1       7.795  10.789   5.226  1.00  0.00     0.049 A 
ATOM     63  H   UNL     1       8.683  12.432   4.259  1.00  0.00     0.167 HD
ATOM     64  C   UNL     1       9.379   9.777   6.679  1.00  0.00     0.074 A 
ATOM     65  C   UNL     1      10.088   9.262   7.835  1.00  0.00     0.031 C 
ATOM     66  C   UNL     1       8.544  10.840   6.473  1.00  0.00     0.037 A 
BRANCH  53  67
ATOM     67  C   UNL     1       6.436  12.841   1.040  1.00  0.00     0.064 A 
ATOM     68  C   UNL     1       5.059  12.714   1.335  1.00  0.00     0.173 A 
ATOM     69  C   UNL     1       6.716  13.656  -0.072  1.00  0.00     0.173 A 
ATOM     70  F   UNL     1       4.631  12.086   2.437  1.00  0.00    -0.203 F 
ATOM     71  C   UNL     1       4.058  13.231   0.506  1.00  0.00     0.198 A 
ATOM     72  C   UNL     1       5.718  14.126  -0.934  1.00  0.00     0.198 A 
ATOM     73  F   UNL     1       7.957  14.084  -0.325  1.00  0.00    -0.203 F 
ATOM     74  F   UNL     1       2.769  13.062   0.834  1.00  0.00    -0.200 F 
ATOM     75  C   UNL     1       4.387  13.898  -0.654  1.00  0.00     0.200 A 
ATOM     76  F   UNL     1       6.061  14.806  -2.038  1.00  0.00    -0.200 F 
ATOM     77  F   UNL     1       3.431  14.350  -1.476  1.00  0.00    -0.200 F 
ENDBRANCH  53  67
BRANCH  54  78
ATOM     78  C   UNL     1      12.717   6.807   5.138  1.00  0.00     0.064 A 
ATOM     79  C   UNL     1      13.208   5.524   4.826  1.00  0.00     0.173 A 
ATOM     80  C   UNL     1      13.594   7.888   4.988  1.00  0.00     0.173 A 
ATOM     81  F   UNL     1      12.407   4.452   4.947  1.00  0.00    -0.203 F 
ATOM     82  C   UNL     1      14.478   5.345   4.283  1.00  0.00     0.198 A 
ATOM     83  C   UNL     1      14.873   7.702   4.458  1.00  0.00     0.198 A 
ATOM     84  F   UNL     1      13.183   9.137   5.247  1.00  0.00    -0.203 F 
ATOM     85  F   UNL     1      14.871   4.124   3.892  1.00  0.00    -0.200 F 
ATOM     86  C   UNL     1      15.300   6.439   4.077  1.00  0.00     0.200 A 
ATOM     87  F   UNL     1      15.657   8.764   4.225  1.00  0.00    -0.200 F 
ATOM     88  F   UNL     1      16.486   6.283   3.470  1.00  0.00    -0.200 F 
ENDBRANCH  54  78
BRANCH  66  89
ATOM     89  C   UNL     1       8.276  11.970   7.441  1.00  0.00     0.064 A 
ATOM     90  C   UNL     1       9.171  12.383   8.443  1.00  0.00     0.173 A 
ATOM     91  C   UNL     1       7.127  12.788   7.287  1.00  0.00     0.173 A 
ATOM     92  F   UNL     1      10.356  11.783   8.611  1.00  0.00    -0.203 F 
ATOM     93  C   UNL     1       8.906  13.478   9.271  1.00  0.00     0.198 A 
ATOM     94  C   UNL     1       6.897  13.916   8.073  1.00  0.00     0.198 A 
ATOM     95  F   UNL     1       6.205  12.534   6.346  1.00  0.00    -0.203 F 
ATOM     96  F   UNL     1       9.773  13.798  10.242  1.00  0.00    -0.200 F 
ATOM     97  C   UNL     1       7.777  14.251   9.079  1.00  0.00     0.200 A 
ATOM     98  F   UNL     1       5.827  14.688   7.833  1.00  0.00    -0.200 F 
ATOM     99  F   UNL     1       7.553  15.328   9.843  1.00  0.00    -0.200 F 
ENDBRANCH  66  89
ENDBRANCH  40  41
ENDBRANCH  32  35
ENDBRANCH  30  31
ENDBRANCH  29  30
ENDBRANCH  28  29
ENDBRANCH   1  28
TORSDOF 17
