REMARK SMILES C=CCN1C(=O)/C(=C/c2ccc(OCC(=O)NCCCCNC(=O)c3ccc(-c4c5nc(c(-c6c(F)c(F)c(F)c(F)c6F)c6ccc([nH]6)c(-c6c(F)c(F)c(F)c(F)c6F)c6nc(c(-c7c(F)c(F)c(F)c(F)c7F)c7ccc4[nH]7)C=C6)C=C5)cc3)c(OC)c2)C(=O)[NH+]=C1S
REMARK SMILES IDX 18 1 17 2 15 3 16 4 14 6 13 7 12 8 9 9 10 10 91 11 11 12
REMARK SMILES IDX 88 13 8 14 4 15 5 16 95 17 6 18 7 19 94 20 92 21 93 23 3 24
REMARK SMILES IDX 2 25 1 26 96 27 89 29 90 30 19 31 20 32 21 33 22 34 23 35
REMARK SMILES IDX 24 37 25 38 26 39 87 40 27 41 86 42 28 43 29 44 30 45 80 46
REMARK SMILES IDX 31 47 85 48 79 49 81 50 32 51 84 52 78 53 77 54 33 56 65 57
REMARK SMILES IDX 45 58 64 59 46 60 49 61 63 62 82 63 47 64 48 65 62 67 83 68
REMARK SMILES IDX 50 69 34 70 35 71 43 72 36 73 37 74 41 75 44 76 38 77 39 78
REMARK SMILES IDX 42 79 40 80 66 81 67 82 75 83 68 84 69 85 73 86 76 87 70 88
REMARK SMILES IDX 71 89 74 90 72 91 51 92 52 93 60 94 53 95 54 96 58 97 61 98
REMARK SMILES IDX 55 99 56 100 59 101 57 102
REMARK H PARENT 17 5 94 22 96 28 22 36 81 55 49 66
REMARK Flexibility Score: inf
ROOT
ATOM      1  C   UNL     1      -5.131  10.821   1.636  1.00  0.00     0.116 C 
ENDROOT
BRANCH   1   2
ATOM      2  N   UNL     1      -4.822  10.679   0.228  1.00  0.00    -0.353 N 
ATOM      3  C   UNL     1      -5.632  10.240  -0.782  1.00  0.00     0.257 C 
ATOM      4  O   UNL     1      -5.213  10.334  -1.938  1.00  0.00    -0.271 OA
ATOM      5  H   UNL     1      -3.909  10.932  -0.036  1.00  0.00     0.163 HD
BRANCH   3   6
ATOM      6  C   UNL     1      -7.049   9.737  -0.456  1.00  0.00     0.329 C 
BRANCH   6   7
ATOM      7  O   UNL     1      -7.200   8.696   0.495  1.00  0.00    -0.480 OA
BRANCH   7   8
ATOM      8  C   UNL     1      -6.588   7.490   0.273  1.00  0.00     0.161 A 
ATOM      9  C   UNL     1      -5.272   5.002   0.224  1.00  0.00    -0.021 A 
ATOM     10  C   UNL     1      -5.748   5.511   1.430  1.00  0.00     0.012 A 
ATOM     11  C   UNL     1      -5.512   5.709  -0.962  1.00  0.00     0.058 A 
ATOM     12  C   UNL     1      -6.405   6.745   1.448  1.00  0.00     0.051 A 
ATOM     13  C   UNL     1      -6.161   6.952  -0.949  1.00  0.00     0.161 A 
BRANCH   9  14
ATOM     14  C   UNL     1      -4.554   3.723   0.175  1.00  0.00     0.032 C 
ATOM     15  N   UNL     1      -1.476   2.042  -0.846  1.00  0.00    -0.183 N 
ATOM     16  C   UNL     1      -2.748   2.173  -0.297  1.00  0.00     0.349 C 
ATOM     17  C   UNL     1      -0.823   3.183  -1.258  1.00  0.00     0.318 C 
ATOM     18  O   UNL     1      -3.482   1.216  -0.050  1.00  0.00    -0.240 OA
ATOM     19  C   UNL     1      -3.244   3.558  -0.110  1.00  0.00     0.154 C 
ATOM     20  N   UNL     1      -1.185   4.391  -1.014  1.00  0.00    -0.200 N 
ATOM     21  C   UNL     1      -2.298   4.677  -0.289  1.00  0.00     0.347 C 
ATOM     22  H   UNL     1      -0.640   5.132  -1.363  1.00  0.00     0.316 HD
ATOM     23  O   UNL     1      -2.497   5.794   0.171  1.00  0.00    -0.241 OA
BRANCH  15  24
ATOM     24  C   UNL     1      -1.097   0.654  -1.177  1.00  0.00     0.275 C 
BRANCH  24  25
ATOM     25  C   UNL     1       0.340   0.290  -0.944  1.00  0.00     0.011 C 
ATOM     26  C   UNL     1       0.875  -0.158   0.199  1.00  0.00     0.008 C 
ENDBRANCH  24  25
ENDBRANCH  15  24
BRANCH  17  27
ATOM     27  S   UNL     1       0.626   3.092  -2.229  1.00  0.00    -0.055 SA
ATOM     28  H   UNL     1       0.946   1.788  -2.445  1.00  0.00     0.116 HD
ENDBRANCH  17  27
ENDBRANCH   9  14
BRANCH  13  29
ATOM     29  O   UNL     1      -6.470   7.614  -2.107  1.00  0.00    -0.493 OA
ATOM     30  C   UNL     1      -5.560   7.446  -3.191  1.00  0.00     0.278 C 
ENDBRANCH  13  29
ENDBRANCH   7   8
ENDBRANCH   6   7
ENDBRANCH   3   6
ENDBRANCH   1   2
BRANCH   1  31
ATOM     31  C   UNL     1      -4.272   9.919   2.518  1.00  0.00     0.023 C 
BRANCH  31  32
ATOM     32  C   UNL     1      -2.763  10.146   2.413  1.00  0.00     0.023 C 
BRANCH  32  33
ATOM     33  C   UNL     1      -2.294  11.582   2.619  1.00  0.00     0.116 C 
BRANCH  33  34
ATOM     34  N   UNL     1      -2.630  12.111   3.932  1.00  0.00    -0.352 N 
ATOM     35  C   UNL     1      -1.829  12.750   4.848  1.00  0.00     0.251 C 
ATOM     36  H   UNL     1      -3.569  11.995   4.203  1.00  0.00     0.163 HD
ATOM     37  O   UNL     1      -2.262  13.011   5.966  1.00  0.00    -0.269 OA
BRANCH  35  38
ATOM     38  C   UNL     1      -0.432  13.094   4.504  1.00  0.00     0.039 A 
ATOM     39  C   UNL     1       0.575  12.827   5.436  1.00  0.00     0.014 A 
ATOM     40  C   UNL     1      -0.110  13.671   3.273  1.00  0.00     0.014 A 
ATOM     41  C   UNL     1       1.910  13.070   5.104  1.00  0.00     0.010 A 
ATOM     42  C   UNL     1       1.226  13.838   2.913  1.00  0.00     0.010 A 
ATOM     43  C   UNL     1       2.251  13.537   3.824  1.00  0.00    -0.014 A 
BRANCH  43  44
ATOM     44  C   UNL     1       3.671  13.704   3.417  1.00  0.00     0.031 A 
ATOM     45  C   UNL     1       4.205  15.063   3.057  1.00  0.00     0.074 A 
ATOM     46  C   UNL     1       4.466  12.620   3.311  1.00  0.00     0.049 A 
ATOM     47  N   UNL     1       5.394  15.397   2.619  1.00  0.00    -0.248 NA
ATOM     48  C   UNL     1       3.273  16.194   3.181  1.00  0.00     0.031 C 
ATOM     49  C   UNL     1       4.056  11.242   3.587  1.00  0.00     0.029 A 
ATOM     50  N   UNL     1       5.780  12.505   2.930  1.00  0.00    -0.354 N 
ATOM     51  C   UNL     1       5.346  16.768   2.404  1.00  0.00     0.074 A 
ATOM     52  C   UNL     1       3.998  17.196   2.706  1.00  0.00     0.031 C 
ATOM     53  C   UNL     1       5.102  10.425   3.390  1.00  0.00     0.029 A 
ATOM     54  C   UNL     1       6.243  11.211   2.931  1.00  0.00     0.049 A 
ATOM     55  H   UNL     1       6.339  13.276   2.681  1.00  0.00     0.167 HD
ATOM     56  C   UNL     1       6.342  17.598   2.011  1.00  0.00     0.037 A 
ATOM     57  C   UNL     1       7.446  10.712   2.588  1.00  0.00     0.037 A 
ATOM     58  C   UNL     1       7.688  17.171   1.726  1.00  0.00     0.049 A 
ATOM     59  C   UNL     1       8.530  11.654   2.134  1.00  0.00     0.074 A 
ATOM     60  C   UNL     1       8.783  17.943   1.381  1.00  0.00     0.029 A 
ATOM     61  N   UNL     1       8.120  15.852   1.745  1.00  0.00    -0.354 N 
ATOM     62  N   UNL     1       8.494  12.958   2.006  1.00  0.00    -0.248 NA
ATOM     63  C   UNL     1       9.824  11.053   1.781  1.00  0.00     0.031 C 
ATOM     64  C   UNL     1       9.861  17.089   1.130  1.00  0.00     0.029 A 
ATOM     65  C   UNL     1       9.458  15.788   1.387  1.00  0.00     0.049 A 
ATOM     66  H   UNL     1       7.560  15.077   1.979  1.00  0.00     0.167 HD
ATOM     67  C   UNL     1       9.764  13.337   1.591  1.00  0.00     0.074 A 
ATOM     68  C   UNL     1      10.552  12.125   1.504  1.00  0.00     0.031 C 
ATOM     69  C   UNL     1      10.235  14.577   1.310  1.00  0.00     0.037 A 
BRANCH  56  70
ATOM     70  C   UNL     1       6.015  19.057   1.859  1.00  0.00     0.064 A 
ATOM     71  C   UNL     1       5.720  19.867   2.967  1.00  0.00     0.173 A 
ATOM     72  C   UNL     1       6.040  19.664   0.594  1.00  0.00     0.173 A 
ATOM     73  F   UNL     1       5.674  19.337   4.199  1.00  0.00    -0.203 F 
ATOM     74  C   UNL     1       5.430  21.220   2.810  1.00  0.00     0.198 A 
ATOM     75  C   UNL     1       5.785  21.025   0.445  1.00  0.00     0.198 A 
ATOM     76  F   UNL     1       6.325  18.940  -0.499  1.00  0.00    -0.203 F 
ATOM     77  F   UNL     1       5.098  21.961   3.876  1.00  0.00    -0.200 F 
ATOM     78  C   UNL     1       5.471  21.799   1.551  1.00  0.00     0.200 A 
ATOM     79  F   UNL     1       5.842  21.586  -0.771  1.00  0.00    -0.200 F 
ATOM     80  F   UNL     1       5.202  23.104   1.402  1.00  0.00    -0.200 F 
ENDBRANCH  56  70
BRANCH  57  81
ATOM     81  C   UNL     1       7.698   9.249   2.675  1.00  0.00     0.064 A 
ATOM     82  C   UNL     1       8.595   8.726   3.618  1.00  0.00     0.173 A 
ATOM     83  C   UNL     1       7.059   8.345   1.814  1.00  0.00     0.173 A 
ATOM     84  F   UNL     1       9.248   9.551   4.450  1.00  0.00    -0.203 F 
ATOM     85  C   UNL     1       8.861   7.360   3.680  1.00  0.00     0.198 A 
ATOM     86  C   UNL     1       7.300   6.975   1.899  1.00  0.00     0.198 A 
ATOM     87  F   UNL     1       6.189   8.791   0.896  1.00  0.00    -0.203 F 
ATOM     88  F   UNL     1       9.762   6.894   4.555  1.00  0.00    -0.200 F 
ATOM     89  C   UNL     1       8.209   6.484   2.825  1.00  0.00     0.200 A 
ATOM     90  F   UNL     1       6.656   6.131   1.081  1.00  0.00    -0.200 F 
ATOM     91  F   UNL     1       8.462   5.170   2.887  1.00  0.00    -0.200 F 
ENDBRANCH  57  81
BRANCH  69  92
ATOM     92  C   UNL     1      11.682  14.696   0.920  1.00  0.00     0.064 A 
ATOM     93  C   UNL     1      12.161  14.219  -0.309  1.00  0.00     0.173 A 
ATOM     94  C   UNL     1      12.594  15.335   1.776  1.00  0.00     0.173 A 
ATOM     95  F   UNL     1      11.334  13.588  -1.157  1.00  0.00    -0.203 F 
ATOM     96  C   UNL     1      13.503  14.351  -0.654  1.00  0.00     0.198 A 
ATOM     97  C   UNL     1      13.928  15.497   1.411  1.00  0.00     0.198 A 
ATOM     98  F   UNL     1      12.188  15.816   2.960  1.00  0.00    -0.203 F 
ATOM     99  F   UNL     1      13.949  13.840  -1.810  1.00  0.00    -0.200 F 
ATOM    100  C   UNL     1      14.383  14.997   0.201  1.00  0.00     0.200 A 
ATOM    101  F   UNL     1      14.772  16.137   2.232  1.00  0.00    -0.200 F 
ATOM    102  F   UNL     1      15.673  15.132  -0.138  1.00  0.00    -0.200 F 
ENDBRANCH  69  92
ENDBRANCH  43  44
ENDBRANCH  35  38
ENDBRANCH  33  34
ENDBRANCH  32  33
ENDBRANCH  31  32
ENDBRANCH   1  31
TORSDOF 18
