REMARK SMILES C[C@H](Sc1ccc(N)c(Cl)c1)C(=O)NCCCCNC(=O)c1ccc(-c2c3nc(c(-c4c(F)c(F)c(F)c(F)c4F)c4ccc([nH]4)c(-c4c(F)c(F)c(F)c(F)c4F)c4nc(c(-c5c(F)c(F)c(F)c(F)c5F)c5ccc2[nH]5)C=C4)C=C3)cc1
REMARK SMILES IDX 16 1 15 2 14 3 12 4 13 5 2 7 1 8 3 9 4 10 5 11 11 12 6 13
REMARK SMILES IDX 9 14 7 15 10 16 8 17 17 20 18 21 19 22 20 23 21 25 22 26
REMARK SMILES IDX 23 27 84 28 24 29 83 30 25 31 26 32 27 33 77 34 28 35 82 36
REMARK SMILES IDX 76 37 78 38 29 39 81 40 75 41 74 42 30 44 62 45 42 46 61 47
REMARK SMILES IDX 43 48 46 49 60 50 79 51 44 52 45 53 59 55 80 56 47 57 31 58
REMARK SMILES IDX 32 59 40 60 33 61 34 62 38 63 41 64 35 65 36 66 39 67 37 68
REMARK SMILES IDX 63 69 64 70 72 71 65 72 66 73 70 74 73 75 67 76 68 77 71 78
REMARK SMILES IDX 69 79 48 80 49 81 57 82 50 83 51 84 55 85 58 86 52 87 53 88
REMARK SMILES IDX 56 89 54 90
REMARK H PARENT 14 6 8 18 8 19 19 24 78 43 46 54
REMARK Flexibility Score: inf
ROOT
ATOM      1  C   UNL     1      -2.394   1.626   0.991  1.00  0.00     0.023 C 
ENDROOT
BRANCH   1   2
ATOM      2  C   UNL     1      -2.041   0.301   1.663  1.00  0.00     0.116 C 
BRANCH   2   3
ATOM      3  N   UNL     1      -1.761  -0.717   0.675  1.00  0.00    -0.355 N 
ATOM      4  C   UNL     1      -0.609  -1.260   0.208  1.00  0.00     0.233 C 
ATOM      5  O   UNL     1      -0.737  -2.012  -0.768  1.00  0.00    -0.274 OA
ATOM      6  H   UNL     1      -2.569  -1.091   0.256  1.00  0.00     0.163 HD
BRANCH   4   7
ATOM      7  C   UNL     1       0.774  -1.045   0.829  1.00  0.00     0.137 C 
ATOM      8  C   UNL     1       0.917  -1.358   2.309  1.00  0.00     0.030 C 
BRANCH   7   9
ATOM      9  S   UNL     1       1.683   0.402   0.139  1.00  0.00    -0.113 SA
BRANCH   9  10
ATOM     10  C   UNL     1       1.128   1.859   0.989  1.00  0.00     0.010 A 
ATOM     11  C   UNL     1       1.096   1.988   2.378  1.00  0.00     0.017 A 
ATOM     12  C   UNL     1       0.815   2.983   0.213  1.00  0.00     0.037 A 
ATOM     13  C   UNL     1       0.622   3.162   2.980  1.00  0.00     0.028 A 
ATOM     14  C   UNL     1       0.370   4.166   0.816  1.00  0.00     0.065 A 
ATOM     15  C   UNL     1       0.198   4.246   2.208  1.00  0.00     0.050 A 
ATOM     16  Cl  UNL     1      -0.049   5.500  -0.203  1.00  0.00    -0.082 Cl
BRANCH  15  17
ATOM     17  N   UNL     1      -0.287   5.386   2.837  1.00  0.00    -0.398 N 
ATOM     18  H   UNL     1      -0.393   5.402   3.815  1.00  0.00     0.156 HD
ATOM     19  H   UNL     1      -0.525   6.179   2.304  1.00  0.00     0.156 HD
ENDBRANCH  15  17
ENDBRANCH   9  10
ENDBRANCH   7   9
ENDBRANCH   4   7
ENDBRANCH   2   3
ENDBRANCH   1   2
BRANCH   1  20
ATOM     20  C   UNL     1      -3.776   2.177   1.316  1.00  0.00     0.023 C 
BRANCH  20  21
ATOM     21  C   UNL     1      -4.074   2.369   2.797  1.00  0.00     0.116 C 
BRANCH  21  22
ATOM     22  N   UNL     1      -3.184   3.299   3.481  1.00  0.00    -0.352 N 
ATOM     23  C   UNL     1      -3.503   4.275   4.400  1.00  0.00     0.251 C 
ATOM     24  H   UNL     1      -2.229   3.219   3.257  1.00  0.00     0.163 HD
ATOM     25  O   UNL     1      -2.632   5.017   4.848  1.00  0.00    -0.269 OA
BRANCH  23  26
ATOM     26  C   UNL     1      -4.924   4.460   4.777  1.00  0.00     0.039 A 
ATOM     27  C   UNL     1      -5.501   5.725   4.644  1.00  0.00     0.014 A 
ATOM     28  C   UNL     1      -5.713   3.360   5.122  1.00  0.00     0.014 A 
ATOM     29  C   UNL     1      -6.890   5.863   4.734  1.00  0.00     0.010 A 
ATOM     30  C   UNL     1      -7.098   3.482   5.115  1.00  0.00     0.010 A 
ATOM     31  C   UNL     1      -7.705   4.731   4.902  1.00  0.00    -0.014 A 
BRANCH  31  32
ATOM     32  C   UNL     1      -9.189   4.812   4.840  1.00  0.00     0.031 A 
ATOM     33  C   UNL     1     -10.011   4.375   6.021  1.00  0.00     0.074 A 
ATOM     34  C   UNL     1      -9.801   5.165   3.692  1.00  0.00     0.049 A 
ATOM     35  N   UNL     1     -11.306   4.208   6.117  1.00  0.00    -0.248 NA
ATOM     36  C   UNL     1      -9.270   4.037   7.246  1.00  0.00     0.031 C 
ATOM     37  C   UNL     1      -9.126   5.548   2.451  1.00  0.00     0.029 A 
ATOM     38  N   UNL     1     -11.137   5.239   3.375  1.00  0.00    -0.354 N 
ATOM     39  C   UNL     1     -11.527   3.711   7.394  1.00  0.00     0.074 A 
ATOM     40  C   UNL     1     -10.231   3.557   8.019  1.00  0.00     0.031 C 
ATOM     41  C   UNL     1     -10.047   5.836   1.516  1.00  0.00     0.029 A 
ATOM     42  C   UNL     1     -11.377   5.622   2.077  1.00  0.00     0.049 A 
ATOM     43  H   UNL     1     -11.854   5.037   4.018  1.00  0.00     0.167 HD
ATOM     44  C   UNL     1     -12.704   3.430   8.002  1.00  0.00     0.037 A 
ATOM     45  C   UNL     1     -12.539   5.775   1.412  1.00  0.00     0.037 A 
ATOM     46  C   UNL     1     -13.995   3.634   7.401  1.00  0.00     0.049 A 
ATOM     47  C   UNL     1     -13.837   5.510   2.126  1.00  0.00     0.074 A 
ATOM     48  C   UNL     1     -15.247   3.444   7.957  1.00  0.00     0.029 A 
ATOM     49  N   UNL     1     -14.196   4.090   6.107  1.00  0.00    -0.354 N 
ATOM     50  N   UNL     1     -14.034   5.087   3.351  1.00  0.00    -0.248 NA
ATOM     51  C   UNL     1     -15.073   5.747   1.367  1.00  0.00     0.031 C 
ATOM     52  C   UNL     1     -16.208   3.763   6.991  1.00  0.00     0.029 A 
ATOM     53  C   UNL     1     -15.553   4.185   5.845  1.00  0.00     0.049 A 
ATOM     54  H   UNL     1     -13.481   4.314   5.468  1.00  0.00     0.167 HD
ATOM     55  C   UNL     1     -15.411   5.031   3.518  1.00  0.00     0.074 A 
ATOM     56  C   UNL     1     -16.002   5.475   2.273  1.00  0.00     0.031 C 
ATOM     57  C   UNL     1     -16.122   4.643   4.604  1.00  0.00     0.037 A 
BRANCH  44  58
ATOM     58  C   UNL     1     -12.644   2.881   9.398  1.00  0.00     0.064 A 
ATOM     59  C   UNL     1     -12.243   3.677  10.482  1.00  0.00     0.173 A 
ATOM     60  C   UNL     1     -12.998   1.549   9.656  1.00  0.00     0.173 A 
ATOM     61  F   UNL     1     -11.879   4.953  10.284  1.00  0.00    -0.203 F 
ATOM     62  C   UNL     1     -12.162   3.148  11.767  1.00  0.00     0.198 A 
ATOM     63  C   UNL     1     -12.946   1.032  10.948  1.00  0.00     0.198 A 
ATOM     64  F   UNL     1     -13.393   0.747   8.656  1.00  0.00    -0.203 F 
ATOM     65  F   UNL     1     -11.718   3.910  12.776  1.00  0.00    -0.200 F 
ATOM     66  C   UNL     1     -12.519   1.829  12.000  1.00  0.00     0.200 A 
ATOM     67  F   UNL     1     -13.300  -0.240  11.175  1.00  0.00    -0.200 F 
ATOM     68  F   UNL     1     -12.440   1.321  13.238  1.00  0.00    -0.200 F 
ENDBRANCH  44  58
BRANCH  45  69
ATOM     69  C   UNL     1     -12.531   6.235  -0.001  1.00  0.00     0.064 A 
ATOM     70  C   UNL     1     -12.950   7.531  -0.334  1.00  0.00     0.173 A 
ATOM     71  C   UNL     1     -12.108   5.398  -1.042  1.00  0.00     0.173 A 
ATOM     72  F   UNL     1     -13.385   8.360   0.626  1.00  0.00    -0.203 F 
ATOM     73  C   UNL     1     -12.961   7.967  -1.657  1.00  0.00     0.198 A 
ATOM     74  C   UNL     1     -12.097   5.843  -2.363  1.00  0.00     0.198 A 
ATOM     75  F   UNL     1     -11.694   4.151  -0.775  1.00  0.00    -0.203 F 
ATOM     76  F   UNL     1     -13.404   9.197  -1.952  1.00  0.00    -0.200 F 
ATOM     77  C   UNL     1     -12.530   7.124  -2.671  1.00  0.00     0.200 A 
ATOM     78  F   UNL     1     -11.669   5.029  -3.339  1.00  0.00    -0.200 F 
ATOM     79  F   UNL     1     -12.537   7.545  -3.943  1.00  0.00    -0.200 F 
ENDBRANCH  45  69
BRANCH  57  80
ATOM     80  C   UNL     1     -17.616   4.713   4.509  1.00  0.00     0.064 A 
ATOM     81  C   UNL     1     -18.349   3.775   3.769  1.00  0.00     0.173 A 
ATOM     82  C   UNL     1     -18.324   5.704   5.206  1.00  0.00     0.173 A 
ATOM     83  F   UNL     1     -17.714   2.819   3.074  1.00  0.00    -0.203 F 
ATOM     84  C   UNL     1     -19.739   3.835   3.716  1.00  0.00     0.198 A 
ATOM     85  C   UNL     1     -19.715   5.747   5.170  1.00  0.00     0.198 A 
ATOM     86  F   UNL     1     -17.667   6.621   5.931  1.00  0.00    -0.203 F 
ATOM     87  F   UNL     1     -20.419   2.950   2.974  1.00  0.00    -0.200 F 
ATOM     88  C   UNL     1     -20.420   4.816   4.422  1.00  0.00     0.200 A 
ATOM     89  F   UNL     1     -20.373   6.689   5.860  1.00  0.00    -0.200 F 
ATOM     90  F   UNL     1     -21.759   4.868   4.376  1.00  0.00    -0.200 F 
ENDBRANCH  57  80
ENDBRANCH  31  32
ENDBRANCH  23  26
ENDBRANCH  21  22
ENDBRANCH  20  21
ENDBRANCH   1  20
TORSDOF 14
