REMARK SMILES CCC[NH2+][C@@]1(C(=O)NCCCCNC(=O)c2ccc(-c3c4nc(c(-c5c(F)c(F)c(F)c(F)c5F)c5ccc([nH]5)c(-c5c(F)c(F)c(F)c(F)c5F)c5nc(c(-c6c(F)c(F)c(F)c(F)c6F)c6ccc3[nH]6)C=C5)C=C4)cc2)CC[C@@H](SC2CCCC2)C1
REMARK SMILES IDX 10 1 9 2 8 3 6 4 7 5 5 7 79 8 88 9 80 10 81 11 4 12 3 15
REMARK SMILES IDX 2 16 1 17 82 18 83 19 84 20 87 21 85 22 86 23 11 24 12 25
REMARK SMILES IDX 13 26 14 27 15 29 16 30 17 31 78 32 18 33 77 34 19 35 20 36
REMARK SMILES IDX 21 37 71 38 22 39 76 40 70 41 72 42 23 43 75 44 69 45 68 46
REMARK SMILES IDX 24 48 56 49 36 50 55 51 37 52 40 53 54 54 73 55 38 56 39 57
REMARK SMILES IDX 53 59 74 60 41 61 25 62 26 63 34 64 27 65 28 66 32 67 35 68
REMARK SMILES IDX 29 69 30 70 33 71 31 72 57 73 58 74 66 75 59 76 60 77 64 78
REMARK SMILES IDX 67 79 61 80 62 81 65 82 63 83 42 84 43 85 51 86 44 87 45 88
REMARK SMILES IDX 49 89 52 90 46 91 47 92 50 93 48 94
REMARK H PARENT 8 6 4 13 4 14 13 28 72 47 40 58
REMARK Flexibility Score: inf
ROOT
ATOM      1  C   UNL     1       3.934  -6.526   2.930  1.00  0.00     0.023 C 
ENDROOT
BRANCH   1   2
ATOM      2  C   UNL     1       2.446  -6.213   2.862  1.00  0.00     0.116 C 
BRANCH   2   3
ATOM      3  N   UNL     1       2.145  -4.819   3.029  1.00  0.00    -0.351 N 
ATOM      4  C   UNL     1       1.526  -3.923   2.220  1.00  0.00     0.281 C 
ATOM      5  O   UNL     1       1.370  -2.799   2.727  1.00  0.00    -0.268 OA
ATOM      6  H   UNL     1       2.443  -4.444   3.889  1.00  0.00     0.163 HD
BRANCH   4   7
ATOM      7  C   UNL     1       0.991  -4.199   0.741  1.00  0.00     0.176 C 
ATOM      8  C   UNL     1      -0.125  -5.266   0.685  1.00  0.00     0.080 C 
ATOM      9  C   UNL     1       2.085  -4.716  -0.222  1.00  0.00     0.093 C 
ATOM     10  C   UNL     1       0.464  -6.563   0.134  1.00  0.00     0.022 C 
ATOM     11  C   UNL     1       1.780  -6.187  -0.537  1.00  0.00     0.054 C 
BRANCH   7  12
ATOM     12  N   UNL     1       0.297  -2.918   0.364  1.00  0.00    -0.334 N 
ATOM     13  H   UNL     1      -0.639  -3.162   0.041  1.00  0.00     0.347 HD
ATOM     14  H   UNL     1       0.338  -2.346   1.208  1.00  0.00     0.347 HD
BRANCH  12  15
ATOM     15  C   UNL     1       0.909  -2.090  -0.668  1.00  0.00     0.261 C 
BRANCH  15  16
ATOM     16  C   UNL     1       0.277  -0.696  -0.746  1.00  0.00     0.058 C 
ATOM     17  C   UNL     1       0.790   0.251   0.327  1.00  0.00     0.010 C 
ENDBRANCH  15  16
ENDBRANCH  12  15
ENDBRANCH   7  12
BRANCH  11  18
ATOM     18  S   UNL     1       2.117  -6.788  -2.236  1.00  0.00    -0.155 SA
BRANCH  18  19
ATOM     19  C   UNL     1       0.784  -6.206  -3.336  1.00  0.00     0.047 C 
ATOM     20  C   UNL     1      -0.666  -6.499  -2.985  1.00  0.00     0.014 C 
ATOM     21  C   UNL     1       0.805  -4.734  -3.740  1.00  0.00     0.014 C 
ATOM     22  C   UNL     1      -1.420  -5.692  -4.030  1.00  0.00     0.001 C 
ATOM     23  C   UNL     1      -0.650  -4.377  -4.066  1.00  0.00     0.001 C 
ENDBRANCH  18  19
ENDBRANCH  11  18
ENDBRANCH   4   7
ENDBRANCH   2   3
ENDBRANCH   1   2
BRANCH   1  24
ATOM     24  C   UNL     1       4.425  -6.928   4.315  1.00  0.00     0.023 C 
BRANCH  24  25
ATOM     25  C   UNL     1       3.677  -8.090   4.961  1.00  0.00     0.116 C 
BRANCH  25  26
ATOM     26  N   UNL     1       3.609  -9.295   4.144  1.00  0.00    -0.352 N 
ATOM     27  C   UNL     1       3.688 -10.606   4.567  1.00  0.00     0.251 C 
ATOM     28  H   UNL     1       3.493  -9.157   3.177  1.00  0.00     0.163 HD
ATOM     29  O   UNL     1       3.670 -11.534   3.774  1.00  0.00    -0.269 OA
BRANCH  27  30
ATOM     30  C   UNL     1       3.852 -10.856   6.012  1.00  0.00     0.039 A 
ATOM     31  C   UNL     1       4.980 -11.551   6.451  1.00  0.00     0.014 A 
ATOM     32  C   UNL     1       2.966 -10.275   6.922  1.00  0.00     0.014 A 
ATOM     33  C   UNL     1       5.272 -11.582   7.815  1.00  0.00     0.010 A 
ATOM     34  C   UNL     1       3.306 -10.234   8.268  1.00  0.00     0.010 A 
ATOM     35  C   UNL     1       4.467 -10.877   8.726  1.00  0.00    -0.014 A 
BRANCH  35  36
ATOM     36  C   UNL     1       4.823 -10.790  10.164  1.00  0.00     0.031 A 
ATOM     37  C   UNL     1       3.895 -11.361  11.198  1.00  0.00     0.074 A 
ATOM     38  C   UNL     1       5.930 -10.121  10.542  1.00  0.00     0.049 A 
ATOM     39  N   UNL     1       3.974 -11.306  12.503  1.00  0.00    -0.248 NA
ATOM     40  C   UNL     1       2.698 -12.055  10.697  1.00  0.00     0.031 C 
ATOM     41  C   UNL     1       6.875  -9.463   9.637  1.00  0.00     0.029 A 
ATOM     42  N   UNL     1       6.442  -9.872  11.791  1.00  0.00    -0.354 N 
ATOM     43  C   UNL     1       2.829 -11.932  12.974  1.00  0.00     0.074 A 
ATOM     44  C   UNL     1       2.044 -12.309  11.819  1.00  0.00     0.031 C 
ATOM     45  C   UNL     1       7.863  -8.909  10.358  1.00  0.00     0.029 A 
ATOM     46  C   UNL     1       7.605  -9.142  11.776  1.00  0.00     0.049 A 
ATOM     47  H   UNL     1       6.015 -10.187  12.620  1.00  0.00     0.167 HD
ATOM     48  C   UNL     1       2.477 -12.196  14.254  1.00  0.00     0.037 A 
ATOM     49  C   UNL     1       8.375  -8.709  12.793  1.00  0.00     0.037 A 
ATOM     50  C   UNL     1       3.281 -11.860  15.398  1.00  0.00     0.049 A 
ATOM     51  C   UNL     1       7.978  -9.043  14.206  1.00  0.00     0.074 A 
ATOM     52  C   UNL     1       3.052 -12.151  16.730  1.00  0.00     0.029 A 
ATOM     53  N   UNL     1       4.477 -11.159  15.340  1.00  0.00    -0.354 N 
ATOM     54  N   UNL     1       6.931  -9.704  14.637  1.00  0.00    -0.248 NA
ATOM     55  C   UNL     1       8.874  -8.577  15.273  1.00  0.00     0.031 C 
ATOM     56  C   UNL     1       4.091 -11.596  17.484  1.00  0.00     0.029 A 
ATOM     57  C   UNL     1       4.990 -10.995  16.616  1.00  0.00     0.049 A 
ATOM     58  H   UNL     1       4.898 -10.827  14.514  1.00  0.00     0.167 HD
ATOM     59  C   UNL     1       7.055  -9.757  16.018  1.00  0.00     0.074 A 
ATOM     60  C   UNL     1       8.287  -9.072  16.353  1.00  0.00     0.031 C 
ATOM     61  C   UNL     1       6.223 -10.320  16.928  1.00  0.00     0.037 A 
BRANCH  48  62
ATOM     62  C   UNL     1       1.169 -12.894  14.481  1.00  0.00     0.064 A 
ATOM     63  C   UNL     1       0.983 -14.239  14.124  1.00  0.00     0.173 A 
ATOM     64  C   UNL     1       0.095 -12.219  15.079  1.00  0.00     0.173 A 
ATOM     65  F   UNL     1       1.974 -14.924  13.535  1.00  0.00    -0.203 F 
ATOM     66  C   UNL     1      -0.240 -14.872  14.329  1.00  0.00     0.198 A 
ATOM     67  C   UNL     1      -1.117 -12.865  15.310  1.00  0.00     0.198 A 
ATOM     68  F   UNL     1       0.221 -10.934  15.441  1.00  0.00    -0.203 F 
ATOM     69  F   UNL     1      -0.410 -16.140  13.931  1.00  0.00    -0.200 F 
ATOM     70  C   UNL     1      -1.286 -14.187  14.927  1.00  0.00     0.200 A 
ATOM     71  F   UNL     1      -2.125 -12.205  15.898  1.00  0.00    -0.200 F 
ATOM     72  F   UNL     1      -2.462 -14.799  15.127  1.00  0.00    -0.200 F 
ENDBRANCH  48  62
BRANCH  49  73
ATOM     73  C   UNL     1       9.618  -7.946  12.513  1.00  0.00     0.064 A 
ATOM     74  C   UNL     1      10.878  -8.523  12.726  1.00  0.00     0.173 A 
ATOM     75  C   UNL     1       9.577  -6.629  12.033  1.00  0.00     0.173 A 
ATOM     76  F   UNL     1      10.968  -9.773  13.203  1.00  0.00    -0.203 F 
ATOM     77  C   UNL     1      12.049  -7.806  12.489  1.00  0.00     0.198 A 
ATOM     78  C   UNL     1      10.749  -5.921  11.772  1.00  0.00     0.198 A 
ATOM     79  F   UNL     1       8.397  -6.033  11.807  1.00  0.00    -0.203 F 
ATOM     80  F   UNL     1      13.239  -8.368  12.743  1.00  0.00    -0.200 F 
ATOM     81  C   UNL     1      11.984  -6.508  12.008  1.00  0.00     0.200 A 
ATOM     82  F   UNL     1      10.682  -4.671  11.295  1.00  0.00    -0.200 F 
ATOM     83  F   UNL     1      13.110  -5.819  11.778  1.00  0.00    -0.200 F 
ENDBRANCH  49  73
BRANCH  61  84
ATOM     84  C   UNL     1       6.633 -10.252  18.369  1.00  0.00     0.064 A 
ATOM     85  C   UNL     1       6.561  -9.055  19.096  1.00  0.00     0.173 A 
ATOM     86  C   UNL     1       7.058 -11.408  19.041  1.00  0.00     0.173 A 
ATOM     87  F   UNL     1       6.175  -7.921  18.493  1.00  0.00    -0.203 F 
ATOM     88  C   UNL     1       6.919  -9.015  20.441  1.00  0.00     0.198 A 
ATOM     89  C   UNL     1       7.389 -11.369  20.391  1.00  0.00     0.198 A 
ATOM     90  F   UNL     1       7.137 -12.578  18.389  1.00  0.00    -0.203 F 
ATOM     91  F   UNL     1       6.882  -7.852  21.107  1.00  0.00    -0.200 F 
ATOM     92  C   UNL     1       7.325 -10.172  21.089  1.00  0.00     0.200 A 
ATOM     93  F   UNL     1       7.770 -12.490  21.019  1.00  0.00    -0.200 F 
ATOM     94  F   UNL     1       7.662 -10.132  22.385  1.00  0.00    -0.200 F 
ENDBRANCH  61  84
ENDBRANCH  35  36
ENDBRANCH  27  30
ENDBRANCH  25  26
ENDBRANCH  24  25
ENDBRANCH   1  24
TORSDOF 16
