REMARK SMILES Cc1cc(Br)c(C)c([C@@H]2[NH2+][C@H](C(=O)NCCCCNC(=O)c3ccc(-c4c5nc(c(-c6c(F)c(F)c(F)c(F)c6F)c6ccc([nH]6)c(-c6c(F)c(F)c(F)c(F)c6F)c6nc(c(-c7c(F)c(F)c(F)c(F)c7F)c7ccc4[nH]7)C=C6)C=C5)cc3)CS2)c1O
REMARK SMILES IDX 16 1 15 2 14 3 12 4 13 5 11 7 9 8 10 9 86 10 85 13 8 14 1 15
REMARK SMILES IDX 2 16 3 17 87 18 4 19 5 20 6 21 7 22 88 23 17 25 18 26 19 27
REMARK SMILES IDX 20 28 21 30 22 31 23 32 84 33 24 34 83 35 25 36 26 37 27 38
REMARK SMILES IDX 77 39 28 40 82 41 76 42 78 43 29 44 81 45 75 46 74 47 30 49
REMARK SMILES IDX 62 50 42 51 61 52 43 53 46 54 60 55 79 56 44 57 45 58 59 60
REMARK SMILES IDX 80 61 47 62 31 63 32 64 40 65 33 66 34 67 38 68 41 69 35 70
REMARK SMILES IDX 36 71 39 72 37 73 63 74 64 75 72 76 65 77 66 78 70 79 73 80
REMARK SMILES IDX 67 81 68 82 71 83 69 84 48 85 49 86 57 87 50 88 51 89 55 90
REMARK SMILES IDX 58 91 52 92 53 93 56 94 54 95
REMARK H PARENT 14 6 10 11 10 12 88 24 19 29 78 48 46 59
REMARK Flexibility Score: inf
ROOT
ATOM      1  C   UNL     1       1.588  -0.247  -4.101  1.00  0.00     0.023 C 
ENDROOT
BRANCH   1   2
ATOM      2  C   UNL     1       1.473   0.964  -3.187  1.00  0.00     0.116 C 
BRANCH   2   3
ATOM      3  N   UNL     1       2.575   1.192  -2.278  1.00  0.00    -0.351 N 
ATOM      4  C   UNL     1       2.914   2.348  -1.621  1.00  0.00     0.279 C 
ATOM      5  O   UNL     1       3.573   2.187  -0.582  1.00  0.00    -0.268 OA
ATOM      6  H   UNL     1       3.158   0.416  -2.109  1.00  0.00     0.163 HD
BRANCH   4   7
ATOM      7  C   UNL     1       2.725   3.780  -2.193  1.00  0.00     0.283 C 
ATOM      8  C   UNL     1       0.462   4.499  -2.520  1.00  0.00     0.278 C 
ATOM      9  N   UNL     1       1.657   3.991  -3.203  1.00  0.00    -0.320 N 
ATOM     10  S   UNL     1       1.014   5.647  -1.256  1.00  0.00    -0.087 SA
ATOM     11  H   UNL     1       1.970   4.669  -3.898  1.00  0.00     0.348 HD
ATOM     12  H   UNL     1       1.443   3.111  -3.674  1.00  0.00     0.348 HD
ATOM     13  C   UNL     1       2.639   4.857  -1.097  1.00  0.00     0.151 C 
BRANCH   8  14
ATOM     14  C   UNL     1      -0.527   3.388  -2.171  1.00  0.00     0.066 A 
ATOM     15  C   UNL     1      -1.100   0.712   0.536  1.00  0.00     0.048 C 
ATOM     16  C   UNL     1      -1.308   1.584  -0.671  1.00  0.00    -0.008 A 
ATOM     17  C   UNL     1      -2.275   1.230  -1.612  1.00  0.00     0.023 A 
ATOM     18  C   UNL     1      -0.489   2.695  -0.935  1.00  0.00     0.128 A 
ATOM     19  C   UNL     1      -2.347   1.890  -2.841  1.00  0.00     0.021 A 
ATOM     20  Br  UNL     1      -3.672   1.274  -4.062  1.00  0.00    -0.051 Br
ATOM     21  C   UNL     1      -1.444   2.923  -3.170  1.00  0.00    -0.023 A 
ATOM     22  C   UNL     1      -1.339   3.363  -4.618  1.00  0.00     0.046 C 
BRANCH  18  23
ATOM     23  O   UNL     1       0.460   3.044  -0.015  1.00  0.00    -0.507 OA
ATOM     24  H   UNL     1       0.501   2.598   0.808  1.00  0.00     0.293 HD
ENDBRANCH  18  23
ENDBRANCH   8  14
ENDBRANCH   4   7
ENDBRANCH   2   3
ENDBRANCH   1   2
BRANCH   1  25
ATOM     25  C   UNL     1       1.422  -1.623  -3.459  1.00  0.00     0.023 C 
BRANCH  25  26
ATOM     26  C   UNL     1       0.203  -1.870  -2.570  1.00  0.00     0.116 C 
BRANCH  26  27
ATOM     27  N   UNL     1      -1.102  -1.618  -3.171  1.00  0.00    -0.352 N 
ATOM     28  C   UNL     1      -2.280  -2.331  -3.059  1.00  0.00     0.251 C 
ATOM     29  H   UNL     1      -1.150  -0.819  -3.744  1.00  0.00     0.163 HD
ATOM     30  O   UNL     1      -3.309  -1.935  -3.588  1.00  0.00    -0.269 OA
BRANCH  28  31
ATOM     31  C   UNL     1      -2.297  -3.645  -2.383  1.00  0.00     0.039 A 
ATOM     32  C   UNL     1      -1.666  -3.848  -1.158  1.00  0.00     0.014 A 
ATOM     33  C   UNL     1      -2.869  -4.721  -3.073  1.00  0.00     0.014 A 
ATOM     34  C   UNL     1      -1.356  -5.145  -0.769  1.00  0.00     0.010 A 
ATOM     35  C   UNL     1      -2.632  -6.022  -2.635  1.00  0.00     0.010 A 
ATOM     36  C   UNL     1      -1.780  -6.237  -1.544  1.00  0.00    -0.014 A 
BRANCH  36  37
ATOM     37  C   UNL     1      -1.205  -7.580  -1.292  1.00  0.00     0.031 A 
ATOM     38  C   UNL     1      -0.254  -8.182  -2.296  1.00  0.00     0.074 A 
ATOM     39  C   UNL     1      -1.467  -8.211  -0.136  1.00  0.00     0.049 A 
ATOM     40  N   UNL     1       0.362  -9.337  -2.265  1.00  0.00    -0.248 NA
ATOM     41  C   UNL     1       0.046  -7.382  -3.497  1.00  0.00     0.031 C 
ATOM     42  C   UNL     1      -2.342  -7.699   0.918  1.00  0.00     0.029 A 
ATOM     43  N   UNL     1      -1.004  -9.402   0.358  1.00  0.00    -0.354 N 
ATOM     44  C   UNL     1       1.095  -9.410  -3.444  1.00  0.00     0.074 A 
ATOM     45  C   UNL     1       0.833  -8.197  -4.184  1.00  0.00     0.031 C 
ATOM     46  C   UNL     1      -2.317  -8.548   1.956  1.00  0.00     0.029 A 
ATOM     47  C   UNL     1      -1.469  -9.687   1.617  1.00  0.00     0.049 A 
ATOM     48  H   UNL     1      -0.398  -9.995  -0.141  1.00  0.00     0.167 HD
ATOM     49  C   UNL     1       1.922 -10.397  -3.863  1.00  0.00     0.037 A 
ATOM     50  C   UNL     1      -1.241 -10.755   2.404  1.00  0.00     0.037 A 
ATOM     51  C   UNL     1       2.204 -11.585  -3.103  1.00  0.00     0.049 A 
ATOM     52  C   UNL     1      -0.343 -11.850   1.904  1.00  0.00     0.074 A 
ATOM     53  C   UNL     1       3.032 -12.644  -3.430  1.00  0.00     0.029 A 
ATOM     54  N   UNL     1       1.669 -11.863  -1.853  1.00  0.00    -0.354 N 
ATOM     55  N   UNL     1       0.324 -11.919   0.777  1.00  0.00    -0.248 NA
ATOM     56  C   UNL     1      -0.173 -13.018   2.777  1.00  0.00     0.031 C 
ATOM     57  C   UNL     1       2.972 -13.579  -2.392  1.00  0.00     0.029 A 
ATOM     58  C   UNL     1       2.139 -13.084  -1.401  1.00  0.00     0.049 A 
ATOM     59  H   UNL     1       1.048 -11.279  -1.361  1.00  0.00     0.167 HD
ATOM     60  C   UNL     1       0.994 -13.133   0.805  1.00  0.00     0.074 A 
ATOM     61  C   UNL     1       0.672 -13.758   2.072  1.00  0.00     0.031 C 
ATOM     62  C   UNL     1       1.798 -13.684  -0.137  1.00  0.00     0.037 A 
BRANCH  49  63
ATOM     63  C   UNL     1       2.577 -10.246  -5.205  1.00  0.00     0.064 A 
ATOM     64  C   UNL     1       3.631  -9.344  -5.414  1.00  0.00     0.173 A 
ATOM     65  C   UNL     1       2.189 -11.060  -6.281  1.00  0.00     0.173 A 
ATOM     66  F   UNL     1       4.030  -8.532  -4.423  1.00  0.00    -0.203 F 
ATOM     67  C   UNL     1       4.265  -9.255  -6.651  1.00  0.00     0.198 A 
ATOM     68  C   UNL     1       2.841 -10.986  -7.509  1.00  0.00     0.198 A 
ATOM     69  F   UNL     1       1.189 -11.942  -6.134  1.00  0.00    -0.203 F 
ATOM     70  F   UNL     1       5.249  -8.365  -6.836  1.00  0.00    -0.200 F 
ATOM     71  C   UNL     1       3.876 -10.082  -7.695  1.00  0.00     0.200 A 
ATOM     72  F   UNL     1       2.471 -11.794  -8.513  1.00  0.00    -0.200 F 
ATOM     73  F   UNL     1       4.497 -10.006  -8.880  1.00  0.00    -0.200 F 
ENDBRANCH  49  63
BRANCH  50  74
ATOM     74  C   UNL     1      -1.872 -10.815   3.746  1.00  0.00     0.064 A 
ATOM     75  C   UNL     1      -1.106 -10.656   4.908  1.00  0.00     0.173 A 
ATOM     76  C   UNL     1      -3.259 -10.967   3.891  1.00  0.00     0.173 A 
ATOM     77  F   UNL     1       0.225 -10.524   4.819  1.00  0.00    -0.203 F 
ATOM     78  C   UNL     1      -1.706 -10.642   6.166  1.00  0.00     0.198 A 
ATOM     79  C   UNL     1      -3.860 -10.927   5.147  1.00  0.00     0.198 A 
ATOM     80  F   UNL     1      -4.035 -11.117   2.807  1.00  0.00    -0.203 F 
ATOM     81  F   UNL     1      -0.950 -10.504   7.264  1.00  0.00    -0.200 F 
ATOM     82  C   UNL     1      -3.082 -10.766   6.283  1.00  0.00     0.200 A 
ATOM     83  F   UNL     1      -5.191 -11.028   5.254  1.00  0.00    -0.200 F 
ATOM     84  F   UNL     1      -3.660 -10.727   7.492  1.00  0.00    -0.200 F 
ENDBRANCH  50  74
BRANCH  62  85
ATOM     85  C   UNL     1       2.387 -15.028   0.166  1.00  0.00     0.064 A 
ATOM     86  C   UNL     1       1.614 -16.194   0.086  1.00  0.00     0.173 A 
ATOM     87  C   UNL     1       3.750 -15.155   0.470  1.00  0.00     0.173 A 
ATOM     88  F   UNL     1       0.304 -16.117  -0.192  1.00  0.00    -0.203 F 
ATOM     89  C   UNL     1       2.183 -17.443   0.313  1.00  0.00     0.198 A 
ATOM     90  C   UNL     1       4.321 -16.408   0.674  1.00  0.00     0.198 A 
ATOM     91  F   UNL     1       4.530 -14.067   0.549  1.00  0.00    -0.203 F 
ATOM     92  F   UNL     1       1.421 -18.544   0.260  1.00  0.00    -0.200 F 
ATOM     93  C   UNL     1       3.537 -17.550   0.599  1.00  0.00     0.200 A 
ATOM     94  F   UNL     1       5.631 -16.511   0.939  1.00  0.00    -0.200 F 
ATOM     95  F   UNL     1       4.086 -18.755   0.805  1.00  0.00    -0.200 F 
ENDBRANCH  62  85
ENDBRANCH  36  37
ENDBRANCH  28  31
ENDBRANCH  26  27
ENDBRANCH  25  26
ENDBRANCH   1  25
TORSDOF 13
