REMARK SMILES C[C@@H](C(=O)NCCCCNC(=O)c1ccc(-c2c3nc(c(-c4c(F)c(F)c(F)c(F)c4F)c4ccc([nH]4)c(-c4c(F)c(F)c(F)c(F)c4F)c4nc(c(-c5c(F)c(F)c(F)c(F)c5F)c5ccc2[nH]5)C=C4)C=C3)cc1)c1ccc(C[SiH](C)C)cc1
REMARK SMILES IDX 7 1 6 2 5 3 3 4 4 5 2 7 1 8 76 9 77 10 85 11 78 12 84 13
REMARK SMILES IDX 79 14 80 15 81 16 82 17 83 18 8 20 9 21 10 22 11 23 12 25
REMARK SMILES IDX 13 26 14 27 75 28 15 29 74 30 16 31 17 32 18 33 68 34 19 35
REMARK SMILES IDX 73 36 67 37 69 38 20 39 72 40 66 41 65 42 21 44 53 45 33 46
REMARK SMILES IDX 52 47 34 48 37 49 51 50 70 51 35 52 36 53 50 55 71 56 38 57
REMARK SMILES IDX 22 58 23 59 31 60 24 61 25 62 29 63 32 64 26 65 27 66 30 67
REMARK SMILES IDX 28 68 54 69 55 70 63 71 56 72 57 73 61 74 64 75 58 76 59 77
REMARK SMILES IDX 62 78 60 79 39 80 40 81 48 82 41 83 42 84 46 85 49 86 43 87
REMARK SMILES IDX 44 88 47 89 45 90
REMARK H PARENT 5 6 81 19 10 24 69 43 37 54
REMARK Flexibility Score: inf
ROOT
ATOM      1  C   UNL     1       4.223  -0.563   1.216  1.00  0.00     0.023 C 
ENDROOT
BRANCH   1   2
ATOM      2  C   UNL     1       3.439  -1.803   0.777  1.00  0.00     0.116 C 
BRANCH   2   3
ATOM      3  N   UNL     1       2.355  -2.072   1.696  1.00  0.00    -0.356 N 
ATOM      4  C   UNL     1       1.033  -1.736   1.617  1.00  0.00     0.227 C 
ATOM      5  O   UNL     1       0.363  -1.935   2.632  1.00  0.00    -0.274 OA
ATOM      6  H   UNL     1       2.609  -2.574   2.504  1.00  0.00     0.163 HD
BRANCH   4   7
ATOM      7  C   UNL     1       0.443  -1.192   0.297  1.00  0.00     0.105 C 
ATOM      8  C   UNL     1       0.978   0.214  -0.007  1.00  0.00     0.023 C 
BRANCH   7   9
ATOM      9  C   UNL     1      -1.089  -1.252   0.291  1.00  0.00    -0.036 A 
ATOM     10  C   UNL     1      -1.887  -0.107   0.170  1.00  0.00     0.005 A 
ATOM     11  C   UNL     1      -1.740  -2.491   0.426  1.00  0.00     0.005 A 
ATOM     12  C   UNL     1      -3.277  -0.188   0.207  1.00  0.00     0.004 A 
ATOM     13  C   UNL     1      -3.136  -2.568   0.509  1.00  0.00     0.004 A 
ATOM     14  C   UNL     1      -3.918  -1.411   0.425  1.00  0.00    -0.051 A 
BRANCH  14  15
ATOM     15  C   UNL     1      -5.418  -1.461   0.591  1.00  0.00     0.021 C 
BRANCH  15  16
ATOM     16  Si  UNL     1      -6.102  -0.701   2.193  1.00  0.00     0.035 Si
ATOM     17  C   UNL     1      -5.542   1.068   2.414  1.00  0.00    -0.013 C 
ATOM     18  C   UNL     1      -7.968  -0.749   2.154  1.00  0.00    -0.013 C 
ATOM     19  H   UNL     1      -5.604  -1.462   3.283  1.00  0.00     0.014 H 
ENDBRANCH  15  16
ENDBRANCH  14  15
ENDBRANCH   7   9
ENDBRANCH   4   7
ENDBRANCH   2   3
ENDBRANCH   1   2
BRANCH   1  20
ATOM     20  C   UNL     1       5.012  -0.735   2.517  1.00  0.00     0.023 C 
BRANCH  20  21
ATOM     21  C   UNL     1       6.020  -1.875   2.512  1.00  0.00     0.116 C 
BRANCH  21  22
ATOM     22  N   UNL     1       6.991  -1.764   1.435  1.00  0.00    -0.352 N 
ATOM     23  C   UNL     1       8.340  -2.004   1.457  1.00  0.00     0.251 C 
ATOM     24  H   UNL     1       6.627  -1.476   0.567  1.00  0.00     0.163 HD
ATOM     25  O   UNL     1       9.029  -1.721   0.479  1.00  0.00    -0.269 OA
BRANCH  23  26
ATOM     26  C   UNL     1       8.974  -2.569   2.666  1.00  0.00     0.039 A 
ATOM     27  C   UNL     1      10.186  -2.028   3.099  1.00  0.00     0.014 A 
ATOM     28  C   UNL     1       8.385  -3.623   3.371  1.00  0.00     0.014 A 
ATOM     29  C   UNL     1      10.779  -2.507   4.267  1.00  0.00     0.010 A 
ATOM     30  C   UNL     1       8.935  -4.045   4.579  1.00  0.00     0.010 A 
ATOM     31  C   UNL     1      10.142  -3.497   5.035  1.00  0.00    -0.014 A 
BRANCH  31  32
ATOM     32  C   UNL     1      10.737  -3.958   6.314  1.00  0.00     0.031 A 
ATOM     33  C   UNL     1      11.198  -5.381   6.472  1.00  0.00     0.074 A 
ATOM     34  C   UNL     1      10.838  -3.097   7.346  1.00  0.00     0.049 A 
ATOM     35  N   UNL     1      11.746  -5.963   7.510  1.00  0.00    -0.248 NA
ATOM     36  C   UNL     1      10.995  -6.277   5.323  1.00  0.00     0.031 C 
ATOM     37  C   UNL     1      10.369  -1.710   7.336  1.00  0.00     0.029 A 
ATOM     38  N   UNL     1      11.366  -3.260   8.601  1.00  0.00    -0.354 N 
ATOM     39  C   UNL     1      11.957  -7.283   7.136  1.00  0.00     0.074 A 
ATOM     40  C   UNL     1      11.412  -7.438   5.805  1.00  0.00     0.031 C 
ATOM     41  C   UNL     1      10.656  -1.141   8.517  1.00  0.00     0.029 A 
ATOM     42  C   UNL     1      11.299  -2.129   9.378  1.00  0.00     0.049 A 
ATOM     43  H   UNL     1      11.757  -4.107   8.916  1.00  0.00     0.167 HD
ATOM     44  C   UNL     1      12.581  -8.269   7.825  1.00  0.00     0.037 A 
ATOM     45  C   UNL     1      11.710  -1.914  10.642  1.00  0.00     0.037 A 
ATOM     46  C   UNL     1      13.127  -8.111   9.148  1.00  0.00     0.049 A 
ATOM     47  C   UNL     1      12.393  -3.029  11.388  1.00  0.00     0.074 A 
ATOM     48  C   UNL     1      13.802  -9.039   9.921  1.00  0.00     0.029 A 
ATOM     49  N   UNL     1      13.057  -6.944   9.896  1.00  0.00    -0.354 N 
ATOM     50  N   UNL     1      12.652  -4.252  10.995  1.00  0.00    -0.248 NA
ATOM     51  C   UNL     1      12.856  -2.726  12.749  1.00  0.00     0.031 C 
ATOM     52  C   UNL     1      14.102  -8.449  11.153  1.00  0.00     0.029 A 
ATOM     53  C   UNL     1      13.665  -7.134  11.128  1.00  0.00     0.049 A 
ATOM     54  H   UNL     1      12.638  -6.105   9.597  1.00  0.00     0.167 HD
ATOM     55  C   UNL     1      13.330  -4.855  12.046  1.00  0.00     0.074 A 
ATOM     56  C   UNL     1      13.465  -3.854  13.083  1.00  0.00     0.031 C 
ATOM     57  C   UNL     1      13.794  -6.125  12.148  1.00  0.00     0.037 A 
BRANCH  44  58
ATOM     58  C   UNL     1      12.722  -9.604   7.151  1.00  0.00     0.064 A 
ATOM     59  C   UNL     1      13.570  -9.777   6.045  1.00  0.00     0.173 A 
ATOM     60  C   UNL     1      12.040 -10.729   7.634  1.00  0.00     0.173 A 
ATOM     61  F   UNL     1      14.238  -8.731   5.534  1.00  0.00    -0.203 F 
ATOM     62  C   UNL     1      13.708 -11.021   5.433  1.00  0.00     0.198 A 
ATOM     63  C   UNL     1      12.205 -11.978   7.040  1.00  0.00     0.198 A 
ATOM     64  F   UNL     1      11.220 -10.622   8.691  1.00  0.00    -0.203 F 
ATOM     65  F   UNL     1      14.485 -11.150   4.349  1.00  0.00    -0.200 F 
ATOM     66  C   UNL     1      13.032 -12.121   5.936  1.00  0.00     0.200 A 
ATOM     67  F   UNL     1      11.562 -13.045   7.536  1.00  0.00    -0.200 F 
ATOM     68  F   UNL     1      13.173 -13.320   5.353  1.00  0.00    -0.200 F 
ENDBRANCH  44  58
BRANCH  45  69
ATOM     69  C   UNL     1      11.505  -0.585  11.278  1.00  0.00     0.064 A 
ATOM     70  C   UNL     1      12.591   0.241  11.599  1.00  0.00     0.173 A 
ATOM     71  C   UNL     1      10.219  -0.124  11.599  1.00  0.00     0.173 A 
ATOM     72  F   UNL     1      13.841  -0.162  11.328  1.00  0.00    -0.203 F 
ATOM     73  C   UNL     1      12.403   1.460  12.247  1.00  0.00     0.198 A 
ATOM     74  C   UNL     1      10.030   1.111  12.216  1.00  0.00     0.198 A 
ATOM     75  F   UNL     1       9.145  -0.871  11.306  1.00  0.00    -0.203 F 
ATOM     76  F   UNL     1      13.463   2.201  12.596  1.00  0.00    -0.200 F 
ATOM     77  C   UNL     1      11.122   1.896  12.551  1.00  0.00     0.200 A 
ATOM     78  F   UNL     1       8.790   1.536  12.492  1.00  0.00    -0.200 F 
ATOM     79  F   UNL     1      10.941   3.068  13.175  1.00  0.00    -0.200 F 
ENDBRANCH  45  69
BRANCH  57  80
ATOM     80  C   UNL     1      14.522  -6.489  13.411  1.00  0.00     0.064 A 
ATOM     81  C   UNL     1      13.857  -6.600  14.641  1.00  0.00     0.173 A 
ATOM     82  C   UNL     1      15.902  -6.743  13.386  1.00  0.00     0.173 A 
ATOM     83  F   UNL     1      12.540  -6.354  14.721  1.00  0.00    -0.203 F 
ATOM     84  C   UNL     1      14.552  -6.912  15.806  1.00  0.00     0.198 A 
ATOM     85  C   UNL     1      16.588  -7.090  14.547  1.00  0.00     0.198 A 
ATOM     86  F   UNL     1      16.586  -6.659  12.235  1.00  0.00    -0.203 F 
ATOM     87  F   UNL     1      13.906  -6.949  16.979  1.00  0.00    -0.200 F 
ATOM     88  C   UNL     1      15.915  -7.162  15.757  1.00  0.00     0.200 A 
ATOM     89  F   UNL     1      17.902  -7.347  14.495  1.00  0.00    -0.200 F 
ATOM     90  F   UNL     1      16.583  -7.464  16.879  1.00  0.00    -0.200 F 
ENDBRANCH  57  80
ENDBRANCH  31  32
ENDBRANCH  23  26
ENDBRANCH  21  22
ENDBRANCH  20  21
ENDBRANCH   1  20
TORSDOF 14
