REMARK SMILES O=C(NCCCCNC(=O)[C@@H]1C=C[C@@H](NS(=O)(=O)c2ccc(F)c(F)c2F)C1)c1ccc(-c2c3nc(c(-c4c(F)c(F)c(F)c(F)c4F)c4ccc([nH]4)c(-c4c(F)c(F)c(F)c(F)c4F)c4nc(c(-c5c(F)c(F)c(F)c(F)c5F)c5ccc2[nH]5)C=C4)C=C3)cc1
REMARK SMILES IDX 6 1 5 2 4 3 3 4 1 5 2 6 29 8 30 9 91 10 31 11 90 12 32 13
REMARK SMILES IDX 33 14 34 15 84 16 35 17 89 18 83 19 85 20 36 21 88 22 82 23
REMARK SMILES IDX 81 24 37 26 69 27 49 28 68 29 50 30 53 31 67 32 86 33 51 34
REMARK SMILES IDX 52 35 66 37 87 38 54 39 38 40 39 41 47 42 40 43 41 44 45 45
REMARK SMILES IDX 48 46 42 47 43 48 46 49 44 50 70 51 71 52 79 53 72 54 73 55
REMARK SMILES IDX 77 56 80 57 74 58 75 59 78 60 76 61 55 62 56 63 64 64 57 65
REMARK SMILES IDX 58 66 62 67 65 68 59 69 60 70 63 71 61 72 7 73 8 74 9 75
REMARK SMILES IDX 10 77 11 78 12 79 28 80 13 81 14 82 15 83 16 85 17 86 18 87
REMARK SMILES IDX 19 88 20 89 26 90 21 91 24 92 27 93 22 94 25 95 23 96
REMARK H PARENT 3 7 85 25 53 36 8 76 15 84
REMARK Flexibility Score: inf
ROOT
ATOM      1  C   UNL     1       8.082   1.962  -4.781  1.00  0.00     0.023 C 
ENDROOT
BRANCH   1   2
ATOM      2  C   UNL     1       8.325   1.294  -6.133  1.00  0.00     0.023 C 
BRANCH   2   3
ATOM      3  C   UNL     1       9.746   1.416  -6.660  1.00  0.00     0.116 C 
BRANCH   3   4
ATOM      4  N   UNL     1      10.742   0.799  -5.795  1.00  0.00    -0.352 N 
ATOM      5  O   UNL     1      12.463  -0.583  -5.287  1.00  0.00    -0.269 OA
ATOM      6  C   UNL     1      11.769  -0.050  -6.145  1.00  0.00     0.251 C 
ATOM      7  H   UNL     1      10.673   1.016  -4.838  1.00  0.00     0.163 HD
BRANCH   6   8
ATOM      8  C   UNL     1      11.999  -0.336  -7.576  1.00  0.00     0.039 A 
ATOM      9  C   UNL     1      11.996   0.710  -8.499  1.00  0.00     0.014 A 
ATOM     10  C   UNL     1      12.154  -1.657  -8.005  1.00  0.00     0.014 A 
ATOM     11  C   UNL     1      11.959   0.422  -9.854  1.00  0.00     0.010 A 
ATOM     12  C   UNL     1      12.242  -1.934  -9.373  1.00  0.00     0.010 A 
ATOM     13  C   UNL     1      12.112  -0.899 -10.311  1.00  0.00    -0.014 A 
BRANCH  13  14
ATOM     14  C   UNL     1      12.227  -1.127 -11.775  1.00  0.00     0.031 A 
ATOM     15  C   UNL     1      11.217  -1.938 -12.536  1.00  0.00     0.074 A 
ATOM     16  C   UNL     1      13.235  -0.510 -12.425  1.00  0.00     0.049 A 
ATOM     17  N   UNL     1      11.145  -2.151 -13.827  1.00  0.00    -0.248 NA
ATOM     18  C   UNL     1      10.155  -2.601 -11.764  1.00  0.00     0.031 C 
ATOM     19  C   UNL     1      14.277   0.295 -11.780  1.00  0.00     0.029 A 
ATOM     20  N   UNL     1      13.527  -0.415 -13.761  1.00  0.00    -0.354 N 
ATOM     21  C   UNL     1      10.046  -2.977 -14.020  1.00  0.00     0.074 A 
ATOM     22  C   UNL     1       9.490  -3.250 -12.713  1.00  0.00     0.031 C 
ATOM     23  C   UNL     1      15.035   0.873 -12.720  1.00  0.00     0.029 A 
ATOM     24  C   UNL     1      14.594   0.409 -14.029  1.00  0.00     0.049 A 
ATOM     25  H   UNL     1      13.023  -0.892 -14.459  1.00  0.00     0.167 HD
ATOM     26  C   UNL     1       9.548  -3.450 -15.188  1.00  0.00     0.037 A 
ATOM     27  C   UNL     1      15.166   0.748 -15.199  1.00  0.00     0.037 A 
ATOM     28  C   UNL     1      10.098  -3.150 -16.487  1.00  0.00     0.049 A 
ATOM     29  C   UNL     1      14.605   0.177 -16.468  1.00  0.00     0.074 A 
ATOM     30  C   UNL     1       9.640  -3.559 -17.728  1.00  0.00     0.029 A 
ATOM     31  N   UNL     1      11.221  -2.369 -16.715  1.00  0.00    -0.354 N 
ATOM     32  N   UNL     1      13.550  -0.581 -16.635  1.00  0.00    -0.248 NA
ATOM     33  C   UNL     1      15.321   0.497 -17.708  1.00  0.00     0.031 C 
ATOM     34  C   UNL     1      10.516  -3.074 -18.701  1.00  0.00     0.029 A 
ATOM     35  C   UNL     1      11.487  -2.311 -18.075  1.00  0.00     0.049 A 
ATOM     36  H   UNL     1      11.751  -1.923 -16.015  1.00  0.00     0.167 HD
ATOM     37  C   UNL     1      13.470  -0.823 -17.998  1.00  0.00     0.074 A 
ATOM     38  C   UNL     1      14.562  -0.099 -18.616  1.00  0.00     0.031 C 
ATOM     39  C   UNL     1      12.579  -1.588 -18.675  1.00  0.00     0.037 A 
BRANCH  26  40
ATOM     40  C   UNL     1       8.341  -4.343 -15.146  1.00  0.00     0.064 A 
ATOM     41  C   UNL     1       8.447  -5.695 -15.511  1.00  0.00     0.173 A 
ATOM     42  C   UNL     1       7.060  -3.832 -14.893  1.00  0.00     0.173 A 
ATOM     43  F   UNL     1       9.649  -6.231 -15.773  1.00  0.00    -0.203 F 
ATOM     44  C   UNL     1       7.314  -6.492 -15.655  1.00  0.00     0.198 A 
ATOM     45  C   UNL     1       5.930  -4.639 -15.014  1.00  0.00     0.198 A 
ATOM     46  F   UNL     1       6.904  -2.549 -14.534  1.00  0.00    -0.203 F 
ATOM     47  F   UNL     1       7.438  -7.764 -16.056  1.00  0.00    -0.200 F 
ATOM     48  C   UNL     1       6.057  -5.962 -15.410  1.00  0.00     0.200 A 
ATOM     49  F   UNL     1       4.716  -4.130 -14.761  1.00  0.00    -0.200 F 
ATOM     50  F   UNL     1       4.966  -6.725 -15.562  1.00  0.00    -0.200 F 
ENDBRANCH  26  40
BRANCH  27  51
ATOM     51  C   UNL     1      16.334   1.669 -15.214  1.00  0.00     0.064 A 
ATOM     52  C   UNL     1      17.556   1.307 -14.627  1.00  0.00     0.173 A 
ATOM     53  C   UNL     1      16.244   2.938 -15.800  1.00  0.00     0.173 A 
ATOM     54  F   UNL     1      17.695   0.106 -14.047  1.00  0.00    -0.203 F 
ATOM     55  C   UNL     1      18.634   2.188 -14.605  1.00  0.00     0.198 A 
ATOM     56  C   UNL     1      17.335   3.804 -15.812  1.00  0.00     0.198 A 
ATOM     57  F   UNL     1      15.103   3.324 -16.390  1.00  0.00    -0.203 F 
ATOM     58  F   UNL     1      19.774   1.833 -13.997  1.00  0.00    -0.200 F 
ATOM     59  C   UNL     1      18.526   3.432 -15.206  1.00  0.00     0.200 A 
ATOM     60  F   UNL     1      17.236   4.994 -16.419  1.00  0.00    -0.200 F 
ATOM     61  F   UNL     1      19.570   4.272 -15.204  1.00  0.00    -0.200 F 
ENDBRANCH  27  51
BRANCH  39  62
ATOM     62  C   UNL     1      12.744  -1.677 -20.164  1.00  0.00     0.064 A 
ATOM     63  C   UNL     1      11.799  -1.096 -21.023  1.00  0.00     0.173 A 
ATOM     64  C   UNL     1      13.813  -2.379 -20.740  1.00  0.00     0.173 A 
ATOM     65  F   UNL     1      10.754  -0.420 -20.522  1.00  0.00    -0.203 F 
ATOM     66  C   UNL     1      11.914  -1.223 -22.404  1.00  0.00     0.198 A 
ATOM     67  C   UNL     1      13.943  -2.474 -22.122  1.00  0.00     0.198 A 
ATOM     68  F   UNL     1      14.751  -2.939 -19.961  1.00  0.00    -0.203 F 
ATOM     69  F   UNL     1      10.982  -0.687 -23.204  1.00  0.00    -0.200 F 
ATOM     70  C   UNL     1      12.989  -1.905 -22.953  1.00  0.00     0.200 A 
ATOM     71  F   UNL     1      15.000  -3.107 -22.651  1.00  0.00    -0.200 F 
ATOM     72  F   UNL     1      13.110  -2.009 -24.283  1.00  0.00    -0.200 F 
ENDBRANCH  39  62
ENDBRANCH  13  14
ENDBRANCH   6   8
ENDBRANCH   3   4
ENDBRANCH   2   3
ENDBRANCH   1   2
BRANCH   1  73
ATOM     73  C   UNL     1       8.500   3.428  -4.725  1.00  0.00     0.116 C 
BRANCH  73  74
ATOM     74  N   UNL     1       7.694   4.248  -5.610  1.00  0.00    -0.356 N 
ATOM     75  C   UNL     1       6.749   5.184  -5.311  1.00  0.00     0.226 C 
ATOM     76  H   UNL     1       7.853   4.107  -6.571  1.00  0.00     0.163 HD
ATOM     77  O   UNL     1       6.186   5.762  -6.244  1.00  0.00    -0.274 OA
BRANCH  75  78
ATOM     78  C   UNL     1       6.443   5.509  -3.852  1.00  0.00     0.103 C 
ATOM     79  C   UNL     1       4.997   5.299  -3.539  1.00  0.00    -0.016 C 
ATOM     80  C   UNL     1       6.653   7.006  -3.588  1.00  0.00     0.042 C 
ATOM     81  C   UNL     1       4.362   6.455  -3.336  1.00  0.00    -0.011 C 
ATOM     82  C   UNL     1       5.250   7.633  -3.537  1.00  0.00     0.093 C 
BRANCH  82  83
ATOM     83  N   UNL     1       5.173   8.573  -2.434  1.00  0.00    -0.204 NA
ATOM     84  H   UNL     1       5.931   9.239  -2.584  1.00  0.00     0.142 HD
BRANCH  83  85
ATOM     85  S   UNL     1       3.824   9.493  -2.090  1.00  0.00     0.244 S 
ATOM     86  O   UNL     1       2.676   8.621  -1.983  1.00  0.00    -0.207 OA
ATOM     87  O   UNL     1       4.204  10.341  -0.984  1.00  0.00    -0.207 OA
BRANCH  85  88
ATOM     88  C   UNL     1       3.608  10.467  -3.542  1.00  0.00     0.121 A 
ATOM     89  C   UNL     1       2.929   9.897  -4.633  1.00  0.00     0.028 A 
ATOM     90  C   UNL     1       4.036  11.787  -3.595  1.00  0.00     0.181 A 
ATOM     91  C   UNL     1       2.721  10.643  -5.792  1.00  0.00     0.044 A 
ATOM     92  C   UNL     1       3.806  12.533  -4.747  1.00  0.00     0.195 A 
ATOM     93  F   UNL     1       4.679  12.364  -2.573  1.00  0.00    -0.202 F 
ATOM     94  C   UNL     1       3.160  11.962  -5.838  1.00  0.00     0.161 A 
ATOM     95  F   UNL     1       4.211  13.810  -4.808  1.00  0.00    -0.200 F 
ATOM     96  F   UNL     1       2.951  12.679  -6.950  1.00  0.00    -0.204 F 
ENDBRANCH  85  88
ENDBRANCH  83  85
ENDBRANCH  82  83
ENDBRANCH  75  78
ENDBRANCH  73  74
ENDBRANCH   1  73
TORSDOF 14
