REMARK SMILES Cc1ccc(CN(CC(=O)NCCCCNC(=O)c2ccc(-c3c4nc(c(-c5c(F)c(F)c(F)c(F)c5F)c5ccc([nH]5)c(-c5c(F)c(F)c(F)c(F)c5F)c5nc(c(-c6c(F)c(F)c(F)c(F)c6F)c6ccc3[nH]6)C=C5)C=C4)cc2)C(=O)c2cc3c(s2)CCOC3)cc1
REMARK SMILES IDX 13 1 12 2 11 3 9 4 10 5 8 7 7 8 6 9 5 10 1 11 2 12 3 13
REMARK SMILES IDX 94 14 4 15 93 16 82 17 83 18 84 19 85 20 88 21 86 22 87 23
REMARK SMILES IDX 92 24 89 25 91 26 90 27 14 28 15 29 16 30 17 31 18 33 19 34
REMARK SMILES IDX 20 35 81 36 21 37 80 38 22 39 23 40 24 41 74 42 25 43 79 44
REMARK SMILES IDX 73 45 75 46 26 47 78 48 72 49 71 50 27 52 59 53 39 54 58 55
REMARK SMILES IDX 40 56 43 57 57 58 76 59 41 60 42 61 56 63 77 64 44 65 28 66
REMARK SMILES IDX 29 67 37 68 30 69 31 70 35 71 38 72 32 73 33 74 36 75 34 76
REMARK SMILES IDX 60 77 61 78 69 79 62 80 63 81 67 82 70 83 64 84 65 85 68 86
REMARK SMILES IDX 66 87 45 88 46 89 54 90 47 91 48 92 52 93 55 94 49 95 50 96
REMARK SMILES IDX 53 97 51 98
REMARK H PARENT 11 6 16 32 75 51 43 62
REMARK Flexibility Score: inf
ROOT
ATOM      1  C   UNL     1      -5.994   1.827  -0.683  1.00  0.00     0.023 C 
ENDROOT
BRANCH   1   2
ATOM      2  C   UNL     1      -6.416   0.514  -0.009  1.00  0.00     0.116 C 
BRANCH   2   3
ATOM      3  N   UNL     1      -6.727  -0.583  -0.906  1.00  0.00    -0.355 N 
ATOM      4  C   UNL     1      -5.994  -1.670  -1.283  1.00  0.00     0.239 C 
ATOM      5  O   UNL     1      -6.634  -2.635  -1.718  1.00  0.00    -0.273 OA
ATOM      6  H   UNL     1      -7.622  -0.535  -1.313  1.00  0.00     0.163 HD
BRANCH   4   7
ATOM      7  C   UNL     1      -4.470  -1.784  -1.096  1.00  0.00     0.220 C 
BRANCH   7   8
ATOM      8  N   UNL     1      -3.698  -0.559  -1.304  1.00  0.00    -0.324 N 
BRANCH   8   9
ATOM      9  C   UNL     1      -3.087   0.061  -0.130  1.00  0.00     0.156 C 
BRANCH   9  10
ATOM     10  C   UNL     1      -1.583  -0.020  -0.094  1.00  0.00    -0.029 A 
ATOM     11  C   UNL     1       2.727  -0.125   0.043  1.00  0.00     0.044 C 
ATOM     12  C   UNL     1       1.229  -0.084   0.010  1.00  0.00    -0.051 A 
ATOM     13  C   UNL     1       0.489  -1.274   0.001  1.00  0.00     0.004 A 
ATOM     14  C   UNL     1       0.554   1.138  -0.034  1.00  0.00     0.004 A 
ATOM     15  C   UNL     1      -0.908  -1.244  -0.048  1.00  0.00     0.006 A 
ATOM     16  C   UNL     1      -0.837   1.168  -0.085  1.00  0.00     0.006 A 
ENDBRANCH   9  10
ENDBRANCH   8   9
BRANCH   8  17
ATOM     17  C   UNL     1      -3.441   0.009  -2.568  1.00  0.00     0.264 C 
ATOM     18  O   UNL     1      -2.918   1.121  -2.657  1.00  0.00    -0.268 OA
BRANCH  17  19
ATOM     19  C   UNL     1      -3.781  -0.765  -3.753  1.00  0.00     0.093 A 
ATOM     20  C   UNL     1      -5.000  -1.228  -4.218  1.00  0.00     0.032 A 
ATOM     21  S   UNL     1      -2.509  -1.195  -4.829  1.00  0.00    -0.135 S 
ATOM     22  C   UNL     1      -4.853  -2.128  -5.314  1.00  0.00    -0.008 A 
ATOM     23  C   UNL     1      -3.550  -2.152  -5.759  1.00  0.00     0.013 A 
ATOM     24  C   UNL     1      -5.901  -3.006  -5.931  1.00  0.00     0.196 C 
ATOM     25  C   UNL     1      -3.121  -2.966  -6.934  1.00  0.00     0.075 C 
ATOM     26  O   UNL     1      -5.466  -3.627  -7.161  1.00  0.00    -0.376 OA
ATOM     27  C   UNL     1      -4.119  -4.127  -7.082  1.00  0.00     0.166 C 
ENDBRANCH  17  19
ENDBRANCH   8  17
ENDBRANCH   7   8
ENDBRANCH   4   7
ENDBRANCH   2   3
ENDBRANCH   1   2
BRANCH   1  28
ATOM     28  C   UNL     1      -6.947   2.415  -1.718  1.00  0.00     0.023 C 
BRANCH  28  29
ATOM     29  C   UNL     1      -8.272   2.889  -1.153  1.00  0.00     0.116 C 
BRANCH  29  30
ATOM     30  N   UNL     1      -8.266   4.235  -0.591  1.00  0.00    -0.352 N 
ATOM     31  C   UNL     1      -9.246   4.864   0.163  1.00  0.00     0.251 C 
ATOM     32  H   UNL     1      -7.457   4.768  -0.770  1.00  0.00     0.163 HD
ATOM     33  O   UNL     1      -9.123   6.033   0.496  1.00  0.00    -0.269 OA
BRANCH  31  34
ATOM     34  C   UNL     1     -10.381   4.060   0.681  1.00  0.00     0.039 A 
ATOM     35  C   UNL     1     -10.671   4.138   2.048  1.00  0.00     0.014 A 
ATOM     36  C   UNL     1     -10.973   3.076  -0.106  1.00  0.00     0.014 A 
ATOM     37  C   UNL     1     -11.321   3.074   2.666  1.00  0.00     0.010 A 
ATOM     38  C   UNL     1     -11.511   1.969   0.518  1.00  0.00     0.010 A 
ATOM     39  C   UNL     1     -11.611   1.938   1.912  1.00  0.00    -0.014 A 
BRANCH  39  40
ATOM     40  C   UNL     1     -11.905   0.638   2.504  1.00  0.00     0.031 A 
ATOM     41  C   UNL     1     -13.271   0.082   2.442  1.00  0.00     0.074 A 
ATOM     42  C   UNL     1     -10.895  -0.090   3.034  1.00  0.00     0.049 A 
ATOM     43  N   UNL     1     -13.701  -0.870   3.200  1.00  0.00    -0.248 NA
ATOM     44  C   UNL     1     -14.305   0.624   1.568  1.00  0.00     0.031 C 
ATOM     45  C   UNL     1     -10.918  -1.503   3.404  1.00  0.00     0.029 A 
ATOM     46  N   UNL     1      -9.672   0.383   3.544  1.00  0.00    -0.354 N 
ATOM     47  C   UNL     1     -14.937  -1.255   2.736  1.00  0.00     0.074 A 
ATOM     48  C   UNL     1     -15.318  -0.210   1.821  1.00  0.00     0.031 C 
ATOM     49  C   UNL     1      -9.960  -1.727   4.317  1.00  0.00     0.029 A 
ATOM     50  C   UNL     1      -9.393  -0.436   4.663  1.00  0.00     0.049 A 
ATOM     51  H   UNL     1      -9.127   1.125   3.196  1.00  0.00     0.167 HD
ATOM     52  C   UNL     1     -15.411  -2.484   3.093  1.00  0.00     0.037 A 
ATOM     53  C   UNL     1      -9.335   0.075   5.927  1.00  0.00     0.037 A 
ATOM     54  C   UNL     1     -14.614  -3.039   4.194  1.00  0.00     0.049 A 
ATOM     55  C   UNL     1     -10.321  -0.544   6.889  1.00  0.00     0.074 A 
ATOM     56  C   UNL     1     -13.647  -4.027   4.266  1.00  0.00     0.029 A 
ATOM     57  N   UNL     1     -14.576  -2.362   5.412  1.00  0.00    -0.354 N 
ATOM     58  N   UNL     1     -11.370  -1.222   6.515  1.00  0.00    -0.248 NA
ATOM     59  C   UNL     1     -10.227  -0.412   8.340  1.00  0.00     0.031 C 
ATOM     60  C   UNL     1     -12.969  -3.885   5.506  1.00  0.00     0.029 A 
ATOM     61  C   UNL     1     -13.547  -2.837   6.202  1.00  0.00     0.049 A 
ATOM     62  H   UNL     1     -15.197  -1.645   5.673  1.00  0.00     0.167 HD
ATOM     63  C   UNL     1     -12.096  -1.585   7.619  1.00  0.00     0.074 A 
ATOM     64  C   UNL     1     -11.326  -1.076   8.739  1.00  0.00     0.031 C 
ATOM     65  C   UNL     1     -13.280  -2.257   7.511  1.00  0.00     0.037 A 
BRANCH  52  66
ATOM     66  C   UNL     1     -16.433  -3.309   2.315  1.00  0.00     0.064 A 
ATOM     67  C   UNL     1     -16.650  -4.668   2.652  1.00  0.00     0.173 A 
ATOM     68  C   UNL     1     -17.137  -2.891   1.165  1.00  0.00     0.173 A 
ATOM     69  F   UNL     1     -16.094  -5.215   3.741  1.00  0.00    -0.203 F 
ATOM     70  C   UNL     1     -17.437  -5.530   1.875  1.00  0.00     0.198 A 
ATOM     71  C   UNL     1     -17.938  -3.747   0.401  1.00  0.00     0.198 A 
ATOM     72  F   UNL     1     -17.084  -1.644   0.701  1.00  0.00    -0.203 F 
ATOM     73  F   UNL     1     -17.556  -6.819   2.224  1.00  0.00    -0.200 F 
ATOM     74  C   UNL     1     -18.074  -5.071   0.743  1.00  0.00     0.200 A 
ATOM     75  F   UNL     1     -18.558  -3.269  -0.688  1.00  0.00    -0.200 F 
ATOM     76  F   UNL     1     -18.813  -5.894  -0.012  1.00  0.00    -0.200 F 
ENDBRANCH  52  66
BRANCH  53  77
ATOM     77  C   UNL     1      -8.871   1.486   5.967  1.00  0.00     0.064 A 
ATOM     78  C   UNL     1      -7.568   1.770   5.513  1.00  0.00     0.173 A 
ATOM     79  C   UNL     1      -9.770   2.554   6.061  1.00  0.00     0.173 A 
ATOM     80  F   UNL     1      -6.668   0.779   5.398  1.00  0.00    -0.203 F 
ATOM     81  C   UNL     1      -7.219   3.039   5.056  1.00  0.00     0.198 A 
ATOM     82  C   UNL     1      -9.411   3.829   5.617  1.00  0.00     0.198 A 
ATOM     83  F   UNL     1     -11.032   2.345   6.463  1.00  0.00    -0.203 F 
ATOM     84  F   UNL     1      -6.010   3.244   4.515  1.00  0.00    -0.200 F 
ATOM     85  C   UNL     1      -8.152   4.061   5.083  1.00  0.00     0.200 A 
ATOM     86  F   UNL     1     -10.323   4.812   5.610  1.00  0.00    -0.200 F 
ATOM     87  F   UNL     1      -7.854   5.255   4.552  1.00  0.00    -0.200 F 
ENDBRANCH  53  77
BRANCH  65  88
ATOM     88  C   UNL     1     -14.257  -2.503   8.636  1.00  0.00     0.064 A 
ATOM     89  C   UNL     1     -14.425  -1.640   9.733  1.00  0.00     0.173 A 
ATOM     90  C   UNL     1     -15.177  -3.576   8.560  1.00  0.00     0.173 A 
ATOM     91  F   UNL     1     -13.699  -0.520   9.856  1.00  0.00    -0.203 F 
ATOM     92  C   UNL     1     -15.394  -1.870  10.714  1.00  0.00     0.198 A 
ATOM     93  C   UNL     1     -16.179  -3.770   9.510  1.00  0.00     0.198 A 
ATOM     94  F   UNL     1     -15.144  -4.454   7.546  1.00  0.00    -0.203 F 
ATOM     95  F   UNL     1     -15.486  -1.041  11.763  1.00  0.00    -0.200 F 
ATOM     96  C   UNL     1     -16.277  -2.927  10.597  1.00  0.00     0.200 A 
ATOM     97  F   UNL     1     -17.061  -4.768   9.353  1.00  0.00    -0.200 F 
ATOM     98  F   UNL     1     -17.233  -3.118  11.516  1.00  0.00    -0.200 F 
ENDBRANCH  65  88
ENDBRANCH  39  40
ENDBRANCH  31  34
ENDBRANCH  29  30
ENDBRANCH  28  29
ENDBRANCH   1  28
TORSDOF 16
