REMARK SMILES O=C(NCCCCNC(=O)c1ccccc1NC(=S)NC(=O)c1ccc2ccccc2c1)c1ccc(-c2c3nc(c(-c4c(F)c(F)c(F)c(F)c4F)c4ccc([nH]4)c(-c4c(F)c(F)c(F)c(F)c4F)c4nc(c(-c5c(F)c(F)c(F)c(F)c5F)c5ccc2[nH]5)C=C4)C=C3)cc1
REMARK SMILES IDX 6 1 5 2 4 3 3 4 1 5 2 6 33 8 34 9 95 10 35 11 94 12 36 13
REMARK SMILES IDX 37 14 38 15 88 16 39 17 93 18 87 19 89 20 40 21 92 22 86 23
REMARK SMILES IDX 85 24 41 26 73 27 53 28 72 29 54 30 57 31 71 32 90 33 55 34
REMARK SMILES IDX 56 35 70 37 91 38 58 39 42 40 43 41 51 42 44 43 45 44 49 45
REMARK SMILES IDX 52 46 46 47 47 48 50 49 48 50 74 51 75 52 83 53 76 54 77 55
REMARK SMILES IDX 81 56 84 57 78 58 79 59 82 60 80 61 59 62 60 63 68 64 61 65
REMARK SMILES IDX 62 66 66 67 69 68 63 69 64 70 67 71 65 72 7 73 8 74 9 75
REMARK SMILES IDX 10 77 11 78 12 79 16 80 13 81 15 82 14 83 17 84 18 86 19 87
REMARK SMILES IDX 20 88 21 89 22 91 23 92 24 93 32 94 25 95 31 96 26 97 30 98
REMARK SMILES IDX 27 99 29 100 28 101
REMARK H PARENT 3 7 89 25 57 36 8 76 17 85 20 90
REMARK Flexibility Score: inf
ROOT
ATOM      1  C   UNL     1       4.482  -2.658  -2.619  1.00  0.00     0.023 C 
ENDROOT
BRANCH   1   2
ATOM      2  C   UNL     1       4.794  -2.216  -1.194  1.00  0.00     0.023 C 
BRANCH   2   3
ATOM      3  C   UNL     1       4.452  -0.761  -0.913  1.00  0.00     0.116 C 
BRANCH   3   4
ATOM      4  N   UNL     1       3.022  -0.504  -0.928  1.00  0.00    -0.352 N 
ATOM      5  O   UNL     1       1.021   0.031  -0.013  1.00  0.00    -0.269 OA
ATOM      6  C   UNL     1       2.242   0.010   0.081  1.00  0.00     0.251 C 
ATOM      7  H   UNL     1       2.553  -0.727  -1.765  1.00  0.00     0.163 HD
BRANCH   6   8
ATOM      8  C   UNL     1       2.910   0.495   1.305  1.00  0.00     0.039 A 
ATOM      9  C   UNL     1       4.045   1.302   1.203  1.00  0.00     0.014 A 
ATOM     10  C   UNL     1       2.457   0.063   2.552  1.00  0.00     0.014 A 
ATOM     11  C   UNL     1       4.841   1.498   2.319  1.00  0.00     0.010 A 
ATOM     12  C   UNL     1       3.190   0.385   3.697  1.00  0.00     0.010 A 
ATOM     13  C   UNL     1       4.412   1.068   3.586  1.00  0.00    -0.014 A 
BRANCH  13  14
ATOM     14  C   UNL     1       5.230   1.416   4.776  1.00  0.00     0.031 A 
ATOM     15  C   UNL     1       5.819   0.359   5.667  1.00  0.00     0.074 A 
ATOM     16  C   UNL     1       5.463   2.719   5.026  1.00  0.00     0.049 A 
ATOM     17  N   UNL     1       6.573   0.504   6.729  1.00  0.00    -0.248 NA
ATOM     18  C   UNL     1       5.517  -1.041   5.336  1.00  0.00     0.031 C 
ATOM     19  C   UNL     1       4.941   3.834   4.231  1.00  0.00     0.029 A 
ATOM     20  N   UNL     1       6.213   3.330   5.996  1.00  0.00    -0.354 N 
ATOM     21  C   UNL     1       6.818  -0.778   7.203  1.00  0.00     0.074 A 
ATOM     22  C   UNL     1       6.103  -1.688   6.334  1.00  0.00     0.031 C 
ATOM     23  C   UNL     1       5.437   4.984   4.703  1.00  0.00     0.029 A 
ATOM     24  C   UNL     1       6.236   4.699   5.887  1.00  0.00     0.049 A 
ATOM     25  H   UNL     1       6.689   2.836   6.702  1.00  0.00     0.167 HD
ATOM     26  C   UNL     1       7.575  -1.157   8.263  1.00  0.00     0.037 A 
ATOM     27  C   UNL     1       6.812   5.628   6.668  1.00  0.00     0.037 A 
ATOM     28  C   UNL     1       8.281  -0.238   9.123  1.00  0.00     0.049 A 
ATOM     29  C   UNL     1       7.591   5.179   7.870  1.00  0.00     0.074 A 
ATOM     30  C   UNL     1       9.103  -0.521  10.200  1.00  0.00     0.029 A 
ATOM     31  N   UNL     1       8.234   1.146   9.015  1.00  0.00    -0.354 N 
ATOM     32  N   UNL     1       7.853   3.963   8.282  1.00  0.00    -0.248 NA
ATOM     33  C   UNL     1       8.153   6.237   8.717  1.00  0.00     0.031 C 
ATOM     34  C   UNL     1       9.484   0.687  10.793  1.00  0.00     0.029 A 
ATOM     35  C   UNL     1       8.978   1.728  10.032  1.00  0.00     0.049 A 
ATOM     36  H   UNL     1       7.744   1.642   8.320  1.00  0.00     0.167 HD
ATOM     37  C   UNL     1       8.641   4.107   9.415  1.00  0.00     0.074 A 
ATOM     38  C   UNL     1       8.828   5.530   9.612  1.00  0.00     0.031 C 
ATOM     39  C   UNL     1       9.162   3.147  10.219  1.00  0.00     0.037 A 
BRANCH  26  40
ATOM     40  C   UNL     1       7.650  -2.627   8.581  1.00  0.00     0.064 A 
ATOM     41  C   UNL     1       8.280  -3.546   7.727  1.00  0.00     0.173 A 
ATOM     42  C   UNL     1       7.107  -3.120   9.779  1.00  0.00     0.173 A 
ATOM     43  F   UNL     1       8.813  -3.134   6.567  1.00  0.00    -0.203 F 
ATOM     44  C   UNL     1       8.324  -4.903   8.039  1.00  0.00     0.198 A 
ATOM     45  C   UNL     1       7.189  -4.472  10.106  1.00  0.00     0.198 A 
ATOM     46  F   UNL     1       6.503  -2.289  10.642  1.00  0.00    -0.203 F 
ATOM     47  F   UNL     1       8.874  -5.769   7.175  1.00  0.00    -0.200 F 
ATOM     48  C   UNL     1       7.785  -5.364   9.230  1.00  0.00     0.200 A 
ATOM     49  F   UNL     1       6.686  -4.910  11.268  1.00  0.00    -0.200 F 
ATOM     50  F   UNL     1       7.833  -6.670   9.529  1.00  0.00    -0.200 F 
ENDBRANCH  26  40
BRANCH  27  51
ATOM     51  C   UNL     1       6.669   7.069   6.337  1.00  0.00     0.064 A 
ATOM     52  C   UNL     1       7.783   7.838   5.973  1.00  0.00     0.173 A 
ATOM     53  C   UNL     1       5.421   7.710   6.382  1.00  0.00     0.173 A 
ATOM     54  F   UNL     1       8.999   7.276   5.929  1.00  0.00    -0.203 F 
ATOM     55  C   UNL     1       7.659   9.198   5.698  1.00  0.00     0.198 A 
ATOM     56  C   UNL     1       5.292   9.060   6.067  1.00  0.00     0.198 A 
ATOM     57  F   UNL     1       4.321   7.018   6.714  1.00  0.00    -0.203 F 
ATOM     58  F   UNL     1       8.749   9.922   5.413  1.00  0.00    -0.200 F 
ATOM     59  C   UNL     1       6.413   9.806   5.739  1.00  0.00     0.200 A 
ATOM     60  F   UNL     1       4.083   9.636   6.084  1.00  0.00    -0.200 F 
ATOM     61  F   UNL     1       6.294  11.113   5.471  1.00  0.00    -0.200 F 
ENDBRANCH  27  51
BRANCH  39  62
ATOM     62  C   UNL     1      10.036   3.604  11.354  1.00  0.00     0.064 A 
ATOM     63  C   UNL     1       9.527   4.327  12.444  1.00  0.00     0.173 A 
ATOM     64  C   UNL     1      11.408   3.304  11.353  1.00  0.00     0.173 A 
ATOM     65  F   UNL     1       8.227   4.655  12.490  1.00  0.00    -0.203 F 
ATOM     66  C   UNL     1      10.365   4.768  13.466  1.00  0.00     0.198 A 
ATOM     67  C   UNL     1      12.233   3.708  12.398  1.00  0.00     0.198 A 
ATOM     68  F   UNL     1      11.949   2.611  10.340  1.00  0.00    -0.203 F 
ATOM     69  F   UNL     1       9.868   5.519  14.459  1.00  0.00    -0.200 F 
ATOM     70  C   UNL     1      11.714   4.451  13.446  1.00  0.00     0.200 A 
ATOM     71  F   UNL     1      13.533   3.382  12.386  1.00  0.00    -0.200 F 
ATOM     72  F   UNL     1      12.518   4.871  14.433  1.00  0.00    -0.200 F 
ENDBRANCH  39  62
ENDBRANCH  13  14
ENDBRANCH   6   8
ENDBRANCH   3   4
ENDBRANCH   2   3
ENDBRANCH   1   2
BRANCH   1  73
ATOM     73  C   UNL     1       4.979  -1.679  -3.674  1.00  0.00     0.116 C 
BRANCH  73  74
ATOM     74  N   UNL     1       6.340  -1.228  -3.405  1.00  0.00    -0.352 N 
ATOM     75  C   UNL     1       7.260  -0.720  -4.250  1.00  0.00     0.253 C 
ATOM     76  H   UNL     1       6.631  -1.306  -2.468  1.00  0.00     0.163 HD
ATOM     77  O   UNL     1       8.409  -0.433  -3.862  1.00  0.00    -0.269 OA
BRANCH  75  78
ATOM     78  C   UNL     1       7.061  -0.884  -5.653  1.00  0.00     0.063 A 
ATOM     79  C   UNL     1       7.723  -2.066  -5.933  1.00  0.00     0.016 A 
ATOM     80  C   UNL     1       6.061  -0.346  -6.521  1.00  0.00     0.053 A 
ATOM     81  C   UNL     1       7.243  -2.683  -6.989  1.00  0.00     0.001 A 
ATOM     82  C   UNL     1       6.030  -0.715  -7.814  1.00  0.00     0.027 A 
ATOM     83  C   UNL     1       6.502  -1.970  -7.892  1.00  0.00     0.002 A 
BRANCH  80  84
ATOM     84  N   UNL     1       4.927   0.314  -6.087  1.00  0.00    -0.332 N 
ATOM     85  H   UNL     1       5.054   0.906  -5.311  1.00  0.00     0.169 HD
BRANCH  84  86
ATOM     86  C   UNL     1       3.654   0.262  -6.580  1.00  0.00     0.177 C 
ATOM     87  S   UNL     1       2.638   1.486  -6.024  1.00  0.00    -0.040 S 
BRANCH  86  88
ATOM     88  N   UNL     1       3.124  -0.757  -7.500  1.00  0.00    -0.299 N 
ATOM     89  C   UNL     1       2.965  -2.012  -8.444  1.00  0.00     0.257 C 
ATOM     90  H   UNL     1       2.213  -0.398  -7.594  1.00  0.00     0.172 HD
ATOM     91  O   UNL     1       1.922  -1.941  -9.117  1.00  0.00    -0.269 OA
BRANCH  89  92
ATOM     92  C   UNL     1       3.924  -3.308  -8.710  1.00  0.00     0.040 A 
ATOM     93  C   UNL     1       4.808  -3.384  -9.838  1.00  0.00     0.014 A 
ATOM     94  C   UNL     1       4.220  -4.294  -7.697  1.00  0.00     0.022 A 
ATOM     95  C   UNL     1       6.078  -4.186  -9.733  1.00  0.00     0.009 A 
ATOM     96  C   UNL     1       5.464  -5.161  -7.593  1.00  0.00    -0.018 A 
ATOM     97  C   UNL     1       6.465  -5.042  -8.597  1.00  0.00    -0.018 A 
ATOM     98  C   UNL     1       5.884  -5.858  -6.375  1.00  0.00     0.009 A 
ATOM     99  C   UNL     1       7.855  -5.477  -8.222  1.00  0.00     0.009 A 
ATOM    100  C   UNL     1       7.205  -6.316  -6.076  1.00  0.00     0.001 A 
ATOM    101  C   UNL     1       8.214  -6.091  -6.990  1.00  0.00     0.001 A 
ENDBRANCH  89  92
ENDBRANCH  86  88
ENDBRANCH  84  86
ENDBRANCH  80  84
ENDBRANCH  75  78
ENDBRANCH  73  74
ENDBRANCH   1  73
TORSDOF 15
