REMARK SMILES CC(C)C[C@H](C(=O)NCCCCNC(=O)c1ccc(-c2c3nc(c(-c4c(F)c(F)c(F)c(F)c4F)c4ccc([nH]4)c(-c4c(F)c(F)c(F)c(F)c4F)c4nc(c(-c5c(F)c(F)c(F)c(F)c5F)c5ccc2[nH]5)C=C4)C=C3)cc1)N1C(=O)/C(=C2\C(=O)Nc3ccc(Br)cc32)SC1=S
REMARK SMILES IDX 10 1 9 2 8 3 6 4 7 5 5 7 4 8 2 9 1 10 3 11 79 12 80 13 95 14
REMARK SMILES IDX 81 15 82 16 94 17 96 18 83 19 84 20 93 21 85 22 86 23 87 24
REMARK SMILES IDX 92 25 88 27 90 28 89 29 91 30 11 31 12 32 13 33 14 34 15 36
REMARK SMILES IDX 16 37 17 38 78 39 18 40 77 41 19 42 20 43 21 44 71 45 22 46
REMARK SMILES IDX 76 47 70 48 72 49 23 50 75 51 69 52 68 53 24 55 56 56 36 57
REMARK SMILES IDX 55 58 37 59 40 60 54 61 73 62 38 63 39 64 53 66 74 67 41 68
REMARK SMILES IDX 25 69 26 70 34 71 27 72 28 73 32 74 35 75 29 76 30 77 33 78
REMARK SMILES IDX 31 79 57 80 58 81 66 82 59 83 60 84 64 85 67 86 61 87 62 88
REMARK SMILES IDX 65 89 63 90 42 91 43 92 51 93 44 94 45 95 49 96 52 97 46 98
REMARK SMILES IDX 47 99 50 100 48 101
REMARK H PARENT 8 6 86 26 13 35 72 54 40 65
REMARK Flexibility Score: inf
ROOT
ATOM      1  C   UNL     1      -4.228   1.454   1.696  1.00  0.00     0.023 C 
ENDROOT
BRANCH   1   2
ATOM      2  C   UNL     1      -3.009   1.504   0.785  1.00  0.00     0.116 C 
BRANCH   2   3
ATOM      3  N   UNL     1      -1.892   0.815   1.365  1.00  0.00    -0.354 N 
ATOM      4  C   UNL     1      -1.388  -0.426   1.214  1.00  0.00     0.243 C 
ATOM      5  O   UNL     1      -0.354  -0.602   1.882  1.00  0.00    -0.273 OA
ATOM      6  H   UNL     1      -1.387   1.365   2.008  1.00  0.00     0.163 HD
BRANCH   4   7
ATOM      7  C   UNL     1      -1.847  -1.525   0.185  1.00  0.00     0.181 C 
BRANCH   7   8
ATOM      8  C   UNL     1      -1.335  -2.871   0.804  1.00  0.00     0.038 C 
BRANCH   8   9
ATOM      9  C   UNL     1      -1.970  -4.245   0.586  1.00  0.00    -0.015 C 
ATOM     10  C   UNL     1      -2.051  -4.671  -0.872  1.00  0.00     0.007 C 
ATOM     11  C   UNL     1      -1.157  -5.278   1.386  1.00  0.00     0.007 C 
ENDBRANCH   8   9
ENDBRANCH   7   8
BRANCH   7  12
ATOM     12  N   UNL     1      -3.172  -1.517  -0.492  1.00  0.00    -0.280 N 
ATOM     13  C   UNL     1      -4.293  -2.155   0.022  1.00  0.00     0.267 C 
ATOM     14  C   UNL     1      -3.411  -0.840  -1.681  1.00  0.00     0.149 C 
ATOM     15  O   UNL     1      -4.489  -2.435   1.194  1.00  0.00    -0.268 OA
ATOM     16  C   UNL     1      -5.340  -2.277  -1.057  1.00  0.00     0.093 C 
ATOM     17  S   UNL     1      -5.133  -0.887  -2.060  1.00  0.00    -0.053 SA
ATOM     18  S   UNL     1      -2.345  -0.046  -2.692  1.00  0.00    -0.052 S 
ATOM     19  C   UNL     1      -6.102  -3.334  -1.395  1.00  0.00     0.069 C 
ATOM     20  C   UNL     1      -5.897  -4.705  -0.804  1.00  0.00     0.257 C 
ATOM     21  C   UNL     1      -7.090  -3.510  -2.492  1.00  0.00     0.013 A 
ATOM     22  O   UNL     1      -5.130  -5.041   0.082  1.00  0.00    -0.269 OA
ATOM     23  N   UNL     1      -6.684  -5.560  -1.554  1.00  0.00    -0.321 N 
ATOM     24  C   UNL     1      -7.391  -4.877  -2.534  1.00  0.00     0.049 A 
ATOM     25  C   UNL     1      -7.739  -2.653  -3.369  1.00  0.00     0.026 A 
ATOM     26  H   UNL     1      -6.735  -6.532  -1.411  1.00  0.00     0.170 HD
ATOM     27  C   UNL     1      -8.285  -5.436  -3.431  1.00  0.00     0.028 A 
ATOM     28  C   UNL     1      -8.655  -3.197  -4.283  1.00  0.00     0.018 A 
ATOM     29  C   UNL     1      -8.927  -4.574  -4.320  1.00  0.00     0.018 A 
ATOM     30  Br  UNL     1      -9.555  -2.050  -5.492  1.00  0.00    -0.051 Br
ENDBRANCH   7  12
ENDBRANCH   4   7
ENDBRANCH   2   3
ENDBRANCH   1   2
BRANCH   1  31
ATOM     31  C   UNL     1      -4.340   2.646   2.648  1.00  0.00     0.023 C 
BRANCH  31  32
ATOM     32  C   UNL     1      -4.344   4.017   1.977  1.00  0.00     0.116 C 
BRANCH  32  33
ATOM     33  N   UNL     1      -5.298   4.136   0.883  1.00  0.00    -0.352 N 
ATOM     34  C   UNL     1      -5.965   5.259   0.457  1.00  0.00     0.251 C 
ATOM     35  H   UNL     1      -5.488   3.307   0.386  1.00  0.00     0.163 HD
ATOM     36  O   UNL     1      -6.815   5.190  -0.423  1.00  0.00    -0.269 OA
BRANCH  34  37
ATOM     37  C   UNL     1      -5.677   6.544   1.120  1.00  0.00     0.039 A 
ATOM     38  C   UNL     1      -6.739   7.271   1.657  1.00  0.00     0.014 A 
ATOM     39  C   UNL     1      -4.359   6.979   1.281  1.00  0.00     0.014 A 
ATOM     40  C   UNL     1      -6.471   8.400   2.429  1.00  0.00     0.010 A 
ATOM     41  C   UNL     1      -4.091   8.057   2.118  1.00  0.00     0.010 A 
ATOM     42  C   UNL     1      -5.143   8.773   2.706  1.00  0.00    -0.014 A 
BRANCH  42  43
ATOM     43  C   UNL     1      -4.853   9.896   3.632  1.00  0.00     0.031 A 
ATOM     44  C   UNL     1      -4.150  11.128   3.138  1.00  0.00     0.074 A 
ATOM     45  C   UNL     1      -5.195   9.783   4.931  1.00  0.00     0.049 A 
ATOM     46  N   UNL     1      -3.815  12.208   3.798  1.00  0.00    -0.248 NA
ATOM     47  C   UNL     1      -3.747  11.142   1.722  1.00  0.00     0.031 C 
ATOM     48  C   UNL     1      -5.819   8.608   5.543  1.00  0.00     0.029 A 
ATOM     49  N   UNL     1      -5.066  10.667   5.973  1.00  0.00    -0.354 N 
ATOM     50  C   UNL     1      -3.169  13.026   2.880  1.00  0.00     0.074 A 
ATOM     51  C   UNL     1      -3.096  12.293   1.636  1.00  0.00     0.031 C 
ATOM     52  C   UNL     1      -6.051   8.857   6.841  1.00  0.00     0.029 A 
ATOM     53  C   UNL     1      -5.561  10.193   7.163  1.00  0.00     0.049 A 
ATOM     54  H   UNL     1      -4.658  11.558   5.876  1.00  0.00     0.167 HD
ATOM     55  C   UNL     1      -2.709  14.287   3.052  1.00  0.00     0.037 A 
ATOM     56  C   UNL     1      -5.611  10.771   8.378  1.00  0.00     0.037 A 
ATOM     57  C   UNL     1      -2.795  15.018   4.289  1.00  0.00     0.049 A 
ATOM     58  C   UNL     1      -5.086  12.174   8.538  1.00  0.00     0.074 A 
ATOM     59  C   UNL     1      -2.397  16.317   4.554  1.00  0.00     0.029 A 
ATOM     60  N   UNL     1      -3.315  14.511   5.471  1.00  0.00    -0.354 N 
ATOM     61  N   UNL     1      -4.552  12.967   7.642  1.00  0.00    -0.248 NA
ATOM     62  C   UNL     1      -5.184  12.765   9.880  1.00  0.00     0.031 C 
ATOM     63  C   UNL     1      -2.632  16.580   5.907  1.00  0.00     0.029 A 
ATOM     64  C   UNL     1      -3.229  15.465   6.473  1.00  0.00     0.049 A 
ATOM     65  H   UNL     1      -3.689  13.607   5.582  1.00  0.00     0.167 HD
ATOM     66  C   UNL     1      -4.274  14.156   8.302  1.00  0.00     0.074 A 
ATOM     67  C   UNL     1      -4.728  13.991   9.667  1.00  0.00     0.031 C 
ATOM     68  C   UNL     1      -3.689  15.283   7.826  1.00  0.00     0.037 A 
BRANCH  55  69
ATOM     69  C   UNL     1      -2.088  14.970   1.868  1.00  0.00     0.064 A 
ATOM     70  C   UNL     1      -2.861  15.374   0.768  1.00  0.00     0.173 A 
ATOM     71  C   UNL     1      -0.719  15.277   1.855  1.00  0.00     0.173 A 
ATOM     72  F   UNL     1      -4.172  15.092   0.724  1.00  0.00    -0.203 F 
ATOM     73  C   UNL     1      -2.283  16.042  -0.308  1.00  0.00     0.198 A 
ATOM     74  C   UNL     1      -0.151  15.973   0.792  1.00  0.00     0.198 A 
ATOM     75  F   UNL     1       0.065  14.916   2.883  1.00  0.00    -0.203 F 
ATOM     76  F   UNL     1      -3.034  16.382  -1.365  1.00  0.00    -0.200 F 
ATOM     77  C   UNL     1      -0.931  16.350  -0.291  1.00  0.00     0.200 A 
ATOM     78  F   UNL     1       1.153  16.282   0.816  1.00  0.00    -0.200 F 
ATOM     79  F   UNL     1      -0.380  17.009  -1.320  1.00  0.00    -0.200 F 
ENDBRANCH  55  69
BRANCH  56  80
ATOM     80  C   UNL     1      -6.192  10.041   9.537  1.00  0.00     0.064 A 
ATOM     81  C   UNL     1      -7.377  10.477  10.148  1.00  0.00     0.173 A 
ATOM     82  C   UNL     1      -5.556   8.916  10.082  1.00  0.00     0.173 A 
ATOM     83  F   UNL     1      -8.014  11.560   9.677  1.00  0.00    -0.203 F 
ATOM     84  C   UNL     1      -7.880   9.841  11.281  1.00  0.00     0.198 A 
ATOM     85  C   UNL     1      -6.080   8.259  11.193  1.00  0.00     0.198 A 
ATOM     86  F   UNL     1      -4.424   8.452   9.532  1.00  0.00    -0.203 F 
ATOM     87  F   UNL     1      -8.977  10.321  11.884  1.00  0.00    -0.200 F 
ATOM     88  C   UNL     1      -7.233   8.731  11.801  1.00  0.00     0.200 A 
ATOM     89  F   UNL     1      -5.460   7.176  11.682  1.00  0.00    -0.200 F 
ATOM     90  F   UNL     1      -7.715   8.122  12.893  1.00  0.00    -0.200 F 
ENDBRANCH  56  80
BRANCH  68  91
ATOM     91  C   UNL     1      -3.536  16.430   8.784  1.00  0.00     0.064 A 
ATOM     92  C   UNL     1      -2.641  16.375   9.863  1.00  0.00     0.173 A 
ATOM     93  C   UNL     1      -4.287  17.603   8.614  1.00  0.00     0.173 A 
ATOM     94  F   UNL     1      -1.909  15.270  10.078  1.00  0.00    -0.203 F 
ATOM     95  C   UNL     1      -2.534  17.434  10.759  1.00  0.00     0.198 A 
ATOM     96  C   UNL     1      -4.151  18.675   9.491  1.00  0.00     0.198 A 
ATOM     97  F   UNL     1      -5.151  17.712   7.593  1.00  0.00    -0.203 F 
ATOM     98  F   UNL     1      -1.722  17.331  11.820  1.00  0.00    -0.200 F 
ATOM     99  C   UNL     1      -3.284  18.585  10.570  1.00  0.00     0.200 A 
ATOM    100  F   UNL     1      -4.864  19.792   9.297  1.00  0.00    -0.200 F 
ATOM    101  F   UNL     1      -3.181  19.603  11.434  1.00  0.00    -0.200 F 
ENDBRANCH  68  91
ENDBRANCH  42  43
ENDBRANCH  34  37
ENDBRANCH  32  33
ENDBRANCH  31  32
ENDBRANCH   1  31
TORSDOF 14
