REMARK SMILES O=C(NCCCCNC(=O)c1cccc2c1N[C@H](c1ccccc1Br)[C@H]1CC=C[C@H]21)c1ccc(-c2c3nc(c(-c4c(F)c(F)c(F)c(F)c4F)c4ccc([nH]4)c(-c4c(F)c(F)c(F)c(F)c4F)c4nc(c(-c5c(F)c(F)c(F)c(F)c5F)c5ccc2[nH]5)C=C4)C=C3)cc1
REMARK SMILES IDX 5 1 4 2 3 3 1 4 2 5 31 7 32 8 93 9 33 10 92 11 34 12 35 13
REMARK SMILES IDX 36 14 86 15 37 16 91 17 85 18 87 19 38 20 90 21 84 22 83 23
REMARK SMILES IDX 39 25 71 26 51 27 70 28 52 29 55 30 69 31 88 32 53 33 54 34
REMARK SMILES IDX 68 36 89 37 56 38 40 39 41 40 49 41 42 42 43 43 47 44 50 45
REMARK SMILES IDX 44 46 45 47 48 48 46 49 72 50 73 51 81 52 74 53 75 54 79 55
REMARK SMILES IDX 82 56 76 57 77 58 80 59 78 60 57 61 58 62 66 63 59 64 60 65
REMARK SMILES IDX 64 66 67 67 61 68 62 69 65 70 63 71 6 72 7 73 8 74 9 75
REMARK SMILES IDX 10 77 11 78 12 79 16 80 13 81 15 82 17 83 14 84 30 85 18 86
REMARK SMILES IDX 26 88 29 89 27 90 28 91 19 92 20 93 24 94 21 95 23 96 25 97
REMARK SMILES IDX 22 98
REMARK H PARENT 3 6 87 24 55 35 8 76 17 87
REMARK Flexibility Score: inf
ROOT
ATOM      1  C   UNL     1       5.097  -0.424   2.449  1.00  0.00     0.023 C 
ENDROOT
BRANCH   1   2
ATOM      2  C   UNL     1       4.723  -0.723   1.002  1.00  0.00     0.116 C 
BRANCH   2   3
ATOM      3  N   UNL     1       3.287  -0.820   0.802  1.00  0.00    -0.352 N 
ATOM      4  O   UNL     1       1.240  -0.217   0.083  1.00  0.00    -0.269 OA
ATOM      5  C   UNL     1       2.457  -0.076   0.004  1.00  0.00     0.251 C 
ATOM      6  H   UNL     1       2.841  -1.530   1.320  1.00  0.00     0.163 HD
BRANCH   5   7
ATOM      7  C   UNL     1       3.014   0.894  -0.963  1.00  0.00     0.039 A 
ATOM      8  C   UNL     1       2.395   2.140  -1.104  1.00  0.00     0.014 A 
ATOM      9  C   UNL     1       4.091   0.550  -1.785  1.00  0.00     0.014 A 
ATOM     10  C   UNL     1       2.863   3.047  -2.058  1.00  0.00     0.010 A 
ATOM     11  C   UNL     1       4.600   1.479  -2.688  1.00  0.00     0.010 A 
ATOM     12  C   UNL     1       3.969   2.722  -2.856  1.00  0.00    -0.014 A 
BRANCH  12  13
ATOM     13  C   UNL     1       4.414   3.602  -3.964  1.00  0.00     0.031 A 
ATOM     14  C   UNL     1       4.237   3.135  -5.382  1.00  0.00     0.074 A 
ATOM     15  C   UNL     1       4.998   4.787  -3.713  1.00  0.00     0.049 A 
ATOM     16  N   UNL     1       4.675   3.665  -6.496  1.00  0.00    -0.248 NA
ATOM     17  C   UNL     1       3.482   1.885  -5.566  1.00  0.00     0.031 C 
ATOM     18  C   UNL     1       5.206   5.365  -2.388  1.00  0.00     0.029 A 
ATOM     19  N   UNL     1       5.526   5.716  -4.574  1.00  0.00    -0.354 N 
ATOM     20  C   UNL     1       4.264   2.805  -7.506  1.00  0.00     0.074 A 
ATOM     21  C   UNL     1       3.591   1.693  -6.871  1.00  0.00     0.031 C 
ATOM     22  C   UNL     1       5.795   6.564  -2.523  1.00  0.00     0.029 A 
ATOM     23  C   UNL     1       6.046   6.816  -3.941  1.00  0.00     0.049 A 
ATOM     24  H   UNL     1       5.531   5.604  -5.552  1.00  0.00     0.167 HD
ATOM     25  C   UNL     1       4.413   2.941  -8.846  1.00  0.00     0.037 A 
ATOM     26  C   UNL     1       6.664   7.899  -4.449  1.00  0.00     0.037 A 
ATOM     27  C   UNL     1       5.067   4.055  -9.478  1.00  0.00     0.049 A 
ATOM     28  C   UNL     1       6.874   8.001  -5.935  1.00  0.00     0.074 A 
ATOM     29  C   UNL     1       5.270   4.287 -10.827  1.00  0.00     0.029 A 
ATOM     30  N   UNL     1       5.618   5.132  -8.799  1.00  0.00    -0.354 N 
ATOM     31  N   UNL     1       6.508   7.173  -6.883  1.00  0.00    -0.248 NA
ATOM     32  C   UNL     1       7.594   9.188  -6.419  1.00  0.00     0.031 C 
ATOM     33  C   UNL     1       5.973   5.490 -10.962  1.00  0.00     0.029 A 
ATOM     34  C   UNL     1       6.171   6.028  -9.700  1.00  0.00     0.049 A 
ATOM     35  H   UNL     1       5.617   5.243  -7.821  1.00  0.00     0.167 HD
ATOM     36  C   UNL     1       6.938   7.741  -8.075  1.00  0.00     0.074 A 
ATOM     37  C   UNL     1       7.578   8.995  -7.731  1.00  0.00     0.031 C 
ATOM     38  C   UNL     1       6.816   7.266  -9.339  1.00  0.00     0.037 A 
BRANCH  25  39
ATOM     39  C   UNL     1       3.856   1.845  -9.707  1.00  0.00     0.064 A 
ATOM     40  C   UNL     1       2.472   1.651  -9.843  1.00  0.00     0.173 A 
ATOM     41  C   UNL     1       4.710   0.972 -10.396  1.00  0.00     0.173 A 
ATOM     42  F   UNL     1       1.612   2.447  -9.188  1.00  0.00    -0.203 F 
ATOM     43  C   UNL     1       1.966   0.602 -10.604  1.00  0.00     0.198 A 
ATOM     44  C   UNL     1       4.200  -0.058 -11.182  1.00  0.00     0.198 A 
ATOM     45  F   UNL     1       6.041   1.112 -10.301  1.00  0.00    -0.203 F 
ATOM     46  F   UNL     1       0.642   0.398 -10.666  1.00  0.00    -0.200 F 
ATOM     47  C   UNL     1       2.829  -0.249 -11.277  1.00  0.00     0.200 A 
ATOM     48  F   UNL     1       5.035  -0.874 -11.839  1.00  0.00    -0.200 F 
ATOM     49  F   UNL     1       2.341  -1.262 -12.007  1.00  0.00    -0.200 F 
ENDBRANCH  25  39
BRANCH  26  50
ATOM     50  C   UNL     1       7.095   8.989  -3.539  1.00  0.00     0.064 A 
ATOM     51  C   UNL     1       6.400  10.206  -3.512  1.00  0.00     0.173 A 
ATOM     52  C   UNL     1       8.173   8.830  -2.658  1.00  0.00     0.173 A 
ATOM     53  F   UNL     1       5.377  10.411  -4.354  1.00  0.00    -0.203 F 
ATOM     54  C   UNL     1       6.766  11.223  -2.634  1.00  0.00     0.198 A 
ATOM     55  C   UNL     1       8.526   9.840  -1.766  1.00  0.00     0.198 A 
ATOM     56  F   UNL     1       8.870   7.684  -2.649  1.00  0.00    -0.203 F 
ATOM     57  F   UNL     1       6.098  12.385  -2.641  1.00  0.00    -0.200 F 
ATOM     58  C   UNL     1       7.823  11.036  -1.755  1.00  0.00     0.200 A 
ATOM     59  F   UNL     1       9.540   9.652  -0.910  1.00  0.00    -0.200 F 
ATOM     60  F   UNL     1       8.164  12.009  -0.898  1.00  0.00    -0.200 F 
ENDBRANCH  26  50
BRANCH  38  61
ATOM     61  C   UNL     1       7.377   8.109 -10.447  1.00  0.00     0.064 A 
ATOM     62  C   UNL     1       8.760   8.227 -10.648  1.00  0.00     0.173 A 
ATOM     63  C   UNL     1       6.524   8.773 -11.341  1.00  0.00     0.173 A 
ATOM     64  F   UNL     1       9.618   7.623  -9.812  1.00  0.00    -0.203 F 
ATOM     65  C   UNL     1       9.268   8.999 -11.690  1.00  0.00     0.198 A 
ATOM     66  C   UNL     1       7.035   9.521 -12.398  1.00  0.00     0.198 A 
ATOM     67  F   UNL     1       5.193   8.686 -11.196  1.00  0.00    -0.203 F 
ATOM     68  F   UNL     1      10.594   9.134 -11.837  1.00  0.00    -0.200 F 
ATOM     69  C   UNL     1       8.406   9.640 -12.567  1.00  0.00     0.200 A 
ATOM     70  F   UNL     1       6.200  10.129 -13.252  1.00  0.00    -0.200 F 
ATOM     71  F   UNL     1       8.896  10.377 -13.572  1.00  0.00    -0.200 F 
ENDBRANCH  38  61
ENDBRANCH  12  13
ENDBRANCH   5   7
ENDBRANCH   2   3
ENDBRANCH   1   2
BRANCH   1  72
ATOM     72  C   UNL     1       4.606  -1.442   3.475  1.00  0.00     0.023 C 
BRANCH  72  73
ATOM     73  C   UNL     1       4.923  -2.895   3.147  1.00  0.00     0.116 C 
BRANCH  73  74
ATOM     74  N   UNL     1       6.350  -3.149   3.026  1.00  0.00    -0.352 N 
ATOM     75  C   UNL     1       7.087  -4.143   3.625  1.00  0.00     0.253 C 
ATOM     76  H   UNL     1       6.849  -2.532   2.444  1.00  0.00     0.163 HD
ATOM     77  O   UNL     1       8.303  -4.188   3.468  1.00  0.00    -0.269 OA
BRANCH  75  78
ATOM     78  C   UNL     1       6.411  -5.137   4.485  1.00  0.00     0.063 A 
ATOM     79  C   UNL     1       6.827  -5.189   5.821  1.00  0.00     0.016 A 
ATOM     80  C   UNL     1       5.387  -5.978   4.001  1.00  0.00     0.051 A 
ATOM     81  C   UNL     1       6.189  -6.047   6.712  1.00  0.00     0.001 A 
ATOM     82  C   UNL     1       4.727  -6.817   4.930  1.00  0.00    -0.017 A 
ATOM     83  N   UNL     1       4.969  -5.930   2.673  1.00  0.00    -0.377 N 
ATOM     84  C   UNL     1       5.143  -6.856   6.270  1.00  0.00     0.006 A 
ATOM     85  C   UNL     1       3.657  -7.720   4.383  1.00  0.00     0.049 C 
ATOM     86  C   UNL     1       3.782  -6.619   2.150  1.00  0.00     0.115 C 
ATOM     87  H   UNL     1       5.505  -5.398   2.042  1.00  0.00     0.161 HD
ATOM     88  C   UNL     1       2.857  -6.943   3.319  1.00  0.00     0.031 C 
ATOM     89  C   UNL     1       2.523  -8.207   5.236  1.00  0.00    -0.023 C 
ATOM     90  C   UNL     1       1.640  -7.835   3.089  1.00  0.00     0.034 C 
ATOM     91  C   UNL     1       1.406  -8.311   4.498  1.00  0.00    -0.030 C 
BRANCH  86  92
ATOM     92  C   UNL     1       3.295  -5.828   0.933  1.00  0.00    -0.011 A 
ATOM     93  C   UNL     1       4.102  -5.981  -0.229  1.00  0.00     0.007 A 
ATOM     94  C   UNL     1       2.215  -4.932   0.828  1.00  0.00     0.023 A 
ATOM     95  C   UNL     1       3.832  -5.317  -1.428  1.00  0.00     0.000 A 
ATOM     96  C   UNL     1       1.924  -4.298  -0.397  1.00  0.00     0.016 A 
ATOM     97  Br  UNL     1       1.095  -4.363   2.251  1.00  0.00    -0.050 Br
ATOM     98  C   UNL     1       2.726  -4.489  -1.518  1.00  0.00     0.001 A 
ENDBRANCH  86  92
ENDBRANCH  75  78
ENDBRANCH  73  74
ENDBRANCH  72  73
ENDBRANCH   1  72
TORSDOF 12
