REMARK SMILES Cc1ccc(F)cc1S(=O)(=O)Nc1cc(C(=O)NCCCCNC(=O)c2ccc(-c3c4nc(c(-c5c(F)c(F)c(F)c(F)c5F)c5ccc([nH]5)c(-c5c(F)c(F)c(F)c(F)c5F)c5nc(c(-c6c(F)c(F)c(F)c(F)c6F)c6ccc3[nH]6)C=C5)C=C4)cc2)ccc1N(C)Cc1ccccc1
REMARK SMILES IDX 20 1 19 2 18 3 16 4 17 5 15 7 13 8 14 9 91 10 90 11 89 12
REMARK SMILES IDX 12 13 9 15 10 16 11 17 8 18 1 19 2 20 3 21 4 22 7 23 5 24
REMARK SMILES IDX 6 25 92 26 93 27 94 28 95 29 96 30 100 31 97 32 99 33 98 34
REMARK SMILES IDX 21 35 22 36 23 37 24 38 25 40 26 41 27 42 88 43 28 44 87 45
REMARK SMILES IDX 29 46 30 47 31 48 81 49 32 50 86 51 80 52 82 53 33 54 85 55
REMARK SMILES IDX 79 56 78 57 34 59 66 60 46 61 65 62 47 63 50 64 64 65 83 66
REMARK SMILES IDX 48 67 49 68 63 70 84 71 51 72 35 73 36 74 44 75 37 76 38 77
REMARK SMILES IDX 42 78 45 79 39 80 40 81 43 82 41 83 67 84 68 85 76 86 69 87
REMARK SMILES IDX 70 88 74 89 77 90 71 91 72 92 75 93 73 94 52 95 53 96 61 97
REMARK SMILES IDX 54 98 55 99 59 100 62 101 56 102 57 103 60 104 58 105
REMARK H PARENT 18 6 12 14 23 39 82 58 50 69
REMARK Flexibility Score: inf
ROOT
ATOM      1  C   UNL     1       7.751   3.028   1.498  1.00  0.00     0.023 C 
ENDROOT
BRANCH   1   2
ATOM      2  C   UNL     1       6.948   3.118   0.199  1.00  0.00     0.116 C 
BRANCH   2   3
ATOM      3  N   UNL     1       7.132   1.925  -0.591  1.00  0.00    -0.352 N 
ATOM      4  C   UNL     1       6.732   0.622  -0.433  1.00  0.00     0.251 C 
ATOM      5  O   UNL     1       7.300  -0.182  -1.178  1.00  0.00    -0.269 OA
ATOM      6  H   UNL     1       7.651   2.078  -1.414  1.00  0.00     0.163 HD
BRANCH   4   7
ATOM      7  C   UNL     1       5.631   0.120   0.478  1.00  0.00     0.042 A 
ATOM      8  C   UNL     1       3.868  -1.589   0.577  1.00  0.00     0.073 A 
ATOM      9  C   UNL     1       5.160  -1.160   0.171  1.00  0.00     0.042 A 
ATOM     10  C   UNL     1       3.106  -0.964   1.568  1.00  0.00     0.061 A 
ATOM     11  C   UNL     1       3.690   0.265   1.987  1.00  0.00     0.029 A 
ATOM     12  C   UNL     1       4.886   0.823   1.419  1.00  0.00     0.016 A 
BRANCH   8  13
ATOM     13  N   UNL     1       3.125  -2.297  -0.416  1.00  0.00    -0.277 N 
ATOM     14  H   UNL     1       2.954  -3.266  -0.395  1.00  0.00     0.180 HD
BRANCH  13  15
ATOM     15  S   UNL     1       2.562  -1.232  -1.665  1.00  0.00     0.262 S 
ATOM     16  O   UNL     1       1.604  -1.956  -2.453  1.00  0.00    -0.201 OA
ATOM     17  O   UNL     1       3.775  -0.792  -2.344  1.00  0.00    -0.201 OA
BRANCH  15  18
ATOM     18  C   UNL     1       1.728   0.249  -0.970  1.00  0.00     0.093 A 
ATOM     19  C   UNL     1       3.354   1.923  -1.962  1.00  0.00     0.046 C 
ATOM     20  C   UNL     1       2.065   1.558  -1.308  1.00  0.00    -0.030 A 
ATOM     21  C   UNL     1       1.164   2.618  -1.004  1.00  0.00     0.008 A 
ATOM     22  C   UNL     1      -0.011   2.417  -0.285  1.00  0.00     0.039 A 
ATOM     23  C   UNL     1       0.612   0.124  -0.148  1.00  0.00     0.061 A 
ATOM     24  C   UNL     1      -0.251   1.159   0.191  1.00  0.00     0.124 A 
ATOM     25  F   UNL     1      -1.302   0.919   0.989  1.00  0.00    -0.207 F 
ENDBRANCH  15  18
ENDBRANCH  13  15
ENDBRANCH   8  13
BRANCH  10  26
ATOM     26  N   UNL     1       1.807  -1.412   1.945  1.00  0.00    -0.369 N 
ATOM     27  C   UNL     1       1.224  -0.686   3.086  1.00  0.00     0.144 C 
BRANCH  26  28
ATOM     28  C   UNL     1       1.149  -2.796   1.678  1.00  0.00     0.151 C 
BRANCH  28  29
ATOM     29  C   UNL     1       0.418  -3.278   0.359  1.00  0.00    -0.029 A 
ATOM     30  C   UNL     1      -0.562  -2.635  -0.435  1.00  0.00     0.005 A 
ATOM     31  C   UNL     1       0.645  -4.614  -0.035  1.00  0.00     0.005 A 
ATOM     32  C   UNL     1      -0.955  -3.111  -1.709  1.00  0.00     0.000 A 
ATOM     33  C   UNL     1       0.155  -5.154  -1.245  1.00  0.00     0.000 A 
ATOM     34  C   UNL     1      -0.565  -4.367  -2.131  1.00  0.00     0.000 A 
ENDBRANCH  28  29
ENDBRANCH  26  28
ENDBRANCH  10  26
ENDBRANCH   4   7
ENDBRANCH   2   3
ENDBRANCH   1   2
BRANCH   1  35
ATOM     35  C   UNL     1       9.276   3.153   1.340  1.00  0.00     0.023 C 
BRANCH  35  36
ATOM     36  C   UNL     1       9.733   4.536   0.913  1.00  0.00     0.116 C 
BRANCH  36  37
ATOM     37  N   UNL     1       9.318   5.574   1.863  1.00  0.00    -0.352 N 
ATOM     38  C   UNL     1       9.620   6.921   1.835  1.00  0.00     0.251 C 
ATOM     39  H   UNL     1       8.754   5.274   2.612  1.00  0.00     0.163 HD
ATOM     40  O   UNL     1       9.545   7.620   2.836  1.00  0.00    -0.269 OA
BRANCH  38  41
ATOM     41  C   UNL     1       9.987   7.504   0.542  1.00  0.00     0.039 A 
ATOM     42  C   UNL     1      10.972   8.488   0.395  1.00  0.00     0.014 A 
ATOM     43  C   UNL     1       9.277   7.024  -0.550  1.00  0.00     0.014 A 
ATOM     44  C   UNL     1      11.252   8.966  -0.882  1.00  0.00     0.010 A 
ATOM     45  C   UNL     1       9.719   7.302  -1.799  1.00  0.00     0.010 A 
ATOM     46  C   UNL     1      10.611   8.357  -1.963  1.00  0.00    -0.014 A 
BRANCH  46  47
ATOM     47  C   UNL     1      10.717   8.762  -3.346  1.00  0.00     0.031 A 
ATOM     48  C   UNL     1      11.994   8.624  -4.034  1.00  0.00     0.074 A 
ATOM     49  C   UNL     1       9.544   9.065  -3.947  1.00  0.00     0.049 A 
ATOM     50  N   UNL     1      12.356   9.365  -5.014  1.00  0.00    -0.248 NA
ATOM     51  C   UNL     1      13.004   7.652  -3.633  1.00  0.00     0.031 C 
ATOM     52  C   UNL     1       9.195   9.202  -5.347  1.00  0.00     0.029 A 
ATOM     53  N   UNL     1       8.352   9.399  -3.276  1.00  0.00    -0.354 N 
ATOM     54  C   UNL     1      13.435   8.741  -5.600  1.00  0.00     0.074 A 
ATOM     55  C   UNL     1      13.913   7.814  -4.602  1.00  0.00     0.031 C 
ATOM     56  C   UNL     1       8.036   9.887  -5.430  1.00  0.00     0.029 A 
ATOM     57  C   UNL     1       7.684  10.328  -4.087  1.00  0.00     0.049 A 
ATOM     58  H   UNL     1       8.048   9.049  -2.407  1.00  0.00     0.167 HD
ATOM     59  C   UNL     1      13.643   8.949  -6.933  1.00  0.00     0.037 A 
ATOM     60  C   UNL     1       7.629  11.617  -3.632  1.00  0.00     0.037 A 
ATOM     61  C   UNL     1      12.587   9.827  -7.463  1.00  0.00     0.049 A 
ATOM     62  C   UNL     1       8.533  12.539  -4.419  1.00  0.00     0.074 A 
ATOM     63  C   UNL     1      11.407   9.598  -8.153  1.00  0.00     0.029 A 
ATOM     64  N   UNL     1      12.476  11.108  -6.956  1.00  0.00    -0.354 N 
ATOM     65  N   UNL     1       9.365  12.138  -5.342  1.00  0.00    -0.248 NA
ATOM     66  C   UNL     1       8.614  13.976  -4.188  1.00  0.00     0.031 C 
ATOM     67  C   UNL     1      10.591  10.768  -8.039  1.00  0.00     0.029 A 
ATOM     68  C   UNL     1      11.283  11.711  -7.299  1.00  0.00     0.049 A 
ATOM     69  H   UNL     1      13.172  11.543  -6.412  1.00  0.00     0.167 HD
ATOM     70  C   UNL     1      10.082  13.196  -5.821  1.00  0.00     0.074 A 
ATOM     71  C   UNL     1       9.595  14.324  -5.039  1.00  0.00     0.031 C 
ATOM     72  C   UNL     1      11.025  13.058  -6.805  1.00  0.00     0.037 A 
BRANCH  59  73
ATOM     73  C   UNL     1      14.595   8.182  -7.829  1.00  0.00     0.064 A 
ATOM     74  C   UNL     1      14.446   8.247  -9.233  1.00  0.00     0.173 A 
ATOM     75  C   UNL     1      15.665   7.373  -7.398  1.00  0.00     0.173 A 
ATOM     76  F   UNL     1      13.534   9.044  -9.805  1.00  0.00    -0.203 F 
ATOM     77  C   UNL     1      15.239   7.506 -10.115  1.00  0.00     0.198 A 
ATOM     78  C   UNL     1      16.439   6.606  -8.278  1.00  0.00     0.198 A 
ATOM     79  F   UNL     1      16.054   7.331  -6.121  1.00  0.00    -0.203 F 
ATOM     80  F   UNL     1      15.038   7.614 -11.436  1.00  0.00    -0.200 F 
ATOM     81  C   UNL     1      16.222   6.668  -9.637  1.00  0.00     0.200 A 
ATOM     82  F   UNL     1      17.409   5.817  -7.793  1.00  0.00    -0.200 F 
ATOM     83  F   UNL     1      16.975   5.950 -10.480  1.00  0.00    -0.200 F 
ENDBRANCH  59  73
BRANCH  60  84
ATOM     84  C   UNL     1       7.406  11.646  -2.143  1.00  0.00     0.064 A 
ATOM     85  C   UNL     1       6.231  11.019  -1.671  1.00  0.00     0.173 A 
ATOM     86  C   UNL     1       8.481  11.748  -1.246  1.00  0.00     0.173 A 
ATOM     87  F   UNL     1       5.156  10.925  -2.470  1.00  0.00    -0.203 F 
ATOM     88  C   UNL     1       6.219  10.324  -0.463  1.00  0.00     0.198 A 
ATOM     89  C   UNL     1       8.443  11.090  -0.011  1.00  0.00     0.198 A 
ATOM     90  F   UNL     1       9.614  12.363  -1.612  1.00  0.00    -0.203 F 
ATOM     91  F   UNL     1       5.160   9.566  -0.139  1.00  0.00    -0.200 F 
ATOM     92  C   UNL     1       7.341  10.324   0.345  1.00  0.00     0.200 A 
ATOM     93  F   UNL     1       9.514  11.124   0.795  1.00  0.00    -0.200 F 
ATOM     94  F   UNL     1       7.373   9.550   1.439  1.00  0.00    -0.200 F 
ENDBRANCH  60  84
BRANCH  72  95
ATOM     95  C   UNL     1      11.832  14.209  -7.356  1.00  0.00     0.064 A 
ATOM     96  C   UNL     1      11.295  15.492  -7.528  1.00  0.00     0.173 A 
ATOM     97  C   UNL     1      13.167  14.050  -7.803  1.00  0.00     0.173 A 
ATOM     98  F   UNL     1       9.992  15.730  -7.318  1.00  0.00    -0.203 F 
ATOM     99  C   UNL     1      12.077  16.567  -7.957  1.00  0.00     0.198 A 
ATOM    100  C   UNL     1      13.925  15.107  -8.292  1.00  0.00     0.198 A 
ATOM    101  F   UNL     1      13.805  12.874  -7.769  1.00  0.00    -0.203 F 
ATOM    102  F   UNL     1      11.544  17.794  -8.005  1.00  0.00    -0.200 F 
ATOM    103  C   UNL     1      13.394  16.375  -8.331  1.00  0.00     0.200 A 
ATOM    104  F   UNL     1      15.180  14.883  -8.706  1.00  0.00    -0.200 F 
ATOM    105  F   UNL     1      14.145  17.405  -8.738  1.00  0.00    -0.200 F 
ENDBRANCH  72  95
ENDBRANCH  46  47
ENDBRANCH  38  41
ENDBRANCH  36  37
ENDBRANCH  35  36
ENDBRANCH   1  35
TORSDOF 17
