REMARK SMILES [NH3+]C1(CC(=O)N[C@@H]2CCCC[C@H]2C(=O)NCCCCNC(=O)c2ccc(-c3c4nc(c(-c5c(F)c(F)c(F)c(F)c5F)c5ccc([nH]5)c(-c5c(F)c(F)c(F)c(F)c5F)c5nc(c(-c6c(F)c(F)c(F)c(F)c6F)c6ccc3[nH]6)C=C5)C=C4)cc2)CCC1
REMARK SMILES IDX 16 1 15 2 13 3 14 4 12 6 7 7 8 8 9 9 11 10 10 11 6 12 4 13
REMARK SMILES IDX 5 14 3 16 2 17 86 18 88 19 87 20 1 21 17 25 18 26 19 27
REMARK SMILES IDX 20 28 21 29 22 31 23 32 24 33 85 34 25 35 84 36 26 37 27 38
REMARK SMILES IDX 28 39 78 40 29 41 83 42 77 43 79 44 30 45 82 46 76 47 75 48
REMARK SMILES IDX 31 50 63 51 43 52 62 53 44 54 47 55 61 56 80 57 45 58 46 59
REMARK SMILES IDX 60 61 81 62 48 63 32 64 33 65 41 66 34 67 35 68 39 69 42 70
REMARK SMILES IDX 36 71 37 72 40 73 38 74 64 75 65 76 73 77 66 78 67 79 71 80
REMARK SMILES IDX 74 81 68 82 69 83 72 84 70 85 49 86 50 87 58 88 51 89 52 90
REMARK SMILES IDX 56 91 59 92 53 93 54 94 57 95 55 96
REMARK H PARENT 15 5 6 15 1 22 1 23 1 24 20 30 79 49 47 60
REMARK Flexibility Score: inf
ROOT
ATOM      1  C   UNL     1      -5.727  -2.261   0.242  1.00  0.00     0.116 C 
ENDROOT
BRANCH   1   2
ATOM      2  N   UNL     1      -5.590  -2.043  -1.187  1.00  0.00    -0.356 N 
ATOM      3  C   UNL     1      -4.503  -2.176  -2.007  1.00  0.00     0.225 C 
ATOM      4  O   UNL     1      -4.671  -1.963  -3.209  1.00  0.00    -0.275 OA
ATOM      5  H   UNL     1      -6.414  -1.750  -1.639  1.00  0.00     0.163 HD
BRANCH   3   6
ATOM      6  C   UNL     1      -3.133  -2.623  -1.471  1.00  0.00     0.101 C 
ATOM      7  C   UNL     1      -2.611  -1.631  -0.411  1.00  0.00     0.094 C 
ATOM      8  C   UNL     1      -1.873  -2.229   0.780  1.00  0.00     0.026 C 
ATOM      9  C   UNL     1      -2.304  -3.611   1.218  1.00  0.00     0.002 C 
ATOM     10  C   UNL     1      -3.241  -4.108  -1.060  1.00  0.00     0.015 C 
ATOM     11  C   UNL     1      -2.277  -4.553   0.028  1.00  0.00     0.001 C 
BRANCH   7  12
ATOM     12  N   UNL     1      -1.915  -0.458  -0.966  1.00  0.00    -0.352 N 
ATOM     13  C   UNL     1      -0.624  -0.184  -1.297  1.00  0.00     0.226 C 
ATOM     14  O   UNL     1      -0.354   0.992  -1.558  1.00  0.00    -0.275 OA
ATOM     15  H   UNL     1      -2.520   0.300  -1.135  1.00  0.00     0.163 HD
BRANCH  13  16
ATOM     16  C   UNL     1       0.438  -1.259  -1.366  1.00  0.00     0.168 C 
BRANCH  16  17
ATOM     17  C   UNL     1       1.568  -1.178  -0.328  1.00  0.00     0.103 C 
ATOM     18  C   UNL     1       2.591  -2.354  -0.460  1.00  0.00     0.069 C 
ATOM     19  C   UNL     1       1.470  -1.608   1.180  1.00  0.00     0.069 C 
ATOM     20  C   UNL     1       1.833  -3.036   0.703  1.00  0.00     0.013 C 
BRANCH  17  21
ATOM     21  N   UNL     1       2.332   0.073  -0.377  1.00  0.00    -0.352 N 
ATOM     22  H   UNL     1       2.416   0.383  -1.345  1.00  0.00     0.344 HD
ATOM     23  H   UNL     1       3.262  -0.081   0.012  1.00  0.00     0.344 HD
ATOM     24  H   UNL     1       1.850   0.787   0.168  1.00  0.00     0.344 HD
ENDBRANCH  17  21
ENDBRANCH  16  17
ENDBRANCH  13  16
ENDBRANCH   7  12
ENDBRANCH   3   6
ENDBRANCH   1   2
BRANCH   1  25
ATOM     25  C   UNL     1      -5.897  -0.960   1.027  1.00  0.00     0.023 C 
BRANCH  25  26
ATOM     26  C   UNL     1      -7.273  -0.321   0.902  1.00  0.00     0.023 C 
BRANCH  26  27
ATOM     27  C   UNL     1      -8.427  -1.236   1.271  1.00  0.00     0.116 C 
BRANCH  27  28
ATOM     28  N   UNL     1      -8.320  -1.798   2.610  1.00  0.00    -0.352 N 
ATOM     29  C   UNL     1      -9.344  -2.078   3.490  1.00  0.00     0.251 C 
ATOM     30  H   UNL     1      -7.409  -2.002   2.924  1.00  0.00     0.163 HD
ATOM     31  O   UNL     1      -9.122  -2.461   4.621  1.00  0.00    -0.269 OA
BRANCH  29  32
ATOM     32  C   UNL     1     -10.726  -1.849   3.022  1.00  0.00     0.039 A 
ATOM     33  C   UNL     1     -11.544  -0.981   3.745  1.00  0.00     0.014 A 
ATOM     34  C   UNL     1     -11.150  -2.402   1.812  1.00  0.00     0.014 A 
ATOM     35  C   UNL     1     -12.775  -0.605   3.208  1.00  0.00     0.010 A 
ATOM     36  C   UNL     1     -12.337  -1.962   1.243  1.00  0.00     0.010 A 
ATOM     37  C   UNL     1     -13.159  -1.060   1.936  1.00  0.00    -0.014 A 
BRANCH  37  38
ATOM     38  C   UNL     1     -14.424  -0.611   1.307  1.00  0.00     0.031 A 
ATOM     39  C   UNL     1     -15.505  -1.612   1.016  1.00  0.00     0.074 A 
ATOM     40  C   UNL     1     -14.565   0.675   0.932  1.00  0.00     0.049 A 
ATOM     41  N   UNL     1     -16.646  -1.443   0.399  1.00  0.00    -0.248 NA
ATOM     42  C   UNL     1     -15.253  -2.997   1.447  1.00  0.00     0.031 C 
ATOM     43  C   UNL     1     -13.562   1.726   1.112  1.00  0.00     0.029 A 
ATOM     44  N   UNL     1     -15.608   1.315   0.311  1.00  0.00    -0.354 N 
ATOM     45  C   UNL     1     -17.236  -2.698   0.354  1.00  0.00     0.074 A 
ATOM     46  C   UNL     1     -16.305  -3.630   0.951  1.00  0.00     0.031 C 
ATOM     47  C   UNL     1     -14.048   2.884   0.636  1.00  0.00     0.029 A 
ATOM     48  C   UNL     1     -15.380   2.651   0.087  1.00  0.00     0.049 A 
ATOM     49  H   UNL     1     -16.441   0.859   0.051  1.00  0.00     0.167 HD
ATOM     50  C   UNL     1     -18.458  -3.038  -0.118  1.00  0.00     0.037 A 
ATOM     51  C   UNL     1     -16.161   3.578  -0.499  1.00  0.00     0.037 A 
ATOM     52  C   UNL     1     -19.394  -2.101  -0.679  1.00  0.00     0.049 A 
ATOM     53  C   UNL     1     -17.518   3.176  -1.009  1.00  0.00     0.074 A 
ATOM     54  C   UNL     1     -20.683  -2.331  -1.126  1.00  0.00     0.029 A 
ATOM     55  N   UNL     1     -19.138  -0.750  -0.867  1.00  0.00    -0.354 N 
ATOM     56  N   UNL     1     -18.096   1.999  -0.984  1.00  0.00    -0.248 NA
ATOM     57  C   UNL     1     -18.334   4.232  -1.624  1.00  0.00     0.031 C 
ATOM     58  C   UNL     1     -21.194  -1.126  -1.620  1.00  0.00     0.029 A 
ATOM     59  C   UNL     1     -20.240  -0.137  -1.440  1.00  0.00     0.049 A 
ATOM     60  H   UNL     1     -18.299  -0.295  -0.628  1.00  0.00     0.167 HD
ATOM     61  C   UNL     1     -19.349   2.177  -1.552  1.00  0.00     0.074 A 
ATOM     62  C   UNL     1     -19.454   3.579  -1.900  1.00  0.00     0.031 C 
ATOM     63  C   UNL     1     -20.326   1.263  -1.768  1.00  0.00     0.037 A 
BRANCH  50  64
ATOM     64  C   UNL     1     -18.854  -4.482  -0.034  1.00  0.00     0.064 A 
ATOM     65  C   UNL     1     -19.128  -5.098   1.197  1.00  0.00     0.173 A 
ATOM     66  C   UNL     1     -18.985  -5.254  -1.197  1.00  0.00     0.173 A 
ATOM     67  F   UNL     1     -19.002  -4.406   2.341  1.00  0.00    -0.203 F 
ATOM     68  C   UNL     1     -19.489  -6.440   1.263  1.00  0.00     0.198 A 
ATOM     69  C   UNL     1     -19.376  -6.589  -1.130  1.00  0.00     0.198 A 
ATOM     70  F   UNL     1     -18.736  -4.714  -2.400  1.00  0.00    -0.203 F 
ATOM     71  F   UNL     1     -19.695  -7.020   2.454  1.00  0.00    -0.200 F 
ATOM     72  C   UNL     1     -19.620  -7.183   0.099  1.00  0.00     0.200 A 
ATOM     73  F   UNL     1     -19.511  -7.303  -2.256  1.00  0.00    -0.200 F 
ATOM     74  F   UNL     1     -19.973  -8.474   0.163  1.00  0.00    -0.200 F 
ENDBRANCH  50  64
BRANCH  51  75
ATOM     75  C   UNL     1     -15.694   4.985  -0.605  1.00  0.00     0.064 A 
ATOM     76  C   UNL     1     -16.287   5.997   0.163  1.00  0.00     0.173 A 
ATOM     77  C   UNL     1     -14.654   5.349  -1.472  1.00  0.00     0.173 A 
ATOM     78  F   UNL     1     -17.298   5.700   0.993  1.00  0.00    -0.203 F 
ATOM     79  C   UNL     1     -15.873   7.322   0.053  1.00  0.00     0.198 A 
ATOM     80  C   UNL     1     -14.223   6.671  -1.563  1.00  0.00     0.198 A 
ATOM     81  F   UNL     1     -14.050   4.418  -2.224  1.00  0.00    -0.203 F 
ATOM     82  F   UNL     1     -16.487   8.275   0.767  1.00  0.00    -0.200 F 
ATOM     83  C   UNL     1     -14.838   7.657  -0.806  1.00  0.00     0.200 A 
ATOM     84  F   UNL     1     -13.213   6.989  -2.385  1.00  0.00    -0.200 F 
ATOM     85  F   UNL     1     -14.437   8.932  -0.911  1.00  0.00    -0.200 F 
ENDBRANCH  51  75
BRANCH  63  86
ATOM     86  C   UNL     1     -21.605   1.755  -2.378  1.00  0.00     0.064 A 
ATOM     87  C   UNL     1     -21.683   2.114  -3.731  1.00  0.00     0.173 A 
ATOM     88  C   UNL     1     -22.776   1.824  -1.609  1.00  0.00     0.173 A 
ATOM     89  F   UNL     1     -20.586   2.079  -4.503  1.00  0.00    -0.203 F 
ATOM     90  C   UNL     1     -22.884   2.545  -4.287  1.00  0.00     0.198 A 
ATOM     91  C   UNL     1     -23.981   2.229  -2.175  1.00  0.00     0.198 A 
ATOM     92  F   UNL     1     -22.754   1.485  -0.311  1.00  0.00    -0.203 F 
ATOM     93  F   UNL     1     -22.927   2.924  -5.572  1.00  0.00    -0.200 F 
ATOM     94  C   UNL     1     -24.033   2.595  -3.511  1.00  0.00     0.200 A 
ATOM     95  F   UNL     1     -25.093   2.264  -1.427  1.00  0.00    -0.200 F 
ATOM     96  F   UNL     1     -25.190   3.002  -4.051  1.00  0.00    -0.200 F 
ENDBRANCH  63  86
ENDBRANCH  37  38
ENDBRANCH  29  32
ENDBRANCH  27  28
ENDBRANCH  26  27
ENDBRANCH  25  26
ENDBRANCH   1  25
TORSDOF 15
