REMARK SMILES CN(C)C(=O)CCNC(=O)NC[C@H]1CC[C@@H](C(=O)NCCCCNC(=O)c2ccc(-c3c4nc(c(-c5c(F)c(F)c(F)c(F)c5F)c5ccc([nH]5)c(-c5c(F)c(F)c(F)c(F)c5F)c5nc(c(-c6c(F)c(F)c(F)c(F)c6F)c6ccc3[nH]6)C=C5)C=C4)cc2)CC1
REMARK SMILES IDX 20 1 19 2 17 3 18 4 16 6 13 7 14 8 91 9 15 10 90 11 12 12
REMARK SMILES IDX 11 13 8 14 9 15 10 17 7 19 6 20 4 21 1 22 2 23 3 24 5 25
REMARK SMILES IDX 21 26 22 27 23 28 24 29 25 30 26 32 27 33 28 34 89 35 29 36
REMARK SMILES IDX 88 37 30 38 31 39 32 40 82 41 33 42 87 43 81 44 83 45 34 46
REMARK SMILES IDX 86 47 80 48 79 49 35 51 67 52 47 53 66 54 48 55 51 56 65 57
REMARK SMILES IDX 84 58 49 59 50 60 64 62 85 63 52 64 36 65 37 66 45 67 38 68
REMARK SMILES IDX 39 69 43 70 46 71 40 72 41 73 44 74 42 75 68 76 69 77 77 78
REMARK SMILES IDX 70 79 71 80 75 81 78 82 72 83 73 84 76 85 74 86 53 87 54 88
REMARK SMILES IDX 62 89 55 90 56 91 60 92 63 93 57 94 58 95 61 96 59 97
REMARK H PARENT 19 5 8 16 11 18 24 31 83 50 51 61
REMARK Flexibility Score: inf
ROOT
ATOM      1  C   UNL     1       1.240   8.392   0.284  1.00  0.00     0.116 C 
ENDROOT
BRANCH   1   2
ATOM      2  N   UNL     1       2.222   9.425   0.084  1.00  0.00    -0.356 N 
ATOM      3  C   UNL     1       2.666  10.070  -1.021  1.00  0.00     0.223 C 
ATOM      4  O   UNL     1       3.490  10.970  -0.813  1.00  0.00    -0.275 OA
ATOM      5  H   UNL     1       2.658   9.722   0.915  1.00  0.00     0.163 HD
BRANCH   3   6
ATOM      6  C   UNL     1       2.242   9.760  -2.466  1.00  0.00     0.078 C 
ATOM      7  C   UNL     1       0.415   7.511  -3.353  1.00  0.00     0.008 C 
ATOM      8  C   UNL     1      -0.171   8.853  -2.870  1.00  0.00     0.006 C 
ATOM      9  C   UNL     1       1.869   7.266  -2.935  1.00  0.00     0.006 C 
ATOM     10  C   UNL     1       0.789  10.040  -2.846  1.00  0.00     0.014 C 
ATOM     11  C   UNL     1       2.792   8.464  -3.051  1.00  0.00     0.014 C 
BRANCH   7  12
ATOM     12  C   UNL     1      -0.494   6.345  -2.879  1.00  0.00     0.121 C 
BRANCH  12  13
ATOM     13  N   UNL     1      -0.489   5.221  -3.796  1.00  0.00    -0.338 N 
ATOM     14  N   UNL     1       0.815   3.440  -2.928  1.00  0.00    -0.338 N 
ATOM     15  C   UNL     1       0.025   3.992  -3.847  1.00  0.00     0.314 C 
ATOM     16  H   UNL     1       1.111   2.537  -3.186  1.00  0.00     0.165 HD
ATOM     17  O   UNL     1      -0.257   3.305  -4.833  1.00  0.00    -0.249 OA
ATOM     18  H   UNL     1      -1.009   5.423  -4.607  1.00  0.00     0.165 HD
BRANCH  14  19
ATOM     19  C   UNL     1       1.347   3.841  -1.643  1.00  0.00     0.127 C 
BRANCH  19  20
ATOM     20  C   UNL     1       0.533   3.307  -0.473  1.00  0.00     0.121 C 
BRANCH  20  21
ATOM     21  C   UNL     1       1.071   1.961  -0.029  1.00  0.00     0.223 C 
ATOM     22  C   UNL     1       1.021  -0.482  -0.153  1.00  0.00     0.146 C 
ATOM     23  N   UNL     1       0.444   0.812  -0.479  1.00  0.00    -0.349 N 
ATOM     24  C   UNL     1      -0.819   0.802  -1.200  1.00  0.00     0.146 C 
ATOM     25  O   UNL     1       2.078   1.929   0.683  1.00  0.00    -0.275 OA
ENDBRANCH  20  21
ENDBRANCH  19  20
ENDBRANCH  14  19
ENDBRANCH  12  13
ENDBRANCH   7  12
ENDBRANCH   3   6
ENDBRANCH   1   2
BRANCH   1  26
ATOM     26  C   UNL     1       1.855   7.069   0.727  1.00  0.00     0.023 C 
BRANCH  26  27
ATOM     27  C   UNL     1       1.587   6.683   2.174  1.00  0.00     0.023 C 
BRANCH  27  28
ATOM     28  C   UNL     1       0.117   6.643   2.584  1.00  0.00     0.116 C 
BRANCH  28  29
ATOM     29  N   UNL     1      -0.739   5.839   1.718  1.00  0.00    -0.352 N 
ATOM     30  C   UNL     1      -1.700   4.913   2.077  1.00  0.00     0.251 C 
ATOM     31  H   UNL     1      -0.616   5.974   0.751  1.00  0.00     0.163 HD
ATOM     32  O   UNL     1      -2.274   4.245   1.235  1.00  0.00    -0.269 OA
BRANCH  30  33
ATOM     33  C   UNL     1      -1.986   4.726   3.514  1.00  0.00     0.039 A 
ATOM     34  C   UNL     1      -1.907   3.447   4.069  1.00  0.00     0.014 A 
ATOM     35  C   UNL     1      -2.210   5.842   4.320  1.00  0.00     0.014 A 
ATOM     36  C   UNL     1      -1.942   3.303   5.459  1.00  0.00     0.010 A 
ATOM     37  C   UNL     1      -2.142   5.707   5.698  1.00  0.00     0.010 A 
ATOM     38  C   UNL     1      -1.997   4.438   6.283  1.00  0.00    -0.014 A 
BRANCH  38  39
ATOM     39  C   UNL     1      -1.899   4.352   7.763  1.00  0.00     0.031 A 
ATOM     40  C   UNL     1      -3.014   4.902   8.608  1.00  0.00     0.074 A 
ATOM     41  C   UNL     1      -0.764   3.912   8.341  1.00  0.00     0.049 A 
ATOM     42  N   UNL     1      -3.047   5.126   9.896  1.00  0.00    -0.248 NA
ATOM     43  C   UNL     1      -4.236   5.306   7.896  1.00  0.00     0.031 C 
ATOM     44  C   UNL     1       0.417   3.414   7.632  1.00  0.00     0.029 A 
ATOM     45  N   UNL     1      -0.410   3.835   9.665  1.00  0.00    -0.354 N 
ATOM     46  C   UNL     1      -4.267   5.744  10.137  1.00  0.00     0.074 A 
ATOM     47  C   UNL     1      -4.925   5.900   8.858  1.00  0.00     0.031 C 
ATOM     48  C   UNL     1       1.354   3.063   8.528  1.00  0.00     0.029 A 
ATOM     49  C   UNL     1       0.858   3.349   9.870  1.00  0.00     0.049 A 
ATOM     50  H   UNL     1      -1.009   4.103  10.399  1.00  0.00     0.167 HD
ATOM     51  C   UNL     1      -4.800   6.127  11.321  1.00  0.00     0.037 A 
ATOM     52  C   UNL     1       1.545   3.165  11.014  1.00  0.00     0.037 A 
ATOM     53  C   UNL     1      -4.175   5.902  12.595  1.00  0.00     0.049 A 
ATOM     54  C   UNL     1       0.899   3.528  12.323  1.00  0.00     0.074 A 
ATOM     55  C   UNL     1      -4.667   6.173  13.859  1.00  0.00     0.029 A 
ATOM     56  N   UNL     1      -2.922   5.330  12.765  1.00  0.00    -0.354 N 
ATOM     57  N   UNL     1      -0.274   4.068  12.544  1.00  0.00    -0.248 NA
ATOM     58  C   UNL     1       1.673   3.252  13.542  1.00  0.00     0.031 C 
ATOM     59  C   UNL     1      -3.704   5.782  14.796  1.00  0.00     0.029 A 
ATOM     60  C   UNL     1      -2.625   5.239  14.115  1.00  0.00     0.049 A 
ATOM     61  H   UNL     1      -2.332   5.034  12.035  1.00  0.00     0.167 HD
ATOM     62  C   UNL     1      -0.392   4.173  13.923  1.00  0.00     0.074 A 
ATOM     63  C   UNL     1       0.825   3.630  14.489  1.00  0.00     0.031 C 
ATOM     64  C   UNL     1      -1.415   4.678  14.655  1.00  0.00     0.037 A 
BRANCH  51  65
ATOM     65  C   UNL     1      -6.133   6.815  11.287  1.00  0.00     0.064 A 
ATOM     66  C   UNL     1      -7.308   6.125  10.954  1.00  0.00     0.173 A 
ATOM     67  C   UNL     1      -6.239   8.178  11.602  1.00  0.00     0.173 A 
ATOM     68  F   UNL     1      -7.258   4.824  10.628  1.00  0.00    -0.203 F 
ATOM     69  C   UNL     1      -8.534   6.782  10.902  1.00  0.00     0.198 A 
ATOM     70  C   UNL     1      -7.471   8.824  11.579  1.00  0.00     0.198 A 
ATOM     71  F   UNL     1      -5.146   8.883  11.930  1.00  0.00    -0.203 F 
ATOM     72  F   UNL     1      -9.633   6.115  10.522  1.00  0.00    -0.200 F 
ATOM     73  C   UNL     1      -8.616   8.129  11.220  1.00  0.00     0.200 A 
ATOM     74  F   UNL     1      -7.551  10.124  11.896  1.00  0.00    -0.200 F 
ATOM     75  F   UNL     1      -9.797   8.760  11.169  1.00  0.00    -0.200 F 
ENDBRANCH  51  65
BRANCH  52  76
ATOM     76  C   UNL     1       2.907   2.573  10.976  1.00  0.00     0.064 A 
ATOM     77  C   UNL     1       3.124   1.259  11.414  1.00  0.00     0.173 A 
ATOM     78  C   UNL     1       4.011   3.297  10.507  1.00  0.00     0.173 A 
ATOM     79  F   UNL     1       2.100   0.536  11.891  1.00  0.00    -0.203 F 
ATOM     80  C   UNL     1       4.399   0.697  11.402  1.00  0.00     0.198 A 
ATOM     81  C   UNL     1       5.283   2.726  10.474  1.00  0.00     0.198 A 
ATOM     82  F   UNL     1       3.854   4.556  10.073  1.00  0.00    -0.203 F 
ATOM     83  F   UNL     1       4.585  -0.546  11.865  1.00  0.00    -0.200 F 
ATOM     84  C   UNL     1       5.476   1.429  10.928  1.00  0.00     0.200 A 
ATOM     85  F   UNL     1       6.320   3.432  10.006  1.00  0.00    -0.200 F 
ATOM     86  F   UNL     1       6.702   0.889  10.915  1.00  0.00    -0.200 F 
ENDBRANCH  52  76
BRANCH  64  87
ATOM     87  C   UNL     1      -1.279   4.629  16.146  1.00  0.00     0.064 A 
ATOM     88  C   UNL     1      -0.437   5.513  16.834  1.00  0.00     0.173 A 
ATOM     89  C   UNL     1      -2.038   3.719  16.896  1.00  0.00     0.173 A 
ATOM     90  F   UNL     1       0.319   6.391  16.157  1.00  0.00    -0.203 F 
ATOM     91  C   UNL     1      -0.346   5.476  18.223  1.00  0.00     0.198 A 
ATOM     92  C   UNL     1      -1.963   3.701  18.285  1.00  0.00     0.198 A 
ATOM     93  F   UNL     1      -2.862   2.857  16.281  1.00  0.00    -0.203 F 
ATOM     94  F   UNL     1       0.491   6.306  18.860  1.00  0.00    -0.200 F 
ATOM     95  C   UNL     1      -1.114   4.575  18.947  1.00  0.00     0.200 A 
ATOM     96  F   UNL     1      -2.712   2.837  18.984  1.00  0.00    -0.200 F 
ATOM     97  F   UNL     1      -1.031   4.547  20.284  1.00  0.00    -0.200 F 
ENDBRANCH  64  87
ENDBRANCH  38  39
ENDBRANCH  30  33
ENDBRANCH  28  29
ENDBRANCH  27  28
ENDBRANCH  26  27
ENDBRANCH   1  26
TORSDOF 16
