REMARK SMILES O=C(NCCCCNC(=O)c1cnc2sc(N3CCCCCC3)nn2c1=O)c1ccc(-c2c3nc(c(-c4c(F)c(F)c(F)c(F)c4F)c4ccc([nH]4)c(-c4c(F)c(F)c(F)c(F)c4F)c4nc(c(-c5c(F)c(F)c(F)c(F)c5F)c5ccc2[nH]5)C=C4)C=C3)cc1
REMARK SMILES IDX 7 1 6 2 5 3 4 4 3 5 1 6 2 7 28 9 29 10 90 11 30 12 89 13
REMARK SMILES IDX 31 14 32 15 33 16 83 17 34 18 88 19 82 20 84 21 35 22 87 23
REMARK SMILES IDX 81 24 80 25 36 27 68 28 48 29 67 30 49 31 52 32 66 33 85 34
REMARK SMILES IDX 50 35 51 36 65 38 86 39 53 40 37 41 38 42 46 43 39 44 40 45
REMARK SMILES IDX 44 46 47 47 41 48 42 49 45 50 43 51 69 52 70 53 78 54 71 55
REMARK SMILES IDX 72 56 76 57 79 58 73 59 74 60 77 61 75 62 54 63 55 64 63 65
REMARK SMILES IDX 56 66 57 67 61 68 64 69 58 70 59 71 62 72 60 73 8 74 9 75
REMARK SMILES IDX 10 77 11 78 12 79 26 80 13 81 25 82 27 83 14 84 24 85 15 86
REMARK SMILES IDX 16 87 17 88 18 89 19 90 20 91 21 92 23 94 22 95
REMARK H PARENT 3 8 84 26 52 37 8 76
REMARK Flexibility Score: 80.00
ROOT
ATOM      1  C   UNL     1       4.895  -3.882   2.030  1.00  0.00     0.116 C 
ENDROOT
BRANCH   1   2
ATOM      2  C   UNL     1       4.414  -2.658   2.806  1.00  0.00     0.023 C 
BRANCH   2   3
ATOM      3  C   UNL     1       4.873  -1.312   2.249  1.00  0.00     0.023 C 
BRANCH   3   4
ATOM      4  C   UNL     1       4.546  -1.073   0.779  1.00  0.00     0.116 C 
BRANCH   4   5
ATOM      5  N   UNL     1       3.115  -1.049   0.517  1.00  0.00    -0.352 N 
ATOM      6  O   UNL     1       1.109  -0.157   0.004  1.00  0.00    -0.269 OA
ATOM      7  C   UNL     1       2.331  -0.044   0.006  1.00  0.00     0.251 C 
ATOM      8  H   UNL     1       2.635  -1.880   0.741  1.00  0.00     0.163 HD
BRANCH   7   9
ATOM      9  C   UNL     1       2.954   1.191  -0.518  1.00  0.00     0.039 A 
ATOM     10  C   UNL     1       4.073   1.137  -1.353  1.00  0.00     0.014 A 
ATOM     11  C   UNL     1       2.395   2.426  -0.176  1.00  0.00     0.014 A 
ATOM     12  C   UNL     1       4.720   2.312  -1.722  1.00  0.00     0.010 A 
ATOM     13  C   UNL     1       3.000   3.607  -0.615  1.00  0.00     0.010 A 
ATOM     14  C   UNL     1       4.188   3.559  -1.361  1.00  0.00    -0.014 A 
BRANCH  14  15
ATOM     15  C   UNL     1       4.862   4.808  -1.797  1.00  0.00     0.031 A 
ATOM     16  C   UNL     1       5.466   5.748  -0.793  1.00  0.00     0.074 A 
ATOM     17  C   UNL     1       4.924   5.094  -3.111  1.00  0.00     0.049 A 
ATOM     18  N   UNL     1       6.050   6.904  -0.988  1.00  0.00    -0.248 NA
ATOM     19  C   UNL     1       5.401   5.340   0.619  1.00  0.00     0.031 C 
ATOM     20  C   UNL     1       4.373   4.260  -4.180  1.00  0.00     0.029 A 
ATOM     21  N   UNL     1       5.476   6.162  -3.772  1.00  0.00    -0.354 N 
ATOM     22  C   UNL     1       6.399   7.372   0.272  1.00  0.00     0.074 A 
ATOM     23  C   UNL     1       5.941   6.386   1.229  1.00  0.00     0.031 C 
ATOM     24  C   UNL     1       4.632   4.835  -5.363  1.00  0.00     0.029 A 
ATOM     25  C   UNL     1       5.314   6.104  -5.133  1.00  0.00     0.049 A 
ATOM     26  H   UNL     1       5.942   6.898  -3.313  1.00  0.00     0.167 HD
ATOM     27  C   UNL     1       7.048   8.517   0.598  1.00  0.00     0.037 A 
ATOM     28  C   UNL     1       5.653   6.987  -6.091  1.00  0.00     0.037 A 
ATOM     29  C   UNL     1       7.513   9.486  -0.360  1.00  0.00     0.049 A 
ATOM     30  C   UNL     1       6.345   8.262  -5.702  1.00  0.00     0.074 A 
ATOM     31  C   UNL     1       8.213  10.659  -0.133  1.00  0.00     0.029 A 
ATOM     32  N   UNL     1       7.320   9.398  -1.732  1.00  0.00    -0.354 N 
ATOM     33  N   UNL     1       6.695   8.680  -4.510  1.00  0.00    -0.248 NA
ATOM     34  C   UNL     1       6.687   9.187  -6.789  1.00  0.00     0.031 C 
ATOM     35  C   UNL     1       8.402  11.303  -1.360  1.00  0.00     0.029 A 
ATOM     36  C   UNL     1       7.867  10.507  -2.360  1.00  0.00     0.049 A 
ATOM     37  H   UNL     1       6.862   8.658  -2.191  1.00  0.00     0.167 HD
ATOM     38  C   UNL     1       7.319   9.904  -4.704  1.00  0.00     0.074 A 
ATOM     39  C   UNL     1       7.308  10.156  -6.131  1.00  0.00     0.031 C 
ATOM     40  C   UNL     1       7.853  10.741  -3.782  1.00  0.00     0.037 A 
BRANCH  27  41
ATOM     41  C   UNL     1       7.272   8.797   2.057  1.00  0.00     0.064 A 
ATOM     42  C   UNL     1       8.189   8.060   2.820  1.00  0.00     0.173 A 
ATOM     43  C   UNL     1       6.581   9.841   2.692  1.00  0.00     0.173 A 
ATOM     44  F   UNL     1       8.868   7.045   2.264  1.00  0.00    -0.203 F 
ATOM     45  C   UNL     1       8.384   8.337   4.171  1.00  0.00     0.198 A 
ATOM     46  C   UNL     1       6.800  10.134   4.036  1.00  0.00     0.198 A 
ATOM     47  F   UNL     1       5.698  10.583   2.007  1.00  0.00    -0.203 F 
ATOM     48  F   UNL     1       9.229   7.587   4.892  1.00  0.00    -0.200 F 
ATOM     49  C   UNL     1       7.694   9.376   4.776  1.00  0.00     0.200 A 
ATOM     50  F   UNL     1       6.141  11.147   4.615  1.00  0.00    -0.200 F 
ATOM     51  F   UNL     1       7.885   9.643   6.076  1.00  0.00    -0.200 F 
ENDBRANCH  27  41
BRANCH  28  52
ATOM     52  C   UNL     1       5.335   6.682  -7.508  1.00  0.00     0.064 A 
ATOM     53  C   UNL     1       6.347   6.364  -8.422  1.00  0.00     0.173 A 
ATOM     54  C   UNL     1       4.009   6.665  -7.966  1.00  0.00     0.173 A 
ATOM     55  F   UNL     1       7.631   6.385  -8.034  1.00  0.00    -0.203 F 
ATOM     56  C   UNL     1       6.046   6.047  -9.745  1.00  0.00     0.198 A 
ATOM     57  C   UNL     1       3.707   6.321  -9.281  1.00  0.00     0.198 A 
ATOM     58  F   UNL     1       3.004   6.956  -7.127  1.00  0.00    -0.203 F 
ATOM     59  F   UNL     1       7.035   5.777 -10.608  1.00  0.00    -0.200 F 
ATOM     60  C   UNL     1       4.726   6.017 -10.171  1.00  0.00     0.200 A 
ATOM     61  F   UNL     1       2.430   6.276  -9.684  1.00  0.00    -0.200 F 
ATOM     62  F   UNL     1       4.437   5.698 -11.440  1.00  0.00    -0.200 F 
ENDBRANCH  28  52
BRANCH  40  63
ATOM     63  C   UNL     1       8.507  11.993  -4.289  1.00  0.00     0.064 A 
ATOM     64  C   UNL     1       7.755  13.070  -4.780  1.00  0.00     0.173 A 
ATOM     65  C   UNL     1       9.903  12.131  -4.242  1.00  0.00     0.173 A 
ATOM     66  F   UNL     1       6.419  12.980  -4.861  1.00  0.00    -0.203 F 
ATOM     67  C   UNL     1       8.379  14.233  -5.225  1.00  0.00     0.198 A 
ATOM     68  C   UNL     1      10.521  13.305  -4.662  1.00  0.00     0.198 A 
ATOM     69  F   UNL     1      10.666  11.130  -3.777  1.00  0.00    -0.203 F 
ATOM     70  F   UNL     1       7.645  15.234  -5.730  1.00  0.00    -0.200 F 
ATOM     71  C   UNL     1       9.760  14.352  -5.158  1.00  0.00     0.200 A 
ATOM     72  F   UNL     1      11.854  13.423  -4.586  1.00  0.00    -0.200 F 
ATOM     73  F   UNL     1      10.357  15.475  -5.579  1.00  0.00    -0.200 F 
ENDBRANCH  40  63
ENDBRANCH  14  15
ENDBRANCH   7   9
ENDBRANCH   4   5
ENDBRANCH   3   4
ENDBRANCH   2   3
ENDBRANCH   1   2
BRANCH   1  74
ATOM     74  N   UNL     1       6.346  -4.002   2.012  1.00  0.00    -0.352 N 
ATOM     75  C   UNL     1       7.113  -5.112   2.240  1.00  0.00     0.258 C 
ATOM     76  H   UNL     1       6.841  -3.175   1.808  1.00  0.00     0.163 HD
ATOM     77  O   UNL     1       8.338  -5.036   2.220  1.00  0.00    -0.269 OA
BRANCH  75  78
ATOM     78  C   UNL     1       6.428  -6.360   2.611  1.00  0.00     0.125 A 
ATOM     79  C   UNL     1       6.599  -6.816   3.863  1.00  0.00     0.134 A 
ATOM     80  C   UNL     1       5.467  -7.051   1.722  1.00  0.00     0.288 A 
ATOM     81  N   UNL     1       5.883  -7.841   4.436  1.00  0.00    -0.226 NA
ATOM     82  N   UNL     1       4.773  -8.062   2.357  1.00  0.00    -0.165 N 
ATOM     83  O   UNL     1       5.295  -6.680   0.563  1.00  0.00    -0.266 OA
ATOM     84  C   UNL     1       4.996  -8.382   3.669  1.00  0.00     0.217 A 
ATOM     85  N   UNL     1       3.768  -8.745   1.722  1.00  0.00    -0.133 NA
ATOM     86  S   UNL     1       3.871  -9.589   4.179  1.00  0.00    -0.057 S 
ATOM     87  C   UNL     1       3.184  -9.547   2.559  1.00  0.00     0.208 A 
BRANCH  87  88
ATOM     88  N   UNL     1       2.110 -10.356   2.263  1.00  0.00    -0.347 N 
BRANCH  88  89
ATOM     89  C   UNL     1       0.896 -10.309   3.075  1.00  0.00     0.119 C 
BRANCH  89  90
ATOM     90  C   UNL     1       0.750 -11.575   3.911  1.00  0.00     0.021 C 
BRANCH  90  91
ATOM     91  C   UNL     1       0.326 -12.803   3.111  1.00  0.00     0.002 C 
BRANCH  91  92
ATOM     92  C   UNL     1       1.224 -13.135   1.918  1.00  0.00     0.002 CG0
ATOM     93  G   UNL     1       1.098 -12.119   0.782  1.00  0.00     0.000 G0
ENDBRANCH  91  92
ENDBRANCH  90  91
ENDBRANCH  89  90
ENDBRANCH  88  89
BRANCH  88  94
ATOM     94  C   UNL     1       2.011 -10.899   0.909  1.00  0.00     0.119 C 
BRANCH  94  95
ATOM     95  C   UNL     1       1.098 -12.119   0.782  1.00  0.00     0.021 CG0
ATOM     96  G   UNL     1       1.224 -13.135   1.918  1.00  0.00     0.000 G0
ENDBRANCH  94  95
ENDBRANCH  88  94
ENDBRANCH  87  88
ENDBRANCH  75  78
ENDBRANCH   1  74
TORSDOF 12
