REMARK SMILES CC(=O)Cn1c(C(=O)NCCCCNC(=O)c2ccc(-c3c4nc(c(-c5c(F)c(F)c(F)c(F)c5F)c5ccc([nH]5)c(-c5c(F)c(F)c(F)c(F)c5F)c5nc(c(-c6c(F)c(F)c(F)c(F)c6F)c6ccc3[nH]6)C=C5)C=C4)cc2)nc2cccnc21
REMARK SMILES IDX 11 1 10 2 9 3 7 4 8 5 6 7 5 8 86 9 80 10 81 11 85 12 82 13
REMARK SMILES IDX 84 14 83 15 4 16 2 17 1 18 3 19 12 20 13 21 14 22 15 23
REMARK SMILES IDX 16 25 17 26 18 27 79 28 19 29 78 30 20 31 21 32 22 33 72 34
REMARK SMILES IDX 23 35 77 36 71 37 73 38 24 39 76 40 70 41 69 42 25 44 57 45
REMARK SMILES IDX 37 46 56 47 38 48 41 49 55 50 74 51 39 52 40 53 54 55 75 56
REMARK SMILES IDX 42 57 26 58 27 59 35 60 28 61 29 62 33 63 36 64 30 65 31 66
REMARK SMILES IDX 34 67 32 68 58 69 59 70 67 71 60 72 61 73 65 74 68 75 62 76
REMARK SMILES IDX 63 77 66 78 64 79 43 80 44 81 52 82 45 83 46 84 50 85 53 86
REMARK SMILES IDX 47 87 48 88 51 89 49 90
REMARK H PARENT 9 6 14 24 73 43 41 54
REMARK Flexibility Score: inf
ROOT
ATOM      1  C   UNL     1       0.485  -2.382   5.103  1.00  0.00     0.023 C 
ENDROOT
BRANCH   1   2
ATOM      2  C   UNL     1       1.498  -2.619   3.990  1.00  0.00     0.116 C 
BRANCH   2   3
ATOM      3  N   UNL     1       1.543  -3.947   3.456  1.00  0.00    -0.349 N 
ATOM      4  C   UNL     1       1.289  -4.511   2.227  1.00  0.00     0.287 C 
ATOM      5  O   UNL     1       1.677  -5.689   2.194  1.00  0.00    -0.266 OA
ATOM      6  H   UNL     1       1.822  -4.614   4.125  1.00  0.00     0.163 HD
BRANCH   4   7
ATOM      7  C   UNL     1       0.608  -3.905   1.059  1.00  0.00     0.201 A 
ATOM      8  N   UNL     1       0.223  -2.622   0.648  1.00  0.00    -0.297 N 
ATOM      9  C   UNL     1      -0.528  -2.751  -0.494  1.00  0.00     0.160 A 
ATOM     10  N   UNL     1       0.245  -4.768   0.104  1.00  0.00    -0.222 NA
ATOM     11  C   UNL     1      -0.465  -4.086  -0.831  1.00  0.00     0.109 A 
ATOM     12  N   UNL     1      -1.162  -1.772  -1.163  1.00  0.00    -0.237 NA
ATOM     13  C   UNL     1      -1.102  -4.503  -2.002  1.00  0.00     0.034 A 
ATOM     14  C   UNL     1      -1.778  -2.213  -2.282  1.00  0.00     0.113 A 
ATOM     15  C   UNL     1      -1.773  -3.526  -2.741  1.00  0.00     0.022 A 
BRANCH   8  16
ATOM     16  C   UNL     1       0.485  -1.333   1.261  1.00  0.00     0.201 C 
BRANCH  16  17
ATOM     17  C   UNL     1       0.240  -0.051   0.505  1.00  0.00     0.149 C 
ATOM     18  C   UNL     1       1.157   0.284  -0.642  1.00  0.00     0.089 C 
ATOM     19  O   UNL     1      -0.558   0.786   0.938  1.00  0.00    -0.298 OA
ENDBRANCH  16  17
ENDBRANCH   8  16
ENDBRANCH   4   7
ENDBRANCH   2   3
ENDBRANCH   1   2
BRANCH   1  20
ATOM     20  C   UNL     1       1.072  -2.357   6.515  1.00  0.00     0.023 C 
BRANCH  20  21
ATOM     21  C   UNL     1       2.176  -1.329   6.714  1.00  0.00     0.116 C 
BRANCH  21  22
ATOM     22  N   UNL     1       1.737   0.056   6.557  1.00  0.00    -0.352 N 
ATOM     23  C   UNL     1       2.489   1.186   6.839  1.00  0.00     0.251 C 
ATOM     24  H   UNL     1       0.824   0.200   6.220  1.00  0.00     0.163 HD
ATOM     25  O   UNL     1       1.987   2.279   7.014  1.00  0.00    -0.269 OA
BRANCH  23  26
ATOM     26  C   UNL     1       3.951   1.018   6.870  1.00  0.00     0.039 A 
ATOM     27  C   UNL     1       4.740   1.520   7.908  1.00  0.00     0.014 A 
ATOM     28  C   UNL     1       4.503   0.283   5.821  1.00  0.00     0.014 A 
ATOM     29  C   UNL     1       6.103   1.243   7.896  1.00  0.00     0.010 A 
ATOM     30  C   UNL     1       5.800  -0.130   5.899  1.00  0.00     0.010 A 
ATOM     31  C   UNL     1       6.613   0.423   6.881  1.00  0.00    -0.014 A 
BRANCH  31  32
ATOM     32  C   UNL     1       8.023   0.104   6.781  1.00  0.00     0.031 A 
ATOM     33  C   UNL     1       8.549  -0.825   7.816  1.00  0.00     0.074 A 
ATOM     34  C   UNL     1       8.694   0.426   5.656  1.00  0.00     0.049 A 
ATOM     35  N   UNL     1       9.485  -0.598   8.676  1.00  0.00    -0.248 NA
ATOM     36  C   UNL     1       7.885  -2.127   7.995  1.00  0.00     0.031 C 
ATOM     37  C   UNL     1       8.191   1.058   4.427  1.00  0.00     0.029 A 
ATOM     38  N   UNL     1       9.983   0.149   5.339  1.00  0.00    -0.354 N 
ATOM     39  C   UNL     1       9.641  -1.772   9.410  1.00  0.00     0.074 A 
ATOM     40  C   UNL     1       8.534  -2.620   9.052  1.00  0.00     0.031 C 
ATOM     41  C   UNL     1       9.099   0.910   3.436  1.00  0.00     0.029 A 
ATOM     42  C   UNL     1      10.299   0.321   3.996  1.00  0.00     0.049 A 
ATOM     43  H   UNL     1      10.642  -0.151   6.006  1.00  0.00     0.167 HD
ATOM     44  C   UNL     1      10.779  -2.022  10.117  1.00  0.00     0.037 A 
ATOM     45  C   UNL     1      11.459  -0.065   3.410  1.00  0.00     0.037 A 
ATOM     46  C   UNL     1      11.560  -0.822  10.272  1.00  0.00     0.049 A 
ATOM     47  C   UNL     1      12.460  -0.214   4.506  1.00  0.00     0.074 A 
ATOM     48  C   UNL     1      11.344   0.381  10.914  1.00  0.00     0.029 A 
ATOM     49  N   UNL     1      12.575  -0.590   9.373  1.00  0.00    -0.354 N 
ATOM     50  N   UNL     1      12.886   0.792   5.224  1.00  0.00    -0.248 NA
ATOM     51  C   UNL     1      12.563  -1.523   5.140  1.00  0.00     0.031 C 
ATOM     52  C   UNL     1      11.858   1.366  10.020  1.00  0.00     0.029 A 
ATOM     53  C   UNL     1      12.438   0.705   8.936  1.00  0.00     0.049 A 
ATOM     54  H   UNL     1      13.270  -1.230   9.096  1.00  0.00     0.167 HD
ATOM     55  C   UNL     1      12.929   0.312   6.527  1.00  0.00     0.074 A 
ATOM     56  C   UNL     1      12.762  -1.137   6.405  1.00  0.00     0.031 C 
ATOM     57  C   UNL     1      12.785   1.144   7.602  1.00  0.00     0.037 A 
BRANCH  44  58
ATOM     58  C   UNL     1      11.340  -3.386  10.425  1.00  0.00     0.064 A 
ATOM     59  C   UNL     1      12.422  -3.504  11.322  1.00  0.00     0.173 A 
ATOM     60  C   UNL     1      11.046  -4.542   9.673  1.00  0.00     0.173 A 
ATOM     61  F   UNL     1      12.800  -2.463  12.080  1.00  0.00    -0.203 F 
ATOM     62  C   UNL     1      13.190  -4.668  11.405  1.00  0.00     0.198 A 
ATOM     63  C   UNL     1      11.782  -5.720   9.798  1.00  0.00     0.198 A 
ATOM     64  F   UNL     1      10.112  -4.548   8.715  1.00  0.00    -0.203 F 
ATOM     65  F   UNL     1      14.279  -4.693  12.187  1.00  0.00    -0.200 F 
ATOM     66  C   UNL     1      12.873  -5.774  10.639  1.00  0.00     0.200 A 
ATOM     67  F   UNL     1      11.467  -6.777   9.035  1.00  0.00    -0.200 F 
ATOM     68  F   UNL     1      13.640  -6.871  10.675  1.00  0.00    -0.200 F 
ENDBRANCH  44  58
BRANCH  45  69
ATOM     69  C   UNL     1      11.623  -0.660   2.060  1.00  0.00     0.064 A 
ATOM     70  C   UNL     1      12.879  -0.743   1.440  1.00  0.00     0.173 A 
ATOM     71  C   UNL     1      10.582  -1.396   1.456  1.00  0.00     0.173 A 
ATOM     72  F   UNL     1      13.936  -0.115   1.976  1.00  0.00    -0.203 F 
ATOM     73  C   UNL     1      13.084  -1.522   0.293  1.00  0.00     0.198 A 
ATOM     74  C   UNL     1      10.785  -2.169   0.312  1.00  0.00     0.198 A 
ATOM     75  F   UNL     1       9.365  -1.454   2.016  1.00  0.00    -0.203 F 
ATOM     76  F   UNL     1      14.309  -1.616  -0.243  1.00  0.00    -0.200 F 
ATOM     77  C   UNL     1      12.038  -2.241  -0.265  1.00  0.00     0.200 A 
ATOM     78  F   UNL     1       9.772  -2.888  -0.193  1.00  0.00    -0.200 F 
ATOM     79  F   UNL     1      12.245  -3.029  -1.329  1.00  0.00    -0.200 F 
ENDBRANCH  45  69
BRANCH  57  80
ATOM     80  C   UNL     1      12.738   2.632   7.361  1.00  0.00     0.064 A 
ATOM     81  C   UNL     1      11.715   3.275   6.640  1.00  0.00     0.173 A 
ATOM     82  C   UNL     1      13.631   3.451   8.063  1.00  0.00     0.173 A 
ATOM     83  F   UNL     1      10.760   2.573   6.025  1.00  0.00    -0.203 F 
ATOM     84  C   UNL     1      11.607   4.665   6.605  1.00  0.00     0.198 A 
ATOM     85  C   UNL     1      13.501   4.838   8.056  1.00  0.00     0.198 A 
ATOM     86  F   UNL     1      14.592   2.899   8.820  1.00  0.00    -0.203 F 
ATOM     87  F   UNL     1      10.613   5.245   5.915  1.00  0.00    -0.200 F 
ATOM     88  C   UNL     1      12.494   5.446   7.324  1.00  0.00     0.200 A 
ATOM     89  F   UNL     1      14.329   5.586   8.799  1.00  0.00    -0.200 F 
ATOM     90  F   UNL     1      12.359   6.779   7.338  1.00  0.00    -0.200 F 
ENDBRANCH  57  80
ENDBRANCH  31  32
ENDBRANCH  23  26
ENDBRANCH  21  22
ENDBRANCH  20  21
ENDBRANCH   1  20
TORSDOF 13
