REMARK SMILES O=C(NCCCCNC(=O)c1ccc(NC2CC2)c(F)c1F)c1ccc(-c2c3nc(c(-c4c(F)c(F)c(F)c(F)c4F)c4ccc([nH]4)c(-c4c(F)c(F)c(F)c(F)c4F)c4nc(c(-c5c(F)c(F)c(F)c(F)c5F)c5ccc2[nH]5)C=C4)C=C3)cc1
REMARK SMILES IDX 5 1 4 2 3 3 1 4 2 5 23 7 24 8 85 9 25 10 84 11 26 12 27 13
REMARK SMILES IDX 28 14 78 15 29 16 83 17 77 18 79 19 30 20 82 21 76 22 75 23
REMARK SMILES IDX 31 25 63 26 43 27 62 28 44 29 47 30 61 31 80 32 45 33 46 34
REMARK SMILES IDX 60 36 81 37 48 38 32 39 33 40 41 41 34 42 35 43 39 44 42 45
REMARK SMILES IDX 36 46 37 47 40 48 38 49 64 50 65 51 73 52 66 53 67 54 71 55
REMARK SMILES IDX 74 56 68 57 69 58 72 59 70 60 49 61 50 62 58 63 51 64 52 65
REMARK SMILES IDX 56 66 59 67 53 68 54 69 57 70 55 71 6 72 7 73 8 74 9 75
REMARK SMILES IDX 10 77 11 78 12 79 21 80 13 81 19 82 22 83 14 84 20 85 15 86
REMARK SMILES IDX 16 88 17 89 18 90
REMARK H PARENT 3 6 79 24 47 35 8 76 15 87
REMARK Flexibility Score: inf
ROOT
ATOM      1  C   UNL     1       4.832  -0.343  -2.753  1.00  0.00     0.023 C 
ENDROOT
BRANCH   1   2
ATOM      2  C   UNL     1       4.531   0.265  -1.391  1.00  0.00     0.116 C 
BRANCH   2   3
ATOM      3  N   UNL     1       3.106   0.379  -1.113  1.00  0.00    -0.352 N 
ATOM      4  O   UNL     1       1.163  -0.032  -0.032  1.00  0.00    -0.269 OA
ATOM      5  C   UNL     1       2.387  -0.116  -0.048  1.00  0.00     0.251 C 
ATOM      6  H   UNL     1       2.584   0.881  -1.780  1.00  0.00     0.163 HD
BRANCH   5   7
ATOM      7  C   UNL     1       3.098  -0.782   1.065  1.00  0.00     0.039 A 
ATOM      8  C   UNL     1       4.258  -0.220   1.595  1.00  0.00     0.014 A 
ATOM      9  C   UNL     1       2.618  -1.999   1.560  1.00  0.00     0.014 A 
ATOM     10  C   UNL     1       5.035  -0.956   2.478  1.00  0.00     0.010 A 
ATOM     11  C   UNL     1       3.346  -2.689   2.534  1.00  0.00     0.010 A 
ATOM     12  C   UNL     1       4.584  -2.193   2.970  1.00  0.00    -0.014 A 
BRANCH  12  13
ATOM     13  C   UNL     1       5.410  -2.894   3.987  1.00  0.00     0.031 A 
ATOM     14  C   UNL     1       6.043  -4.227   3.710  1.00  0.00     0.074 A 
ATOM     15  C   UNL     1       5.646  -2.263   5.154  1.00  0.00     0.049 A 
ATOM     16  N   UNL     1       6.880  -4.908   4.454  1.00  0.00    -0.248 NA
ATOM     17  C   UNL     1       5.690  -4.892   2.447  1.00  0.00     0.031 C 
ATOM     18  C   UNL     1       5.066  -0.974   5.537  1.00  0.00     0.029 A 
ATOM     19  N   UNL     1       6.464  -2.585   6.206  1.00  0.00    -0.354 N 
ATOM     20  C   UNL     1       7.137  -6.084   3.762  1.00  0.00     0.074 A 
ATOM     21  C   UNL     1       6.349  -6.039   2.550  1.00  0.00     0.031 C 
ATOM     22  C   UNL     1       5.612  -0.572   6.691  1.00  0.00     0.029 A 
ATOM     23  C   UNL     1       6.527  -1.604   7.166  1.00  0.00     0.049 A 
ATOM     24  H   UNL     1       6.958  -3.434   6.268  1.00  0.00     0.167 HD
ATOM     25  C   UNL     1       7.963  -7.101   4.109  1.00  0.00     0.037 A 
ATOM     26  C   UNL     1       7.242  -1.536   8.304  1.00  0.00     0.037 A 
ATOM     27  C   UNL     1       8.766  -7.121   5.306  1.00  0.00     0.049 A 
ATOM     28  C   UNL     1       8.147  -2.675   8.665  1.00  0.00     0.074 A 
ATOM     29  C   UNL     1       9.675  -8.081   5.715  1.00  0.00     0.029 A 
ATOM     30  N   UNL     1       8.754  -6.139   6.286  1.00  0.00    -0.354 N 
ATOM     31  N   UNL     1       8.408  -3.764   7.985  1.00  0.00    -0.248 NA
ATOM     32  C   UNL     1       8.846  -2.586   9.953  1.00  0.00     0.031 C 
ATOM     33  C   UNL     1      10.174  -7.707   6.967  1.00  0.00     0.029 A 
ATOM     34  C   UNL     1       9.616  -6.487   7.314  1.00  0.00     0.049 A 
ATOM     35  H   UNL     1       8.214  -5.317   6.255  1.00  0.00     0.167 HD
ATOM     36  C   UNL     1       9.300  -4.492   8.758  1.00  0.00     0.074 A 
ATOM     37  C   UNL     1       9.554  -3.708   9.951  1.00  0.00     0.031 C 
ATOM     38  C   UNL     1       9.851  -5.702   8.501  1.00  0.00     0.037 A 
BRANCH  25  39
ATOM     39  C   UNL     1       8.043  -8.290   3.195  1.00  0.00     0.064 A 
ATOM     40  C   UNL     1       7.529  -9.531   3.601  1.00  0.00     0.173 A 
ATOM     41  C   UNL     1       8.691  -8.225   1.952  1.00  0.00     0.173 A 
ATOM     42  F   UNL     1       6.908  -9.651   4.784  1.00  0.00    -0.203 F 
ATOM     43  C   UNL     1       7.670 -10.664   2.803  1.00  0.00     0.198 A 
ATOM     44  C   UNL     1       8.807  -9.354   1.145  1.00  0.00     0.198 A 
ATOM     45  F   UNL     1       9.193  -7.061   1.513  1.00  0.00    -0.203 F 
ATOM     46  F   UNL     1       7.198 -11.845   3.228  1.00  0.00    -0.200 F 
ATOM     47  C   UNL     1       8.305 -10.574   1.574  1.00  0.00     0.200 A 
ATOM     48  F   UNL     1       9.402  -9.261  -0.053  1.00  0.00    -0.200 F 
ATOM     49  F   UNL     1       8.431 -11.662   0.802  1.00  0.00    -0.200 F 
ENDBRANCH  25  39
BRANCH  26  50
ATOM     50  C   UNL     1       7.130  -0.322   9.151  1.00  0.00     0.064 A 
ATOM     51  C   UNL     1       5.940  -0.017   9.829  1.00  0.00     0.173 A 
ATOM     52  C   UNL     1       8.179   0.604   9.219  1.00  0.00     0.173 A 
ATOM     53  F   UNL     1       4.905  -0.868   9.784  1.00  0.00    -0.203 F 
ATOM     54  C   UNL     1       5.790   1.189  10.509  1.00  0.00     0.198 A 
ATOM     55  C   UNL     1       8.036   1.798   9.923  1.00  0.00     0.198 A 
ATOM     56  F   UNL     1       9.340   0.348   8.598  1.00  0.00    -0.203 F 
ATOM     57  F   UNL     1       4.622   1.483  11.096  1.00  0.00    -0.200 F 
ATOM     58  C   UNL     1       6.837   2.096  10.555  1.00  0.00     0.200 A 
ATOM     59  F   UNL     1       9.056   2.666   9.979  1.00  0.00    -0.200 F 
ATOM     60  F   UNL     1       6.690   3.259  11.203  1.00  0.00    -0.200 F 
ENDBRANCH  26  50
BRANCH  38  61
ATOM     61  C   UNL     1      10.785  -6.269   9.527  1.00  0.00     0.064 A 
ATOM     62  C   UNL     1      12.162  -6.348   9.271  1.00  0.00     0.173 A 
ATOM     63  C   UNL     1      10.304  -6.812  10.727  1.00  0.00     0.173 A 
ATOM     64  F   UNL     1      12.668  -5.847   8.134  1.00  0.00    -0.203 F 
ATOM     65  C   UNL     1      13.021  -6.971  10.171  1.00  0.00     0.198 A 
ATOM     66  C   UNL     1      11.171  -7.412  11.636  1.00  0.00     0.198 A 
ATOM     67  F   UNL     1       8.997  -6.747  11.021  1.00  0.00    -0.203 F 
ATOM     68  F   UNL     1      14.328  -7.068   9.890  1.00  0.00    -0.200 F 
ATOM     69  C   UNL     1      12.526  -7.501  11.353  1.00  0.00     0.200 A 
ATOM     70  F   UNL     1      10.694  -7.906  12.787  1.00  0.00    -0.200 F 
ATOM     71  F   UNL     1      13.355  -8.098  12.220  1.00  0.00    -0.200 F 
ENDBRANCH  38  61
ENDBRANCH  12  13
ENDBRANCH   5   7
ENDBRANCH   2   3
ENDBRANCH   1   2
BRANCH   1  72
ATOM     72  C   UNL     1       4.405   0.503  -3.948  1.00  0.00     0.023 C 
BRANCH  72  73
ATOM     73  C   UNL     1       4.929   1.935  -3.950  1.00  0.00     0.116 C 
BRANCH  73  74
ATOM     74  N   UNL     1       6.383   2.012  -3.931  1.00  0.00    -0.352 N 
ATOM     75  C   UNL     1       7.207   2.759  -4.738  1.00  0.00     0.254 C 
ATOM     76  H   UNL     1       6.833   1.458  -3.253  1.00  0.00     0.163 HD
ATOM     77  O   UNL     1       8.425   2.709  -4.623  1.00  0.00    -0.269 OA
BRANCH  75  78
ATOM     78  C   UNL     1       6.590   3.646  -5.729  1.00  0.00     0.078 A 
ATOM     79  C   UNL     1       5.778   4.700  -5.304  1.00  0.00     0.019 A 
ATOM     80  C   UNL     1       6.746   3.381  -7.080  1.00  0.00     0.173 A 
ATOM     81  C   UNL     1       5.048   5.436  -6.242  1.00  0.00     0.030 A 
ATOM     82  C   UNL     1       6.026   4.131  -8.003  1.00  0.00     0.182 A 
ATOM     83  F   UNL     1       7.521   2.372  -7.504  1.00  0.00    -0.203 F 
ATOM     84  C   UNL     1       5.136   5.154  -7.608  1.00  0.00     0.074 A 
ATOM     85  F   UNL     1       6.143   3.845  -9.311  1.00  0.00    -0.201 F 
BRANCH  84  86
ATOM     86  N   UNL     1       4.373   5.785  -8.611  1.00  0.00    -0.380 N 
ATOM     87  H   UNL     1       4.668   5.591  -9.530  1.00  0.00     0.160 HD
BRANCH  86  88
ATOM     88  C   UNL     1       3.222   6.674  -8.524  1.00  0.00     0.079 C 
ATOM     89  C   UNL     1       2.203   6.682  -7.425  1.00  0.00     0.027 C 
ATOM     90  C   UNL     1       3.128   7.857  -7.609  1.00  0.00     0.027 C 
ENDBRANCH  86  88
ENDBRANCH  84  86
ENDBRANCH  75  78
ENDBRANCH  73  74
ENDBRANCH  72  73
ENDBRANCH   1  72
TORSDOF 13
