REMARK SMILES CC(=O)N1[C@@H](c2c(F)cccc2Cl)SC[C@H]1C(=O)NCCCCNC(=O)c1ccc(-c2c3nc(c(-c4c(F)c(F)c(F)c(F)c4F)c4ccc([nH]4)c(-c4c(F)c(F)c(F)c(F)c4F)c4nc(c(-c5c(F)c(F)c(F)c(F)c5F)c5ccc2[nH]5)C=C4)C=C3)cc1
REMARK SMILES IDX 22 1 21 2 20 3 19 4 17 5 18 6 16 8 4 9 5 10 14 11 15 12 2 13
REMARK SMILES IDX 1 14 3 15 6 16 7 17 12 18 8 19 9 20 11 21 13 22 10 23 23 24
REMARK SMILES IDX 24 25 25 26 26 28 27 29 28 30 89 31 29 32 88 33 30 34 31 35
REMARK SMILES IDX 32 36 82 37 33 38 87 39 81 40 83 41 34 42 86 43 80 44 79 45
REMARK SMILES IDX 35 47 67 48 47 49 66 50 48 51 51 52 65 53 84 54 49 55 50 56
REMARK SMILES IDX 64 58 85 59 52 60 36 61 37 62 45 63 38 64 39 65 43 66 46 67
REMARK SMILES IDX 40 68 41 69 44 70 42 71 68 72 69 73 77 74 70 75 71 76 75 77
REMARK SMILES IDX 78 78 72 79 73 80 76 81 74 82 53 83 54 84 62 85 55 86 56 87
REMARK SMILES IDX 60 88 63 89 57 90 58 91 61 92 59 93
REMARK H PARENT 19 7 24 27 83 46 51 57
REMARK Flexibility Score: inf
ROOT
ATOM      1  C   UNL     1       2.211   3.479   5.956  1.00  0.00     0.023 C 
ENDROOT
BRANCH   1   2
ATOM      2  C   UNL     1       1.893   2.410   4.906  1.00  0.00     0.023 C 
BRANCH   2   3
ATOM      3  C   UNL     1       1.048   1.231   5.378  1.00  0.00     0.116 C 
BRANCH   3   4
ATOM      4  N   UNL     1      -0.324   1.275   4.945  1.00  0.00    -0.354 N 
ATOM      5  C   UNL     1      -0.990   0.406   4.132  1.00  0.00     0.243 C 
ATOM      6  O   UNL     1      -2.222   0.387   4.245  1.00  0.00    -0.273 OA
ATOM      7  H   UNL     1      -0.852   2.034   5.280  1.00  0.00     0.163 HD
BRANCH   5   8
ATOM      8  C   UNL     1      -0.286  -0.661   3.254  1.00  0.00     0.185 C 
ATOM      9  N   UNL     1       0.933  -0.308   2.494  1.00  0.00    -0.314 N 
ATOM     10  C   UNL     1       2.017  -1.307   2.528  1.00  0.00     0.179 C 
ATOM     11  S   UNL     1       1.198  -2.840   3.082  1.00  0.00    -0.129 SA
ATOM     12  C   UNL     1      -0.063  -1.948   4.037  1.00  0.00     0.107 C 
BRANCH   9  13
ATOM     13  C   UNL     1       0.660   0.526   1.416  1.00  0.00     0.221 C 
ATOM     14  C   UNL     1       1.052   0.059   0.035  1.00  0.00     0.114 C 
ATOM     15  O   UNL     1      -0.042   1.529   1.550  1.00  0.00    -0.275 OA
ENDBRANCH   9  13
BRANCH  10  16
ATOM     16  C   UNL     1       3.239  -0.856   3.339  1.00  0.00     0.039 A 
ATOM     17  C   UNL     1       3.433  -1.187   4.696  1.00  0.00     0.130 A 
ATOM     18  C   UNL     1       4.232  -0.018   2.785  1.00  0.00     0.050 A 
ATOM     19  F   UNL     1       2.558  -1.949   5.364  1.00  0.00    -0.207 F 
ATOM     20  C   UNL     1       4.488  -0.684   5.462  1.00  0.00     0.040 A 
ATOM     21  C   UNL     1       5.276   0.518   3.560  1.00  0.00     0.021 A 
ATOM     22  Cl  UNL     1       4.305   0.402   1.117  1.00  0.00    -0.084 Cl
ATOM     23  C   UNL     1       5.404   0.189   4.899  1.00  0.00     0.005 A 
ENDBRANCH  10  16
ENDBRANCH   5   8
ENDBRANCH   3   4
ENDBRANCH   2   3
ENDBRANCH   1   2
BRANCH   1  24
ATOM     24  C   UNL     1       2.709   3.007   7.319  1.00  0.00     0.116 C 
BRANCH  24  25
ATOM     25  N   UNL     1       3.974   2.290   7.273  1.00  0.00    -0.352 N 
ATOM     26  C   UNL     1       5.118   2.462   8.025  1.00  0.00     0.251 C 
ATOM     27  H   UNL     1       4.021   1.571   6.602  1.00  0.00     0.163 HD
ATOM     28  O   UNL     1       6.135   1.833   7.770  1.00  0.00    -0.269 OA
BRANCH  26  29
ATOM     29  C   UNL     1       5.115   3.437   9.134  1.00  0.00     0.039 A 
ATOM     30  C   UNL     1       6.194   4.312   9.288  1.00  0.00     0.014 A 
ATOM     31  C   UNL     1       4.021   3.506   9.997  1.00  0.00     0.014 A 
ATOM     32  C   UNL     1       6.131   5.312  10.259  1.00  0.00     0.010 A 
ATOM     33  C   UNL     1       3.906   4.572  10.873  1.00  0.00     0.010 A 
ATOM     34  C   UNL     1       4.966   5.476  11.026  1.00  0.00    -0.014 A 
BRANCH  34  35
ATOM     35  C   UNL     1       4.827   6.579  12.004  1.00  0.00     0.031 A 
ATOM     36  C   UNL     1       4.599   6.262  13.456  1.00  0.00     0.074 A 
ATOM     37  C   UNL     1       4.812   7.851  11.564  1.00  0.00     0.049 A 
ATOM     38  N   UNL     1       4.385   7.072  14.459  1.00  0.00    -0.248 NA
ATOM     39  C   UNL     1       4.554   4.835  13.821  1.00  0.00     0.031 C 
ATOM     40  C   UNL     1       4.926   8.259  10.162  1.00  0.00     0.029 A 
ATOM     41  N   UNL     1       4.682   9.034  12.243  1.00  0.00    -0.354 N 
ATOM     42  C   UNL     1       4.167   6.255  15.561  1.00  0.00     0.074 A 
ATOM     43  C   UNL     1       4.180   4.890  15.088  1.00  0.00     0.031 C 
ATOM     44  C   UNL     1       4.899   9.599  10.089  1.00  0.00     0.029 A 
ATOM     45  C   UNL     1       4.730  10.142  11.432  1.00  0.00     0.049 A 
ATOM     46  H   UNL     1       4.566   9.086  13.219  1.00  0.00     0.167 HD
ATOM     47  C   UNL     1       4.011   6.612  16.858  1.00  0.00     0.037 A 
ATOM     48  C   UNL     1       4.651  11.448  11.745  1.00  0.00     0.037 A 
ATOM     49  C   UNL     1       4.018   7.979  17.305  1.00  0.00     0.049 A 
ATOM     50  C   UNL     1       4.517  11.827  13.194  1.00  0.00     0.074 A 
ATOM     51  C   UNL     1       3.920   8.472  18.593  1.00  0.00     0.029 A 
ATOM     52  N   UNL     1       4.127   9.078  16.461  1.00  0.00    -0.354 N 
ATOM     53  N   UNL     1       4.397  11.048  14.243  1.00  0.00    -0.248 NA
ATOM     54  C   UNL     1       4.528  13.261  13.507  1.00  0.00     0.031 C 
ATOM     55  C   UNL     1       3.922   9.869  18.523  1.00  0.00     0.029 A 
ATOM     56  C   UNL     1       4.085  10.249  17.199  1.00  0.00     0.049 A 
ATOM     57  H   UNL     1       4.221   9.031  15.482  1.00  0.00     0.167 HD
ATOM     58  C   UNL     1       4.342  11.891  15.343  1.00  0.00     0.074 A 
ATOM     59  C   UNL     1       4.461  13.243  14.831  1.00  0.00     0.031 C 
ATOM     60  C   UNL     1       4.206  11.580  16.656  1.00  0.00     0.037 A 
BRANCH  47  61
ATOM     61  C   UNL     1       3.832   5.506  17.862  1.00  0.00     0.064 A 
ATOM     62  C   UNL     1       4.851   4.574  18.123  1.00  0.00     0.173 A 
ATOM     63  C   UNL     1       2.626   5.362  18.564  1.00  0.00     0.173 A 
ATOM     64  F   UNL     1       6.022   4.653  17.473  1.00  0.00    -0.203 F 
ATOM     65  C   UNL     1       4.650   3.512  19.003  1.00  0.00     0.198 A 
ATOM     66  C   UNL     1       2.442   4.322  19.474  1.00  0.00     0.198 A 
ATOM     67  F   UNL     1       1.617   6.223  18.362  1.00  0.00    -0.203 F 
ATOM     68  F   UNL     1       5.610   2.592  19.170  1.00  0.00    -0.200 F 
ATOM     69  C   UNL     1       3.448   3.390  19.681  1.00  0.00     0.200 A 
ATOM     70  F   UNL     1       1.284   4.213  20.140  1.00  0.00    -0.200 F 
ATOM     71  F   UNL     1       3.254   2.367  20.525  1.00  0.00    -0.200 F 
ENDBRANCH  47  61
BRANCH  48  72
ATOM     72  C   UNL     1       4.754  12.470  10.669  1.00  0.00     0.064 A 
ATOM     73  C   UNL     1       5.892  13.280  10.547  1.00  0.00     0.173 A 
ATOM     74  C   UNL     1       3.743  12.622   9.708  1.00  0.00     0.173 A 
ATOM     75  F   UNL     1       6.883  13.180  11.446  1.00  0.00    -0.203 F 
ATOM     76  C   UNL     1       6.010  14.210   9.516  1.00  0.00     0.198 A 
ATOM     77  C   UNL     1       3.875  13.532   8.660  1.00  0.00     0.198 A 
ATOM     78  F   UNL     1       2.640  11.862   9.768  1.00  0.00    -0.203 F 
ATOM     79  F   UNL     1       7.096  14.991   9.442  1.00  0.00    -0.200 F 
ATOM     80  C   UNL     1       5.006  14.329   8.568  1.00  0.00     0.200 A 
ATOM     81  F   UNL     1       2.912  13.627   7.733  1.00  0.00    -0.200 F 
ATOM     82  F   UNL     1       5.128  15.209   7.565  1.00  0.00    -0.200 F 
ENDBRANCH  48  72
BRANCH  60  83
ATOM     83  C   UNL     1       4.212  12.722  17.630  1.00  0.00     0.064 A 
ATOM     84  C   UNL     1       3.140  13.621  17.720  1.00  0.00     0.173 A 
ATOM     85  C   UNL     1       5.289  12.889  18.513  1.00  0.00     0.173 A 
ATOM     86  F   UNL     1       2.092  13.509  16.889  1.00  0.00    -0.203 F 
ATOM     87  C   UNL     1       3.161  14.666  18.638  1.00  0.00     0.198 A 
ATOM     88  C   UNL     1       5.290  13.914  19.454  1.00  0.00     0.198 A 
ATOM     89  F   UNL     1       6.335  12.050  18.473  1.00  0.00    -0.203 F 
ATOM     90  F   UNL     1       2.151  15.547  18.670  1.00  0.00    -0.200 F 
ATOM     91  C   UNL     1       4.231  14.807  19.510  1.00  0.00     0.200 A 
ATOM     92  F   UNL     1       6.316  14.037  20.307  1.00  0.00    -0.200 F 
ATOM     93  F   UNL     1       4.245  15.809  20.399  1.00  0.00    -0.200 F 
ENDBRANCH  60  83
ENDBRANCH  34  35
ENDBRANCH  26  29
ENDBRANCH  24  25
ENDBRANCH   1  24
TORSDOF 13
