REMARK SMILES CO[C@H]1C[C@@H](C(=O)NCCCCNC(=O)c2ccc(-c3c4nc(c(-c5c(F)c(F)c(F)c(F)c5F)c5ccc([nH]5)c(-c5c(F)c(F)c(F)c(F)c5F)c5nc(c(-c6c(F)c(F)c(F)c(F)c6F)c6ccc3[nH]6)C=C5)C=C4)cc2)N(C(=O)CSc2cccs2)C1
REMARK SMILES IDX 9 1 8 2 6 3 7 4 5 6 3 7 4 8 89 9 79 10 2 11 1 12 80 13 81 14
REMARK SMILES IDX 82 15 83 16 84 17 85 18 88 19 86 20 87 21 10 22 11 23 12 24
REMARK SMILES IDX 13 25 14 26 15 28 16 29 17 30 78 31 18 32 77 33 19 34 20 35
REMARK SMILES IDX 21 36 71 37 22 38 76 39 70 40 72 41 23 42 75 43 69 44 68 45
REMARK SMILES IDX 24 47 56 48 36 49 55 50 37 51 40 52 54 53 73 54 38 55 39 56
REMARK SMILES IDX 53 58 74 59 41 60 25 61 26 62 34 63 27 64 28 65 32 66 35 67
REMARK SMILES IDX 29 68 30 69 33 70 31 71 57 72 58 73 66 74 59 75 60 76 64 77
REMARK SMILES IDX 67 78 61 79 62 80 65 81 63 82 42 83 43 84 51 85 44 86 45 87
REMARK SMILES IDX 49 88 52 89 46 90 47 91 50 92 48 93
REMARK H PARENT 8 5 13 27 72 46 40 57
REMARK Flexibility Score: inf
ROOT
ATOM      1  C   UNL     1       3.702   4.422  -0.638  1.00  0.00     0.116 C 
ENDROOT
BRANCH   1   2
ATOM      2  N   UNL     1       3.492   3.948   0.717  1.00  0.00    -0.354 N 
ATOM      3  C   UNL     1       2.475   3.220   1.258  1.00  0.00     0.242 C 
ATOM      4  O   UNL     1       2.645   2.775   2.397  1.00  0.00    -0.273 OA
ATOM      5  H   UNL     1       4.203   4.194   1.352  1.00  0.00     0.163 HD
BRANCH   3   6
ATOM      6  C   UNL     1       1.232   2.823   0.447  1.00  0.00     0.177 C 
ATOM      7  C   UNL     1       0.616   1.684  -1.589  1.00  0.00     0.139 C 
ATOM      8  C   UNL     1       1.593   1.608  -0.419  1.00  0.00     0.069 C 
ATOM      9  C   UNL     1       0.403   3.185  -1.792  1.00  0.00     0.152 C 
ATOM     10  N   UNL     1       0.688   3.804  -0.500  1.00  0.00    -0.327 N 
BRANCH   7  11
ATOM     11  O   UNL     1       0.970   0.990  -2.779  1.00  0.00    -0.380 OA
ATOM     12  C   UNL     1       2.341   0.969  -3.142  1.00  0.00     0.195 C 
ENDBRANCH   7  11
BRANCH  10  13
ATOM     13  C   UNL     1       0.176   5.057  -0.214  1.00  0.00     0.233 C 
ATOM     14  O   UNL     1      -0.443   5.690  -1.075  1.00  0.00    -0.274 OA
BRANCH  13  15
ATOM     15  C   UNL     1       0.492   5.714   1.128  1.00  0.00     0.175 C 
BRANCH  15  16
ATOM     16  S   UNL     1      -0.613   5.165   2.446  1.00  0.00    -0.105 SA
BRANCH  16  17
ATOM     17  C   UNL     1      -2.111   5.867   1.877  1.00  0.00     0.060 A 
ATOM     18  C   UNL     1      -3.179   5.150   1.388  1.00  0.00     0.027 A 
ATOM     19  S   UNL     1      -2.402   7.550   1.855  1.00  0.00    -0.137 S 
ATOM     20  C   UNL     1      -4.227   6.000   0.933  1.00  0.00     0.013 A 
ATOM     21  C   UNL     1      -3.928   7.332   1.114  1.00  0.00     0.066 A 
ENDBRANCH  16  17
ENDBRANCH  15  16
ENDBRANCH  13  15
ENDBRANCH  10  13
ENDBRANCH   3   6
ENDBRANCH   1   2
BRANCH   1  22
ATOM     22  C   UNL     1       3.461   5.921  -0.811  1.00  0.00     0.023 C 
BRANCH  22  23
ATOM     23  C   UNL     1       4.269   6.812   0.130  1.00  0.00     0.023 C 
BRANCH  23  24
ATOM     24  C   UNL     1       5.770   6.590   0.047  1.00  0.00     0.116 C 
BRANCH  24  25
ATOM     25  N   UNL     1       6.277   6.764  -1.306  1.00  0.00    -0.352 N 
ATOM     26  C   UNL     1       7.353   7.495  -1.735  1.00  0.00     0.251 C 
ATOM     27  H   UNL     1       5.778   6.290  -2.010  1.00  0.00     0.163 HD
ATOM     28  O   UNL     1       7.534   7.689  -2.934  1.00  0.00    -0.269 OA
BRANCH  26  29
ATOM     29  C   UNL     1       8.279   8.064  -0.740  1.00  0.00     0.039 A 
ATOM     30  C   UNL     1       8.705   9.385  -0.887  1.00  0.00     0.014 A 
ATOM     31  C   UNL     1       8.705   7.295   0.346  1.00  0.00     0.014 A 
ATOM     32  C   UNL     1       9.522   9.952   0.090  1.00  0.00     0.010 A 
ATOM     33  C   UNL     1       9.436   7.890   1.364  1.00  0.00     0.010 A 
ATOM     34  C   UNL     1       9.867   9.218   1.238  1.00  0.00    -0.014 A 
BRANCH  34  35
ATOM     35  C   UNL     1      10.705   9.812   2.306  1.00  0.00     0.031 A 
ATOM     36  C   UNL     1      12.049   9.215   2.616  1.00  0.00     0.074 A 
ATOM     37  C   UNL     1      10.233  10.848   3.025  1.00  0.00     0.049 A 
ATOM     38  N   UNL     1      12.906   9.543   3.549  1.00  0.00    -0.248 NA
ATOM     39  C   UNL     1      12.476   8.076   1.785  1.00  0.00     0.031 C 
ATOM     40  C   UNL     1       8.925  11.480   2.843  1.00  0.00     0.029 A 
ATOM     41  N   UNL     1      10.800  11.549   4.059  1.00  0.00    -0.354 N 
ATOM     42  C   UNL     1      13.963   8.652   3.419  1.00  0.00     0.074 A 
ATOM     43  C   UNL     1      13.609   7.722   2.371  1.00  0.00     0.031 C 
ATOM     44  C   UNL     1       8.804  12.497   3.712  1.00  0.00     0.029 A 
ATOM     45  C   UNL     1      10.004  12.560   4.540  1.00  0.00     0.049 A 
ATOM     46  H   UNL     1      11.693  11.347   4.421  1.00  0.00     0.167 HD
ATOM     47  C   UNL     1      15.138   8.632   4.091  1.00  0.00     0.037 A 
ATOM     48  C   UNL     1      10.220  13.433   5.541  1.00  0.00     0.037 A 
ATOM     49  C   UNL     1      15.489   9.571   5.123  1.00  0.00     0.049 A 
ATOM     50  C   UNL     1      11.523  13.366   6.294  1.00  0.00     0.074 A 
ATOM     51  C   UNL     1      16.665   9.661   5.845  1.00  0.00     0.029 A 
ATOM     52  N   UNL     1      14.659  10.585   5.580  1.00  0.00    -0.354 N 
ATOM     53  N   UNL     1      12.542  12.559   6.122  1.00  0.00    -0.248 NA
ATOM     54  C   UNL     1      11.708  14.340   7.378  1.00  0.00     0.031 C 
ATOM     55  C   UNL     1      16.528  10.697   6.774  1.00  0.00     0.029 A 
ATOM     56  C   UNL     1      15.291  11.294   6.588  1.00  0.00     0.049 A 
ATOM     57  H   UNL     1      13.755  10.772   5.238  1.00  0.00     0.167 HD
ATOM     58  C   UNL     1      13.501  12.952   7.045  1.00  0.00     0.074 A 
ATOM     59  C   UNL     1      12.948  14.080   7.765  1.00  0.00     0.031 C 
ATOM     60  C   UNL     1      14.730  12.427   7.279  1.00  0.00     0.037 A 
BRANCH  47  61
ATOM     61  C   UNL     1      16.132   7.569   3.719  1.00  0.00     0.064 A 
ATOM     62  C   UNL     1      16.777   7.569   2.472  1.00  0.00     0.173 A 
ATOM     63  C   UNL     1      16.468   6.554   4.628  1.00  0.00     0.173 A 
ATOM     64  F   UNL     1      16.483   8.508   1.560  1.00  0.00    -0.203 F 
ATOM     65  C   UNL     1      17.696   6.577   2.138  1.00  0.00     0.198 A 
ATOM     66  C   UNL     1      17.414   5.584   4.304  1.00  0.00     0.198 A 
ATOM     67  F   UNL     1      15.885   6.506   5.835  1.00  0.00    -0.203 F 
ATOM     68  F   UNL     1      18.255   6.568   0.920  1.00  0.00    -0.200 F 
ATOM     69  C   UNL     1      18.020   5.591   3.057  1.00  0.00     0.200 A 
ATOM     70  F   UNL     1      17.736   4.640   5.198  1.00  0.00    -0.200 F 
ATOM     71  F   UNL     1      18.911   4.643   2.737  1.00  0.00    -0.200 F 
ENDBRANCH  47  61
BRANCH  48  72
ATOM     72  C   UNL     1       9.199  14.461   5.876  1.00  0.00     0.064 A 
ATOM     73  C   UNL     1       9.458  15.825   5.673  1.00  0.00     0.173 A 
ATOM     74  C   UNL     1       7.960  14.110   6.431  1.00  0.00     0.173 A 
ATOM     75  F   UNL     1      10.635  16.213   5.161  1.00  0.00    -0.203 F 
ATOM     76  C   UNL     1       8.532  16.797   6.043  1.00  0.00     0.198 A 
ATOM     77  C   UNL     1       7.021  15.082   6.770  1.00  0.00     0.198 A 
ATOM     78  F   UNL     1       7.658  12.820   6.640  1.00  0.00    -0.203 F 
ATOM     79  F   UNL     1       8.832  18.095   5.895  1.00  0.00    -0.200 F 
ATOM     80  C   UNL     1       7.313  16.426   6.588  1.00  0.00     0.200 A 
ATOM     81  F   UNL     1       5.837  14.717   7.280  1.00  0.00    -0.200 F 
ATOM     82  F   UNL     1       6.424  17.361   6.948  1.00  0.00    -0.200 F 
ENDBRANCH  48  72
BRANCH  60  83
ATOM     83  C   UNL     1      15.581  13.102   8.316  1.00  0.00     0.064 A 
ATOM     84  C   UNL     1      15.274  13.037   9.683  1.00  0.00     0.173 A 
ATOM     85  C   UNL     1      16.741  13.795   7.935  1.00  0.00     0.173 A 
ATOM     86  F   UNL     1      14.170  12.399  10.099  1.00  0.00    -0.203 F 
ATOM     87  C   UNL     1      16.079  13.670  10.627  1.00  0.00     0.198 A 
ATOM     88  C   UNL     1      17.562  14.394   8.885  1.00  0.00     0.198 A 
ATOM     89  F   UNL     1      17.084  13.880   6.641  1.00  0.00    -0.203 F 
ATOM     90  F   UNL     1      15.735  13.644  11.922  1.00  0.00    -0.200 F 
ATOM     91  C   UNL     1      17.226  14.340  10.228  1.00  0.00     0.200 A 
ATOM     92  F   UNL     1      18.680  15.026   8.498  1.00  0.00    -0.200 F 
ATOM     93  F   UNL     1      18.003  14.941  11.139  1.00  0.00    -0.200 F 
ENDBRANCH  60  83
ENDBRANCH  34  35
ENDBRANCH  26  29
ENDBRANCH  24  25
ENDBRANCH  23  24
ENDBRANCH  22  23
ENDBRANCH   1  22
TORSDOF 16
