REMARK SMILES Cc1csc([C@H](C)Nc2cc(C)c(N)c(C(=O)NCCCCNC(=O)c3ccc(-c4c5nc(c(-c6c(F)c(F)c(F)c(F)c6F)c6ccc([nH]6)c(-c6c(F)c(F)c(F)c(F)c6F)c6nc(c(-c7c(F)c(F)c(F)c(F)c7F)c7ccc4[nH]7)C=C6)C=C5)cc3)c2)n1
REMARK SMILES IDX 20 1 19 2 18 3 16 4 17 5 15 7 9 8 10 9 89 10 11 11 12 12
REMARK SMILES IDX 13 13 8 14 6 16 7 17 5 18 1 19 2 20 3 21 90 22 4 23 14 24
REMARK SMILES IDX 21 27 22 28 23 29 24 30 25 32 26 33 27 34 88 35 28 36 87 37
REMARK SMILES IDX 29 38 30 39 31 40 81 41 32 42 86 43 80 44 82 45 33 46 85 47
REMARK SMILES IDX 79 48 78 49 34 51 66 52 46 53 65 54 47 55 50 56 64 57 83 58
REMARK SMILES IDX 48 59 49 60 63 62 84 63 51 64 35 65 36 66 44 67 37 68 38 69
REMARK SMILES IDX 42 70 45 71 39 72 40 73 43 74 41 75 67 76 68 77 76 78 69 79
REMARK SMILES IDX 70 80 74 81 77 82 71 83 72 84 75 85 73 86 52 87 53 88 61 89
REMARK SMILES IDX 54 90 55 91 59 92 62 93 56 94 57 95 60 96 58 97
REMARK H PARENT 18 6 8 15 14 25 14 26 23 31 82 50 50 61
REMARK Flexibility Score: inf
ROOT
ATOM      1  C   UNL     1      -0.012   1.684   5.544  1.00  0.00     0.023 C 
ENDROOT
BRANCH   1   2
ATOM      2  C   UNL     1       0.226   3.184   5.749  1.00  0.00     0.116 C 
BRANCH   2   3
ATOM      3  N   UNL     1       1.540   3.417   6.315  1.00  0.00    -0.352 N 
ATOM      4  C   UNL     1       2.778   3.654   5.765  1.00  0.00     0.253 C 
ATOM      5  O   UNL     1       3.702   3.767   6.577  1.00  0.00    -0.269 OA
ATOM      6  H   UNL     1       1.547   3.402   7.300  1.00  0.00     0.163 HD
BRANCH   4   7
ATOM      7  C   UNL     1       3.052   3.804   4.292  1.00  0.00     0.065 A 
ATOM      8  C   UNL     1       2.398   3.471   1.948  1.00  0.00     0.036 A 
ATOM      9  C   UNL     1       3.531   4.162   1.539  1.00  0.00     0.031 A 
ATOM     10  C   UNL     1       2.191   3.289   3.316  1.00  0.00     0.041 A 
ATOM     11  C   UNL     1       4.467   4.636   2.477  1.00  0.00    -0.025 A 
ATOM     12  C   UNL     1       5.689   5.356   1.973  1.00  0.00     0.046 C 
ATOM     13  C   UNL     1       4.241   4.452   3.862  1.00  0.00     0.047 A 
BRANCH   8  14
ATOM     14  N   UNL     1       1.357   3.138   1.094  1.00  0.00    -0.376 N 
ATOM     15  H   UNL     1       0.438   3.380   1.349  1.00  0.00     0.161 HD
BRANCH  14  16
ATOM     16  C   UNL     1       1.578   2.437  -0.180  1.00  0.00     0.135 C 
ATOM     17  C   UNL     1       0.647   1.214  -0.138  1.00  0.00     0.039 C 
BRANCH  16  18
ATOM     18  C   UNL     1       1.329   3.316  -1.405  1.00  0.00     0.115 A 
ATOM     19  C   UNL     1       1.158   6.634  -2.813  1.00  0.00     0.067 C 
ATOM     20  C   UNL     1       1.119   5.160  -2.636  1.00  0.00     0.049 A 
ATOM     21  C   UNL     1       0.890   4.216  -3.617  1.00  0.00     0.090 A 
ATOM     22  N   UNL     1       1.343   4.638  -1.373  1.00  0.00    -0.244 NA
ATOM     23  S   UNL     1       1.040   2.642  -2.966  1.00  0.00    -0.125 S 
ENDBRANCH  16  18
ENDBRANCH  14  16
ENDBRANCH   8  14
BRANCH  13  24
ATOM     24  N   UNL     1       5.110   5.058   4.780  1.00  0.00    -0.398 N 
ATOM     25  H   UNL     1       5.929   5.502   4.463  1.00  0.00     0.156 HD
ATOM     26  H   UNL     1       4.901   5.038   5.742  1.00  0.00     0.156 HD
ENDBRANCH  13  24
ENDBRANCH   4   7
ENDBRANCH   2   3
ENDBRANCH   1   2
BRANCH   1  27
ATOM     27  C   UNL     1      -0.401   0.928   6.818  1.00  0.00     0.023 C 
BRANCH  27  28
ATOM     28  C   UNL     1      -1.721   1.365   7.441  1.00  0.00     0.116 C 
BRANCH  28  29
ATOM     29  N   UNL     1      -2.853   1.258   6.533  1.00  0.00    -0.352 N 
ATOM     30  C   UNL     1      -4.176   1.047   6.838  1.00  0.00     0.251 C 
ATOM     31  H   UNL     1      -2.643   1.349   5.576  1.00  0.00     0.163 HD
ATOM     32  O   UNL     1      -5.002   0.882   5.952  1.00  0.00    -0.269 OA
BRANCH  30  33
ATOM     33  C   UNL     1      -4.583   0.974   8.256  1.00  0.00     0.039 A 
ATOM     34  C   UNL     1      -5.358  -0.111   8.674  1.00  0.00     0.014 A 
ATOM     35  C   UNL     1      -4.175   1.947   9.171  1.00  0.00     0.014 A 
ATOM     36  C   UNL     1      -5.671  -0.253  10.026  1.00  0.00     0.010 A 
ATOM     37  C   UNL     1      -4.429   1.768  10.527  1.00  0.00     0.010 A 
ATOM     38  C   UNL     1      -5.178   0.667  10.966  1.00  0.00    -0.014 A 
BRANCH  38  39
ATOM     39  C   UNL     1      -5.434   0.490  12.416  1.00  0.00     0.031 A 
ATOM     40  C   UNL     1      -6.269   1.492  13.162  1.00  0.00     0.074 A 
ATOM     41  C   UNL     1      -4.858  -0.536  13.072  1.00  0.00     0.049 A 
ATOM     42  N   UNL     1      -6.554   1.545  14.438  1.00  0.00    -0.248 NA
ATOM     43  C   UNL     1      -6.834   2.598  12.373  1.00  0.00     0.031 C 
ATOM     44  C   UNL     1      -3.981  -1.540  12.467  1.00  0.00     0.029 A 
ATOM     45  N   UNL     1      -4.913  -0.897  14.394  1.00  0.00    -0.354 N 
ATOM     46  C   UNL     1      -7.315   2.694  14.606  1.00  0.00     0.074 A 
ATOM     47  C   UNL     1      -7.404   3.337  13.313  1.00  0.00     0.031 C 
ATOM     48  C   UNL     1      -3.597  -2.414  13.411  1.00  0.00     0.029 A 
ATOM     49  C   UNL     1      -4.174  -2.015  14.691  1.00  0.00     0.049 A 
ATOM     50  H   UNL     1      -5.434  -0.401  15.067  1.00  0.00     0.167 HD
ATOM     51  C   UNL     1      -7.905   3.158  15.733  1.00  0.00     0.037 A 
ATOM     52  C   UNL     1      -3.982  -2.645  15.865  1.00  0.00     0.037 A 
ATOM     53  C   UNL     1      -7.837   2.499  17.011  1.00  0.00     0.049 A 
ATOM     54  C   UNL     1      -4.662  -2.118  17.099  1.00  0.00     0.074 A 
ATOM     55  C   UNL     1      -8.455   2.852  18.198  1.00  0.00     0.029 A 
ATOM     56  N   UNL     1      -7.105   1.349  17.267  1.00  0.00    -0.354 N 
ATOM     57  N   UNL     1      -5.442  -1.073  17.232  1.00  0.00    -0.248 NA
ATOM     58  C   UNL     1      -4.444  -2.865  18.345  1.00  0.00     0.031 C 
ATOM     59  C   UNL     1      -8.065   1.938  19.182  1.00  0.00     0.029 A 
ATOM     60  C   UNL     1      -7.241   0.989  18.598  1.00  0.00     0.049 A 
ATOM     61  H   UNL     1      -6.568   0.861  16.602  1.00  0.00     0.167 HD
ATOM     62  C   UNL     1      -5.828  -1.051  18.565  1.00  0.00     0.074 A 
ATOM     63  C   UNL     1      -5.209  -2.197  19.197  1.00  0.00     0.031 C 
ATOM     64  C   UNL     1      -6.624  -0.161  19.208  1.00  0.00     0.037 A 
BRANCH  51  65
ATOM     65  C   UNL     1      -8.681   4.438  15.632  1.00  0.00     0.064 A 
ATOM     66  C   UNL     1      -9.901   4.505  14.941  1.00  0.00     0.173 A 
ATOM     67  C   UNL     1      -8.218   5.604  16.259  1.00  0.00     0.173 A 
ATOM     68  F   UNL     1     -10.382   3.421  14.313  1.00  0.00    -0.203 F 
ATOM     69  C   UNL     1     -10.613   5.699  14.856  1.00  0.00     0.198 A 
ATOM     70  C   UNL     1      -8.947   6.789  16.198  1.00  0.00     0.198 A 
ATOM     71  F   UNL     1      -7.061   5.594  16.937  1.00  0.00    -0.203 F 
ATOM     72  F   UNL     1     -11.750   5.750  14.149  1.00  0.00    -0.200 F 
ATOM     73  C   UNL     1     -10.139   6.837  15.490  1.00  0.00     0.200 A 
ATOM     74  F   UNL     1      -8.495   7.886  16.821  1.00  0.00    -0.200 F 
ATOM     75  F   UNL     1     -10.829   7.984  15.413  1.00  0.00    -0.200 F 
ENDBRANCH  51  65
BRANCH  52  76
ATOM     76  C   UNL     1      -3.134  -3.863  15.924  1.00  0.00     0.064 A 
ATOM     77  C   UNL     1      -3.703  -5.124  16.147  1.00  0.00     0.173 A 
ATOM     78  C   UNL     1      -1.743  -3.793  15.760  1.00  0.00     0.173 A 
ATOM     79  F   UNL     1      -5.027  -5.238  16.328  1.00  0.00    -0.203 F 
ATOM     80  C   UNL     1      -2.911  -6.268  16.224  1.00  0.00     0.198 A 
ATOM     81  C   UNL     1      -0.955  -4.941  15.811  1.00  0.00     0.198 A 
ATOM     82  F   UNL     1      -1.151  -2.611  15.538  1.00  0.00    -0.203 F 
ATOM     83  F   UNL     1      -3.476  -7.455  16.483  1.00  0.00    -0.200 F 
ATOM     84  C   UNL     1      -1.538  -6.176  16.051  1.00  0.00     0.200 A 
ATOM     85  F   UNL     1       0.370  -4.851  15.630  1.00  0.00    -0.200 F 
ATOM     86  F   UNL     1      -0.777  -7.277  16.123  1.00  0.00    -0.200 F 
ENDBRANCH  52  76
BRANCH  64  87
ATOM     87  C   UNL     1      -6.898  -0.411  20.662  1.00  0.00     0.064 A 
ATOM     88  C   UNL     1      -5.914  -0.210  21.641  1.00  0.00     0.173 A 
ATOM     89  C   UNL     1      -8.172  -0.821  21.082  1.00  0.00     0.173 A 
ATOM     90  F   UNL     1      -4.676   0.167  21.287  1.00  0.00    -0.203 F 
ATOM     91  C   UNL     1      -6.190  -0.434  22.987  1.00  0.00     0.198 A 
ATOM     92  C   UNL     1      -8.452  -1.016  22.431  1.00  0.00     0.198 A 
ATOM     93  F   UNL     1      -9.149  -1.022  20.185  1.00  0.00    -0.203 F 
ATOM     94  F   UNL     1      -5.222  -0.280  23.901  1.00  0.00    -0.200 F 
ATOM     95  C   UNL     1      -7.459  -0.830  23.382  1.00  0.00     0.200 A 
ATOM     96  F   UNL     1      -9.682  -1.386  22.812  1.00  0.00    -0.200 F 
ATOM     97  F   UNL     1      -7.724  -1.038  24.678  1.00  0.00    -0.200 F 
ENDBRANCH  64  87
ENDBRANCH  38  39
ENDBRANCH  30  33
ENDBRANCH  28  29
ENDBRANCH  27  28
ENDBRANCH   1  27
TORSDOF 15
