REMARK SMILES CCCCn1c(C[N@H+]2C[C@H]3C(=O)NC[C@@]3(C(=O)NCCCCNC(=O)c3ccc(-c4c5nc(c(-c6c(F)c(F)c(F)c(F)c6F)c6ccc([nH]6)c(-c6c(F)c(F)c(F)c(F)c6F)c6nc(c(-c7c(F)c(F)c(F)c(F)c7F)c7ccc4[nH]7)C=C6)C=C5)cc3)C2)nc2ccccc21
REMARK SMILES IDX 19 1 18 2 16 3 17 4 15 6 8 7 9 8 89 9 10 11 11 12 14 13
REMARK SMILES IDX 12 14 13 15 7 17 6 18 5 19 96 20 90 21 91 22 95 23 92 24
REMARK SMILES IDX 94 25 93 26 4 27 3 28 2 29 1 30 20 31 21 32 22 33 23 34
REMARK SMILES IDX 24 35 25 37 26 38 27 39 88 40 28 41 87 42 29 43 30 44 31 45
REMARK SMILES IDX 81 46 32 47 86 48 80 49 82 50 33 51 85 52 79 53 78 54 34 56
REMARK SMILES IDX 66 57 46 58 65 59 47 60 50 61 64 62 83 63 48 64 49 65 63 67
REMARK SMILES IDX 84 68 51 69 35 70 36 71 44 72 37 73 38 74 42 75 45 76 39 77
REMARK SMILES IDX 40 78 43 79 41 80 67 81 68 82 76 83 69 84 70 85 74 86 77 87
REMARK SMILES IDX 71 88 72 89 75 90 73 91 52 92 53 93 61 94 54 95 55 96 59 97
REMARK SMILES IDX 62 98 56 99 57 100 60 101 58 102
REMARK H PARENT 18 5 8 10 13 16 23 36 82 55 50 66
REMARK Flexibility Score: inf
ROOT
ATOM      1  C   UNL     1      -5.472   0.269  -1.094  1.00  0.00     0.116 C 
ENDROOT
BRANCH   1   2
ATOM      2  N   UNL     1      -5.761   1.287  -0.100  1.00  0.00    -0.355 N 
ATOM      3  C   UNL     1      -4.923   2.301   0.316  1.00  0.00     0.234 C 
ATOM      4  O   UNL     1      -5.231   2.925   1.333  1.00  0.00    -0.274 OA
ATOM      5  H   UNL     1      -6.649   1.249   0.322  1.00  0.00     0.163 HD
BRANCH   3   6
ATOM      6  C   UNL     1      -3.652   2.587  -0.569  1.00  0.00     0.132 C 
ATOM      7  N   UNL     1      -1.540   1.393   0.040  1.00  0.00    -0.327 N 
ATOM      8  C   UNL     1      -1.149   2.572  -0.699  1.00  0.00     0.277 C 
ATOM      9  C   UNL     1      -2.912   1.658   0.484  1.00  0.00     0.282 C 
ATOM     10  H   UNL     1      -0.921   1.258   0.840  1.00  0.00     0.348 HD
ATOM     11  C   UNL     1      -2.338   3.489  -0.511  1.00  0.00     0.156 C 
ATOM     12  C   UNL     1      -2.371   4.442  -1.658  1.00  0.00     0.230 C 
ATOM     13  C   UNL     1      -4.466   3.885  -0.999  1.00  0.00     0.139 C 
ATOM     14  O   UNL     1      -1.427   5.016  -2.196  1.00  0.00    -0.275 OA
ATOM     15  N   UNL     1      -3.682   4.617  -1.943  1.00  0.00    -0.354 N 
ATOM     16  H   UNL     1      -4.039   5.160  -2.683  1.00  0.00     0.163 HD
BRANCH   7  17
ATOM     17  C   UNL     1      -1.275   0.084  -0.575  1.00  0.00     0.339 C 
BRANCH  17  18
ATOM     18  C   UNL     1      -1.533  -0.105  -2.053  1.00  0.00     0.165 A 
ATOM     19  N   UNL     1      -0.598  -0.572  -2.972  1.00  0.00    -0.323 N 
ATOM     20  C   UNL     1      -1.274  -0.889  -4.140  1.00  0.00     0.068 A 
ATOM     21  N   UNL     1      -2.715   0.010  -2.634  1.00  0.00    -0.227 NA
ATOM     22  C   UNL     1      -2.585  -0.505  -3.896  1.00  0.00     0.089 A 
ATOM     23  C   UNL     1      -0.897  -1.513  -5.341  1.00  0.00     0.028 A 
ATOM     24  C   UNL     1      -3.579  -0.756  -4.858  1.00  0.00     0.030 A 
ATOM     25  C   UNL     1      -1.908  -1.798  -6.269  1.00  0.00     0.002 A 
ATOM     26  C   UNL     1      -3.232  -1.436  -6.030  1.00  0.00     0.002 A 
BRANCH  19  27
ATOM     27  C   UNL     1       0.793  -0.921  -2.724  1.00  0.00     0.124 C 
BRANCH  27  28
ATOM     28  C   UNL     1       1.788   0.248  -2.732  1.00  0.00     0.022 C 
BRANCH  28  29
ATOM     29  C   UNL     1       1.978   0.982  -1.405  1.00  0.00    -0.002 C 
ATOM     30  C   UNL     1       2.466   0.127  -0.244  1.00  0.00     0.004 C 
ENDBRANCH  28  29
ENDBRANCH  27  28
ENDBRANCH  19  27
ENDBRANCH  17  18
ENDBRANCH   7  17
ENDBRANCH   3   6
ENDBRANCH   1   2
BRANCH   1  31
ATOM     31  C   UNL     1      -4.991  -1.027  -0.426  1.00  0.00     0.023 C 
BRANCH  31  32
ATOM     32  C   UNL     1      -5.889  -2.231  -0.697  1.00  0.00     0.023 C 
BRANCH  32  33
ATOM     33  C   UNL     1      -5.947  -2.641  -2.169  1.00  0.00     0.116 C 
BRANCH  33  34
ATOM     34  N   UNL     1      -4.665  -3.065  -2.693  1.00  0.00    -0.352 N 
ATOM     35  C   UNL     1      -4.214  -4.273  -3.146  1.00  0.00     0.251 C 
ATOM     36  H   UNL     1      -3.992  -2.348  -2.730  1.00  0.00     0.163 HD
ATOM     37  O   UNL     1      -3.351  -4.283  -4.023  1.00  0.00    -0.269 OA
BRANCH  35  38
ATOM     38  C   UNL     1      -4.603  -5.559  -2.521  1.00  0.00     0.039 A 
ATOM     39  C   UNL     1      -5.469  -5.660  -1.435  1.00  0.00     0.014 A 
ATOM     40  C   UNL     1      -3.904  -6.702  -2.952  1.00  0.00     0.014 A 
ATOM     41  C   UNL     1      -5.564  -6.842  -0.729  1.00  0.00     0.010 A 
ATOM     42  C   UNL     1      -4.004  -7.898  -2.255  1.00  0.00     0.010 A 
ATOM     43  C   UNL     1      -4.801  -7.943  -1.116  1.00  0.00    -0.014 A 
BRANCH  43  44
ATOM     44  C   UNL     1      -4.958  -9.138  -0.306  1.00  0.00     0.031 A 
ATOM     45  C   UNL     1      -6.339  -9.696  -0.281  1.00  0.00     0.074 A 
ATOM     46  C   UNL     1      -3.935  -9.717   0.344  1.00  0.00     0.049 A 
ATOM     47  N   UNL     1      -7.101  -9.917   0.742  1.00  0.00    -0.248 NA
ATOM     48  C   UNL     1      -6.987  -9.940  -1.580  1.00  0.00     0.031 C 
ATOM     49  C   UNL     1      -2.504  -9.439   0.217  1.00  0.00     0.029 A 
ATOM     50  N   UNL     1      -3.974 -10.774   1.200  1.00  0.00    -0.354 N 
ATOM     51  C   UNL     1      -8.275 -10.465   0.231  1.00  0.00     0.074 A 
ATOM     52  C   UNL     1      -8.196 -10.352  -1.202  1.00  0.00     0.031 C 
ATOM     53  C   UNL     1      -1.809 -10.450   0.782  1.00  0.00     0.029 A 
ATOM     54  C   UNL     1      -2.743 -11.370   1.409  1.00  0.00     0.049 A 
ATOM     55  H   UNL     1      -4.802 -11.086   1.631  1.00  0.00     0.167 HD
ATOM     56  C   UNL     1      -9.155 -11.145   1.013  1.00  0.00     0.037 A 
ATOM     57  C   UNL     1      -2.533 -12.589   1.960  1.00  0.00     0.037 A 
ATOM     58  C   UNL     1      -9.026 -10.791   2.398  1.00  0.00     0.049 A 
ATOM     59  C   UNL     1      -3.738 -12.938   2.756  1.00  0.00     0.074 A 
ATOM     60  C   UNL     1      -9.191  -9.622   3.115  1.00  0.00     0.029 A 
ATOM     61  N   UNL     1      -8.367 -11.650   3.241  1.00  0.00    -0.354 N 
ATOM     62  N   UNL     1      -4.101 -12.321   3.847  1.00  0.00    -0.248 NA
ATOM     63  C   UNL     1      -4.783 -13.714   2.103  1.00  0.00     0.031 C 
ATOM     64  C   UNL     1      -8.206  -9.675   4.142  1.00  0.00     0.029 A 
ATOM     65  C   UNL     1      -7.524 -10.885   4.004  1.00  0.00     0.049 A 
ATOM     66  H   UNL     1      -8.477 -12.627   3.288  1.00  0.00     0.167 HD
ATOM     67  C   UNL     1      -5.487 -12.291   3.795  1.00  0.00     0.074 A 
ATOM     68  C   UNL     1      -5.851 -13.245   2.752  1.00  0.00     0.031 C 
ATOM     69  C   UNL     1      -6.200 -11.299   4.404  1.00  0.00     0.037 A 
BRANCH  56  70
ATOM     70  C   UNL     1      -9.909 -12.364   0.551  1.00  0.00     0.064 A 
ATOM     71  C   UNL     1     -10.917 -12.912   1.368  1.00  0.00     0.173 A 
ATOM     72  C   UNL     1      -9.476 -13.182  -0.516  1.00  0.00     0.173 A 
ATOM     73  F   UNL     1     -11.384 -12.233   2.426  1.00  0.00    -0.203 F 
ATOM     74  C   UNL     1     -11.400 -14.208   1.172  1.00  0.00     0.198 A 
ATOM     75  C   UNL     1      -9.999 -14.453  -0.741  1.00  0.00     0.198 A 
ATOM     76  F   UNL     1      -8.455 -12.833  -1.309  1.00  0.00    -0.203 F 
ATOM     77  F   UNL     1     -12.268 -14.734   2.047  1.00  0.00    -0.200 F 
ATOM     78  C   UNL     1     -10.937 -14.979   0.121  1.00  0.00     0.200 A 
ATOM     79  F   UNL     1      -9.522 -15.191  -1.753  1.00  0.00    -0.200 F 
ATOM     80  F   UNL     1     -11.353 -16.242  -0.033  1.00  0.00    -0.200 F 
ENDBRANCH  56  70
BRANCH  57  81
ATOM     81  C   UNL     1      -1.520 -13.583   1.531  1.00  0.00     0.064 A 
ATOM     82  C   UNL     1      -1.196 -14.685   2.337  1.00  0.00     0.173 A 
ATOM     83  C   UNL     1      -1.023 -13.609   0.210  1.00  0.00     0.173 A 
ATOM     84  F   UNL     1      -1.677 -14.771   3.585  1.00  0.00    -0.203 F 
ATOM     85  C   UNL     1      -0.424 -15.746   1.850  1.00  0.00     0.198 A 
ATOM     86  C   UNL     1      -0.242 -14.659  -0.269  1.00  0.00     0.198 A 
ATOM     87  F   UNL     1      -1.360 -12.660  -0.675  1.00  0.00    -0.203 F 
ATOM     88  F   UNL     1      -0.181 -16.809   2.630  1.00  0.00    -0.200 F 
ATOM     89  C   UNL     1       0.049 -15.733   0.547  1.00  0.00     0.200 A 
ATOM     90  F   UNL     1       0.176 -14.648  -1.542  1.00  0.00    -0.200 F 
ATOM     91  F   UNL     1       0.748 -16.771   0.067  1.00  0.00    -0.200 F 
ENDBRANCH  57  81
BRANCH  69  92
ATOM     92  C   UNL     1      -5.480 -10.379   5.347  1.00  0.00     0.064 A 
ATOM     93  C   UNL     1      -4.476  -9.486   4.938  1.00  0.00     0.173 A 
ATOM     94  C   UNL     1      -5.970 -10.248   6.654  1.00  0.00     0.173 A 
ATOM     95  F   UNL     1      -4.030  -9.482   3.675  1.00  0.00    -0.203 F 
ATOM     96  C   UNL     1      -3.971  -8.520   5.806  1.00  0.00     0.198 A 
ATOM     97  C   UNL     1      -5.489  -9.259   7.508  1.00  0.00     0.198 A 
ATOM     98  F   UNL     1      -6.971 -11.034   7.079  1.00  0.00    -0.203 F 
ATOM     99  F   UNL     1      -3.021  -7.671   5.388  1.00  0.00    -0.200 F 
ATOM    100  C   UNL     1      -4.487  -8.399   7.086  1.00  0.00     0.200 A 
ATOM    101  F   UNL     1      -6.028  -9.110   8.726  1.00  0.00    -0.200 F 
ATOM    102  F   UNL     1      -4.046  -7.430   7.900  1.00  0.00    -0.200 F 
ENDBRANCH  69  92
ENDBRANCH  43  44
ENDBRANCH  35  38
ENDBRANCH  33  34
ENDBRANCH  32  33
ENDBRANCH  31  32
ENDBRANCH   1  31
TORSDOF 16
