REMARK SMILES O=C(NCCCCNC(=O)[C@H]1C[C@](O)(c2ccc(Cl)cc2)[C@@H](c2ccc(Cl)cc2)O1)c1ccc(-c2c3nc(c(-c4c(F)c(F)c(F)c(F)c4F)c4ccc([nH]4)c(-c4c(F)c(F)c(F)c(F)c4F)c4nc(c(-c5c(F)c(F)c(F)c(F)c5F)c5ccc2[nH]5)C=C4)C=C3)cc1
REMARK SMILES IDX 5 1 4 2 3 3 1 4 2 5 31 7 32 8 93 9 33 10 92 11 34 12 35 13
REMARK SMILES IDX 36 14 86 15 37 16 91 17 85 18 87 19 38 20 90 21 84 22 83 23
REMARK SMILES IDX 39 25 71 26 51 27 70 28 52 29 55 30 69 31 88 32 53 33 54 34
REMARK SMILES IDX 68 36 89 37 56 38 40 39 41 40 49 41 42 42 43 43 47 44 50 45
REMARK SMILES IDX 44 46 45 47 48 48 46 49 72 50 73 51 81 52 74 53 75 54 79 55
REMARK SMILES IDX 82 56 76 57 77 58 80 59 78 60 57 61 58 62 66 63 59 64 60 65
REMARK SMILES IDX 64 66 67 67 61 68 62 69 65 70 63 71 6 72 7 73 8 74 9 75
REMARK SMILES IDX 10 77 11 78 12 79 30 80 13 81 22 82 15 83 16 84 21 85 17 86
REMARK SMILES IDX 20 87 18 88 19 89 14 90 23 92 24 93 29 94 25 95 28 96 26 97
REMARK SMILES IDX 27 98
REMARK H PARENT 3 6 87 24 55 35 8 76 14 91
REMARK Flexibility Score: inf
ROOT
ATOM      1  C   UNL     1       4.399  -9.985  -3.836  1.00  0.00     0.023 C 
ENDROOT
BRANCH   1   2
ATOM      2  C   UNL     1       5.421 -11.084  -4.106  1.00  0.00     0.116 C 
BRANCH   2   3
ATOM      3  N   UNL     1       5.063 -12.357  -3.498  1.00  0.00    -0.352 N 
ATOM      4  O   UNL     1       3.980 -14.247  -3.005  1.00  0.00    -0.269 OA
ATOM      5  C   UNL     1       4.110 -13.311  -3.784  1.00  0.00     0.251 C 
ATOM      6  H   UNL     1       5.619 -12.586  -2.718  1.00  0.00     0.163 HD
BRANCH   5   7
ATOM      7  C   UNL     1       3.209 -13.222  -4.968  1.00  0.00     0.039 A 
ATOM      8  C   UNL     1       3.549 -12.524  -6.117  1.00  0.00     0.014 A 
ATOM      9  C   UNL     1       1.983 -13.907  -4.949  1.00  0.00     0.014 A 
ATOM     10  C   UNL     1       2.633 -12.348  -7.143  1.00  0.00     0.010 A 
ATOM     11  C   UNL     1       1.121 -13.868  -6.058  1.00  0.00     0.010 A 
ATOM     12  C   UNL     1       1.432 -13.066  -7.163  1.00  0.00    -0.014 A 
BRANCH  12  13
ATOM     13  C   UNL     1       0.608 -12.995  -8.401  1.00  0.00     0.031 A 
ATOM     14  C   UNL     1      -0.804 -12.488  -8.379  1.00  0.00     0.074 A 
ATOM     15  C   UNL     1       1.198 -13.302  -9.577  1.00  0.00     0.049 A 
ATOM     16  N   UNL     1      -1.624 -12.301  -9.384  1.00  0.00    -0.248 NA
ATOM     17  C   UNL     1      -1.382 -12.161  -7.068  1.00  0.00     0.031 C 
ATOM     18  C   UNL     1       2.563 -13.821  -9.721  1.00  0.00     0.029 A 
ATOM     19  N   UNL     1       0.766 -13.168 -10.873  1.00  0.00    -0.354 N 
ATOM     20  C   UNL     1      -2.821 -11.875  -8.825  1.00  0.00     0.074 A 
ATOM     21  C   UNL     1      -2.627 -11.841  -7.391  1.00  0.00     0.031 C 
ATOM     22  C   UNL     1       2.895 -13.845 -11.017  1.00  0.00     0.029 A 
ATOM     23  C   UNL     1       1.734 -13.459 -11.806  1.00  0.00     0.049 A 
ATOM     24  H   UNL     1      -0.148 -12.892 -11.111  1.00  0.00     0.167 HD
ATOM     25  C   UNL     1      -3.973 -11.543  -9.457  1.00  0.00     0.037 A 
ATOM     26  C   UNL     1       1.692 -13.439 -13.151  1.00  0.00     0.037 A 
ATOM     27  C   UNL     1      -4.143 -11.547 -10.889  1.00  0.00     0.049 A 
ATOM     28  C   UNL     1       0.404 -13.063 -13.820  1.00  0.00     0.074 A 
ATOM     29  C   UNL     1      -5.263 -11.207 -11.627  1.00  0.00     0.029 A 
ATOM     30  N   UNL     1      -3.159 -11.906 -11.801  1.00  0.00    -0.354 N 
ATOM     31  N   UNL     1      -0.722 -12.670 -13.277  1.00  0.00    -0.248 NA
ATOM     32  C   UNL     1       0.370 -13.153 -15.285  1.00  0.00     0.031 C 
ATOM     33  C   UNL     1      -4.972 -11.401 -12.981  1.00  0.00     0.029 A 
ATOM     34  C   UNL     1      -3.654 -11.814 -13.093  1.00  0.00     0.049 A 
ATOM     35  H   UNL     1      -2.244 -12.184 -11.565  1.00  0.00     0.167 HD
ATOM     36  C   UNL     1      -1.601 -12.470 -14.329  1.00  0.00     0.074 A 
ATOM     37  C   UNL     1      -0.865 -12.748 -15.546  1.00  0.00     0.031 C 
ATOM     38  C   UNL     1      -2.905 -12.103 -14.290  1.00  0.00     0.037 A 
BRANCH  25  39
ATOM     39  C   UNL     1      -5.156 -11.181  -8.604  1.00  0.00     0.064 A 
ATOM     40  C   UNL     1      -5.220  -9.972  -7.896  1.00  0.00     0.173 A 
ATOM     41  C   UNL     1      -6.260 -12.045  -8.525  1.00  0.00     0.173 A 
ATOM     42  F   UNL     1      -4.188  -9.116  -7.927  1.00  0.00    -0.203 F 
ATOM     43  C   UNL     1      -6.333  -9.654  -7.121  1.00  0.00     0.198 A 
ATOM     44  C   UNL     1      -7.383 -11.711  -7.773  1.00  0.00     0.198 A 
ATOM     45  F   UNL     1      -6.254 -13.211  -9.189  1.00  0.00    -0.203 F 
ATOM     46  F   UNL     1      -6.354  -8.513  -6.418  1.00  0.00    -0.200 F 
ATOM     47  C   UNL     1      -7.416 -10.519  -7.065  1.00  0.00     0.200 A 
ATOM     48  F   UNL     1      -8.433 -12.543  -7.732  1.00  0.00    -0.200 F 
ATOM     49  F   UNL     1      -8.489 -10.207  -6.325  1.00  0.00    -0.200 F 
ENDBRANCH  25  39
BRANCH  26  50
ATOM     50  C   UNL     1       2.896 -13.819 -13.938  1.00  0.00     0.064 A 
ATOM     51  C   UNL     1       3.571 -12.883 -14.732  1.00  0.00     0.173 A 
ATOM     52  C   UNL     1       3.411 -15.124 -13.891  1.00  0.00     0.173 A 
ATOM     53  F   UNL     1       3.109 -11.628 -14.829  1.00  0.00    -0.203 F 
ATOM     54  C   UNL     1       4.712 -13.239 -15.451  1.00  0.00     0.198 A 
ATOM     55  C   UNL     1       4.571 -15.469 -14.580  1.00  0.00     0.198 A 
ATOM     56  F   UNL     1       2.804 -16.059 -13.145  1.00  0.00    -0.203 F 
ATOM     57  F   UNL     1       5.319 -12.334 -16.231  1.00  0.00    -0.200 F 
ATOM     58  C   UNL     1       5.216 -14.528 -15.366  1.00  0.00     0.200 A 
ATOM     59  F   UNL     1       5.066 -16.709 -14.475  1.00  0.00    -0.200 F 
ATOM     60  F   UNL     1       6.323 -14.864 -16.042  1.00  0.00    -0.200 F 
ENDBRANCH  26  50
BRANCH  38  61
ATOM     61  C   UNL     1      -3.607 -11.971 -15.608  1.00  0.00     0.064 A 
ATOM     62  C   UNL     1      -3.955 -13.098 -16.368  1.00  0.00     0.173 A 
ATOM     63  C   UNL     1      -3.948 -10.707 -16.108  1.00  0.00     0.173 A 
ATOM     64  F   UNL     1      -3.631 -14.328 -15.940  1.00  0.00    -0.203 F 
ATOM     65  C   UNL     1      -4.596 -12.961 -17.596  1.00  0.00     0.198 A 
ATOM     66  C   UNL     1      -4.614 -10.575 -17.323  1.00  0.00     0.198 A 
ATOM     67  F   UNL     1      -3.638  -9.600 -15.417  1.00  0.00    -0.203 F 
ATOM     68  F   UNL     1      -4.872 -14.047 -18.330  1.00  0.00    -0.200 F 
ATOM     69  C   UNL     1      -4.930 -11.700 -18.069  1.00  0.00     0.200 A 
ATOM     70  F   UNL     1      -4.945  -9.357 -17.775  1.00  0.00    -0.200 F 
ATOM     71  F   UNL     1      -5.547 -11.570 -19.251  1.00  0.00    -0.200 F 
ENDBRANCH  38  61
ENDBRANCH  12  13
ENDBRANCH   5   7
ENDBRANCH   2   3
ENDBRANCH   1   2
BRANCH   1  72
ATOM     72  C   UNL     1       4.764  -9.201  -2.582  1.00  0.00     0.023 C 
BRANCH  72  73
ATOM     73  C   UNL     1       6.037  -8.362  -2.712  1.00  0.00     0.116 C 
BRANCH  73  74
ATOM     74  N   UNL     1       5.824  -7.016  -2.224  1.00  0.00    -0.354 N 
ATOM     75  C   UNL     1       5.832  -6.541  -0.947  1.00  0.00     0.249 C 
ATOM     76  H   UNL     1       5.646  -6.343  -2.920  1.00  0.00     0.163 HD
ATOM     77  O   UNL     1       5.520  -5.357  -0.793  1.00  0.00    -0.272 OA
BRANCH  75  78
ATOM     78  C   UNL     1       6.314  -7.423   0.238  1.00  0.00     0.211 C 
ATOM     79  C   UNL     1       5.772  -6.880   1.564  1.00  0.00     0.085 C 
ATOM     80  O   UNL     1       6.006  -8.813   0.167  1.00  0.00    -0.357 OA
ATOM     81  C   UNL     1       5.264  -8.088   2.336  1.00  0.00     0.123 C 
ATOM     82  C   UNL     1       5.133  -9.185   1.248  1.00  0.00     0.186 C 
BRANCH  81  83
ATOM     83  C   UNL     1       6.215  -8.459   3.484  1.00  0.00    -0.013 A 
ATOM     84  C   UNL     1       5.980  -7.951   4.778  1.00  0.00     0.008 A 
ATOM     85  C   UNL     1       7.315  -9.319   3.312  1.00  0.00     0.008 A 
ATOM     86  C   UNL     1       6.750  -8.360   5.870  1.00  0.00     0.021 A 
ATOM     87  C   UNL     1       8.081  -9.736   4.406  1.00  0.00     0.021 A 
ATOM     88  C   UNL     1       7.784  -9.268   5.682  1.00  0.00     0.041 A 
ATOM     89  Cl  UNL     1       8.695  -9.821   7.032  1.00  0.00    -0.084 Cl
ENDBRANCH  81  83
BRANCH  81  90
ATOM     90  O   UNL     1       3.996  -7.765   2.921  1.00  0.00    -0.382 OA
ATOM     91  H   UNL     1       3.369  -7.525   2.220  1.00  0.00     0.212 HD
ENDBRANCH  81  90
BRANCH  82  92
ATOM     92  C   UNL     1       3.774  -9.513   0.652  1.00  0.00    -0.016 A 
ATOM     93  C   UNL     1       2.849  -8.529   0.275  1.00  0.00     0.008 A 
ATOM     94  C   UNL     1       3.477 -10.860   0.355  1.00  0.00     0.008 A 
ATOM     95  C   UNL     1       1.674  -8.878  -0.400  1.00  0.00     0.021 A 
ATOM     96  C   UNL     1       2.309 -11.207  -0.327  1.00  0.00     0.021 A 
ATOM     97  C   UNL     1       1.417 -10.212  -0.710  1.00  0.00     0.041 A 
ATOM     98  Cl  UNL     1       0.008 -10.629  -1.605  1.00  0.00    -0.084 Cl
ENDBRANCH  82  92
ENDBRANCH  75  78
ENDBRANCH  73  74
ENDBRANCH  72  73
ENDBRANCH   1  72
TORSDOF 14
