REMARK SMILES CC(=O)O[C@@H]1[C@H](O)C(C)=C(CC[C@@H](C)CC(=O)NCCCCNC(=O)c2ccc(-c3c4nc(c(-c5c(F)c(F)c(F)c(F)c5F)c5ccc([nH]5)c(-c5c(F)c(F)c(F)c(F)c5F)c5nc(c(-c6c(F)c(F)c(F)c(F)c6F)c6ccc3[nH]6)C=C5)C=C4)cc2)[C@@]2(C)CCCC(C)(C)[C@H]12
REMARK SMILES IDX 16 1 17 2 18 3 15 5 13 6 14 7 12 8 11 9 10 10 5 11 6 12
REMARK SMILES IDX 97 13 8 14 89 15 94 16 9 17 91 18 90 19 93 20 95 21 96 22
REMARK SMILES IDX 92 23 4 24 2 25 1 26 3 27 7 28 19 30 20 31 21 32 22 33 23 34
REMARK SMILES IDX 24 35 25 37 26 38 27 39 88 40 28 41 87 42 29 43 30 44 31 45
REMARK SMILES IDX 81 46 32 47 86 48 80 49 82 50 33 51 85 52 79 53 78 54 34 56
REMARK SMILES IDX 66 57 46 58 65 59 47 60 50 61 64 62 83 63 48 64 49 65 63 67
REMARK SMILES IDX 84 68 51 69 35 70 36 71 44 72 37 73 38 74 42 75 45 76 39 77
REMARK SMILES IDX 40 78 43 79 41 80 67 81 68 82 76 83 69 84 70 85 74 86 77 87
REMARK SMILES IDX 71 88 72 89 75 90 73 91 52 92 53 93 61 94 54 95 55 96 59 97
REMARK SMILES IDX 62 98 56 99 57 100 60 101 58 102
REMARK H PARENT 18 4 7 29 23 36 82 55 50 66
REMARK Flexibility Score: inf
ROOT
ATOM      1  C   UNL     1       1.953   2.622   8.491  1.00  0.00     0.220 C 
ATOM      2  O   UNL     1       1.986   3.790   8.880  1.00  0.00    -0.275 OA
ATOM      3  N   UNL     1       3.135   1.950   8.382  1.00  0.00    -0.356 N 
ATOM      4  H   UNL     1       3.931   2.493   8.584  1.00  0.00     0.163 HD
ENDROOT
BRANCH   1   5
ATOM      5  C   UNL     1       0.640   1.967   8.093  1.00  0.00     0.103 C 
BRANCH   5   6
ATOM      6  C   UNL     1       0.251   2.290   6.634  1.00  0.00    -0.005 C 
ATOM      7  C   UNL     1      -1.157   1.782   6.332  1.00  0.00     0.008 C 
BRANCH   6   8
ATOM      8  C   UNL     1       1.288   1.668   5.701  1.00  0.00     0.008 C 
BRANCH   8   9
ATOM      9  C   UNL     1       1.195   1.936   4.210  1.00  0.00     0.032 C 
BRANCH   9  10
ATOM     10  C   UNL     1       1.287   3.418   3.818  1.00  0.00    -0.062 C 
ATOM     11  C   UNL     1       1.633   3.419   0.937  1.00  0.00     0.213 C 
ATOM     12  C   UNL     1       0.286   3.142   1.673  1.00  0.00     0.181 C 
ATOM     13  C   UNL     1       2.901   3.558   1.899  1.00  0.00     0.049 C 
ATOM     14  C   UNL     1       0.284   3.866   3.002  1.00  0.00    -0.042 C 
ATOM     15  C   UNL     1       2.733   3.968   3.450  1.00  0.00    -0.004 C 
ATOM     16  C   UNL     1       4.321   3.784   1.272  1.00  0.00    -0.028 C 
ATOM     17  C   UNL     1      -0.147   5.311   2.877  1.00  0.00     0.042 C 
ATOM     18  C   UNL     1       3.984   3.353   4.222  1.00  0.00     0.011 C 
ATOM     19  C   UNL     1       2.744   5.443   3.964  1.00  0.00     0.016 C 
ATOM     20  C   UNL     1       5.240   2.765   1.979  1.00  0.00     0.007 C 
ATOM     21  C   UNL     1       4.916   5.186   1.468  1.00  0.00     0.011 C 
ATOM     22  C   UNL     1       4.385   3.449  -0.229  1.00  0.00     0.011 C 
ATOM     23  C   UNL     1       5.269   2.926   3.485  1.00  0.00     0.001 C 
BRANCH  11  24
ATOM     24  O   UNL     1       1.480   4.240  -0.234  1.00  0.00    -0.459 OA
BRANCH  24  25
ATOM     25  C   UNL     1       1.289   5.565  -0.112  1.00  0.00     0.303 C 
ATOM     26  C   UNL     1       0.047   5.986  -0.838  1.00  0.00     0.139 C 
ATOM     27  O   UNL     1       2.012   6.321   0.520  1.00  0.00    -0.253 OA
ENDBRANCH  24  25
ENDBRANCH  11  24
BRANCH  12  28
ATOM     28  O   UNL     1      -0.872   3.435   0.906  1.00  0.00    -0.385 OA
ATOM     29  H   UNL     1      -0.899   4.385   0.711  1.00  0.00     0.211 HD
ENDBRANCH  12  28
ENDBRANCH   9  10
ENDBRANCH   8   9
ENDBRANCH   6   8
ENDBRANCH   5   6
ENDBRANCH   1   5
BRANCH   3  30
ATOM     30  C   UNL     1       3.426   0.571   8.020  1.00  0.00     0.116 C 
BRANCH  30  31
ATOM     31  C   UNL     1       4.291   0.420   6.767  1.00  0.00     0.023 C 
BRANCH  31  32
ATOM     32  C   UNL     1       5.613   1.178   6.833  1.00  0.00     0.023 C 
BRANCH  32  33
ATOM     33  C   UNL     1       6.806   0.250   6.874  1.00  0.00     0.116 C 
BRANCH  33  34
ATOM     34  N   UNL     1       6.920  -0.617   5.709  1.00  0.00    -0.352 N 
ATOM     35  C   UNL     1       8.046  -1.055   5.042  1.00  0.00     0.251 C 
ATOM     36  H   UNL     1       6.066  -0.941   5.343  1.00  0.00     0.163 HD
ATOM     37  O   UNL     1       7.939  -1.752   4.052  1.00  0.00    -0.269 OA
BRANCH  35  38
ATOM     38  C   UNL     1       9.381  -0.612   5.507  1.00  0.00     0.039 A 
ATOM     39  C   UNL     1      10.347  -0.278   4.556  1.00  0.00     0.014 A 
ATOM     40  C   UNL     1       9.659  -0.463   6.865  1.00  0.00     0.014 A 
ATOM     41  C   UNL     1      11.556   0.283   4.971  1.00  0.00     0.010 A 
ATOM     42  C   UNL     1      10.784   0.237   7.263  1.00  0.00     0.010 A 
ATOM     43  C   UNL     1      11.760   0.592   6.324  1.00  0.00    -0.014 A 
BRANCH  43  44
ATOM     44  C   UNL     1      13.006   1.234   6.806  1.00  0.00     0.031 A 
ATOM     45  C   UNL     1      13.838   0.533   7.847  1.00  0.00     0.074 A 
ATOM     46  C   UNL     1      13.342   2.462   6.366  1.00  0.00     0.049 A 
ATOM     47  N   UNL     1      14.890   0.962   8.496  1.00  0.00    -0.248 NA
ATOM     48  C   UNL     1      13.402  -0.817   8.250  1.00  0.00     0.031 C 
ATOM     49  C   UNL     1      12.578   3.261   5.404  1.00  0.00     0.029 A 
ATOM     50  N   UNL     1      14.413   3.260   6.678  1.00  0.00    -0.354 N 
ATOM     51  C   UNL     1      15.221  -0.052   9.385  1.00  0.00     0.074 A 
ATOM     52  C   UNL     1      14.212  -1.078   9.263  1.00  0.00     0.031 C 
ATOM     53  C   UNL     1      13.227   4.413   5.173  1.00  0.00     0.029 A 
ATOM     54  C   UNL     1      14.423   4.458   6.006  1.00  0.00     0.049 A 
ATOM     55  H   UNL     1      15.110   2.998   7.322  1.00  0.00     0.167 HD
ATOM     56  C   UNL     1      16.298  -0.143  10.199  1.00  0.00     0.037 A 
ATOM     57  C   UNL     1      15.301   5.477   6.067  1.00  0.00     0.037 A 
ATOM     58  C   UNL     1      17.321   0.863  10.279  1.00  0.00     0.049 A 
ATOM     59  C   UNL     1      16.486   5.351   6.989  1.00  0.00     0.074 A 
ATOM     60  C   UNL     1      18.476   0.860  11.037  1.00  0.00     0.029 A 
ATOM     61  N   UNL     1      17.312   2.048   9.559  1.00  0.00    -0.354 N 
ATOM     62  N   UNL     1      16.820   4.361   7.782  1.00  0.00    -0.248 NA
ATOM     63  C   UNL     1      17.422   6.483   7.019  1.00  0.00     0.031 C 
ATOM     64  C   UNL     1      19.150   2.063  10.805  1.00  0.00     0.029 A 
ATOM     65  C   UNL     1      18.440   2.790   9.862  1.00  0.00     0.049 A 
ATOM     66  H   UNL     1      16.608   2.321   8.927  1.00  0.00     0.167 HD
ATOM     67  C   UNL     1      18.020   4.733   8.372  1.00  0.00     0.074 A 
ATOM     68  C   UNL     1      18.364   6.031   7.831  1.00  0.00     0.031 C 
ATOM     69  C   UNL     1      18.770   4.066   9.284  1.00  0.00     0.037 A 
BRANCH  56  70
ATOM     70  C   UNL     1      16.441  -1.382  11.033  1.00  0.00     0.064 A 
ATOM     71  C   UNL     1      16.715  -2.630  10.450  1.00  0.00     0.173 A 
ATOM     72  C   UNL     1      16.346  -1.321  12.431  1.00  0.00     0.173 A 
ATOM     73  F   UNL     1      16.797  -2.748   9.116  1.00  0.00    -0.203 F 
ATOM     74  C   UNL     1      16.866  -3.771  11.232  1.00  0.00     0.198 A 
ATOM     75  C   UNL     1      16.531  -2.459  13.213  1.00  0.00     0.198 A 
ATOM     76  F   UNL     1      16.084  -0.155  13.041  1.00  0.00    -0.203 F 
ATOM     77  F   UNL     1      17.078  -4.958  10.647  1.00  0.00    -0.200 F 
ATOM     78  C   UNL     1      16.785  -3.683  12.613  1.00  0.00     0.200 A 
ATOM     79  F   UNL     1      16.463  -2.370  14.548  1.00  0.00    -0.200 F 
ATOM     80  F   UNL     1      16.944  -4.780  13.366  1.00  0.00    -0.200 F 
ENDBRANCH  56  70
BRANCH  57  81
ATOM     81  C   UNL     1      15.118   6.690   5.224  1.00  0.00     0.064 A 
ATOM     82  C   UNL     1      16.035   7.006   4.210  1.00  0.00     0.173 A 
ATOM     83  C   UNL     1      14.055   7.580   5.438  1.00  0.00     0.173 A 
ATOM     84  F   UNL     1      17.078   6.196   3.975  1.00  0.00    -0.203 F 
ATOM     85  C   UNL     1      15.921   8.184   3.475  1.00  0.00     0.198 A 
ATOM     86  C   UNL     1      13.923   8.741   4.678  1.00  0.00     0.198 A 
ATOM     87  F   UNL     1      13.143   7.323   6.387  1.00  0.00    -0.203 F 
ATOM     88  F   UNL     1      16.853   8.494   2.563  1.00  0.00    -0.200 F 
ATOM     89  C   UNL     1      14.864   9.050   3.708  1.00  0.00     0.200 A 
ATOM     90  F   UNL     1      12.890   9.567   4.895  1.00  0.00    -0.200 F 
ATOM     91  F   UNL     1      14.761  10.188   3.009  1.00  0.00    -0.200 F 
ENDBRANCH  57  81
BRANCH  69  92
ATOM     92  C   UNL     1      20.061   4.702   9.706  1.00  0.00     0.064 A 
ATOM     93  C   UNL     1      20.090   5.847  10.514  1.00  0.00     0.173 A 
ATOM     94  C   UNL     1      21.285   4.128   9.329  1.00  0.00     0.173 A 
ATOM     95  F   UNL     1      18.946   6.439  10.889  1.00  0.00    -0.203 F 
ATOM     96  C   UNL     1      21.300   6.414  10.904  1.00  0.00     0.198 A 
ATOM     97  C   UNL     1      22.492   4.677   9.751  1.00  0.00     0.198 A 
ATOM     98  F   UNL     1      21.310   3.026   8.565  1.00  0.00    -0.203 F 
ATOM     99  F   UNL     1      21.306   7.540  11.631  1.00  0.00    -0.200 F 
ATOM    100  C   UNL     1      22.498   5.824  10.530  1.00  0.00     0.200 A 
ATOM    101  F   UNL     1      23.648   4.095   9.404  1.00  0.00    -0.200 F 
ATOM    102  F   UNL     1      23.662   6.366  10.915  1.00  0.00    -0.200 F 
ENDBRANCH  69  92
ENDBRANCH  43  44
ENDBRANCH  35  38
ENDBRANCH  33  34
ENDBRANCH  32  33
ENDBRANCH  31  32
ENDBRANCH  30  31
ENDBRANCH   3  30
TORSDOF 18
