REMARK SMILES O=C(/C=C/c1ccc(C(=O)NC2CC2)cc1)NC1(C(=O)NCCCCNC(=O)c2ccc(-c3c4nc(c(-c5c(F)c(F)c(F)c(F)c5F)c5ccc([nH]5)c(-c5c(F)c(F)c(F)c(F)c5F)c5nc(c(-c6c(F)c(F)c(F)c(F)c6F)c6ccc3[nH]6)C=C5)C=C4)cc2)CCCC1
REMARK SMILES IDX 22 1 21 2 19 3 20 4 18 6 92 7 95 8 93 9 94 10 17 11 1 12
REMARK SMILES IDX 2 13 3 15 4 16 5 17 6 18 16 19 7 20 15 21 8 22 9 23 10 24
REMARK SMILES IDX 11 25 12 27 13 28 14 29 23 30 24 31 25 32 26 33 27 34 28 36
REMARK SMILES IDX 29 37 30 38 91 39 31 40 90 41 32 42 33 43 34 44 84 45 35 46
REMARK SMILES IDX 89 47 83 48 85 49 36 50 88 51 82 52 81 53 37 55 69 56 49 57
REMARK SMILES IDX 68 58 50 59 53 60 67 61 86 62 51 63 52 64 66 66 87 67 54 68
REMARK SMILES IDX 38 69 39 70 47 71 40 72 41 73 45 74 48 75 42 76 43 77 46 78
REMARK SMILES IDX 44 79 70 80 71 81 79 82 72 83 73 84 77 85 80 86 74 87 75 88
REMARK SMILES IDX 78 89 76 90 55 91 56 92 64 93 57 94 58 95 62 96 65 97 59 98
REMARK SMILES IDX 60 99 63 100 61 101
REMARK H PARENT 21 5 17 14 11 26 26 35 85 54 53 65
REMARK Flexibility Score: inf
ROOT
ATOM      1  C   UNL     1       0.631   4.665   2.051  1.00  0.00     0.116 C 
ENDROOT
BRANCH   1   2
ATOM      2  N   UNL     1       1.292   3.473   2.518  1.00  0.00    -0.354 N 
ATOM      3  C   UNL     1       2.101   2.593   1.870  1.00  0.00     0.245 C 
ATOM      4  O   UNL     1       2.732   1.826   2.614  1.00  0.00    -0.272 OA
ATOM      5  H   UNL     1       1.131   3.260   3.466  1.00  0.00     0.163 HD
BRANCH   3   6
ATOM      6  C   UNL     1       2.347   2.601   0.316  1.00  0.00     0.119 C 
ATOM      7  C   UNL     1       3.304   3.738  -0.088  1.00  0.00     0.038 C 
ATOM      8  C   UNL     1       1.111   2.765  -0.586  1.00  0.00     0.038 C 
ATOM      9  C   UNL     1       2.521   4.754  -0.904  1.00  0.00     0.003 C 
ATOM     10  C   UNL     1       1.239   4.078  -1.353  1.00  0.00     0.003 C 
BRANCH   6  11
ATOM     11  N   UNL     1       3.025   1.313   0.051  1.00  0.00    -0.338 N 
ATOM     12  O   UNL     1       1.151  -0.004   0.223  1.00  0.00    -0.270 OA
ATOM     13  C   UNL     1       2.365   0.114   0.092  1.00  0.00     0.244 C 
ATOM     14  H   UNL     1       3.985   1.318  -0.163  1.00  0.00     0.164 HD
BRANCH  13  15
ATOM     15  C   UNL     1       3.189  -1.105  -0.093  1.00  0.00     0.072 C 
ATOM     16  C   UNL     1       4.527  -1.203  -0.153  1.00  0.00     0.014 C 
BRANCH  16  17
ATOM     17  C   UNL     1       5.200  -2.471  -0.471  1.00  0.00    -0.025 A 
ATOM     18  C   UNL     1       6.450  -2.773   0.072  1.00  0.00     0.009 A 
ATOM     19  C   UNL     1       4.638  -3.368  -1.384  1.00  0.00     0.009 A 
ATOM     20  C   UNL     1       7.116  -3.953  -0.295  1.00  0.00     0.014 A 
ATOM     21  C   UNL     1       5.290  -4.555  -1.726  1.00  0.00     0.014 A 
ATOM     22  C   UNL     1       6.551  -4.854  -1.214  1.00  0.00     0.039 A 
BRANCH  22  23
ATOM     23  C   UNL     1       7.340  -6.077  -1.560  1.00  0.00     0.251 C 
ATOM     24  O   UNL     1       8.310  -6.376  -0.860  1.00  0.00    -0.269 OA
ATOM     25  N   UNL     1       7.061  -6.888  -2.642  1.00  0.00    -0.349 N 
ATOM     26  H   UNL     1       7.673  -7.652  -2.743  1.00  0.00     0.164 HD
BRANCH  25  27
ATOM     27  C   UNL     1       6.047  -6.813  -3.634  1.00  0.00     0.082 C 
ATOM     28  C   UNL     1       6.090  -5.779  -4.728  1.00  0.00     0.027 C 
ATOM     29  C   UNL     1       6.331  -7.221  -5.055  1.00  0.00     0.027 C 
ENDBRANCH  25  27
ENDBRANCH  22  23
ENDBRANCH  16  17
ENDBRANCH  13  15
ENDBRANCH   6  11
ENDBRANCH   3   6
ENDBRANCH   1   2
BRANCH   1  30
ATOM     30  C   UNL     1      -0.886   4.584   2.143  1.00  0.00     0.023 C 
BRANCH  30  31
ATOM     31  C   UNL     1      -1.448   4.783   3.548  1.00  0.00     0.023 C 
BRANCH  31  32
ATOM     32  C   UNL     1      -0.978   6.042   4.268  1.00  0.00     0.116 C 
BRANCH  32  33
ATOM     33  N   UNL     1      -1.169   7.266   3.503  1.00  0.00    -0.352 N 
ATOM     34  C   UNL     1      -1.553   8.509   3.955  1.00  0.00     0.251 C 
ATOM     35  H   UNL     1      -1.001   7.196   2.535  1.00  0.00     0.163 HD
ATOM     36  O   UNL     1      -1.742   9.430   3.179  1.00  0.00    -0.269 OA
BRANCH  34  37
ATOM     37  C   UNL     1      -1.779   8.692   5.404  1.00  0.00     0.039 A 
ATOM     38  C   UNL     1      -3.005   9.203   5.833  1.00  0.00     0.014 A 
ATOM     39  C   UNL     1      -0.814   8.280   6.325  1.00  0.00     0.014 A 
ATOM     40  C   UNL     1      -3.298   9.220   7.197  1.00  0.00     0.010 A 
ATOM     41  C   UNL     1      -1.138   8.226   7.676  1.00  0.00     0.010 A 
ATOM     42  C   UNL     1      -2.386   8.689   8.123  1.00  0.00    -0.014 A 
BRANCH  42  43
ATOM     43  C   UNL     1      -2.718   8.597   9.566  1.00  0.00     0.031 A 
ATOM     44  C   UNL     1      -1.910   9.365  10.572  1.00  0.00     0.074 A 
ATOM     45  C   UNL     1      -3.691   7.758   9.975  1.00  0.00     0.049 A 
ATOM     46  N   UNL     1      -1.985   9.351  11.879  1.00  0.00    -0.248 NA
ATOM     47  C   UNL     1      -0.853  10.239  10.040  1.00  0.00     0.031 C 
ATOM     48  C   UNL     1      -4.503   6.912   9.099  1.00  0.00     0.029 A 
ATOM     49  N   UNL     1      -4.151   7.469  11.235  1.00  0.00    -0.354 N 
ATOM     50  C   UNL     1      -0.975  10.194  12.322  1.00  0.00     0.074 A 
ATOM     51  C   UNL     1      -0.267  10.661  11.150  1.00  0.00     0.031 C 
ATOM     52  C   UNL     1      -5.375   6.216   9.845  1.00  0.00     0.029 A 
ATOM     53  C   UNL     1      -5.163   6.540  11.253  1.00  0.00     0.049 A 
ATOM     54  H   UNL     1      -3.791   7.888  12.050  1.00  0.00     0.167 HD
ATOM     55  C   UNL     1      -0.681  10.565  13.590  1.00  0.00     0.037 A 
ATOM     56  C   UNL     1      -5.839   6.009  12.289  1.00  0.00     0.037 A 
ATOM     57  C   UNL     1      -1.411  10.128  14.750  1.00  0.00     0.049 A 
ATOM     58  C   UNL     1      -5.508   6.456  13.687  1.00  0.00     0.074 A 
ATOM     59  C   UNL     1      -1.241  10.505  16.070  1.00  0.00     0.029 A 
ATOM     60  N   UNL     1      -2.457   9.216  14.725  1.00  0.00    -0.354 N 
ATOM     61  N   UNL     1      -4.601   7.313  14.088  1.00  0.00    -0.248 NA
ATOM     62  C   UNL     1      -6.302   5.868  14.775  1.00  0.00     0.031 C 
ATOM     63  C   UNL     1      -2.158   9.792  16.850  1.00  0.00     0.029 A 
ATOM     64  C   UNL     1      -2.929   9.005  16.010  1.00  0.00     0.049 A 
ATOM     65  H   UNL     1      -2.810   8.784  13.914  1.00  0.00     0.167 HD
ATOM     66  C   UNL     1      -4.731   7.387  15.468  1.00  0.00     0.074 A 
ATOM     67  C   UNL     1      -5.815   6.499  15.834  1.00  0.00     0.031 C 
ATOM     68  C   UNL     1      -4.016   8.124  16.353  1.00  0.00     0.037 A 
BRANCH  55  69
ATOM     69  C   UNL     1       0.477  11.498  13.787  1.00  0.00     0.064 A 
ATOM     70  C   UNL     1       0.416  12.841  13.383  1.00  0.00     0.173 A 
ATOM     71  C   UNL     1       1.653  11.054  14.409  1.00  0.00     0.173 A 
ATOM     72  F   UNL     1      -0.681  13.312  12.770  1.00  0.00    -0.203 F 
ATOM     73  C   UNL     1       1.499  13.695  13.567  1.00  0.00     0.198 A 
ATOM     74  C   UNL     1       2.724  11.919  14.619  1.00  0.00     0.198 A 
ATOM     75  F   UNL     1       1.763   9.781  14.818  1.00  0.00    -0.203 F 
ATOM     76  F   UNL     1       1.436  14.959  13.126  1.00  0.00    -0.200 F 
ATOM     77  C   UNL     1       2.649  13.236  14.191  1.00  0.00     0.200 A 
ATOM     78  F   UNL     1       3.831  11.477  15.232  1.00  0.00    -0.200 F 
ATOM     79  F   UNL     1       3.690  14.061  14.372  1.00  0.00    -0.200 F 
ENDBRANCH  55  69
BRANCH  56  80
ATOM     80  C   UNL     1      -6.919   5.019  12.041  1.00  0.00     0.064 A 
ATOM     81  C   UNL     1      -8.264   5.359  12.246  1.00  0.00     0.173 A 
ATOM     82  C   UNL     1      -6.634   3.719  11.601  1.00  0.00     0.173 A 
ATOM     83  F   UNL     1      -8.584   6.584  12.687  1.00  0.00    -0.203 F 
ATOM     84  C   UNL     1      -9.281   4.430  12.038  1.00  0.00     0.198 A 
ATOM     85  C   UNL     1      -7.654   2.799  11.368  1.00  0.00     0.198 A 
ATOM     86  F   UNL     1      -5.364   3.347  11.385  1.00  0.00    -0.203 F 
ATOM     87  F   UNL     1     -10.554   4.768  12.283  1.00  0.00    -0.200 F 
ATOM     88  C   UNL     1      -8.976   3.152  11.594  1.00  0.00     0.200 A 
ATOM     89  F   UNL     1      -7.356   1.569  10.927  1.00  0.00    -0.200 F 
ATOM     90  F   UNL     1      -9.954   2.260  11.392  1.00  0.00    -0.200 F 
ENDBRANCH  56  80
BRANCH  68  91
ATOM     91  C   UNL     1      -4.404   8.028  17.799  1.00  0.00     0.064 A 
ATOM     92  C   UNL     1      -4.117   6.888  18.563  1.00  0.00     0.173 A 
ATOM     93  C   UNL     1      -5.031   9.109  18.438  1.00  0.00     0.173 A 
ATOM     94  F   UNL     1      -3.533   5.823  17.993  1.00  0.00    -0.203 F 
ATOM     95  C   UNL     1      -4.464   6.824  19.909  1.00  0.00     0.198 A 
ATOM     96  C   UNL     1      -5.351   9.053  19.791  1.00  0.00     0.198 A 
ATOM     97  F   UNL     1      -5.320  10.225  17.751  1.00  0.00    -0.203 F 
ATOM     98  F   UNL     1      -4.220   5.709  20.610  1.00  0.00    -0.200 F 
ATOM     99  C   UNL     1      -5.073   7.909  20.524  1.00  0.00     0.200 A 
ATOM    100  F   UNL     1      -5.928  10.106  20.386  1.00  0.00    -0.200 F 
ATOM    101  F   UNL     1      -5.399   7.849  21.822  1.00  0.00    -0.200 F 
ENDBRANCH  68  91
ENDBRANCH  42  43
ENDBRANCH  34  37
ENDBRANCH  32  33
ENDBRANCH  31  32
ENDBRANCH  30  31
ENDBRANCH   1  30
TORSDOF 16
