REMARK SMILES COc1ccc(-n2c(SCC(=O)NCCCCNC(=O)c3ccc(-c4c5nc(c(-c6c(F)c(F)c(F)c(F)c6F)c6ccc([nH]6)c(-c6c(F)c(F)c(F)c(F)c6F)c6nc(c(-c7c(F)c(F)c(F)c(F)c7F)c7ccc4[nH]7)C=C6)C=C5)cc3)nc3sc4c(c3c2=O)CC[N@H+](C)C4)cc1
REMARK SMILES IDX 14 1 13 2 11 3 12 4 10 6 9 7 8 8 7 9 90 10 84 11 89 12 91 13
REMARK SMILES IDX 85 14 88 15 86 16 87 17 92 18 96 19 93 20 94 21 95 22 6 24
REMARK SMILES IDX 3 25 4 26 98 27 5 28 97 29 2 30 1 31 15 32 16 33 17 34 18 35
REMARK SMILES IDX 19 36 20 38 21 39 22 40 83 41 23 42 82 43 24 44 25 45 26 46
REMARK SMILES IDX 76 47 27 48 81 49 75 50 77 51 28 52 80 53 74 54 73 55 29 57
REMARK SMILES IDX 61 58 41 59 60 60 42 61 45 62 59 63 78 64 43 65 44 66 58 68
REMARK SMILES IDX 79 69 46 70 30 71 31 72 39 73 32 74 33 75 37 76 40 77 34 78
REMARK SMILES IDX 35 79 38 80 36 81 62 82 63 83 71 84 64 85 65 86 69 87 72 88
REMARK SMILES IDX 66 89 67 90 70 91 68 92 47 93 48 94 56 95 49 96 50 97 54 98
REMARK SMILES IDX 57 99 51 100 52 101 55 102 53 103
REMARK H PARENT 13 5 94 23 18 37 77 56 45 67
REMARK Flexibility Score: inf
ROOT
ATOM      1  C   UNL     1       6.671  -3.596   2.863  1.00  0.00     0.116 C 
ENDROOT
BRANCH   1   2
ATOM      2  N   UNL     1       5.583  -3.024   2.099  1.00  0.00    -0.355 N 
ATOM      3  C   UNL     1       4.434  -2.431   2.506  1.00  0.00     0.230 C 
ATOM      4  O   UNL     1       3.969  -1.605   1.710  1.00  0.00    -0.274 OA
ATOM      5  H   UNL     1       5.697  -3.073   1.123  1.00  0.00     0.163 HD
BRANCH   3   6
ATOM      6  C   UNL     1       3.784  -2.627   3.862  1.00  0.00     0.178 C 
BRANCH   6   7
ATOM      7  S   UNL     1       3.827  -4.231   4.620  1.00  0.00    -0.077 SA
BRANCH   7   8
ATOM      8  C   UNL     1       2.790  -5.466   3.937  1.00  0.00     0.177 A 
ATOM      9  N   UNL     1       1.693  -5.281   3.086  1.00  0.00    -0.255 N 
ATOM     10  C   UNL     1       0.909  -6.374   2.645  1.00  0.00     0.267 A 
ATOM     11  N   UNL     1       3.137  -6.632   4.406  1.00  0.00    -0.212 NA
ATOM     12  C   UNL     1       1.296  -7.652   3.203  1.00  0.00     0.081 A 
ATOM     13  O   UNL     1      -0.031  -6.293   1.865  1.00  0.00    -0.268 OA
ATOM     14  C   UNL     1       2.369  -7.684   4.053  1.00  0.00     0.132 A 
ATOM     15  C   UNL     1       0.711  -8.940   3.013  1.00  0.00    -0.008 A 
ATOM     16  S   UNL     1       2.629  -9.246   4.694  1.00  0.00    -0.114 S 
ATOM     17  C   UNL     1       1.309  -9.883   3.827  1.00  0.00     0.065 A 
ATOM     18  C   UNL     1      -0.448  -9.309   2.135  1.00  0.00     0.099 C 
ATOM     19  C   UNL     1       0.883 -11.321   3.930  1.00  0.00     0.310 C 
ATOM     20  C   UNL     1      -0.631 -10.844   2.076  1.00  0.00     0.267 C 
ATOM     21  N   UNL     1      -0.474 -11.548   3.370  1.00  0.00    -0.333 N 
ATOM     22  C   UNL     1      -1.520 -11.168   4.321  1.00  0.00     0.333 C 
ATOM     23  H   UNL     1      -0.578 -12.547   3.198  1.00  0.00     0.348 HD
BRANCH   9  24
ATOM     24  C   UNL     1       1.276  -4.040   2.562  1.00  0.00     0.052 A 
ATOM     25  C   UNL     1       0.281  -1.724   1.347  1.00  0.00     0.119 A 
ATOM     26  C   UNL     1      -0.298  -2.207   2.522  1.00  0.00     0.048 A 
ATOM     27  C   UNL     1       1.308  -2.448   0.743  1.00  0.00     0.048 A 
ATOM     28  C   UNL     1       0.193  -3.364   3.133  1.00  0.00     0.030 A 
ATOM     29  C   UNL     1       1.793  -3.614   1.339  1.00  0.00     0.030 A 
BRANCH  25  30
ATOM     30  O   UNL     1      -0.248  -0.556   0.869  1.00  0.00    -0.497 OA
ATOM     31  C   UNL     1       0.565   0.155  -0.060  1.00  0.00     0.278 C 
ENDBRANCH  25  30
ENDBRANCH   9  24
ENDBRANCH   7   8
ENDBRANCH   6   7
ENDBRANCH   3   6
ENDBRANCH   1   2
BRANCH   1  32
ATOM     32  C   UNL     1       7.059  -4.987   2.366  1.00  0.00     0.023 C 
BRANCH  32  33
ATOM     33  C   UNL     1       7.440  -5.090   0.876  1.00  0.00     0.023 C 
BRANCH  33  34
ATOM     34  C   UNL     1       8.546  -4.146   0.381  1.00  0.00     0.116 C 
BRANCH  34  35
ATOM     35  N   UNL     1       9.758  -4.294   1.162  1.00  0.00    -0.352 N 
ATOM     36  C   UNL     1      11.069  -4.416   0.792  1.00  0.00     0.251 C 
ATOM     37  H   UNL     1       9.611  -4.308   2.135  1.00  0.00     0.163 HD
ATOM     38  O   UNL     1      11.879  -4.781   1.644  1.00  0.00    -0.269 OA
BRANCH  36  39
ATOM     39  C   UNL     1      11.558  -4.118  -0.573  1.00  0.00     0.039 A 
ATOM     40  C   UNL     1      12.606  -4.910  -1.061  1.00  0.00     0.014 A 
ATOM     41  C   UNL     1      11.149  -2.994  -1.295  1.00  0.00     0.014 A 
ATOM     42  C   UNL     1      13.237  -4.587  -2.262  1.00  0.00     0.010 A 
ATOM     43  C   UNL     1      11.783  -2.671  -2.503  1.00  0.00     0.010 A 
ATOM     44  C   UNL     1      12.834  -3.461  -2.991  1.00  0.00    -0.014 A 
BRANCH  44  45
ATOM     45  C   UNL     1      13.504  -3.187  -4.278  1.00  0.00     0.031 A 
ATOM     46  C   UNL     1      12.628  -2.879  -5.442  1.00  0.00     0.074 A 
ATOM     47  C   UNL     1      14.796  -2.804  -4.362  1.00  0.00     0.049 A 
ATOM     48  N   UNL     1      12.175  -1.684  -5.683  1.00  0.00    -0.248 NA
ATOM     49  C   UNL     1      12.057  -3.916  -6.299  1.00  0.00     0.031 C 
ATOM     50  C   UNL     1      15.530  -2.125  -3.289  1.00  0.00     0.029 A 
ATOM     51  N   UNL     1      15.641  -2.739  -5.446  1.00  0.00    -0.354 N 
ATOM     52  C   UNL     1      11.218  -1.803  -6.670  1.00  0.00     0.074 A 
ATOM     53  C   UNL     1      11.196  -3.201  -7.041  1.00  0.00     0.031 C 
ATOM     54  C   UNL     1      16.641  -1.566  -3.813  1.00  0.00     0.029 A 
ATOM     55  C   UNL     1      16.783  -1.980  -5.207  1.00  0.00     0.049 A 
ATOM     56  H   UNL     1      15.457  -3.185  -6.304  1.00  0.00     0.167 HD
ATOM     57  C   UNL     1      10.484  -0.749  -7.112  1.00  0.00     0.037 A 
ATOM     58  C   UNL     1      17.469  -1.264  -6.138  1.00  0.00     0.037 A 
ATOM     59  C   UNL     1      10.768   0.515  -6.504  1.00  0.00     0.049 A 
ATOM     60  C   UNL     1      16.418  -0.297  -6.612  1.00  0.00     0.074 A 
ATOM     61  C   UNL     1      10.290   1.258  -5.447  1.00  0.00     0.029 A 
ATOM     62  N   UNL     1      11.829   1.244  -6.985  1.00  0.00    -0.354 N 
ATOM     63  N   UNL     1      16.041   0.781  -5.980  1.00  0.00    -0.248 NA
ATOM     64  C   UNL     1      15.522  -0.716  -7.691  1.00  0.00     0.031 C 
ATOM     65  C   UNL     1      11.365   2.127  -5.074  1.00  0.00     0.029 A 
ATOM     66  C   UNL     1      12.445   1.802  -5.893  1.00  0.00     0.049 A 
ATOM     67  H   UNL     1      12.096   1.345  -7.927  1.00  0.00     0.167 HD
ATOM     68  C   UNL     1      14.738   1.031  -6.412  1.00  0.00     0.074 A 
ATOM     69  C   UNL     1      14.495   0.100  -7.495  1.00  0.00     0.031 C 
ATOM     70  C   UNL     1      13.879   1.849  -5.738  1.00  0.00     0.037 A 
BRANCH  57  71
ATOM     71  C   UNL     1       9.529  -0.805  -8.230  1.00  0.00     0.064 A 
ATOM     72  C   UNL     1       9.944  -0.339  -9.484  1.00  0.00     0.173 A 
ATOM     73  C   UNL     1       8.175  -1.084  -8.035  1.00  0.00     0.173 A 
ATOM     74  F   UNL     1      11.239  -0.043  -9.694  1.00  0.00    -0.203 F 
ATOM     75  C   UNL     1       9.026  -0.115 -10.502  1.00  0.00     0.198 A 
ATOM     76  C   UNL     1       7.256  -0.863  -9.060  1.00  0.00     0.198 A 
ATOM     77  F   UNL     1       7.737  -1.517  -6.844  1.00  0.00    -0.203 F 
ATOM     78  F   UNL     1       9.442   0.380 -11.676  1.00  0.00    -0.200 F 
ATOM     79  C   UNL     1       7.680  -0.365 -10.286  1.00  0.00     0.200 A 
ATOM     80  F   UNL     1       5.953  -1.097  -8.851  1.00  0.00    -0.200 F 
ATOM     81  F   UNL     1       6.789  -0.109 -11.253  1.00  0.00    -0.200 F 
ENDBRANCH  57  71
BRANCH  58  82
ATOM     82  C   UNL     1      18.330  -2.055  -7.079  1.00  0.00     0.064 A 
ATOM     83  C   UNL     1      19.154  -3.080  -6.566  1.00  0.00     0.173 A 
ATOM     84  C   UNL     1      18.412  -1.842  -8.464  1.00  0.00     0.173 A 
ATOM     85  F   UNL     1      19.244  -3.277  -5.241  1.00  0.00    -0.203 F 
ATOM     86  C   UNL     1      19.902  -3.917  -7.397  1.00  0.00     0.198 A 
ATOM     87  C   UNL     1      19.137  -2.697  -9.299  1.00  0.00     0.198 A 
ATOM     88  F   UNL     1      17.785  -0.809  -9.043  1.00  0.00    -0.203 F 
ATOM     89  F   UNL     1      20.643  -4.898  -6.865  1.00  0.00    -0.200 F 
ATOM     90  C   UNL     1      19.867  -3.744  -8.768  1.00  0.00     0.200 A 
ATOM     91  F   UNL     1      19.109  -2.509 -10.626  1.00  0.00    -0.200 F 
ATOM     92  F   UNL     1      20.540  -4.577  -9.573  1.00  0.00    -0.200 F 
ENDBRANCH  58  82
BRANCH  70  93
ATOM     93  C   UNL     1      14.489   2.577  -4.587  1.00  0.00     0.064 A 
ATOM     94  C   UNL     1      15.415   3.607  -4.805  1.00  0.00     0.173 A 
ATOM     95  C   UNL     1      14.175   2.244  -3.260  1.00  0.00     0.173 A 
ATOM     96  F   UNL     1      15.745   3.968  -6.055  1.00  0.00    -0.203 F 
ATOM     97  C   UNL     1      15.999   4.280  -3.735  1.00  0.00     0.198 A 
ATOM     98  C   UNL     1      14.737   2.940  -2.195  1.00  0.00     0.198 A 
ATOM     99  F   UNL     1      13.314   1.252  -2.985  1.00  0.00    -0.203 F 
ATOM    100  F   UNL     1      16.889   5.255  -3.964  1.00  0.00    -0.200 F 
ATOM    101  C   UNL     1      15.652   3.954  -2.433  1.00  0.00     0.200 A 
ATOM    102  F   UNL     1      14.386   2.636  -0.937  1.00  0.00    -0.200 F 
ATOM    103  F   UNL     1      16.193   4.623  -1.405  1.00  0.00    -0.200 F 
ENDBRANCH  70  93
ENDBRANCH  44  45
ENDBRANCH  36  39
ENDBRANCH  34  35
ENDBRANCH  33  34
ENDBRANCH  32  33
ENDBRANCH   1  32
TORSDOF 15
