REMARK SMILES O=C(NCCCCNC(=O)[C@H]1Cc2cc(O)ccc2C[NH2+]1)c1ccc(-c2c3nc(c(-c4c(F)c(F)c(F)c(F)c4F)c4ccc([nH]4)c(-c4c(F)c(F)c(F)c(F)c4F)c4nc(c(-c5c(F)c(F)c(F)c(F)c5F)c5ccc2[nH]5)C=C4)C=C3)cc1
REMARK SMILES IDX 5 1 4 2 3 3 1 4 2 5 22 7 23 8 84 9 24 10 83 11 25 12 26 13
REMARK SMILES IDX 27 14 77 15 28 16 82 17 76 18 78 19 29 20 81 21 75 22 74 23
REMARK SMILES IDX 30 25 62 26 42 27 61 28 43 29 46 30 60 31 79 32 44 33 45 34
REMARK SMILES IDX 59 36 80 37 47 38 31 39 32 40 40 41 33 42 34 43 38 44 41 45
REMARK SMILES IDX 35 46 36 47 39 48 37 49 63 50 64 51 72 52 65 53 66 54 70 55
REMARK SMILES IDX 73 56 67 57 68 58 71 59 69 60 48 61 49 62 57 63 50 64 51 65
REMARK SMILES IDX 55 66 58 67 52 68 53 69 56 70 54 71 6 72 7 73 8 74 9 75
REMARK SMILES IDX 10 77 11 78 12 79 21 80 13 81 20 82 14 85 19 86 15 87 18 88
REMARK SMILES IDX 17 89 16 90
REMARK H PARENT 3 6 78 24 46 35 8 76 21 83 21 84 16 91
REMARK Flexibility Score: inf
ROOT
ATOM      1  C   UNL     1       4.804   0.138  -2.632  1.00  0.00     0.023 C 
ENDROOT
BRANCH   1   2
ATOM      2  C   UNL     1       4.469   0.334  -1.163  1.00  0.00     0.116 C 
BRANCH   2   3
ATOM      3  N   UNL     1       3.049   0.511  -0.918  1.00  0.00    -0.352 N 
ATOM      4  O   UNL     1       1.085   0.212   0.147  1.00  0.00    -0.269 OA
ATOM      5  C   UNL     1       2.298   0.076   0.149  1.00  0.00     0.251 C 
ATOM      6  H   UNL     1       2.557   1.010  -1.609  1.00  0.00     0.163 HD
BRANCH   5   7
ATOM      7  C   UNL     1       2.968  -0.589   1.289  1.00  0.00     0.039 A 
ATOM      8  C   UNL     1       2.380  -1.731   1.837  1.00  0.00     0.014 A 
ATOM      9  C   UNL     1       4.160  -0.090   1.821  1.00  0.00     0.014 A 
ATOM     10  C   UNL     1       3.005  -2.390   2.896  1.00  0.00     0.010 A 
ATOM     11  C   UNL     1       4.828  -0.798   2.813  1.00  0.00     0.010 A 
ATOM     12  C   UNL     1       4.243  -1.938   3.381  1.00  0.00    -0.014 A 
BRANCH  12  13
ATOM     13  C   UNL     1       4.902  -2.604   4.533  1.00  0.00     0.031 A 
ATOM     14  C   UNL     1       5.090  -1.845   5.820  1.00  0.00     0.074 A 
ATOM     15  C   UNL     1       5.345  -3.870   4.418  1.00  0.00     0.049 A 
ATOM     16  N   UNL     1       5.665  -2.231   6.930  1.00  0.00    -0.248 NA
ATOM     17  C   UNL     1       4.591  -0.460   5.858  1.00  0.00     0.031 C 
ATOM     18  C   UNL     1       5.258  -4.691   3.210  1.00  0.00     0.029 A 
ATOM     19  N   UNL     1       5.953  -4.693   5.334  1.00  0.00    -0.354 N 
ATOM     20  C   UNL     1       5.607  -1.138   7.784  1.00  0.00     0.074 A 
ATOM     21  C   UNL     1       5.003  -0.051   7.049  1.00  0.00     0.031 C 
ATOM     22  C   UNL     1       5.755  -5.911   3.470  1.00  0.00     0.029 A 
ATOM     23  C   UNL     1       6.226  -5.950   4.852  1.00  0.00     0.049 A 
ATOM     24  H   UNL     1       6.173  -4.408   6.251  1.00  0.00     0.167 HD
ATOM     25  C   UNL     1       5.986  -1.060   9.080  1.00  0.00     0.037 A 
ATOM     26  C   UNL     1       6.786  -7.014   5.461  1.00  0.00     0.037 A 
ATOM     27  C   UNL     1       6.531  -2.159   9.826  1.00  0.00     0.049 A 
ATOM     28  C   UNL     1       7.198  -6.899   6.905  1.00  0.00     0.074 A 
ATOM     29  C   UNL     1       6.887  -2.198  11.161  1.00  0.00     0.029 A 
ATOM     30  N   UNL     1       6.785  -3.417   9.302  1.00  0.00    -0.354 N 
ATOM     31  N   UNL     1       7.080  -5.878   7.718  1.00  0.00    -0.248 NA
ATOM     32  C   UNL     1       7.819  -8.082   7.518  1.00  0.00     0.031 C 
ATOM     33  C   UNL     1       7.393  -3.470  11.438  1.00  0.00     0.029 A 
ATOM     34  C   UNL     1       7.311  -4.236  10.286  1.00  0.00     0.049 A 
ATOM     35  H   UNL     1       6.618  -3.688   8.370  1.00  0.00     0.167 HD
ATOM     36  C   UNL     1       7.582  -6.302   8.941  1.00  0.00     0.074 A 
ATOM     37  C   UNL     1       7.998  -7.677   8.769  1.00  0.00     0.031 C 
ATOM     38  C   UNL     1       7.693  -5.611  10.100  1.00  0.00     0.037 A 
BRANCH  25  39
ATOM     39  C   UNL     1       5.790   0.243   9.796  1.00  0.00     0.064 A 
ATOM     40  C   UNL     1       4.511   0.690  10.158  1.00  0.00     0.173 A 
ATOM     41  C   UNL     1       6.894   1.007  10.203  1.00  0.00     0.173 A 
ATOM     42  F   UNL     1       3.423   0.000   9.782  1.00  0.00    -0.203 F 
ATOM     43  C   UNL     1       4.343   1.858  10.895  1.00  0.00     0.198 A 
ATOM     44  C   UNL     1       6.724   2.160  10.963  1.00  0.00     0.198 A 
ATOM     45  F   UNL     1       8.139   0.620   9.886  1.00  0.00    -0.203 F 
ATOM     46  F   UNL     1       3.110   2.280  11.207  1.00  0.00    -0.200 F 
ATOM     47  C   UNL     1       5.449   2.586  11.307  1.00  0.00     0.200 A 
ATOM     48  F   UNL     1       7.794   2.854  11.374  1.00  0.00    -0.200 F 
ATOM     49  F   UNL     1       5.287   3.697  12.038  1.00  0.00    -0.200 F 
ENDBRANCH  25  39
BRANCH  26  50
ATOM     50  C   UNL     1       6.950  -8.292   4.720  1.00  0.00     0.064 A 
ATOM     51  C   UNL     1       6.185  -9.419   5.055  1.00  0.00     0.173 A 
ATOM     52  C   UNL     1       7.865  -8.417   3.665  1.00  0.00     0.173 A 
ATOM     53  F   UNL     1       5.310  -9.356   6.069  1.00  0.00    -0.203 F 
ATOM     54  C   UNL     1       6.341 -10.625   4.375  1.00  0.00     0.198 A 
ATOM     55  C   UNL     1       8.001  -9.616   2.967  1.00  0.00     0.198 A 
ATOM     56  F   UNL     1       8.619  -7.369   3.302  1.00  0.00    -0.203 F 
ATOM     57  F   UNL     1       5.627 -11.697   4.743  1.00  0.00    -0.200 F 
ATOM     58  C   UNL     1       7.244 -10.721   3.327  1.00  0.00     0.200 A 
ATOM     59  F   UNL     1       8.865  -9.700   1.946  1.00  0.00    -0.200 F 
ATOM     60  F   UNL     1       7.390 -11.879   2.669  1.00  0.00    -0.200 F 
ENDBRANCH  26  50
BRANCH  38  61
ATOM     61  C   UNL     1       8.259  -6.320  11.293  1.00  0.00     0.064 A 
ATOM     62  C   UNL     1       9.634  -6.564  11.408  1.00  0.00     0.173 A 
ATOM     63  C   UNL     1       7.436  -6.638  12.384  1.00  0.00     0.173 A 
ATOM     64  F   UNL     1      10.458  -6.284  10.386  1.00  0.00    -0.203 F 
ATOM     65  C   UNL     1      10.167  -7.099  12.577  1.00  0.00     0.198 A 
ATOM     66  C   UNL     1       7.976  -7.149  13.560  1.00  0.00     0.198 A 
ATOM     67  F   UNL     1       6.116  -6.411  12.324  1.00  0.00    -0.203 F 
ATOM     68  F   UNL     1      11.483  -7.336  12.663  1.00  0.00    -0.200 F 
ATOM     69  C   UNL     1       9.341  -7.378  13.656  1.00  0.00     0.200 A 
ATOM     70  F   UNL     1       7.179  -7.398  14.608  1.00  0.00    -0.200 F 
ATOM     71  F   UNL     1       9.861  -7.862  14.792  1.00  0.00    -0.200 F 
ENDBRANCH  38  61
ENDBRANCH  12  13
ENDBRANCH   5   7
ENDBRANCH   2   3
ENDBRANCH   1   2
BRANCH   1  72
ATOM     72  C   UNL     1       4.378   1.286  -3.547  1.00  0.00     0.023 C 
BRANCH  72  73
ATOM     73  C   UNL     1       5.021   2.640  -3.227  1.00  0.00     0.116 C 
BRANCH  73  74
ATOM     74  N   UNL     1       6.439   2.622  -3.524  1.00  0.00    -0.351 N 
ATOM     75  C   UNL     1       7.116   3.084  -4.612  1.00  0.00     0.278 C 
ATOM     76  H   UNL     1       7.003   2.210  -2.829  1.00  0.00     0.163 HD
ATOM     77  O   UNL     1       8.341   2.909  -4.620  1.00  0.00    -0.268 OA
BRANCH  75  78
ATOM     78  C   UNL     1       6.439   3.870  -5.755  1.00  0.00     0.277 C 
ATOM     79  C   UNL     1       5.302   3.125  -6.467  1.00  0.00     0.111 C 
ATOM     80  N   UNL     1       6.022   5.201  -5.250  1.00  0.00    -0.332 N 
ATOM     81  C   UNL     1       4.426   4.021  -7.309  1.00  0.00    -0.029 A 
ATOM     82  C   UNL     1       5.642   6.045  -6.391  1.00  0.00     0.298 C 
ATOM     83  H   UNL     1       6.795   5.635  -4.747  1.00  0.00     0.347 HD
ATOM     84  H   UNL     1       5.228   5.098  -4.618  1.00  0.00     0.347 HD
ATOM     85  C   UNL     1       3.404   3.457  -8.085  1.00  0.00     0.050 A 
ATOM     86  C   UNL     1       4.573   5.418  -7.253  1.00  0.00     0.010 A 
ATOM     87  C   UNL     1       2.565   4.277  -8.828  1.00  0.00     0.115 A 
ATOM     88  C   UNL     1       3.741   6.225  -8.044  1.00  0.00     0.013 A 
ATOM     89  C   UNL     1       2.735   5.656  -8.828  1.00  0.00     0.046 A 
BRANCH  87  90
ATOM     90  O   UNL     1       1.573   3.681  -9.549  1.00  0.00    -0.508 OA
ATOM     91  H   UNL     1       1.478   2.749  -9.534  1.00  0.00     0.293 HD
ENDBRANCH  87  90
ENDBRANCH  75  78
ENDBRANCH  73  74
ENDBRANCH  72  73
ENDBRANCH   1  72
TORSDOF 12
