REMARK SMILES O=C(NCCCCNC(=O)[C@@H]1CN(c2ncnc3c2CCC3)CCO1)c1ccc(-c2c3nc(c(-c4c(F)c(F)c(F)c(F)c4F)c4ccc([nH]4)c(-c4c(F)c(F)c(F)c(F)c4F)c4nc(c(-c5c(F)c(F)c(F)c(F)c5F)c5ccc2[nH]5)C=C4)C=C3)cc1
REMARK SMILES IDX 5 1 4 2 3 3 1 4 2 5 26 7 27 8 88 9 28 10 87 11 29 12 30 13
REMARK SMILES IDX 31 14 81 15 32 16 86 17 80 18 82 19 33 20 85 21 79 22 78 23
REMARK SMILES IDX 34 25 66 26 46 27 65 28 47 29 50 30 64 31 83 32 48 33 49 34
REMARK SMILES IDX 63 36 84 37 51 38 35 39 36 40 44 41 37 42 38 43 42 44 45 45
REMARK SMILES IDX 39 46 40 47 43 48 41 49 67 50 68 51 76 52 69 53 70 54 74 55
REMARK SMILES IDX 77 56 71 57 72 58 75 59 73 60 52 61 53 62 61 63 54 64 55 65
REMARK SMILES IDX 59 66 62 67 56 68 57 69 60 70 58 71 6 72 7 73 8 74 9 75
REMARK SMILES IDX 10 77 11 78 12 79 25 80 13 81 24 82 23 83 14 84 15 85 19 86
REMARK SMILES IDX 16 87 18 88 20 89 17 90 22 91 21 92
REMARK H PARENT 3 6 82 24 50 35 8 76
REMARK Flexibility Score: inf
ROOT
ATOM      1  C   UNL     1       4.815  -2.153   1.455  1.00  0.00     0.023 C 
ENDROOT
BRANCH   1   2
ATOM      2  C   UNL     1       4.444  -1.105   0.420  1.00  0.00     0.116 C 
BRANCH   2   3
ATOM      3  N   UNL     1       3.009  -1.006   0.198  1.00  0.00    -0.352 N 
ATOM      4  O   UNL     1       1.026   0.058  -0.027  1.00  0.00    -0.269 OA
ATOM      5  C   UNL     1       2.250   0.126   0.033  1.00  0.00     0.251 C 
ATOM      6  H   UNL     1       2.521  -1.860   0.161  1.00  0.00     0.163 HD
BRANCH   5   7
ATOM      7  C   UNL     1       2.926   1.435  -0.037  1.00  0.00     0.039 A 
ATOM      8  C   UNL     1       4.034   1.611  -0.870  1.00  0.00     0.014 A 
ATOM      9  C   UNL     1       2.467   2.482   0.766  1.00  0.00     0.014 A 
ATOM     10  C   UNL     1       4.765   2.788  -0.798  1.00  0.00     0.010 A 
ATOM     11  C   UNL     1       3.159   3.695   0.778  1.00  0.00     0.010 A 
ATOM     12  C   UNL     1       4.329   3.845   0.018  1.00  0.00    -0.014 A 
BRANCH  12  13
ATOM     13  C   UNL     1       5.087   5.118   0.012  1.00  0.00     0.031 A 
ATOM     14  C   UNL     1       5.844   5.576   1.224  1.00  0.00     0.074 A 
ATOM     15  C   UNL     1       5.121   5.834  -1.127  1.00  0.00     0.049 A 
ATOM     16  N   UNL     1       6.582   6.647   1.375  1.00  0.00    -0.248 NA
ATOM     17  C   UNL     1       5.765   4.728   2.423  1.00  0.00     0.031 C 
ATOM     18  C   UNL     1       4.426   5.474  -2.365  1.00  0.00     0.029 A 
ATOM     19  N   UNL     1       5.783   6.992  -1.442  1.00  0.00    -0.354 N 
ATOM     20  C   UNL     1       7.049   6.606   2.682  1.00  0.00     0.074 A 
ATOM     21  C   UNL     1       6.489   5.420   3.294  1.00  0.00     0.031 C 
ATOM     22  C   UNL     1       4.739   6.361  -3.319  1.00  0.00     0.029 A 
ATOM     23  C   UNL     1       5.607   7.384  -2.746  1.00  0.00     0.049 A 
ATOM     24  H   UNL     1       6.331   7.493  -0.797  1.00  0.00     0.167 HD
ATOM     25  C   UNL     1       7.879   7.477   3.303  1.00  0.00     0.037 A 
ATOM     26  C   UNL     1       6.083   8.455  -3.406  1.00  0.00     0.037 A 
ATOM     27  C   UNL     1       8.440   8.648   2.681  1.00  0.00     0.049 A 
ATOM     28  C   UNL     1       6.963   9.427  -2.674  1.00  0.00     0.074 A 
ATOM     29  C   UNL     1       9.305   9.583   3.224  1.00  0.00     0.029 A 
ATOM     30  N   UNL     1       8.191   9.046   1.375  1.00  0.00    -0.354 N 
ATOM     31  N   UNL     1       7.406   9.371  -1.442  1.00  0.00    -0.248 NA
ATOM     32  C   UNL     1       7.399  10.614  -3.420  1.00  0.00     0.031 C 
ATOM     33  C   UNL     1       9.546  10.568   2.261  1.00  0.00     0.029 A 
ATOM     34  C   UNL     1       8.868  10.225   1.103  1.00  0.00     0.049 A 
ATOM     35  H   UNL     1       7.618   8.563   0.737  1.00  0.00     0.167 HD
ATOM     36  C   UNL     1       8.179  10.508  -1.265  1.00  0.00     0.074 A 
ATOM     37  C   UNL     1       8.164  11.225  -2.525  1.00  0.00     0.031 C 
ATOM     38  C   UNL     1       8.836  10.925  -0.156  1.00  0.00     0.037 A 
BRANCH  25  39
ATOM     39  C   UNL     1       8.239   7.206   4.735  1.00  0.00     0.064 A 
ATOM     40  C   UNL     1       9.133   6.184   5.084  1.00  0.00     0.173 A 
ATOM     41  C   UNL     1       7.750   8.030   5.760  1.00  0.00     0.173 A 
ATOM     42  F   UNL     1       9.621   5.363   4.142  1.00  0.00    -0.203 F 
ATOM     43  C   UNL     1       9.518   5.992   6.409  1.00  0.00     0.198 A 
ATOM     44  C   UNL     1       8.155   7.849   7.080  1.00  0.00     0.198 A 
ATOM     45  F   UNL     1       6.896   9.026   5.478  1.00  0.00    -0.203 F 
ATOM     46  F   UNL     1      10.356   4.993   6.723  1.00  0.00    -0.200 F 
ATOM     47  C   UNL     1       9.037   6.830   7.404  1.00  0.00     0.200 A 
ATOM     48  F   UNL     1       7.698   8.668   8.038  1.00  0.00    -0.200 F 
ATOM     49  F   UNL     1       9.423   6.654   8.675  1.00  0.00    -0.200 F 
ENDBRANCH  25  39
BRANCH  26  50
ATOM     50  C   UNL     1       5.737   8.648  -4.836  1.00  0.00     0.064 A 
ATOM     51  C   UNL     1       6.705   8.496  -5.836  1.00  0.00     0.173 A 
ATOM     52  C   UNL     1       4.425   8.948  -5.234  1.00  0.00     0.173 A 
ATOM     53  F   UNL     1       7.976   8.226  -5.502  1.00  0.00    -0.203 F 
ATOM     54  C   UNL     1       6.376   8.642  -7.182  1.00  0.00     0.198 A 
ATOM     55  C   UNL     1       4.092   9.066  -6.580  1.00  0.00     0.198 A 
ATOM     56  F   UNL     1       3.462   9.098  -4.313  1.00  0.00    -0.203 F 
ATOM     57  F   UNL     1       7.327   8.519  -8.118  1.00  0.00    -0.200 F 
ATOM     58  C   UNL     1       5.068   8.917  -7.553  1.00  0.00     0.200 A 
ATOM     59  F   UNL     1       2.824   9.314  -6.935  1.00  0.00    -0.200 F 
ATOM     60  F   UNL     1       4.750   9.041  -8.849  1.00  0.00    -0.200 F 
ENDBRANCH  26  50
BRANCH  38  61
ATOM     61  C   UNL     1       9.598  12.212  -0.253  1.00  0.00     0.064 A 
ATOM     62  C   UNL     1       8.939  13.449  -0.274  1.00  0.00     0.173 A 
ATOM     63  C   UNL     1      11.001  12.211  -0.265  1.00  0.00     0.173 A 
ATOM     64  F   UNL     1       7.598  13.499  -0.280  1.00  0.00    -0.203 F 
ATOM     65  C   UNL     1       9.657  14.640  -0.318  1.00  0.00     0.198 A 
ATOM     66  C   UNL     1      11.716  13.405  -0.282  1.00  0.00     0.198 A 
ATOM     67  F   UNL     1      11.677  11.052  -0.240  1.00  0.00    -0.203 F 
ATOM     68  F   UNL     1       9.007  15.810  -0.373  1.00  0.00    -0.200 F 
ATOM     69  C   UNL     1      11.044  14.617  -0.313  1.00  0.00     0.200 A 
ATOM     70  F   UNL     1      13.056  13.382  -0.265  1.00  0.00    -0.200 F 
ATOM     71  F   UNL     1      11.734  15.766  -0.342  1.00  0.00    -0.200 F 
ENDBRANCH  38  61
ENDBRANCH  12  13
ENDBRANCH   5   7
ENDBRANCH   2   3
ENDBRANCH   1   2
BRANCH   1  72
ATOM     72  C   UNL     1       4.353  -3.570   1.125  1.00  0.00     0.023 C 
BRANCH  72  73
ATOM     73  C   UNL     1       4.892  -4.135  -0.191  1.00  0.00     0.116 C 
BRANCH  73  74
ATOM     74  N   UNL     1       6.325  -4.358  -0.139  1.00  0.00    -0.354 N 
ATOM     75  C   UNL     1       7.013  -5.539  -0.026  1.00  0.00     0.250 C 
ATOM     76  H   UNL     1       6.882  -3.548  -0.191  1.00  0.00     0.163 HD
ATOM     77  O   UNL     1       8.243  -5.474   0.020  1.00  0.00    -0.272 OA
BRANCH  75  78
ATOM     78  C   UNL     1       6.235  -6.867   0.033  1.00  0.00     0.226 C 
ATOM     79  C   UNL     1       5.616  -6.996   1.429  1.00  0.00     0.160 C 
ATOM     80  O   UNL     1       7.082  -8.007  -0.213  1.00  0.00    -0.365 OA
ATOM     81  N   UNL     1       4.881  -8.250   1.578  1.00  0.00    -0.351 N 
ATOM     82  C   UNL     1       6.307  -9.219  -0.199  1.00  0.00     0.183 C 
ATOM     83  C   UNL     1       5.596  -9.451   1.149  1.00  0.00     0.146 C 
BRANCH  81  84
ATOM     84  C   UNL     1       3.505  -8.208   1.484  1.00  0.00     0.135 A 
ATOM     85  N   UNL     1       2.915  -7.489   0.510  1.00  0.00    -0.219 NA
ATOM     86  C   UNL     1       2.743  -8.826   2.446  1.00  0.00     0.016 A 
ATOM     87  C   UNL     1       1.562  -7.452   0.514  1.00  0.00     0.224 A 
ATOM     88  C   UNL     1       1.376  -8.694   2.372  1.00  0.00     0.049 A 
ATOM     89  C   UNL     1       3.174  -9.594   3.642  1.00  0.00     0.042 C 
ATOM     90  N   UNL     1       0.739  -8.022   1.409  1.00  0.00    -0.241 NA
ATOM     91  C   UNL     1       0.690  -9.380   3.513  1.00  0.00     0.057 C 
ATOM     92  C   UNL     1       1.862  -9.805   4.412  1.00  0.00     0.011 C 
ENDBRANCH  81  84
ENDBRANCH  75  78
ENDBRANCH  73  74
ENDBRANCH  72  73
ENDBRANCH   1  72
TORSDOF 12
