REMARK SMILES Cc1c(CC(=O)NCCCCNC(=O)c2ccc(-c3c4nc(c(-c5c(F)c(F)c(F)c(F)c5F)c5ccc([nH]5)c(-c5c(F)c(F)c(F)c(F)c5F)c5nc(c(-c6c(F)c(F)c(F)c(F)c6F)c6ccc3[nH]6)C=C5)C=C4)cc2)cccc1-c1ccn(C(F)F)c(=O)c1
REMARK SMILES IDX 9 1 8 2 7 3 5 4 6 5 4 7 3 8 1 9 2 10 81 11 78 12 80 13 79 14
REMARK SMILES IDX 82 15 83 16 91 17 84 18 89 19 85 20 90 21 86 22 87 23 88 24
REMARK SMILES IDX 10 25 11 26 12 27 13 28 14 30 15 31 16 32 77 33 17 34 76 35
REMARK SMILES IDX 18 36 19 37 20 38 70 39 21 40 75 41 69 42 71 43 22 44 74 45
REMARK SMILES IDX 68 46 67 47 23 49 55 50 35 51 54 52 36 53 39 54 53 55 72 56
REMARK SMILES IDX 37 57 38 58 52 60 73 61 40 62 24 63 25 64 33 65 26 66 27 67
REMARK SMILES IDX 31 68 34 69 28 70 29 71 32 72 30 73 56 74 57 75 65 76 58 77
REMARK SMILES IDX 59 78 63 79 66 80 60 81 61 82 64 83 62 84 41 85 42 86 50 87
REMARK SMILES IDX 43 88 44 89 48 90 51 91 45 92 46 93 49 94 47 95
REMARK H PARENT 7 6 12 29 71 48 39 59
REMARK Flexibility Score: inf
ROOT
ATOM      1  C   UNL     1       0.447  -0.424   3.222  1.00  0.00     0.023 C 
ENDROOT
BRANCH   1   2
ATOM      2  C   UNL     1       1.428  -1.544   2.841  1.00  0.00     0.116 C 
BRANCH   2   3
ATOM      3  N   UNL     1       0.774  -2.776   2.435  1.00  0.00    -0.356 N 
ATOM      4  C   UNL     1       0.513  -3.263   1.186  1.00  0.00     0.224 C 
ATOM      5  O   UNL     1      -0.045  -4.360   1.102  1.00  0.00    -0.275 OA
ATOM      6  H   UNL     1       0.472  -3.349   3.176  1.00  0.00     0.163 HD
BRANCH   4   7
ATOM      7  C   UNL     1       0.943  -2.508  -0.067  1.00  0.00     0.135 C 
BRANCH   7   8
ATOM      8  C   UNL     1       0.295  -1.145  -0.217  1.00  0.00    -0.035 A 
ATOM      9  C   UNL     1       2.539   0.038  -0.455  1.00  0.00     0.045 C 
ATOM     10  C   UNL     1       1.035   0.064  -0.297  1.00  0.00    -0.040 A 
ATOM     11  C   UNL     1       0.332   1.296  -0.274  1.00  0.00    -0.015 A 
ATOM     12  C   UNL     1      -1.114  -1.098  -0.218  1.00  0.00     0.004 A 
ATOM     13  C   UNL     1      -1.074   1.305  -0.245  1.00  0.00     0.009 A 
ATOM     14  C   UNL     1      -1.792   0.115  -0.235  1.00  0.00     0.001 A 
BRANCH  11  15
ATOM     15  C   UNL     1       1.033   2.597  -0.198  1.00  0.00    -0.011 A 
ATOM     16  C   UNL     1       1.816   3.145  -1.287  1.00  0.00     0.027 A 
ATOM     17  C   UNL     1       0.999   3.251   0.977  1.00  0.00     0.080 A 
ATOM     18  C   UNL     1       2.566   4.237  -1.099  1.00  0.00     0.095 A 
ATOM     19  C   UNL     1       1.779   4.502   1.182  1.00  0.00     0.255 A 
ATOM     20  N   UNL     1       2.572   4.896   0.117  1.00  0.00    -0.258 N 
ATOM     21  O   UNL     1       1.689   5.076   2.262  1.00  0.00    -0.269 OA
BRANCH  20  22
ATOM     22  C   UNL     1       3.412   6.048   0.323  1.00  0.00     0.451 C 
ATOM     23  F   UNL     1       2.672   7.155   0.573  1.00  0.00    -0.185 F 
ATOM     24  F   UNL     1       4.252   5.858   1.370  1.00  0.00    -0.185 F 
ENDBRANCH  20  22
ENDBRANCH  11  15
ENDBRANCH   7   8
ENDBRANCH   4   7
ENDBRANCH   2   3
ENDBRANCH   1   2
BRANCH   1  25
ATOM     25  C   UNL     1      -0.417  -0.701   4.454  1.00  0.00     0.023 C 
BRANCH  25  26
ATOM     26  C   UNL     1       0.369  -0.754   5.754  1.00  0.00     0.116 C 
BRANCH  26  27
ATOM     27  N   UNL     1       0.579   0.525   6.413  1.00  0.00    -0.352 N 
ATOM     28  C   UNL     1       1.392   0.846   7.492  1.00  0.00     0.251 C 
ATOM     29  H   UNL     1       0.067   1.278   6.037  1.00  0.00     0.163 HD
ATOM     30  O   UNL     1       1.317   1.953   7.998  1.00  0.00    -0.269 OA
BRANCH  28  31
ATOM     31  C   UNL     1       2.452  -0.100   7.942  1.00  0.00     0.039 A 
ATOM     32  C   UNL     1       3.698   0.431   8.309  1.00  0.00     0.014 A 
ATOM     33  C   UNL     1       2.305  -1.476   7.821  1.00  0.00     0.014 A 
ATOM     34  C   UNL     1       4.829  -0.387   8.296  1.00  0.00     0.010 A 
ATOM     35  C   UNL     1       3.431  -2.259   7.675  1.00  0.00     0.010 A 
ATOM     36  C   UNL     1       4.698  -1.703   7.856  1.00  0.00    -0.014 A 
BRANCH  36  37
ATOM     37  C   UNL     1       5.817  -2.532   7.429  1.00  0.00     0.031 A 
ATOM     38  C   UNL     1       6.235  -3.715   8.211  1.00  0.00     0.074 A 
ATOM     39  C   UNL     1       6.383  -2.298   6.223  1.00  0.00     0.049 A 
ATOM     40  N   UNL     1       7.428  -4.210   8.175  1.00  0.00    -0.248 NA
ATOM     41  C   UNL     1       5.342  -4.432   9.115  1.00  0.00     0.031 C 
ATOM     42  C   UNL     1       7.254  -3.197   5.470  1.00  0.00     0.029 A 
ATOM     43  N   UNL     1       6.399  -1.102   5.487  1.00  0.00    -0.354 N 
ATOM     44  C   UNL     1       7.391  -5.429   8.809  1.00  0.00     0.074 A 
ATOM     45  C   UNL     1       6.089  -5.495   9.433  1.00  0.00     0.031 C 
ATOM     46  C   UNL     1       7.930  -2.486   4.555  1.00  0.00     0.029 A 
ATOM     47  C   UNL     1       7.629  -1.086   4.792  1.00  0.00     0.049 A 
ATOM     48  H   UNL     1       5.695  -0.413   5.462  1.00  0.00     0.167 HD
ATOM     49  C   UNL     1       8.407  -6.320   8.623  1.00  0.00     0.037 A 
ATOM     50  C   UNL     1       8.565  -0.117   5.010  1.00  0.00     0.037 A 
ATOM     51  C   UNL     1       9.408  -5.799   7.701  1.00  0.00     0.049 A 
ATOM     52  C   UNL     1       9.896  -0.646   5.482  1.00  0.00     0.074 A 
ATOM     53  C   UNL     1       9.589  -5.981   6.339  1.00  0.00     0.029 A 
ATOM     54  N   UNL     1      10.202  -4.718   8.065  1.00  0.00    -0.354 N 
ATOM     55  N   UNL     1      10.051  -1.813   6.039  1.00  0.00    -0.248 NA
ATOM     56  C   UNL     1      11.145   0.106   5.402  1.00  0.00     0.031 C 
ATOM     57  C   UNL     1      10.490  -4.996   5.878  1.00  0.00     0.029 A 
ATOM     58  C   UNL     1      10.863  -4.218   6.960  1.00  0.00     0.049 A 
ATOM     59  H   UNL     1      10.282  -4.360   8.979  1.00  0.00     0.167 HD
ATOM     60  C   UNL     1      11.361  -1.970   6.415  1.00  0.00     0.074 A 
ATOM     61  C   UNL     1      12.009  -0.749   5.977  1.00  0.00     0.031 C 
ATOM     62  C   UNL     1      11.781  -3.095   7.065  1.00  0.00     0.037 A 
BRANCH  49  63
ATOM     63  C   UNL     1       8.322  -7.773   9.025  1.00  0.00     0.064 A 
ATOM     64  C   UNL     1       8.917  -8.786   8.242  1.00  0.00     0.173 A 
ATOM     65  C   UNL     1       7.632  -8.231  10.162  1.00  0.00     0.173 A 
ATOM     66  F   UNL     1       9.696  -8.497   7.192  1.00  0.00    -0.203 F 
ATOM     67  C   UNL     1       8.728 -10.144   8.503  1.00  0.00     0.198 A 
ATOM     68  C   UNL     1       7.400  -9.591  10.396  1.00  0.00     0.198 A 
ATOM     69  F   UNL     1       7.192  -7.374  11.094  1.00  0.00    -0.203 F 
ATOM     70  F   UNL     1       9.305 -11.059   7.711  1.00  0.00    -0.200 F 
ATOM     71  C   UNL     1       7.936 -10.547   9.557  1.00  0.00     0.200 A 
ATOM     72  F   UNL     1       6.645  -9.967  11.438  1.00  0.00    -0.200 F 
ATOM     73  F   UNL     1       7.711 -11.849   9.776  1.00  0.00    -0.200 F 
ENDBRANCH  49  63
BRANCH  50  74
ATOM     74  C   UNL     1       7.976   1.179   5.429  1.00  0.00     0.064 A 
ATOM     75  C   UNL     1       7.185   1.881   4.500  1.00  0.00     0.173 A 
ATOM     76  C   UNL     1       7.838   1.509   6.782  1.00  0.00     0.173 A 
ATOM     77  F   UNL     1       7.279   1.594   3.191  1.00  0.00    -0.203 F 
ATOM     78  C   UNL     1       6.211   2.783   4.918  1.00  0.00     0.198 A 
ATOM     79  C   UNL     1       6.866   2.422   7.196  1.00  0.00     0.198 A 
ATOM     80  F   UNL     1       8.550   0.860   7.714  1.00  0.00    -0.203 F 
ATOM     81  F   UNL     1       5.394   3.345   4.016  1.00  0.00    -0.200 F 
ATOM     82  C   UNL     1       6.032   3.030   6.269  1.00  0.00     0.200 A 
ATOM     83  F   UNL     1       6.671   2.637   8.505  1.00  0.00    -0.200 F 
ATOM     84  F   UNL     1       5.029   3.817   6.682  1.00  0.00    -0.200 F 
ENDBRANCH  50  74
BRANCH  62  85
ATOM     85  C   UNL     1      13.109  -3.306   7.755  1.00  0.00     0.064 A 
ATOM     86  C   UNL     1      13.909  -2.268   8.259  1.00  0.00     0.173 A 
ATOM     87  C   UNL     1      13.555  -4.617   8.065  1.00  0.00     0.173 A 
ATOM     88  F   UNL     1      13.546  -0.985   8.142  1.00  0.00    -0.203 F 
ATOM     89  C   UNL     1      15.092  -2.519   8.963  1.00  0.00     0.198 A 
ATOM     90  C   UNL     1      14.702  -4.862   8.818  1.00  0.00     0.198 A 
ATOM     91  F   UNL     1      12.875  -5.704   7.671  1.00  0.00    -0.203 F 
ATOM     92  F   UNL     1      15.841  -1.491   9.386  1.00  0.00    -0.200 F 
ATOM     93  C   UNL     1      15.481  -3.813   9.253  1.00  0.00     0.200 A 
ATOM     94  F   UNL     1      15.032  -6.122   9.135  1.00  0.00    -0.200 F 
ATOM     95  F   UNL     1      16.588  -4.046   9.969  1.00  0.00    -0.200 F 
ENDBRANCH  62  85
ENDBRANCH  36  37
ENDBRANCH  28  31
ENDBRANCH  26  27
ENDBRANCH  25  26
ENDBRANCH   1  25
TORSDOF 14
