REMARK SMILES CC[C@@H](C)CNC(=O)N1CCO[C@@H](CC(=O)NCCCCNC(=O)c2ccc(-c3c4nc(c(-c5c(F)c(F)c(F)c(F)c5F)c5ccc([nH]5)c(-c5c(F)c(F)c(F)c(F)c5F)c5nc(c(-c6c(F)c(F)c(F)c(F)c6F)c6ccc3[nH]6)C=C5)C=C4)cc2)C1
REMARK SMILES IDX 18 1 17 2 15 3 16 4 14 6 13 7 9 8 10 9 88 10 11 11 12 12
REMARK SMILES IDX 7 13 6 14 8 16 5 17 3 18 4 19 2 20 1 21 19 22 20 23 21 24
REMARK SMILES IDX 22 25 23 26 24 28 25 29 26 30 87 31 27 32 86 33 28 34 29 35
REMARK SMILES IDX 30 36 80 37 31 38 85 39 79 40 81 41 32 42 84 43 78 44 77 45
REMARK SMILES IDX 33 47 65 48 45 49 64 50 46 51 49 52 63 53 82 54 47 55 48 56
REMARK SMILES IDX 62 58 83 59 50 60 34 61 35 62 43 63 36 64 37 65 41 66 44 67
REMARK SMILES IDX 38 68 39 69 42 70 40 71 66 72 67 73 75 74 68 75 69 76 73 77
REMARK SMILES IDX 76 78 70 79 71 80 74 81 72 82 51 83 52 84 60 85 53 86 54 87
REMARK SMILES IDX 58 88 61 89 55 90 56 91 59 92 57 93
REMARK H PARENT 17 5 6 15 22 27 81 46 49 57
REMARK Flexibility Score: inf
ROOT
ATOM      1  C   UNL     1       5.268   1.724   7.743  1.00  0.00     0.116 C 
ENDROOT
BRANCH   1   2
ATOM      2  N   UNL     1       6.186   2.061   6.664  1.00  0.00    -0.356 N 
ATOM      3  C   UNL     1       6.258   3.165   5.864  1.00  0.00     0.222 C 
ATOM      4  O   UNL     1       7.052   3.146   4.921  1.00  0.00    -0.275 OA
ATOM      5  H   UNL     1       6.870   1.377   6.480  1.00  0.00     0.163 HD
BRANCH   3   6
ATOM      6  C   UNL     1       5.382   4.378   6.109  1.00  0.00     0.133 C 
BRANCH   6   7
ATOM      7  C   UNL     1       4.181   4.457   5.154  1.00  0.00     0.147 C 
ATOM      8  N   UNL     1       1.929   3.329   4.822  1.00  0.00    -0.320 N 
ATOM      9  C   UNL     1       1.302   4.624   5.067  1.00  0.00     0.150 C 
ATOM     10  C   UNL     1       3.273   3.241   5.357  1.00  0.00     0.154 C 
ATOM     11  C   UNL     1       2.250   5.759   4.681  1.00  0.00     0.182 C 
ATOM     12  O   UNL     1       3.468   5.678   5.442  1.00  0.00    -0.374 OA
BRANCH   8  13
ATOM     13  C   UNL     1       1.185   2.174   4.936  1.00  0.00     0.317 C 
ATOM     14  N   UNL     1       0.205   1.938   4.037  1.00  0.00    -0.338 N 
ATOM     15  H   UNL     1      -0.441   1.241   4.293  1.00  0.00     0.165 HD
ATOM     16  O   UNL     1       1.411   1.311   5.784  1.00  0.00    -0.249 OA
BRANCH  14  17
ATOM     17  C   UNL     1      -0.035   2.560   2.754  1.00  0.00     0.121 C 
BRANCH  17  18
ATOM     18  C   UNL     1       0.792   1.937   1.612  1.00  0.00     0.005 C 
ATOM     19  C   UNL     1       0.624   2.818   0.370  1.00  0.00     0.009 C 
BRANCH  18  20
ATOM     20  C   UNL     1       0.379   0.472   1.353  1.00  0.00     0.002 C 
ATOM     21  C   UNL     1       1.032  -0.156   0.128  1.00  0.00     0.004 C 
ENDBRANCH  18  20
ENDBRANCH  17  18
ENDBRANCH  14  17
ENDBRANCH   8  13
ENDBRANCH   6   7
ENDBRANCH   3   6
ENDBRANCH   1   2
BRANCH   1  22
ATOM     22  C   UNL     1       4.147   0.809   7.249  1.00  0.00     0.023 C 
BRANCH  22  23
ATOM     23  C   UNL     1       4.396  -0.682   7.356  1.00  0.00     0.023 C 
BRANCH  23  24
ATOM     24  C   UNL     1       4.281  -1.222   8.765  1.00  0.00     0.116 C 
BRANCH  24  25
ATOM     25  N   UNL     1       2.953  -1.077   9.353  1.00  0.00    -0.352 N 
ATOM     26  C   UNL     1       2.219  -1.991  10.079  1.00  0.00     0.251 C 
ATOM     27  H   UNL     1       2.521  -0.204   9.212  1.00  0.00     0.163 HD
ATOM     28  O   UNL     1       1.092  -1.731  10.468  1.00  0.00    -0.269 OA
BRANCH  26  29
ATOM     29  C   UNL     1       2.800  -3.328  10.324  1.00  0.00     0.039 A 
ATOM     30  C   UNL     1       2.032  -4.459  10.042  1.00  0.00     0.014 A 
ATOM     31  C   UNL     1       4.132  -3.456  10.718  1.00  0.00     0.014 A 
ATOM     32  C   UNL     1       2.635  -5.718  10.057  1.00  0.00     0.010 A 
ATOM     33  C   UNL     1       4.758  -4.687  10.606  1.00  0.00     0.010 A 
ATOM     34  C   UNL     1       4.015  -5.833  10.283  1.00  0.00    -0.014 A 
BRANCH  34  35
ATOM     35  C   UNL     1       4.714  -7.141  10.217  1.00  0.00     0.031 A 
ATOM     36  C   UNL     1       5.454  -7.642  11.426  1.00  0.00     0.074 A 
ATOM     37  C   UNL     1       4.766  -7.822   9.056  1.00  0.00     0.049 A 
ATOM     38  N   UNL     1       6.237  -8.684  11.548  1.00  0.00    -0.248 NA
ATOM     39  C   UNL     1       5.341  -6.833  12.651  1.00  0.00     0.031 C 
ATOM     40  C   UNL     1       4.152  -7.402   7.794  1.00  0.00     0.029 A 
ATOM     41  N   UNL     1       5.378  -9.010   8.746  1.00  0.00    -0.354 N 
ATOM     42  C   UNL     1       6.736  -8.626  12.842  1.00  0.00     0.074 A 
ATOM     43  C   UNL     1       6.224  -7.416  13.444  1.00  0.00     0.031 C 
ATOM     44  C   UNL     1       4.389  -8.335   6.857  1.00  0.00     0.029 A 
ATOM     45  C   UNL     1       5.202  -9.398   7.440  1.00  0.00     0.049 A 
ATOM     46  H   UNL     1       5.896  -9.536   9.398  1.00  0.00     0.167 HD
ATOM     47  C   UNL     1       7.523  -9.521  13.484  1.00  0.00     0.037 A 
ATOM     48  C   UNL     1       5.646 -10.491   6.791  1.00  0.00     0.037 A 
ATOM     49  C   UNL     1       7.972 -10.755  12.902  1.00  0.00     0.049 A 
ATOM     50  C   UNL     1       6.471 -11.501   7.542  1.00  0.00     0.074 A 
ATOM     51  C   UNL     1       8.699 -11.773  13.490  1.00  0.00     0.029 A 
ATOM     52  N   UNL     1       7.720 -11.142  11.594  1.00  0.00    -0.354 N 
ATOM     53  N   UNL     1       6.880 -11.472   8.787  1.00  0.00    -0.248 NA
ATOM     54  C   UNL     1       6.889 -12.698   6.800  1.00  0.00     0.031 C 
ATOM     55  C   UNL     1       8.913 -12.766  12.527  1.00  0.00     0.029 A 
ATOM     56  C   UNL     1       8.286 -12.383  11.352  1.00  0.00     0.049 A 
ATOM     57  H   UNL     1       7.214 -10.614  10.935  1.00  0.00     0.167 HD
ATOM     58  C   UNL     1       7.579 -12.654   8.987  1.00  0.00     0.074 A 
ATOM     59  C   UNL     1       7.527 -13.385   7.737  1.00  0.00     0.031 C 
ATOM     60  C   UNL     1       8.208 -13.095  10.103  1.00  0.00     0.037 A 
BRANCH  47  61
ATOM     61  C   UNL     1       7.926  -9.197  14.893  1.00  0.00     0.064 A 
ATOM     62  C   UNL     1       6.994  -9.192  15.943  1.00  0.00     0.173 A 
ATOM     63  C   UNL     1       9.260  -8.891  15.200  1.00  0.00     0.173 A 
ATOM     64  F   UNL     1       5.702  -9.461  15.700  1.00  0.00    -0.203 F 
ATOM     65  C   UNL     1       7.374  -8.853  17.238  1.00  0.00     0.198 A 
ATOM     66  C   UNL     1       9.643  -8.585  16.503  1.00  0.00     0.198 A 
ATOM     67  F   UNL     1      10.192  -8.884  14.235  1.00  0.00    -0.203 F 
ATOM     68  F   UNL     1       6.454  -8.792  18.210  1.00  0.00    -0.200 F 
ATOM     69  C   UNL     1       8.699  -8.556  17.518  1.00  0.00     0.200 A 
ATOM     70  F   UNL     1      10.926  -8.309  16.775  1.00  0.00    -0.200 F 
ATOM     71  F   UNL     1       9.064  -8.231  18.766  1.00  0.00    -0.200 F 
ENDBRANCH  47  61
BRANCH  48  72
ATOM     72  C   UNL     1       5.278 -10.710   5.368  1.00  0.00     0.064 A 
ATOM     73  C   UNL     1       4.358 -11.707   5.013  1.00  0.00     0.173 A 
ATOM     74  C   UNL     1       5.826  -9.931   4.339  1.00  0.00     0.173 A 
ATOM     75  F   UNL     1       3.822 -12.490   5.960  1.00  0.00    -0.203 F 
ATOM     76  C   UNL     1       4.013 -11.928   3.681  1.00  0.00     0.198 A 
ATOM     77  C   UNL     1       5.462 -10.137   3.010  1.00  0.00     0.198 A 
ATOM     78  F   UNL     1       6.706  -8.961   4.627  1.00  0.00    -0.203 F 
ATOM     79  F   UNL     1       3.162 -12.914   3.367  1.00  0.00    -0.200 F 
ATOM     80  C   UNL     1       4.561 -11.139   2.681  1.00  0.00     0.200 A 
ATOM     81  F   UNL     1       5.984  -9.365   2.047  1.00  0.00    -0.200 F 
ATOM     82  F   UNL     1       4.226 -11.349   1.401  1.00  0.00    -0.200 F 
ENDBRANCH  48  72
BRANCH  60  83
ATOM     83  C   UNL     1       8.860 -14.444  10.037  1.00  0.00     0.064 A 
ATOM     84  C   UNL     1      10.057 -14.646   9.337  1.00  0.00     0.173 A 
ATOM     85  C   UNL     1       8.306 -15.532  10.727  1.00  0.00     0.173 A 
ATOM     86  F   UNL     1      10.616 -13.638   8.650  1.00  0.00    -0.203 F 
ATOM     87  C   UNL     1      10.668 -15.896   9.315  1.00  0.00     0.198 A 
ATOM     88  C   UNL     1       8.933 -16.774  10.725  1.00  0.00     0.198 A 
ATOM     89  F   UNL     1       7.165 -15.386  11.417  1.00  0.00    -0.203 F 
ATOM     90  F   UNL     1      11.792 -16.078   8.608  1.00  0.00    -0.200 F 
ATOM     91  C   UNL     1      10.110 -16.956  10.015  1.00  0.00     0.200 A 
ATOM     92  F   UNL     1       8.400 -17.794  11.412  1.00  0.00    -0.200 F 
ATOM     93  F   UNL     1      10.705 -18.157  10.000  1.00  0.00    -0.200 F 
ENDBRANCH  60  83
ENDBRANCH  34  35
ENDBRANCH  26  29
ENDBRANCH  24  25
ENDBRANCH  23  24
ENDBRANCH  22  23
ENDBRANCH   1  22
TORSDOF 16
