REMARK SMILES CC(C)(C)OC(=O)N1CC[N@H+](Cc2ccc(Cl)nc2)[C@H](C(=O)NCCCCNC(=O)c2ccc(-c3c4nc(c(-c5c(F)c(F)c(F)c(F)c5F)c5ccc([nH]5)c(-c5c(F)c(F)c(F)c(F)c5F)c5nc(c(-c6c(F)c(F)c(F)c(F)c6F)c6ccc3[nH]6)C=C5)C=C4)cc2)C1
REMARK SMILES IDX 25 1 24 2 23 3 21 4 22 5 20 7 8 8 9 9 94 10 10 11 11 12 6 14
REMARK SMILES IDX 7 15 5 16 2 17 1 18 3 19 4 20 12 21 13 22 14 23 19 24 15 25
REMARK SMILES IDX 18 26 16 27 17 28 26 29 27 30 28 31 29 32 30 34 31 35 32 36
REMARK SMILES IDX 93 37 33 38 92 39 34 40 35 41 36 42 86 43 37 44 91 45 85 46
REMARK SMILES IDX 87 47 38 48 90 49 84 50 83 51 39 53 71 54 51 55 70 56 52 57
REMARK SMILES IDX 55 58 69 59 88 60 53 61 54 62 68 64 89 65 56 66 40 67 41 68
REMARK SMILES IDX 49 69 42 70 43 71 47 72 50 73 44 74 45 75 48 76 46 77 72 78
REMARK SMILES IDX 73 79 81 80 74 81 75 82 79 83 82 84 76 85 77 86 80 87 78 88
REMARK SMILES IDX 57 89 58 90 66 91 59 92 60 93 64 94 67 95 61 96 62 97 65 98
REMARK SMILES IDX 63 99
REMARK H PARENT 23 6 11 13 28 33 87 52 55 63
REMARK Flexibility Score: inf
ROOT
ATOM      1  C   UNL     1       4.190   8.729  -4.924  1.00  0.00     0.023 C 
ENDROOT
BRANCH   1   2
ATOM      2  C   UNL     1       3.495   7.369  -4.962  1.00  0.00     0.116 C 
BRANCH   2   3
ATOM      3  N   UNL     1       4.274   6.266  -4.423  1.00  0.00    -0.351 N 
ATOM      4  C   UNL     1       3.859   4.988  -4.135  1.00  0.00     0.280 C 
ATOM      5  O   UNL     1       4.736   4.153  -3.903  1.00  0.00    -0.268 OA
ATOM      6  H   UNL     1       5.222   6.460  -4.241  1.00  0.00     0.163 HD
BRANCH   4   7
ATOM      7  C   UNL     1       2.357   4.642  -4.037  1.00  0.00     0.294 C 
ATOM      8  N   UNL     1       0.705   2.740  -3.644  1.00  0.00    -0.296 N 
ATOM      9  C   UNL     1      -0.194   3.363  -4.603  1.00  0.00     0.184 C 
ATOM     10  C   UNL     1       2.117   3.168  -3.602  1.00  0.00     0.198 C 
ATOM     11  C   UNL     1       0.151   4.805  -4.983  1.00  0.00     0.285 C 
ATOM     12  N   UNL     1       1.573   5.067  -5.226  1.00  0.00    -0.318 N 
ATOM     13  H   UNL     1       1.732   6.072  -5.300  1.00  0.00     0.349 HD
BRANCH   8  14
ATOM     14  C   UNL     1       0.295   1.504  -3.166  1.00  0.00     0.410 C 
ATOM     15  O   UNL     1      -0.660   0.901  -3.654  1.00  0.00    -0.224 OA
BRANCH  14  16
ATOM     16  O   UNL     1       0.985   1.089  -2.075  1.00  0.00    -0.444 OA
BRANCH  16  17
ATOM     17  C   UNL     1       0.532  -0.087  -1.341  1.00  0.00     0.106 C 
ATOM     18  C   UNL     1       1.226  -0.000   0.026  1.00  0.00     0.056 C 
ATOM     19  C   UNL     1       0.988  -1.360  -2.060  1.00  0.00     0.056 C 
ATOM     20  C   UNL     1      -0.987  -0.107  -1.085  1.00  0.00     0.056 C 
ENDBRANCH  16  17
ENDBRANCH  14  16
ENDBRANCH   8  14
BRANCH  12  21
ATOM     21  C   UNL     1       2.062   4.735  -6.567  1.00  0.00     0.301 C 
BRANCH  21  22
ATOM     22  C   UNL     1       2.119   3.307  -7.026  1.00  0.00     0.025 A 
ATOM     23  C   UNL     1       1.036   2.695  -7.666  1.00  0.00     0.014 A 
ATOM     24  C   UNL     1       3.291   2.564  -6.909  1.00  0.00     0.122 A 
ATOM     25  C   UNL     1       1.142   1.376  -8.098  1.00  0.00     0.041 A 
ATOM     26  N   UNL     1       3.432   1.291  -7.338  1.00  0.00    -0.244 NA
ATOM     27  C   UNL     1       2.349   0.729  -7.909  1.00  0.00     0.129 A 
ATOM     28  Cl  UNL     1       2.571  -0.889  -8.428  1.00  0.00    -0.062 Cl
ENDBRANCH  21  22
ENDBRANCH  12  21
ENDBRANCH   4   7
ENDBRANCH   2   3
ENDBRANCH   1   2
BRANCH   1  29
ATOM     29  C   UNL     1       5.616   8.799  -5.480  1.00  0.00     0.023 C 
BRANCH  29  30
ATOM     30  C   UNL     1       5.887   8.080  -6.799  1.00  0.00     0.116 C 
BRANCH  30  31
ATOM     31  N   UNL     1       5.187   8.650  -7.939  1.00  0.00    -0.352 N 
ATOM     32  C   UNL     1       5.666   9.286  -9.061  1.00  0.00     0.251 C 
ATOM     33  H   UNL     1       4.207   8.566  -7.901  1.00  0.00     0.163 HD
ATOM     34  O   UNL     1       4.875   9.759  -9.872  1.00  0.00    -0.269 OA
BRANCH  32  35
ATOM     35  C   UNL     1       7.122   9.456  -9.282  1.00  0.00     0.039 A 
ATOM     36  C   UNL     1       7.594  10.711  -9.679  1.00  0.00     0.014 A 
ATOM     37  C   UNL     1       8.022   8.402  -9.110  1.00  0.00     0.014 A 
ATOM     38  C   UNL     1       8.969  10.936  -9.800  1.00  0.00     0.010 A 
ATOM     39  C   UNL     1       9.395   8.646  -9.156  1.00  0.00     0.010 A 
ATOM     40  C   UNL     1       9.884   9.920  -9.486  1.00  0.00    -0.014 A 
BRANCH  40  41
ATOM     41  C   UNL     1      11.349  10.177  -9.464  1.00  0.00     0.031 A 
ATOM     42  C   UNL     1      12.268   9.450 -10.405  1.00  0.00     0.074 A 
ATOM     43  C   UNL     1      11.865  11.013  -8.540  1.00  0.00     0.049 A 
ATOM     44  N   UNL     1      13.576   9.471 -10.470  1.00  0.00    -0.248 NA
ATOM     45  C   UNL     1      11.634   8.559 -11.389  1.00  0.00     0.031 C 
ATOM     46  C   UNL     1      11.091  11.748  -7.538  1.00  0.00     0.029 A 
ATOM     47  N   UNL     1      13.165  11.376  -8.284  1.00  0.00    -0.354 N 
ATOM     48  C   UNL     1      13.921   8.588 -11.485  1.00  0.00     0.074 A 
ATOM     49  C   UNL     1      12.688   8.012 -11.978  1.00  0.00     0.031 C 
ATOM     50  C   UNL     1      11.927  12.488  -6.792  1.00  0.00     0.029 A 
ATOM     51  C   UNL     1      13.297  12.252  -7.234  1.00  0.00     0.049 A 
ATOM     52  H   UNL     1      13.930  11.039  -8.804  1.00  0.00     0.167 HD
ATOM     53  C   UNL     1      15.150   8.300 -11.976  1.00  0.00     0.037 A 
ATOM     54  C   UNL     1      14.399  12.799  -6.685  1.00  0.00     0.037 A 
ATOM     55  C   UNL     1      16.375   8.892 -11.507  1.00  0.00     0.049 A 
ATOM     56  C   UNL     1      15.752  12.460  -7.248  1.00  0.00     0.074 A 
ATOM     57  C   UNL     1      17.663   8.701 -11.978  1.00  0.00     0.029 A 
ATOM     58  N   UNL     1      16.464   9.794 -10.457  1.00  0.00    -0.354 N 
ATOM     59  N   UNL     1      16.058  11.667  -8.245  1.00  0.00    -0.248 NA
ATOM     60  C   UNL     1      16.913  13.096  -6.610  1.00  0.00     0.031 C 
ATOM     61  C   UNL     1      18.535   9.462 -11.191  1.00  0.00     0.029 A 
ATOM     62  C   UNL     1      17.787  10.158 -10.257  1.00  0.00     0.049 A 
ATOM     63  H   UNL     1      15.701  10.127  -9.931  1.00  0.00     0.167 HD
ATOM     64  C   UNL     1      17.438  11.731  -8.374  1.00  0.00     0.074 A 
ATOM     65  C   UNL     1      17.911  12.650  -7.360  1.00  0.00     0.031 C 
ATOM     66  C   UNL     1      18.241  11.085  -9.253  1.00  0.00     0.037 A 
BRANCH  53  67
ATOM     67  C   UNL     1      15.230   7.301 -13.093  1.00  0.00     0.064 A 
ATOM     68  C   UNL     1      14.777   7.609 -14.385  1.00  0.00     0.173 A 
ATOM     69  C   UNL     1      15.800   6.036 -12.882  1.00  0.00     0.173 A 
ATOM     70  F   UNL     1      14.216   8.801 -14.637  1.00  0.00    -0.203 F 
ATOM     71  C   UNL     1      14.864   6.677 -15.416  1.00  0.00     0.198 A 
ATOM     72  C   UNL     1      15.911   5.117 -13.922  1.00  0.00     0.198 A 
ATOM     73  F   UNL     1      16.255   5.694 -11.667  1.00  0.00    -0.203 F 
ATOM     74  F   UNL     1      14.382   6.977 -16.630  1.00  0.00    -0.200 F 
ATOM     75  C   UNL     1      15.437   5.435 -15.186  1.00  0.00     0.200 A 
ATOM     76  F   UNL     1      16.476   3.922 -13.701  1.00  0.00    -0.200 F 
ATOM     77  F   UNL     1      15.525   4.542 -16.181  1.00  0.00    -0.200 F 
ENDBRANCH  53  67
BRANCH  54  78
ATOM     78  C   UNL     1      14.270  13.749  -5.549  1.00  0.00     0.064 A 
ATOM     79  C   UNL     1      14.543  15.113  -5.723  1.00  0.00     0.173 A 
ATOM     80  C   UNL     1      13.887  13.317  -4.272  1.00  0.00     0.173 A 
ATOM     81  F   UNL     1      14.935  15.569  -6.922  1.00  0.00    -0.203 F 
ATOM     82  C   UNL     1      14.458  16.006  -4.658  1.00  0.00     0.198 A 
ATOM     83  C   UNL     1      13.777  14.216  -3.213  1.00  0.00     0.198 A 
ATOM     84  F   UNL     1      13.612  12.023  -4.054  1.00  0.00    -0.203 F 
ATOM     85  F   UNL     1      14.768  17.297  -4.842  1.00  0.00    -0.200 F 
ATOM     86  C   UNL     1      14.070  15.558  -3.404  1.00  0.00     0.200 A 
ATOM     87  F   UNL     1      13.390  13.781  -2.006  1.00  0.00    -0.200 F 
ATOM     88  F   UNL     1      13.986  16.417  -2.380  1.00  0.00    -0.200 F 
ENDBRANCH  54  78
BRANCH  66  89
ATOM     89  C   UNL     1      19.711  11.380  -9.187  1.00  0.00     0.064 A 
ATOM     90  C   UNL     1      20.514  10.888  -8.147  1.00  0.00     0.173 A 
ATOM     91  C   UNL     1      20.329  12.133 -10.196  1.00  0.00     0.173 A 
ATOM     92  F   UNL     1      19.966  10.177  -7.150  1.00  0.00    -0.203 F 
ATOM     93  C   UNL     1      21.879  11.158  -8.109  1.00  0.00     0.198 A 
ATOM     94  C   UNL     1      21.699  12.379 -10.169  1.00  0.00     0.198 A 
ATOM     95  F   UNL     1      19.605  12.623 -11.214  1.00  0.00    -0.203 F 
ATOM     96  F   UNL     1      22.619  10.715  -7.084  1.00  0.00    -0.200 F 
ATOM     97  C   UNL     1      22.471  11.897  -9.123  1.00  0.00     0.200 A 
ATOM     98  F   UNL     1      22.271  13.085 -11.154  1.00  0.00    -0.200 F 
ATOM     99  F   UNL     1      23.786  12.152  -9.087  1.00  0.00    -0.200 F 
ENDBRANCH  66  89
ENDBRANCH  40  41
ENDBRANCH  32  35
ENDBRANCH  30  31
ENDBRANCH  29  30
ENDBRANCH   1  29
TORSDOF 16
