REMARK SMILES C[C@@H]1CCC[C@@H](C)C1[N@H+]1CCO[C@H](CC(=O)NCCCCNC(=O)c2ccc(-c3c4nc(c(-c5c(F)c(F)c(F)c(F)c5F)c5ccc([nH]5)c(-c5c(F)c(F)c(F)c(F)c5F)c5nc(c(-c6c(F)c(F)c(F)c(F)c6F)c6ccc3[nH]6)C=C5)C=C4)cc2)C1
REMARK SMILES IDX 19 1 18 2 17 3 15 4 16 5 14 7 13 8 9 9 10 10 88 11 11 13
REMARK SMILES IDX 12 14 8 15 1 16 2 17 3 18 4 19 6 20 5 21 7 22 20 23 21 24
REMARK SMILES IDX 22 25 23 26 24 28 25 29 26 30 87 31 27 32 86 33 28 34 29 35
REMARK SMILES IDX 30 36 80 37 31 38 85 39 79 40 81 41 32 42 84 43 78 44 77 45
REMARK SMILES IDX 33 47 65 48 45 49 64 50 46 51 49 52 63 53 82 54 47 55 48 56
REMARK SMILES IDX 62 58 83 59 50 60 34 61 35 62 43 63 36 64 37 65 41 66 44 67
REMARK SMILES IDX 38 68 39 69 42 70 40 71 66 72 67 73 75 74 68 75 69 76 73 77
REMARK SMILES IDX 76 78 70 79 71 80 74 81 72 82 51 83 52 84 60 85 53 86 54 87
REMARK SMILES IDX 58 88 61 89 55 90 56 91 59 92 57 93
REMARK H PARENT 17 6 9 12 22 27 81 46 49 57
REMARK Flexibility Score: inf
ROOT
ATOM      1  C   UNL     1      -0.061   1.172  -1.810  1.00  0.00     0.023 C 
ENDROOT
BRANCH   1   2
ATOM      2  C   UNL     1      -1.447   1.550  -2.322  1.00  0.00     0.116 C 
BRANCH   2   3
ATOM      3  N   UNL     1      -1.785   0.737  -3.472  1.00  0.00    -0.356 N 
ATOM      4  C   UNL     1      -2.496  -0.422  -3.528  1.00  0.00     0.222 C 
ATOM      5  O   UNL     1      -2.490  -1.056  -4.584  1.00  0.00    -0.275 OA
ATOM      6  H   UNL     1      -1.454   1.071  -4.337  1.00  0.00     0.163 HD
BRANCH   4   7
ATOM      7  C   UNL     1      -3.300  -0.895  -2.340  1.00  0.00     0.138 C 
BRANCH   7   8
ATOM      8  C   UNL     1      -2.523  -1.551  -1.199  1.00  0.00     0.182 C 
ATOM      9  N   UNL     1      -0.786  -3.275  -0.536  1.00  0.00    -0.328 N 
ATOM     10  C   UNL     1      -1.789  -3.825   0.365  1.00  0.00     0.291 C 
ATOM     11  C   UNL     1      -1.416  -2.537  -1.651  1.00  0.00     0.295 C 
ATOM     12  H   UNL     1      -0.357  -4.135  -0.877  1.00  0.00     0.348 HD
ATOM     13  C   UNL     1      -2.922  -2.861   0.741  1.00  0.00     0.222 C 
ATOM     14  O   UNL     1      -3.511  -2.244  -0.406  1.00  0.00    -0.366 OA
BRANCH   9  15
ATOM     15  C   UNL     1       0.548  -2.837  -0.092  1.00  0.00     0.189 C 
ATOM     16  C   UNL     1       2.021  -0.785   0.255  1.00  0.00     0.014 C 
ATOM     17  C   UNL     1       0.638  -1.413   0.524  1.00  0.00     0.045 C 
ATOM     18  C   UNL     1       0.314  -1.366   2.018  1.00  0.00     0.009 C 
ATOM     19  C   UNL     1       1.159  -2.324   2.840  1.00  0.00     0.001 C 
ATOM     20  C   UNL     1       1.373  -3.836   0.786  1.00  0.00     0.045 C 
ATOM     21  C   UNL     1       1.107  -3.748   2.300  1.00  0.00     0.009 C 
ATOM     22  C   UNL     1       1.300  -5.284   0.296  1.00  0.00     0.014 C 
ENDBRANCH   9  15
ENDBRANCH   7   8
ENDBRANCH   4   7
ENDBRANCH   2   3
ENDBRANCH   1   2
BRANCH   1  23
ATOM     23  C   UNL     1       1.109   1.672  -2.649  1.00  0.00     0.023 C 
BRANCH  23  24
ATOM     24  C   UNL     1       1.317   3.176  -2.619  1.00  0.00     0.116 C 
BRANCH  24  25
ATOM     25  N   UNL     1       1.627   3.697  -1.296  1.00  0.00    -0.352 N 
ATOM     26  C   UNL     1       2.597   4.599  -0.912  1.00  0.00     0.251 C 
ATOM     27  H   UNL     1       1.060   3.355  -0.567  1.00  0.00     0.163 HD
ATOM     28  O   UNL     1       2.766   4.857   0.268  1.00  0.00    -0.269 OA
BRANCH  26  29
ATOM     29  C   UNL     1       3.468   5.215  -1.941  1.00  0.00     0.039 A 
ATOM     30  C   UNL     1       4.843   5.292  -1.703  1.00  0.00     0.014 A 
ATOM     31  C   UNL     1       2.941   5.663  -3.152  1.00  0.00     0.014 A 
ATOM     32  C   UNL     1       5.698   5.723  -2.721  1.00  0.00     0.010 A 
ATOM     33  C   UNL     1       3.798   5.989  -4.195  1.00  0.00     0.010 A 
ATOM     34  C   UNL     1       5.186   6.021  -3.994  1.00  0.00    -0.014 A 
BRANCH  34  35
ATOM     35  C   UNL     1       6.068   6.372  -5.136  1.00  0.00     0.031 A 
ATOM     36  C   UNL     1       5.903   7.699  -5.825  1.00  0.00     0.074 A 
ATOM     37  C   UNL     1       6.937   5.463  -5.621  1.00  0.00     0.049 A 
ATOM     38  N   UNL     1       6.452   8.135  -6.930  1.00  0.00    -0.248 NA
ATOM     39  C   UNL     1       4.958   8.646  -5.211  1.00  0.00     0.031 C 
ATOM     40  C   UNL     1       7.152   4.120  -5.080  1.00  0.00     0.029 A 
ATOM     41  N   UNL     1       7.790   5.527  -6.695  1.00  0.00    -0.354 N 
ATOM     42  C   UNL     1       5.892   9.384  -7.160  1.00  0.00     0.074 A 
ATOM     43  C   UNL     1       4.923   9.616  -6.112  1.00  0.00     0.031 C 
ATOM     44  C   UNL     1       8.091   3.496  -5.809  1.00  0.00     0.029 A 
ATOM     45  C   UNL     1       8.514   4.376  -6.894  1.00  0.00     0.049 A 
ATOM     46  H   UNL     1       7.876   6.322  -7.269  1.00  0.00     0.167 HD
ATOM     47  C   UNL     1       6.178  10.271  -8.143  1.00  0.00     0.037 A 
ATOM     48  C   UNL     1       9.410   4.063  -7.850  1.00  0.00     0.037 A 
ATOM     49  C   UNL     1       7.182  10.061  -9.151  1.00  0.00     0.049 A 
ATOM     50  C   UNL     1       9.733   5.077  -8.913  1.00  0.00     0.074 A 
ATOM     51  C   UNL     1       7.604  10.929 -10.142  1.00  0.00     0.029 A 
ATOM     52  N   UNL     1       7.930   8.901  -9.288  1.00  0.00    -0.354 N 
ATOM     53  N   UNL     1       9.241   6.280  -9.086  1.00  0.00    -0.248 NA
ATOM     54  C   UNL     1      10.739   4.692  -9.913  1.00  0.00     0.031 C 
ATOM     55  C   UNL     1       8.585  10.282 -10.900  1.00  0.00     0.029 A 
ATOM     56  C   UNL     1       8.803   9.027 -10.356  1.00  0.00     0.049 A 
ATOM     57  H   UNL     1       7.851   8.107  -8.712  1.00  0.00     0.167 HD
ATOM     58  C   UNL     1       9.894   6.805 -10.192  1.00  0.00     0.074 A 
ATOM     59  C   UNL     1      10.827   5.794 -10.645  1.00  0.00     0.031 C 
ATOM     60  C   UNL     1       9.736   8.015 -10.780  1.00  0.00     0.037 A 
BRANCH  47  61
ATOM     61  C   UNL     1       5.401  11.554  -8.166  1.00  0.00     0.064 A 
ATOM     62  C   UNL     1       5.584  12.542  -7.186  1.00  0.00     0.173 A 
ATOM     63  C   UNL     1       4.480  11.811  -9.192  1.00  0.00     0.173 A 
ATOM     64  F   UNL     1       6.443  12.339  -6.175  1.00  0.00    -0.203 F 
ATOM     65  C   UNL     1       4.850  13.725  -7.214  1.00  0.00     0.198 A 
ATOM     66  C   UNL     1       3.770  13.009  -9.234  1.00  0.00     0.198 A 
ATOM     67  F   UNL     1       4.269  10.903 -10.156  1.00  0.00    -0.203 F 
ATOM     68  F   UNL     1       5.003  14.629  -6.236  1.00  0.00    -0.200 F 
ATOM     69  C   UNL     1       3.949  13.960  -8.241  1.00  0.00     0.200 A 
ATOM     70  F   UNL     1       2.907  13.240 -10.234  1.00  0.00    -0.200 F 
ATOM     71  F   UNL     1       3.246  15.100  -8.269  1.00  0.00    -0.200 F 
ENDBRANCH  47  61
BRANCH  48  72
ATOM     72  C   UNL     1      10.088   2.741  -7.829  1.00  0.00     0.064 A 
ATOM     73  C   UNL     1      11.447   2.640  -7.499  1.00  0.00     0.173 A 
ATOM     74  C   UNL     1       9.401   1.558  -8.136  1.00  0.00     0.173 A 
ATOM     75  F   UNL     1      12.150   3.747  -7.218  1.00  0.00    -0.203 F 
ATOM     76  C   UNL     1      12.097   1.408  -7.495  1.00  0.00     0.198 A 
ATOM     77  C   UNL     1      10.046   0.324  -8.107  1.00  0.00     0.198 A 
ATOM     78  F   UNL     1       8.098   1.601  -8.453  1.00  0.00    -0.203 F 
ATOM     79  F   UNL     1      13.407   1.346  -7.218  1.00  0.00    -0.200 F 
ATOM     80  C   UNL     1      11.396   0.250  -7.794  1.00  0.00     0.200 A 
ATOM     81  F   UNL     1       9.362  -0.795  -8.384  1.00  0.00    -0.200 F 
ATOM     82  F   UNL     1      12.021  -0.935  -7.787  1.00  0.00    -0.200 F 
ENDBRANCH  48  72
BRANCH  60  83
ATOM     83  C   UNL     1      10.615   8.333 -11.952  1.00  0.00     0.064 A 
ATOM     84  C   UNL     1      10.400   7.752 -13.210  1.00  0.00     0.173 A 
ATOM     85  C   UNL     1      11.649   9.273 -11.826  1.00  0.00     0.173 A 
ATOM     86  F   UNL     1       9.433   6.837 -13.375  1.00  0.00    -0.203 F 
ATOM     87  C   UNL     1      11.200   8.091 -14.298  1.00  0.00     0.198 A 
ATOM     88  C   UNL     1      12.429   9.628 -12.922  1.00  0.00     0.198 A 
ATOM     89  F   UNL     1      11.889   9.860 -10.644  1.00  0.00    -0.203 F 
ATOM     90  F   UNL     1      11.001   7.498 -15.483  1.00  0.00    -0.200 F 
ATOM     91  C   UNL     1      12.208   9.034 -14.155  1.00  0.00     0.200 A 
ATOM     92  F   UNL     1      13.394  10.548 -12.786  1.00  0.00    -0.200 F 
ATOM     93  F   UNL     1      12.969   9.366 -15.207  1.00  0.00    -0.200 F 
ENDBRANCH  60  83
ENDBRANCH  34  35
ENDBRANCH  26  29
ENDBRANCH  24  25
ENDBRANCH  23  24
ENDBRANCH   1  23
TORSDOF 13
