REMARK SMILES O=C(NCCCCNC(=O)[C@H]1[C@@H](C(=O)n2cc(Cl)cn2)[C@H]2CC[C@@H]1O2)c1ccc(-c2c3nc(c(-c4c(F)c(F)c(F)c(F)c4F)c4ccc([nH]4)c(-c4c(F)c(F)c(F)c(F)c4F)c4nc(c(-c5c(F)c(F)c(F)c(F)c5F)c5ccc2[nH]5)C=C4)C=C3)cc1
REMARK SMILES IDX 5 1 4 2 3 3 1 4 2 5 26 7 27 8 88 9 28 10 87 11 29 12 30 13
REMARK SMILES IDX 31 14 81 15 32 16 86 17 80 18 82 19 33 20 85 21 79 22 78 23
REMARK SMILES IDX 34 25 66 26 46 27 65 28 47 29 50 30 64 31 83 32 48 33 49 34
REMARK SMILES IDX 63 36 84 37 51 38 35 39 36 40 44 41 37 42 38 43 42 44 45 45
REMARK SMILES IDX 39 46 40 47 43 48 41 49 67 50 68 51 76 52 69 53 70 54 74 55
REMARK SMILES IDX 77 56 71 57 72 58 75 59 73 60 52 61 53 62 61 63 54 64 55 65
REMARK SMILES IDX 59 66 62 67 56 68 57 69 60 70 58 71 6 72 7 73 8 74 9 75
REMARK SMILES IDX 10 77 11 78 12 79 24 80 21 81 23 82 25 83 22 84 13 85 14 86
REMARK SMILES IDX 15 87 16 88 20 89 17 90 19 91 18 92
REMARK H PARENT 3 6 82 24 50 35 8 76
REMARK Flexibility Score: inf
ROOT
ATOM      1  C   UNL     1       4.722   5.659  -3.241  1.00  0.00     0.023 C 
ENDROOT
BRANCH   1   2
ATOM      2  C   UNL     1       4.315   4.880  -1.989  1.00  0.00     0.116 C 
BRANCH   2   3
ATOM      3  N   UNL     1       5.280   4.939  -0.912  1.00  0.00    -0.352 N 
ATOM      4  O   UNL     1       6.382   5.532   0.914  1.00  0.00    -0.269 OA
ATOM      5  C   UNL     1       5.556   5.859   0.060  1.00  0.00     0.251 C 
ATOM      6  H   UNL     1       5.862   4.146  -0.871  1.00  0.00     0.163 HD
BRANCH   5   7
ATOM      7  C   UNL     1       4.995   7.234   0.095  1.00  0.00     0.039 A 
ATOM      8  C   UNL     1       3.874   7.673  -0.615  1.00  0.00     0.014 A 
ATOM      9  C   UNL     1       5.697   8.159   0.887  1.00  0.00     0.014 A 
ATOM     10  C   UNL     1       3.541   9.020  -0.653  1.00  0.00     0.010 A 
ATOM     11  C   UNL     1       5.345   9.499   0.888  1.00  0.00     0.010 A 
ATOM     12  C   UNL     1       4.303   9.932   0.069  1.00  0.00    -0.014 A 
BRANCH  12  13
ATOM     13  C   UNL     1       3.929  11.341   0.011  1.00  0.00     0.031 A 
ATOM     14  C   UNL     1       2.628  11.705   0.660  1.00  0.00     0.074 A 
ATOM     15  C   UNL     1       4.816  12.254  -0.432  1.00  0.00     0.049 A 
ATOM     16  N   UNL     1       1.694  12.502   0.241  1.00  0.00    -0.248 NA
ATOM     17  C   UNL     1       2.310  11.044   1.940  1.00  0.00     0.031 C 
ATOM     18  C   UNL     1       6.213  12.029  -0.822  1.00  0.00     0.029 A 
ATOM     19  N   UNL     1       4.700  13.608  -0.488  1.00  0.00    -0.354 N 
ATOM     20  C   UNL     1       0.748  12.562   1.268  1.00  0.00     0.074 A 
ATOM     21  C   UNL     1       1.127  11.575   2.242  1.00  0.00     0.031 C 
ATOM     22  C   UNL     1       6.869  13.209  -0.820  1.00  0.00     0.029 A 
ATOM     23  C   UNL     1       5.916  14.270  -0.548  1.00  0.00     0.049 A 
ATOM     24  H   UNL     1       3.833  14.074  -0.485  1.00  0.00     0.167 HD
ATOM     25  C   UNL     1      -0.187  13.549   1.351  1.00  0.00     0.037 A 
ATOM     26  C   UNL     1       6.136  15.578  -0.274  1.00  0.00     0.037 A 
ATOM     27  C   UNL     1      -0.458  14.142   0.073  1.00  0.00     0.049 A 
ATOM     28  C   UNL     1       4.829  16.277  -0.327  1.00  0.00     0.074 A 
ATOM     29  C   UNL     1      -0.977  13.677  -1.119  1.00  0.00     0.029 A 
ATOM     30  N   UNL     1       0.083  15.366  -0.222  1.00  0.00    -0.354 N 
ATOM     31  N   UNL     1       4.130  16.445  -1.415  1.00  0.00    -0.248 NA
ATOM     32  C   UNL     1       4.086  16.406   0.919  1.00  0.00     0.031 C 
ATOM     33  C   UNL     1      -0.270  14.390  -2.131  1.00  0.00     0.029 A 
ATOM     34  C   UNL     1       0.606  15.262  -1.485  1.00  0.00     0.049 A 
ATOM     35  H   UNL     1       0.095  16.162   0.358  1.00  0.00     0.167 HD
ATOM     36  C   UNL     1       2.810  16.300  -1.016  1.00  0.00     0.074 A 
ATOM     37  C   UNL     1       2.841  16.361   0.442  1.00  0.00     0.031 C 
ATOM     38  C   UNL     1       1.850  15.868  -1.885  1.00  0.00     0.037 A 
BRANCH  25  39
ATOM     39  C   UNL     1      -0.618  14.190   2.649  1.00  0.00     0.064 A 
ATOM     40  C   UNL     1      -1.696  15.097   2.656  1.00  0.00     0.173 A 
ATOM     41  C   UNL     1       0.180  14.184   3.814  1.00  0.00     0.173 A 
ATOM     42  F   UNL     1      -2.510  15.199   1.595  1.00  0.00    -0.203 F 
ATOM     43  C   UNL     1      -1.905  15.987   3.714  1.00  0.00     0.198 A 
ATOM     44  C   UNL     1      -0.062  15.038   4.889  1.00  0.00     0.198 A 
ATOM     45  F   UNL     1       1.286  13.436   3.914  1.00  0.00    -0.203 F 
ATOM     46  F   UNL     1      -2.865  16.918   3.620  1.00  0.00    -0.200 F 
ATOM     47  C   UNL     1      -1.083  15.963   4.825  1.00  0.00     0.200 A 
ATOM     48  F   UNL     1       0.756  15.010   5.950  1.00  0.00    -0.200 F 
ATOM     49  F   UNL     1      -1.238  16.859   5.808  1.00  0.00    -0.200 F 
ENDBRANCH  25  39
BRANCH  26  50
ATOM     50  C   UNL     1       7.330  16.151   0.392  1.00  0.00     0.064 A 
ATOM     51  C   UNL     1       7.638  17.515   0.293  1.00  0.00     0.173 A 
ATOM     52  C   UNL     1       8.064  15.410   1.342  1.00  0.00     0.173 A 
ATOM     53  F   UNL     1       6.945  18.302  -0.542  1.00  0.00    -0.203 F 
ATOM     54  C   UNL     1       8.623  18.102   1.095  1.00  0.00     0.198 A 
ATOM     55  C   UNL     1       9.054  15.992   2.131  1.00  0.00     0.198 A 
ATOM     56  F   UNL     1       7.773  14.124   1.588  1.00  0.00    -0.203 F 
ATOM     57  F   UNL     1       8.858  19.419   1.010  1.00  0.00    -0.200 F 
ATOM     58  C   UNL     1       9.328  17.341   2.015  1.00  0.00     0.200 A 
ATOM     59  F   UNL     1       9.700  15.250   3.042  1.00  0.00    -0.200 F 
ATOM     60  F   UNL     1      10.239  17.912   2.815  1.00  0.00    -0.200 F 
ENDBRANCH  26  50
BRANCH  38  61
ATOM     61  C   UNL     1       2.222  15.746  -3.335  1.00  0.00     0.064 A 
ATOM     62  C   UNL     1       3.169  14.822  -3.810  1.00  0.00     0.173 A 
ATOM     63  C   UNL     1       1.482  16.457  -4.287  1.00  0.00     0.173 A 
ATOM     64  F   UNL     1       3.830  14.021  -2.967  1.00  0.00    -0.203 F 
ATOM     65  C   UNL     1       3.397  14.653  -5.173  1.00  0.00     0.198 A 
ATOM     66  C   UNL     1       1.687  16.261  -5.650  1.00  0.00     0.198 A 
ATOM     67  F   UNL     1       0.516  17.302  -3.893  1.00  0.00    -0.203 F 
ATOM     68  F   UNL     1       4.310  13.766  -5.597  1.00  0.00    -0.200 F 
ATOM     69  C   UNL     1       2.650  15.368  -6.093  1.00  0.00     0.200 A 
ATOM     70  F   UNL     1       0.923  16.912  -6.538  1.00  0.00    -0.200 F 
ATOM     71  F   UNL     1       2.834  15.171  -7.406  1.00  0.00    -0.200 F 
ENDBRANCH  38  61
ENDBRANCH  12  13
ENDBRANCH   5   7
ENDBRANCH   2   3
ENDBRANCH   1   2
BRANCH   1  72
ATOM     72  C   UNL     1       5.993   5.145  -3.930  1.00  0.00     0.023 C 
BRANCH  72  73
ATOM     73  C   UNL     1       6.036   3.633  -4.141  1.00  0.00     0.116 C 
BRANCH  73  74
ATOM     74  N   UNL     1       4.907   3.162  -4.928  1.00  0.00    -0.356 N 
ATOM     75  C   UNL     1       4.865   2.284  -5.966  1.00  0.00     0.226 C 
ATOM     76  H   UNL     1       4.035   3.538  -4.668  1.00  0.00     0.163 HD
ATOM     77  O   UNL     1       3.768   1.858  -6.318  1.00  0.00    -0.275 OA
BRANCH  75  78
ATOM     78  C   UNL     1       6.152   1.790  -6.575  1.00  0.00     0.122 C 
ATOM     79  C   UNL     1       6.077   0.729  -7.697  1.00  0.00     0.125 C 
ATOM     80  C   UNL     1       7.008   2.874  -7.239  1.00  0.00     0.132 C 
ATOM     81  C   UNL     1       7.002   1.342  -8.775  1.00  0.00     0.132 C 
ATOM     82  C   UNL     1       6.303   3.574  -8.401  1.00  0.00     0.035 C 
ATOM     83  O   UNL     1       7.966   2.029  -7.930  1.00  0.00    -0.373 OA
ATOM     84  C   UNL     1       6.458   2.556  -9.523  1.00  0.00     0.035 C 
BRANCH  79  85
ATOM     85  C   UNL     1       4.750   0.289  -8.291  1.00  0.00     0.253 C 
ATOM     86  O   UNL     1       4.194   0.810  -9.251  1.00  0.00    -0.272 OA
BRANCH  85  87
ATOM     87  N   UNL     1       4.232  -0.915  -7.765  1.00  0.00    -0.206 N 
ATOM     88  C   UNL     1       4.427  -1.500  -6.529  1.00  0.00     0.138 A 
ATOM     89  N   UNL     1       3.491  -1.725  -8.580  1.00  0.00    -0.172 NA
ATOM     90  C   UNL     1       3.796  -2.719  -6.563  1.00  0.00     0.079 A 
ATOM     91  C   UNL     1       3.261  -2.818  -7.853  1.00  0.00     0.156 A 
ATOM     92  Cl  UNL     1       3.670  -3.870  -5.333  1.00  0.00    -0.081 Cl
ENDBRANCH  85  87
ENDBRANCH  79  85
ENDBRANCH  75  78
ENDBRANCH  73  74
ENDBRANCH  72  73
ENDBRANCH   1  72
TORSDOF 13
