REMARK SMILES Cc1ccc2n[nH]cc2c1C(=O)NCCCCNC(=O)c1ccc(-c2c3nc(c(-c4c(F)c(F)c(F)c(F)c4F)c4ccc([nH]4)c(-c4c(F)c(F)c(F)c(F)c4F)c4nc(c(-c5c(F)c(F)c(F)c(F)c5F)c5ccc2[nH]5)C=C4)C=C3)cc1
REMARK SMILES IDX 16 1 15 2 14 3 13 4 11 5 12 6 10 8 1 9 2 10 3 11 4 12 9 13
REMARK SMILES IDX 5 14 8 15 6 16 7 17 17 19 18 20 19 21 20 23 21 24 22 25
REMARK SMILES IDX 83 26 23 27 82 28 24 29 25 30 26 31 76 32 27 33 81 34 75 35
REMARK SMILES IDX 77 36 28 37 80 38 74 39 73 40 29 42 61 43 41 44 60 45 42 46
REMARK SMILES IDX 45 47 59 48 78 49 43 50 44 51 58 53 79 54 46 55 30 56 31 57
REMARK SMILES IDX 39 58 32 59 33 60 37 61 40 62 34 63 35 64 38 65 36 66 62 67
REMARK SMILES IDX 63 68 71 69 64 70 65 71 69 72 72 73 66 74 67 75 70 76 68 77
REMARK SMILES IDX 47 78 48 79 56 80 49 81 50 82 54 83 57 84 51 85 52 86 55 87
REMARK SMILES IDX 53 88
REMARK H PARENT 13 7 7 18 18 22 77 41 45 52
REMARK Flexibility Score: inf
ROOT
ATOM      1  C   UNL     1       3.582   1.874   2.796  1.00  0.00     0.023 C 
ENDROOT
BRANCH   1   2
ATOM      2  C   UNL     1       3.487   1.089   1.486  1.00  0.00     0.023 C 
BRANCH   2   3
ATOM      3  C   UNL     1       2.160   1.065   0.744  1.00  0.00     0.116 C 
BRANCH   3   4
ATOM      4  N   UNL     1       1.669   2.301   0.194  1.00  0.00    -0.352 N 
ATOM      5  C   UNL     1       0.801   2.522  -0.858  1.00  0.00     0.252 C 
ATOM      6  O   UNL     1       0.408   3.690  -0.976  1.00  0.00    -0.269 OA
ATOM      7  H   UNL     1       2.003   3.115   0.636  1.00  0.00     0.163 HD
BRANCH   5   8
ATOM      8  C   UNL     1       0.377   1.494  -1.874  1.00  0.00     0.053 A 
ATOM      9  C   UNL     1      -0.017  -0.619  -0.394  1.00  0.00     0.045 C 
ATOM     10  C   UNL     1       0.073   0.097  -1.720  1.00  0.00    -0.038 A 
ATOM     11  C   UNL     1      -0.253  -0.773  -2.834  1.00  0.00     0.006 A 
ATOM     12  C   UNL     1      -0.440  -0.349  -4.156  1.00  0.00     0.031 A 
ATOM     13  C   UNL     1       0.123   1.887  -3.216  1.00  0.00     0.033 A 
ATOM     14  C   UNL     1      -0.280   1.029  -4.317  1.00  0.00     0.093 A 
ATOM     15  C   UNL     1       0.182   3.147  -3.762  1.00  0.00     0.114 A 
ATOM     16  N   UNL     1      -0.463   1.753  -5.433  1.00  0.00    -0.176 NA
ATOM     17  N   UNL     1      -0.214   3.016  -5.061  1.00  0.00    -0.284 N 
ATOM     18  H   UNL     1      -0.308   3.782  -5.671  1.00  0.00     0.189 HD
ENDBRANCH   5   8
ENDBRANCH   3   4
ENDBRANCH   2   3
ENDBRANCH   1   2
BRANCH   1  19
ATOM     19  C   UNL     1       2.450   1.702   3.812  1.00  0.00     0.116 C 
BRANCH  19  20
ATOM     20  N   UNL     1       2.129   0.333   4.163  1.00  0.00    -0.352 N 
ATOM     21  C   UNL     1       2.498  -0.524   5.166  1.00  0.00     0.251 C 
ATOM     22  H   UNL     1       1.496  -0.078   3.531  1.00  0.00     0.163 HD
ATOM     23  O   UNL     1       1.808  -1.534   5.292  1.00  0.00    -0.269 OA
BRANCH  21  24
ATOM     24  C   UNL     1       3.691  -0.367   6.043  1.00  0.00     0.039 A 
ATOM     25  C   UNL     1       4.613   0.675   5.973  1.00  0.00     0.014 A 
ATOM     26  C   UNL     1       3.945  -1.429   6.935  1.00  0.00     0.014 A 
ATOM     27  C   UNL     1       5.815   0.592   6.668  1.00  0.00     0.010 A 
ATOM     28  C   UNL     1       5.132  -1.503   7.655  1.00  0.00     0.010 A 
ATOM     29  C   UNL     1       6.096  -0.521   7.468  1.00  0.00    -0.014 A 
BRANCH  29  30
ATOM     30  C   UNL     1       7.391  -0.564   8.145  1.00  0.00     0.031 A 
ATOM     31  C   UNL     1       7.656   0.598   9.040  1.00  0.00     0.074 A 
ATOM     32  C   UNL     1       8.265  -1.585   8.026  1.00  0.00     0.049 A 
ATOM     33  N   UNL     1       8.576   1.500   8.921  1.00  0.00    -0.248 NA
ATOM     34  C   UNL     1       6.704   0.855  10.131  1.00  0.00     0.031 C 
ATOM     35  C   UNL     1       8.057  -2.889   7.389  1.00  0.00     0.029 A 
ATOM     36  N   UNL     1       9.532  -1.691   8.526  1.00  0.00    -0.354 N 
ATOM     37  C   UNL     1       8.418   2.359  10.008  1.00  0.00     0.074 A 
ATOM     38  C   UNL     1       7.186   1.986  10.651  1.00  0.00     0.031 C 
ATOM     39  C   UNL     1       9.064  -3.726   7.732  1.00  0.00     0.029 A 
ATOM     40  C   UNL     1      10.060  -2.974   8.474  1.00  0.00     0.049 A 
ATOM     41  H   UNL     1      10.028  -0.923   8.891  1.00  0.00     0.167 HD
ATOM     42  C   UNL     1       9.425   3.178  10.418  1.00  0.00     0.037 A 
ATOM     43  C   UNL     1      11.221  -3.389   9.037  1.00  0.00     0.037 A 
ATOM     44  C   UNL     1      10.425   3.329   9.398  1.00  0.00     0.049 A 
ATOM     45  C   UNL     1      12.073  -2.192   9.210  1.00  0.00     0.074 A 
ATOM     46  C   UNL     1      10.531   3.989   8.194  1.00  0.00     0.029 A 
ATOM     47  N   UNL     1      11.434   2.405   9.439  1.00  0.00    -0.354 N 
ATOM     48  N   UNL     1      12.575  -1.507   8.222  1.00  0.00    -0.248 NA
ATOM     49  C   UNL     1      12.105  -1.536  10.509  1.00  0.00     0.031 C 
ATOM     50  C   UNL     1      11.426   3.206   7.404  1.00  0.00     0.029 A 
ATOM     51  C   UNL     1      11.855   2.121   8.169  1.00  0.00     0.049 A 
ATOM     52  H   UNL     1      11.801   2.005  10.260  1.00  0.00     0.167 HD
ATOM     53  C   UNL     1      12.591  -0.203   8.681  1.00  0.00     0.074 A 
ATOM     54  C   UNL     1      12.459  -0.306  10.128  1.00  0.00     0.031 C 
ATOM     55  C   UNL     1      12.415   0.836   7.816  1.00  0.00     0.037 A 
BRANCH  42  56
ATOM     56  C   UNL     1       9.733   3.485  11.867  1.00  0.00     0.064 A 
ATOM     57  C   UNL     1      10.721   4.442  12.182  1.00  0.00     0.173 A 
ATOM     58  C   UNL     1       9.335   2.652  12.934  1.00  0.00     0.173 A 
ATOM     59  F   UNL     1      11.204   5.263  11.236  1.00  0.00    -0.203 F 
ATOM     60  C   UNL     1      11.300   4.518  13.453  1.00  0.00     0.198 A 
ATOM     61  C   UNL     1       9.879   2.763  14.213  1.00  0.00     0.198 A 
ATOM     62  F   UNL     1       8.496   1.625  12.756  1.00  0.00    -0.203 F 
ATOM     63  F   UNL     1      12.315   5.365  13.676  1.00  0.00    -0.200 F 
ATOM     64  C   UNL     1      10.880   3.676  14.467  1.00  0.00     0.200 A 
ATOM     65  F   UNL     1       9.480   1.917  15.174  1.00  0.00    -0.200 F 
ATOM     66  F   UNL     1      11.471   3.707  15.669  1.00  0.00    -0.200 F 
ENDBRANCH  42  56
BRANCH  43  67
ATOM     67  C   UNL     1      11.496  -4.654   9.764  1.00  0.00     0.064 A 
ATOM     68  C   UNL     1      12.813  -5.022  10.090  1.00  0.00     0.173 A 
ATOM     69  C   UNL     1      10.469  -5.340  10.438  1.00  0.00     0.173 A 
ATOM     70  F   UNL     1      13.850  -4.393   9.518  1.00  0.00    -0.203 F 
ATOM     71  C   UNL     1      13.086  -5.976  11.075  1.00  0.00     0.198 A 
ATOM     72  C   UNL     1      10.743  -6.296  11.419  1.00  0.00     0.198 A 
ATOM     73  F   UNL     1       9.182  -5.021  10.239  1.00  0.00    -0.203 F 
ATOM     74  F   UNL     1      14.355  -6.239  11.419  1.00  0.00    -0.200 F 
ATOM     75  C   UNL     1      12.051  -6.599  11.752  1.00  0.00     0.200 A 
ATOM     76  F   UNL     1       9.733  -6.865  12.092  1.00  0.00    -0.200 F 
ATOM     77  F   UNL     1      12.310  -7.452  12.753  1.00  0.00    -0.200 F 
ENDBRANCH  43  67
BRANCH  55  78
ATOM     78  C   UNL     1      12.637   0.558   6.358  1.00  0.00     0.064 A 
ATOM     79  C   UNL     1      11.815  -0.267   5.574  1.00  0.00     0.173 A 
ATOM     80  C   UNL     1      13.670   1.247   5.711  1.00  0.00     0.173 A 
ATOM     81  F   UNL     1      10.758  -0.895   6.105  1.00  0.00    -0.203 F 
ATOM     82  C   UNL     1      12.043  -0.419   4.207  1.00  0.00     0.198 A 
ATOM     83  C   UNL     1      13.873   1.123   4.341  1.00  0.00     0.198 A 
ATOM     84  F   UNL     1      14.457   2.084   6.406  1.00  0.00    -0.203 F 
ATOM     85  F   UNL     1      11.252  -1.220   3.476  1.00  0.00    -0.200 F 
ATOM     86  C   UNL     1      13.066   0.284   3.590  1.00  0.00     0.200 A 
ATOM     87  F   UNL     1      14.835   1.839   3.743  1.00  0.00    -0.200 F 
ATOM     88  F   UNL     1      13.259   0.173   2.268  1.00  0.00    -0.200 F 
ENDBRANCH  55  78
ENDBRANCH  29  30
ENDBRANCH  21  24
ENDBRANCH  19  20
ENDBRANCH   1  19
TORSDOF 11
