REMARK SMILES N#Cc1ccc(Sc2csc(C(=O)NCCCCNC(=O)c3ccc(-c4c5nc(c(-c6c(F)c(F)c(F)c(F)c6F)c6ccc([nH]6)c(-c6c(F)c(F)c(F)c(F)c6F)c6nc(c(-c7c(F)c(F)c(F)c(F)c7F)c7ccc4[nH]7)C=C6)C=C5)cc3)c2)c(F)c1
REMARK SMILES IDX 16 1 15 2 14 3 12 4 13 5 11 7 8 8 9 9 85 10 10 11 7 12 6 13
REMARK SMILES IDX 3 14 4 15 88 16 5 17 86 18 87 19 2 20 1 21 17 22 18 23 19 24
REMARK SMILES IDX 20 25 21 27 22 28 23 29 84 30 24 31 83 32 25 33 26 34 27 35
REMARK SMILES IDX 77 36 28 37 82 38 76 39 78 40 29 41 81 42 75 43 74 44 30 46
REMARK SMILES IDX 62 47 42 48 61 49 43 50 46 51 60 52 79 53 44 54 45 55 59 57
REMARK SMILES IDX 80 58 47 59 31 60 32 61 40 62 33 63 34 64 38 65 41 66 35 67
REMARK SMILES IDX 36 68 39 69 37 70 63 71 64 72 72 73 65 74 66 75 70 76 73 77
REMARK SMILES IDX 67 78 68 79 71 80 69 81 48 82 49 83 57 84 50 85 51 86 55 87
REMARK SMILES IDX 58 88 52 89 53 90 56 91 54 92
REMARK H PARENT 14 6 19 26 78 45 46 56
REMARK Flexibility Score: inf
ROOT
ATOM      1  C   UNL     1       4.792   4.552  -4.204  1.00  0.00     0.023 C 
ENDROOT
BRANCH   1   2
ATOM      2  C   UNL     1       5.643   4.864  -2.973  1.00  0.00     0.116 C 
BRANCH   2   3
ATOM      3  N   UNL     1       5.194   6.087  -2.342  1.00  0.00    -0.351 N 
ATOM      4  C   UNL     1       4.424   6.331  -1.231  1.00  0.00     0.261 C 
ATOM      5  O   UNL     1       4.249   7.527  -0.981  1.00  0.00    -0.268 OA
ATOM      6  H   UNL     1       5.501   6.904  -2.799  1.00  0.00     0.163 HD
BRANCH   4   7
ATOM      7  C   UNL     1       3.897   5.252  -0.403  1.00  0.00     0.093 A 
ATOM      8  C   UNL     1       3.337   3.195   0.555  1.00  0.00     0.024 A 
ATOM      9  C   UNL     1       3.059   4.037   1.602  1.00  0.00     0.081 A 
ATOM     10  C   UNL     1       3.725   3.896  -0.619  1.00  0.00     0.041 A 
ATOM     11  S   UNL     1       3.332   5.668   1.179  1.00  0.00    -0.137 S 
BRANCH   8  12
ATOM     12  S   UNL     1       3.301   1.448   0.627  1.00  0.00    -0.086 SA
BRANCH  12  13
ATOM     13  C   UNL     1       1.619   0.978   0.275  1.00  0.00     0.048 A 
ATOM     14  C   UNL     1      -1.022   0.060  -0.091  1.00  0.00     0.055 A 
ATOM     15  C   UNL     1      -0.753   1.430  -0.014  1.00  0.00     0.021 A 
ATOM     16  C   UNL     1       0.031  -0.852  -0.032  1.00  0.00     0.060 A 
ATOM     17  C   UNL     1       0.559   1.885   0.166  1.00  0.00     0.020 A 
ATOM     18  C   UNL     1       1.332  -0.389   0.149  1.00  0.00     0.138 A 
ATOM     19  F   UNL     1       2.316  -1.301   0.217  1.00  0.00    -0.206 F 
BRANCH  14  20
ATOM     20  C   UNL     1      -2.372  -0.404  -0.200  1.00  0.00     0.099 C 
ATOM     21  N   UNL     1      -3.469  -0.778  -0.269  1.00  0.00    -0.192 NA
ENDBRANCH  14  20
ENDBRANCH  12  13
ENDBRANCH   8  12
ENDBRANCH   4   7
ENDBRANCH   2   3
ENDBRANCH   1   2
BRANCH   1  22
ATOM     22  C   UNL     1       5.178   5.381  -5.432  1.00  0.00     0.023 C 
BRANCH  22  23
ATOM     23  C   UNL     1       6.618   5.193  -5.893  1.00  0.00     0.116 C 
BRANCH  23  24
ATOM     24  N   UNL     1       6.937   3.816  -6.243  1.00  0.00    -0.352 N 
ATOM     25  C   UNL     1       7.723   3.377  -7.284  1.00  0.00     0.251 C 
ATOM     26  H   UNL     1       6.545   3.118  -5.670  1.00  0.00     0.163 HD
ATOM     27  O   UNL     1       7.819   2.187  -7.555  1.00  0.00    -0.269 OA
BRANCH  25  28
ATOM     28  C   UNL     1       8.423   4.393  -8.091  1.00  0.00     0.039 A 
ATOM     29  C   UNL     1       8.209   4.439  -9.469  1.00  0.00     0.014 A 
ATOM     30  C   UNL     1       9.187   5.369  -7.449  1.00  0.00     0.014 A 
ATOM     31  C   UNL     1       8.704   5.521 -10.200  1.00  0.00     0.010 A 
ATOM     32  C   UNL     1       9.596   6.487  -8.160  1.00  0.00     0.010 A 
ATOM     33  C   UNL     1       9.362   6.573  -9.543  1.00  0.00    -0.014 A 
BRANCH  33  34
ATOM     34  C   UNL     1       9.853   7.773 -10.266  1.00  0.00     0.031 A 
ATOM     35  C   UNL     1      11.323   8.083 -10.251  1.00  0.00     0.074 A 
ATOM     36  C   UNL     1       8.984   8.628 -10.840  1.00  0.00     0.049 A 
ATOM     37  N   UNL     1      11.951   9.156 -10.658  1.00  0.00    -0.248 NA
ATOM     38  C   UNL     1      12.202   7.059  -9.661  1.00  0.00     0.031 C 
ATOM     39  C   UNL     1       7.534   8.450 -10.903  1.00  0.00     0.029 A 
ATOM     40  N   UNL     1       9.198   9.835 -11.460  1.00  0.00    -0.354 N 
ATOM     41  C   UNL     1      13.288   8.944 -10.352  1.00  0.00     0.074 A 
ATOM     42  C   UNL     1      13.374   7.673  -9.669  1.00  0.00     0.031 C 
ATOM     43  C   UNL     1       6.989   9.501 -11.538  1.00  0.00     0.029 A 
ATOM     44  C   UNL     1       8.043  10.453 -11.875  1.00  0.00     0.049 A 
ATOM     45  H   UNL     1      10.094  10.220 -11.594  1.00  0.00     0.167 HD
ATOM     46  C   UNL     1      14.353   9.731 -10.636  1.00  0.00     0.037 A 
ATOM     47  C   UNL     1       7.856  11.663 -12.439  1.00  0.00     0.037 A 
ATOM     48  C   UNL     1      14.259  10.988 -11.329  1.00  0.00     0.049 A 
ATOM     49  C   UNL     1       9.052  12.543 -12.701  1.00  0.00     0.074 A 
ATOM     50  C   UNL     1      15.281  11.842 -11.703  1.00  0.00     0.029 A 
ATOM     51  N   UNL     1      13.073  11.573 -11.745  1.00  0.00    -0.354 N 
ATOM     52  N   UNL     1      10.319  12.316 -12.451  1.00  0.00    -0.248 NA
ATOM     53  C   UNL     1       8.793  13.848 -13.328  1.00  0.00     0.031 C 
ATOM     54  C   UNL     1      14.708  12.977 -12.281  1.00  0.00     0.029 A 
ATOM     55  C   UNL     1      13.336  12.792 -12.348  1.00  0.00     0.049 A 
ATOM     56  H   UNL     1      12.177  11.182 -11.629  1.00  0.00     0.167 HD
ATOM     57  C   UNL     1      11.009  13.421 -12.933  1.00  0.00     0.074 A 
ATOM     58  C   UNL     1      10.021  14.321 -13.488  1.00  0.00     0.031 C 
ATOM     59  C   UNL     1      12.343  13.663 -12.925  1.00  0.00     0.037 A 
BRANCH  46  60
ATOM     60  C   UNL     1      15.706   9.260 -10.184  1.00  0.00     0.064 A 
ATOM     61  C   UNL     1      16.313   8.118 -10.730  1.00  0.00     0.173 A 
ATOM     62  C   UNL     1      16.417   9.976  -9.210  1.00  0.00     0.173 A 
ATOM     63  F   UNL     1      15.673   7.389 -11.656  1.00  0.00    -0.203 F 
ATOM     64  C   UNL     1      17.563   7.690 -10.289  1.00  0.00     0.198 A 
ATOM     65  C   UNL     1      17.684   9.569  -8.801  1.00  0.00     0.198 A 
ATOM     66  F   UNL     1      15.888  11.078  -8.657  1.00  0.00    -0.203 F 
ATOM     67  F   UNL     1      18.093   6.561 -10.778  1.00  0.00    -0.200 F 
ATOM     68  C   UNL     1      18.251   8.421  -9.332  1.00  0.00     0.200 A 
ATOM     69  F   UNL     1      18.355  10.287  -7.890  1.00  0.00    -0.200 F 
ATOM     70  F   UNL     1      19.457   8.012  -8.915  1.00  0.00    -0.200 F 
ENDBRANCH  46  60
BRANCH  47  71
ATOM     71  C   UNL     1       6.486  12.116 -12.803  1.00  0.00     0.064 A 
ATOM     72  C   UNL     1       6.121  12.301 -14.145  1.00  0.00     0.173 A 
ATOM     73  C   UNL     1       5.521  12.395 -11.824  1.00  0.00     0.173 A 
ATOM     74  F   UNL     1       7.013  12.067 -15.119  1.00  0.00    -0.203 F 
ATOM     75  C   UNL     1       4.857  12.776 -14.491  1.00  0.00     0.198 A 
ATOM     76  C   UNL     1       4.245  12.835 -12.173  1.00  0.00     0.198 A 
ATOM     77  F   UNL     1       5.813  12.230 -10.526  1.00  0.00    -0.203 F 
ATOM     78  F   UNL     1       4.558  13.000 -15.778  1.00  0.00    -0.200 F 
ATOM     79  C   UNL     1       3.918  13.037 -13.505  1.00  0.00     0.200 A 
ATOM     80  F   UNL     1       3.335  13.068 -11.218  1.00  0.00    -0.200 F 
ATOM     81  F   UNL     1       2.703  13.492 -13.838  1.00  0.00    -0.200 F 
ENDBRANCH  47  71
BRANCH  59  82
ATOM     82  C   UNL     1      12.837  14.908 -13.606  1.00  0.00     0.064 A 
ATOM     83  C   UNL     1      12.621  16.188 -13.076  1.00  0.00     0.173 A 
ATOM     84  C   UNL     1      13.614  14.803 -14.772  1.00  0.00     0.173 A 
ATOM     85  F   UNL     1      11.876  16.345 -11.972  1.00  0.00    -0.203 F 
ATOM     86  C   UNL     1      13.150  17.317 -13.697  1.00  0.00     0.198 A 
ATOM     87  C   UNL     1      14.172  15.930 -15.368  1.00  0.00     0.198 A 
ATOM     88  F   UNL     1      13.858  13.601 -15.316  1.00  0.00    -0.203 F 
ATOM     89  F   UNL     1      12.897  18.534 -13.197  1.00  0.00    -0.200 F 
ATOM     90  C   UNL     1      13.935  17.186 -14.834  1.00  0.00     0.200 A 
ATOM     91  F   UNL     1      14.948  15.797 -16.453  1.00  0.00    -0.200 F 
ATOM     92  F   UNL     1      14.462  18.272 -15.415  1.00  0.00    -0.200 F 
ENDBRANCH  59  82
ENDBRANCH  33  34
ENDBRANCH  25  28
ENDBRANCH  23  24
ENDBRANCH  22  23
ENDBRANCH   1  22
TORSDOF 14
