REMARK SMILES O=C(CCC(=O)Nc1ccc2nc(-c3ccccc3)oc2c1)NCCCCNC(=O)c1ccc(-c2c3nc(c(-c4c(F)c(F)c(F)c(F)c4F)c4ccc([nH]4)c(-c4c(F)c(F)c(F)c(F)c4F)c4nc(c(-c5c(F)c(F)c(F)c(F)c5F)c5ccc2[nH]5)C=C4)C=C3)cc1
REMARK SMILES IDX 24 1 23 2 1 3 2 4 3 6 4 7 5 8 6 9 7 10 8 12 9 13 22 14 10 15
REMARK SMILES IDX 21 16 11 17 20 18 12 19 13 20 14 21 15 22 19 23 16 24 18 25
REMARK SMILES IDX 17 26 25 27 26 28 27 29 28 30 29 31 30 33 31 34 32 35 93 36
REMARK SMILES IDX 33 37 92 38 34 39 35 40 36 41 86 42 37 43 91 44 85 45 87 46
REMARK SMILES IDX 38 47 90 48 84 49 83 50 39 52 71 53 51 54 70 55 52 56 55 57
REMARK SMILES IDX 69 58 88 59 53 60 54 61 68 63 89 64 56 65 40 66 41 67 49 68
REMARK SMILES IDX 42 69 43 70 47 71 50 72 44 73 45 74 48 75 46 76 72 77 73 78
REMARK SMILES IDX 81 79 74 80 75 81 79 82 82 83 76 84 77 85 80 86 78 87 57 88
REMARK SMILES IDX 58 89 66 90 59 91 60 92 64 93 67 94 61 95 62 96 65 97 63 98
REMARK H PARENT 23 5 7 11 28 32 87 51 55 62
REMARK Flexibility Score: inf
ROOT
ATOM      1  C   UNL     1       2.535  -2.112   1.011  1.00  0.00     0.116 C 
ENDROOT
BRANCH   1   2
ATOM      2  N   UNL     1       3.436  -1.397   0.122  1.00  0.00    -0.356 N 
ATOM      3  O   UNL     1       1.826  -0.759  -1.391  1.00  0.00    -0.275 OA
ATOM      4  C   UNL     1       2.971  -0.677  -0.957  1.00  0.00     0.220 C 
ATOM      5  H   UNL     1       4.404  -1.429   0.295  1.00  0.00     0.163 HD
BRANCH   4   6
ATOM      6  C   UNL     1       3.967   0.306  -1.540  1.00  0.00     0.110 C 
BRANCH   6   7
ATOM      7  C   UNL     1       4.152   1.591  -0.730  1.00  0.00     0.110 C 
BRANCH   7   8
ATOM      8  C   UNL     1       4.639   1.367   0.682  1.00  0.00     0.224 C 
ATOM      9  O   UNL     1       5.832   1.090   0.867  1.00  0.00    -0.275 OA
ATOM     10  N   UNL     1       3.847   1.414   1.790  1.00  0.00    -0.326 N 
ATOM     11  H   UNL     1       4.359   1.533   2.622  1.00  0.00     0.169 HD
BRANCH  10  12
ATOM     12  C   UNL     1       2.456   1.328   2.011  1.00  0.00     0.045 A 
ATOM     13  C   UNL     1       1.500   1.269   0.993  1.00  0.00     0.028 A 
ATOM     14  C   UNL     1       2.051   1.147   3.353  1.00  0.00     0.075 A 
ATOM     15  C   UNL     1       0.183   0.856   1.224  1.00  0.00     0.034 A 
ATOM     16  C   UNL     1       0.718   0.788   3.554  1.00  0.00     0.157 A 
ATOM     17  C   UNL     1      -0.192   0.586   2.532  1.00  0.00     0.110 A 
ATOM     18  O   UNL     1       0.058   0.572   4.737  1.00  0.00    -0.436 OA
ATOM     19  N   UNL     1      -1.379   0.153   3.027  1.00  0.00    -0.209 NA
ATOM     20  C   UNL     1      -1.208   0.227   4.330  1.00  0.00     0.227 A 
BRANCH  20  21
ATOM     21  C   UNL     1      -2.264   0.180   5.321  1.00  0.00     0.037 A 
ATOM     22  C   UNL     1      -3.138  -0.914   5.358  1.00  0.00     0.014 A 
ATOM     23  C   UNL     1      -2.567   1.331   6.060  1.00  0.00     0.014 A 
ATOM     24  C   UNL     1      -4.318  -0.845   6.099  1.00  0.00     0.001 A 
ATOM     25  C   UNL     1      -3.756   1.404   6.785  1.00  0.00     0.001 A 
ATOM     26  C   UNL     1      -4.634   0.321   6.795  1.00  0.00     0.000 A 
ENDBRANCH  20  21
ENDBRANCH  10  12
ENDBRANCH   7   8
ENDBRANCH   6   7
ENDBRANCH   4   6
ENDBRANCH   1   2
BRANCH   1  27
ATOM     27  C   UNL     1       3.032  -3.489   1.440  1.00  0.00     0.023 C 
BRANCH  27  28
ATOM     28  C   UNL     1       4.428  -3.516   2.065  1.00  0.00     0.023 C 
BRANCH  28  29
ATOM     29  C   UNL     1       4.616  -2.633   3.296  1.00  0.00     0.116 C 
BRANCH  29  30
ATOM     30  N   UNL     1       3.987  -3.177   4.491  1.00  0.00    -0.352 N 
ATOM     31  C   UNL     1       4.554  -3.738   5.611  1.00  0.00     0.251 C 
ATOM     32  H   UNL     1       3.004  -3.137   4.498  1.00  0.00     0.163 HD
ATOM     33  O   UNL     1       3.842  -4.290   6.450  1.00  0.00    -0.269 OA
BRANCH  31  34
ATOM     34  C   UNL     1       6.021  -3.719   5.808  1.00  0.00     0.039 A 
ATOM     35  C   UNL     1       6.665  -4.888   6.223  1.00  0.00     0.014 A 
ATOM     36  C   UNL     1       6.766  -2.557   5.594  1.00  0.00     0.014 A 
ATOM     37  C   UNL     1       8.059  -4.916   6.332  1.00  0.00     0.010 A 
ATOM     38  C   UNL     1       8.159  -2.609   5.619  1.00  0.00     0.010 A 
ATOM     39  C   UNL     1       8.823  -3.791   5.981  1.00  0.00    -0.014 A 
BRANCH  39  40
ATOM     40  C   UNL     1      10.311  -3.838   5.967  1.00  0.00     0.031 A 
ATOM     41  C   UNL     1      11.114  -2.940   6.868  1.00  0.00     0.074 A 
ATOM     42  C   UNL     1      10.945  -4.643   5.091  1.00  0.00     0.049 A 
ATOM     43  N   UNL     1      12.414  -2.787   6.943  1.00  0.00    -0.248 NA
ATOM     44  C   UNL     1      10.356  -2.080   7.789  1.00  0.00     0.031 C 
ATOM     45  C   UNL     1      10.287  -5.528   4.128  1.00  0.00     0.029 A 
ATOM     46  N   UNL     1      12.285  -4.839   4.856  1.00  0.00    -0.354 N 
ATOM     47  C   UNL     1      12.625  -1.812   7.909  1.00  0.00     0.074 A 
ATOM     48  C   UNL     1      11.321  -1.364   8.348  1.00  0.00     0.031 C 
ATOM     49  C   UNL     1      11.221  -6.185   3.423  1.00  0.00     0.029 A 
ATOM     50  C   UNL     1      12.543  -5.738   3.850  1.00  0.00     0.049 A 
ATOM     51  H   UNL     1      12.992  -4.378   5.362  1.00  0.00     0.167 HD
ATOM     52  C   UNL     1      13.799  -1.348   8.403  1.00  0.00     0.037 A 
ATOM     53  C   UNL     1      13.712  -6.147   3.320  1.00  0.00     0.037 A 
ATOM     54  C   UNL     1      15.097  -1.802   7.973  1.00  0.00     0.049 A 
ATOM     55  C   UNL     1      15.003  -5.600   3.870  1.00  0.00     0.074 A 
ATOM     56  C   UNL     1      16.343  -1.429   8.448  1.00  0.00     0.029 A 
ATOM     57  N   UNL     1      15.318  -2.724   6.960  1.00  0.00    -0.354 N 
ATOM     58  N   UNL     1      15.190  -4.729   4.831  1.00  0.00    -0.248 NA
ATOM     59  C   UNL     1      16.245  -6.099   3.264  1.00  0.00     0.031 C 
ATOM     60  C   UNL     1      17.317  -2.081   7.686  1.00  0.00     0.029 A 
ATOM     61  C   UNL     1      16.679  -2.911   6.778  1.00  0.00     0.049 A 
ATOM     62  H   UNL     1      14.611  -3.178   6.446  1.00  0.00     0.167 HD
ATOM     63  C   UNL     1      16.566  -4.599   4.967  1.00  0.00     0.074 A 
ATOM     64  C   UNL     1      17.167  -5.493   4.000  1.00  0.00     0.031 C 
ATOM     65  C   UNL     1      17.268  -3.809   5.816  1.00  0.00     0.037 A 
BRANCH  52  66
ATOM     66  C   UNL     1      13.734  -0.292   9.471  1.00  0.00     0.064 A 
ATOM     67  C   UNL     1      13.244  -0.574  10.756  1.00  0.00     0.173 A 
ATOM     68  C   UNL     1      14.200   1.007   9.220  1.00  0.00     0.173 A 
ATOM     69  F   UNL     1      12.778  -1.797  11.049  1.00  0.00    -0.203 F 
ATOM     70  C   UNL     1      13.190   0.414  11.737  1.00  0.00     0.198 A 
ATOM     71  C   UNL     1      14.178   1.983  10.213  1.00  0.00     0.198 A 
ATOM     72  F   UNL     1      14.688   1.331   8.012  1.00  0.00    -0.203 F 
ATOM     73  F   UNL     1      12.665   0.135  12.938  1.00  0.00    -0.200 F 
ATOM     74  C   UNL     1      13.664   1.689  11.467  1.00  0.00     0.200 A 
ATOM     75  F   UNL     1      14.651   3.210   9.956  1.00  0.00    -0.200 F 
ATOM     76  F   UNL     1      13.618   2.636  12.414  1.00  0.00    -0.200 F 
ENDBRANCH  52  66
BRANCH  53  77
ATOM     77  C   UNL     1      13.719  -7.140   2.212  1.00  0.00     0.064 A 
ATOM     78  C   UNL     1      14.217  -8.436   2.405  1.00  0.00     0.173 A 
ATOM     79  C   UNL     1      13.236  -6.812   0.936  1.00  0.00     0.173 A 
ATOM     80  F   UNL     1      14.709  -8.792   3.601  1.00  0.00    -0.203 F 
ATOM     81  C   UNL     1      14.254  -9.357   1.361  1.00  0.00     0.198 A 
ATOM     82  C   UNL     1      13.244  -7.745  -0.099  1.00  0.00     0.198 A 
ATOM     83  F   UNL     1      12.745  -5.587   0.697  1.00  0.00    -0.203 F 
ATOM     84  F   UNL     1      14.784 -10.572   1.561  1.00  0.00    -0.200 F 
ATOM     85  C   UNL     1      13.761  -9.013   0.111  1.00  0.00     0.200 A 
ATOM     86  F   UNL     1      12.752  -7.413  -1.301  1.00  0.00    -0.200 F 
ATOM     87  F   UNL     1      13.793  -9.901  -0.892  1.00  0.00    -0.200 F 
ENDBRANCH  53  77
BRANCH  65  88
ATOM     88  C   UNL     1      18.767  -3.904   5.770  1.00  0.00     0.064 A 
ATOM     89  C   UNL     1      19.507  -3.414   4.684  1.00  0.00     0.173 A 
ATOM     90  C   UNL     1      19.475  -4.458   6.848  1.00  0.00     0.173 A 
ATOM     91  F   UNL     1      18.879  -2.887   3.622  1.00  0.00    -0.203 F 
ATOM     92  C   UNL     1      20.897  -3.502   4.666  1.00  0.00     0.198 A 
ATOM     93  C   UNL     1      20.866  -4.513   6.842  1.00  0.00     0.198 A 
ATOM     94  F   UNL     1      18.818  -4.935   7.916  1.00  0.00    -0.203 F 
ATOM     95  F   UNL     1      21.579  -3.075   3.594  1.00  0.00    -0.200 F 
ATOM     96  C   UNL     1      21.576  -4.043   5.748  1.00  0.00     0.200 A 
ATOM     97  F   UNL     1      21.520  -5.021   7.896  1.00  0.00    -0.200 F 
ATOM     98  F   UNL     1      22.913  -4.118   5.732  1.00  0.00    -0.200 F 
ENDBRANCH  65  88
ENDBRANCH  39  40
ENDBRANCH  31  34
ENDBRANCH  29  30
ENDBRANCH  28  29
ENDBRANCH  27  28
ENDBRANCH   1  27
TORSDOF 15
