REMARK SMILES CCn1nc(C(=O)NCCCCNC(=O)c2ccc(-c3c4nc(c(-c5c(F)c(F)c(F)c(F)c5F)c5ccc([nH]5)c(-c5c(F)c(F)c(F)c(F)c5F)c5nc(c(-c6c(F)c(F)c(F)c(F)c6F)c6ccc3[nH]6)C=C5)C=C4)cc2)c2c1CC[C@H]([NH2+]Cc1nn(CC)c3ccccc13)C2
REMARK SMILES IDX 9 1 8 2 6 3 7 4 5 6 3 7 4 8 80 9 79 10 81 11 97 12 82 13
REMARK SMILES IDX 83 14 2 15 1 16 84 17 85 20 86 21 87 22 96 23 88 24 91 25
REMARK SMILES IDX 95 26 92 27 94 28 93 29 89 30 90 31 10 32 11 33 12 34 13 35
REMARK SMILES IDX 14 36 15 38 16 39 17 40 78 41 18 42 77 43 19 44 20 45 21 46
REMARK SMILES IDX 71 47 22 48 76 49 70 50 72 51 23 52 75 53 69 54 68 55 24 57
REMARK SMILES IDX 56 58 36 59 55 60 37 61 40 62 54 63 73 64 38 65 39 66 53 68
REMARK SMILES IDX 74 69 41 70 25 71 26 72 34 73 27 74 28 75 32 76 35 77 29 78
REMARK SMILES IDX 30 79 33 80 31 81 57 82 58 83 66 84 59 85 60 86 64 87 67 88
REMARK SMILES IDX 61 89 62 90 65 91 63 92 42 93 43 94 51 95 44 96 45 97 49 98
REMARK SMILES IDX 52 99 46 100 47 101 50 102 48 103
REMARK H PARENT 8 5 84 18 84 19 13 37 72 56 40 67
REMARK Flexibility Score: inf
ROOT
ATOM      1  C   UNL     1       3.854   6.266   1.117  1.00  0.00     0.116 C 
ENDROOT
BRANCH   1   2
ATOM      2  N   UNL     1       2.432   6.137   0.730  1.00  0.00    -0.351 N 
ATOM      3  C   UNL     1       1.515   5.045   0.719  1.00  0.00     0.272 C 
ATOM      4  O   UNL     1       0.397   5.324   0.271  1.00  0.00    -0.267 OA
ATOM      5  H   UNL     1       2.036   6.981   0.415  1.00  0.00     0.163 HD
BRANCH   3   6
ATOM      6  C   UNL     1       1.792   3.645   1.224  1.00  0.00     0.153 A 
ATOM      7  N   UNL     1       1.534   1.517   1.619  1.00  0.00    -0.269 N 
ATOM      8  N   UNL     1       1.008   2.575   0.930  1.00  0.00    -0.167 NA
ATOM      9  C   UNL     1       2.577   1.881   2.415  1.00  0.00     0.043 A 
ATOM     10  C   UNL     1       2.762   3.203   2.144  1.00  0.00     0.012 A 
ATOM     11  C   UNL     1       3.417   1.147   3.397  1.00  0.00     0.062 C 
ATOM     12  C   UNL     1       3.738   3.988   2.845  1.00  0.00     0.105 C 
ATOM     13  C   UNL     1       3.807   2.095   4.586  1.00  0.00     0.072 C 
ATOM     14  C   UNL     1       4.134   3.588   4.242  1.00  0.00     0.187 C 
BRANCH   7  15
ATOM     15  C   UNL     1       0.986   0.187   1.408  1.00  0.00     0.141 C 
ATOM     16  C   UNL     1       1.192  -0.288  -0.022  1.00  0.00     0.029 C 
ENDBRANCH   7  15
BRANCH  14  17
ATOM     17  N   UNL     1       3.608   4.603   5.208  1.00  0.00    -0.338 N 
ATOM     18  H   UNL     1       4.098   4.479   6.093  1.00  0.00     0.346 HD
ATOM     19  H   UNL     1       2.603   4.440   5.270  1.00  0.00     0.346 HD
BRANCH  17  20
ATOM     20  C   UNL     1       3.771   6.041   4.783  1.00  0.00     0.320 C 
BRANCH  20  21
ATOM     21  C   UNL     1       2.437   6.813   4.357  1.00  0.00     0.124 A 
ATOM     22  N   UNL     1       1.248   6.217   4.595  1.00  0.00    -0.171 NA
ATOM     23  C   UNL     1       2.150   8.146   3.752  1.00  0.00     0.029 A 
ATOM     24  N   UNL     1       0.344   7.171   4.253  1.00  0.00    -0.265 N 
ATOM     25  C   UNL     1       0.876   8.435   4.218  1.00  0.00     0.069 A 
ATOM     26  C   UNL     1       2.660   9.176   2.917  1.00  0.00     0.012 A 
ATOM     27  C   UNL     1       0.246   9.696   4.176  1.00  0.00     0.028 A 
ATOM     28  C   UNL     1       2.018  10.418   2.738  1.00  0.00     0.001 A 
ATOM     29  C   UNL     1       0.844  10.693   3.411  1.00  0.00     0.002 A 
BRANCH  24  30
ATOM     30  C   UNL     1      -0.898   6.862   3.553  1.00  0.00     0.141 C 
ATOM     31  C   UNL     1      -1.071   7.576   2.193  1.00  0.00     0.029 C 
ENDBRANCH  24  30
ENDBRANCH  20  21
ENDBRANCH  17  20
ENDBRANCH  14  17
ENDBRANCH   3   6
ENDBRANCH   1   2
BRANCH   1  32
ATOM     32  C   UNL     1       4.744   7.480   0.733  1.00  0.00     0.023 C 
BRANCH  32  33
ATOM     33  C   UNL     1       5.873   8.036   1.769  1.00  0.00     0.023 C 
BRANCH  33  34
ATOM     34  C   UNL     1       5.570   8.675   3.178  1.00  0.00     0.116 C 
BRANCH  34  35
ATOM     35  N   UNL     1       6.620   8.697   4.199  1.00  0.00    -0.352 N 
ATOM     36  C   UNL     1       6.670   9.303   5.467  1.00  0.00     0.251 C 
ATOM     37  H   UNL     1       7.434   8.199   3.955  1.00  0.00     0.163 HD
ATOM     38  O   UNL     1       7.758   9.381   6.017  1.00  0.00    -0.269 OA
BRANCH  36  39
ATOM     39  C   UNL     1       5.473   9.820   6.225  1.00  0.00     0.039 A 
ATOM     40  C   UNL     1       5.574  10.850   7.168  1.00  0.00     0.014 A 
ATOM     41  C   UNL     1       4.249   9.181   6.150  1.00  0.00     0.014 A 
ATOM     42  C   UNL     1       4.453  11.234   7.942  1.00  0.00     0.010 A 
ATOM     43  C   UNL     1       3.136   9.522   6.920  1.00  0.00     0.010 A 
ATOM     44  C   UNL     1       3.220  10.564   7.822  1.00  0.00    -0.014 A 
BRANCH  44  45
ATOM     45  C   UNL     1       1.982  11.110   8.419  1.00  0.00     0.031 A 
ATOM     46  C   UNL     1       1.688  12.502   7.971  1.00  0.00     0.074 A 
ATOM     47  C   UNL     1       1.014  10.435   9.089  1.00  0.00     0.049 A 
ATOM     48  N   UNL     1       1.611  13.570   8.694  1.00  0.00    -0.248 NA
ATOM     49  C   UNL     1       1.560  12.755   6.527  1.00  0.00     0.031 C 
ATOM     50  C   UNL     1       0.926   8.993   9.334  1.00  0.00     0.029 A 
ATOM     51  N   UNL     1      -0.166  10.898   9.628  1.00  0.00    -0.354 N 
ATOM     52  C   UNL     1       1.260  14.603   7.828  1.00  0.00     0.074 A 
ATOM     53  C   UNL     1       1.382  14.076   6.496  1.00  0.00     0.031 C 
ATOM     54  C   UNL     1      -0.309   8.679   9.793  1.00  0.00     0.029 A 
ATOM     55  C   UNL     1      -1.067   9.901  10.006  1.00  0.00     0.049 A 
ATOM     56  H   UNL     1      -0.359  11.857   9.738  1.00  0.00     0.167 HD
ATOM     57  C   UNL     1       0.677  15.738   8.303  1.00  0.00     0.037 A 
ATOM     58  C   UNL     1      -2.345  10.053  10.450  1.00  0.00     0.037 A 
ATOM     59  C   UNL     1       0.883  15.862   9.725  1.00  0.00     0.049 A 
ATOM     60  C   UNL     1      -2.485  11.443  10.934  1.00  0.00     0.074 A 
ATOM     61  C   UNL     1       1.981  15.950  10.557  1.00  0.00     0.029 A 
ATOM     62  N   UNL     1      -0.177  15.545  10.533  1.00  0.00    -0.354 N 
ATOM     63  N   UNL     1      -1.929  11.903  12.016  1.00  0.00    -0.248 NA
ATOM     64  C   UNL     1      -2.997  12.447  10.016  1.00  0.00     0.031 C 
ATOM     65  C   UNL     1       1.610  15.244  11.741  1.00  0.00     0.029 A 
ATOM     66  C   UNL     1       0.290  14.818  11.592  1.00  0.00     0.049 A 
ATOM     67  H   UNL     1      -1.116  15.797  10.377  1.00  0.00     0.167 HD
ATOM     68  C   UNL     1      -1.596  13.206  11.697  1.00  0.00     0.074 A 
ATOM     69  C   UNL     1      -2.408  13.529  10.529  1.00  0.00     0.031 C 
ATOM     70  C   UNL     1      -0.479  13.778  12.232  1.00  0.00     0.037 A 
BRANCH  57  71
ATOM     71  C   UNL     1      -0.435  16.493   7.598  1.00  0.00     0.064 A 
ATOM     72  C   UNL     1      -0.949  17.660   8.207  1.00  0.00     0.173 A 
ATOM     73  C   UNL     1      -1.234  15.949   6.570  1.00  0.00     0.173 A 
ATOM     74  F   UNL     1      -0.278  18.268   9.197  1.00  0.00    -0.203 F 
ATOM     75  C   UNL     1      -2.217  18.160   7.898  1.00  0.00     0.198 A 
ATOM     76  C   UNL     1      -2.477  16.483   6.229  1.00  0.00     0.198 A 
ATOM     77  F   UNL     1      -0.911  14.821   5.929  1.00  0.00    -0.203 F 
ATOM     78  F   UNL     1      -2.725  19.172   8.614  1.00  0.00    -0.200 F 
ATOM     79  C   UNL     1      -2.986  17.562   6.919  1.00  0.00     0.200 A 
ATOM     80  F   UNL     1      -3.214  15.882   5.284  1.00  0.00    -0.200 F 
ATOM     81  F   UNL     1      -4.232  17.989   6.674  1.00  0.00    -0.200 F 
ENDBRANCH  57  71
BRANCH  58  82
ATOM     82  C   UNL     1      -3.540   9.172  10.340  1.00  0.00     0.064 A 
ATOM     83  C   UNL     1      -4.695   9.401  11.117  1.00  0.00     0.173 A 
ATOM     84  C   UNL     1      -3.693   8.291   9.255  1.00  0.00     0.173 A 
ATOM     85  F   UNL     1      -4.659  10.255  12.151  1.00  0.00    -0.203 F 
ATOM     86  C   UNL     1      -5.930   8.824  10.798  1.00  0.00     0.198 A 
ATOM     87  C   UNL     1      -4.925   7.709   8.942  1.00  0.00     0.198 A 
ATOM     88  F   UNL     1      -2.675   8.060   8.414  1.00  0.00    -0.203 F 
ATOM     89  F   UNL     1      -7.021   9.134  11.514  1.00  0.00    -0.200 F 
ATOM     90  C   UNL     1      -6.047   7.990   9.700  1.00  0.00     0.200 A 
ATOM     91  F   UNL     1      -5.035   6.934   7.854  1.00  0.00    -0.200 F 
ATOM     92  F   UNL     1      -7.243   7.498   9.346  1.00  0.00    -0.200 F 
ENDBRANCH  58  82
BRANCH  70  93
ATOM     93  C   UNL     1       0.114  13.140  13.455  1.00  0.00     0.064 A 
ATOM     94  C   UNL     1       0.618  11.829  13.515  1.00  0.00     0.173 A 
ATOM     95  C   UNL     1       0.266  13.944  14.594  1.00  0.00     0.173 A 
ATOM     96  F   UNL     1       0.598  11.027  12.443  1.00  0.00    -0.203 F 
ATOM     97  C   UNL     1       1.200  11.336  14.682  1.00  0.00     0.198 A 
ATOM     98  C   UNL     1       0.886  13.462  15.741  1.00  0.00     0.198 A 
ATOM     99  F   UNL     1      -0.158  15.218  14.580  1.00  0.00    -0.203 F 
ATOM    100  F   UNL     1       1.651  10.073  14.727  1.00  0.00    -0.200 F 
ATOM    101  C   UNL     1       1.341  12.155  15.790  1.00  0.00     0.200 A 
ATOM    102  F   UNL     1       1.061  14.274  16.793  1.00  0.00    -0.200 F 
ATOM    103  F   UNL     1       1.936  11.693  16.899  1.00  0.00    -0.200 F 
ENDBRANCH  70  93
ENDBRANCH  44  45
ENDBRANCH  36  39
ENDBRANCH  34  35
ENDBRANCH  33  34
ENDBRANCH  32  33
ENDBRANCH   1  32
TORSDOF 16
