REMARK SMILES Cc1cc(C)c(NS(=O)(=O)c2cccc3cc(C)cnc23)c(C(=O)NCCCCNC(=O)c2ccc(-c3c4nc(c(-c5c(F)c(F)c(F)c(F)c5F)c5ccc([nH]5)c(-c5c(F)c(F)c(F)c(F)c5F)c5nc(c(-c6c(F)c(F)c(F)c(F)c6F)c6ccc3[nH]6)C=C5)C=C4)cc2)c1
REMARK SMILES IDX 27 1 26 2 25 3 23 4 24 5 22 7 1 8 2 9 3 10 96 11 4 12 5 13
REMARK SMILES IDX 6 14 7 15 8 17 9 18 10 19 11 20 12 21 21 22 13 23 15 24
REMARK SMILES IDX 20 25 14 26 16 27 19 28 17 29 18 30 28 31 29 32 30 33 31 34
REMARK SMILES IDX 32 36 33 37 34 38 95 39 35 40 94 41 36 42 37 43 38 44 88 45
REMARK SMILES IDX 39 46 93 47 87 48 89 49 40 50 92 51 86 52 85 53 41 55 73 56
REMARK SMILES IDX 53 57 72 58 54 59 57 60 71 61 90 62 55 63 56 64 70 66 91 67
REMARK SMILES IDX 58 68 42 69 43 70 51 71 44 72 45 73 49 74 52 75 46 76 47 77
REMARK SMILES IDX 50 78 48 79 74 80 75 81 83 82 76 83 77 84 81 85 84 86 78 87
REMARK SMILES IDX 79 88 82 89 80 90 59 91 60 92 68 93 61 94 62 95 66 96 69 97
REMARK SMILES IDX 63 98 64 99 67 100 65 101
REMARK H PARENT 25 6 7 16 30 35 89 54 57 65
REMARK Flexibility Score: inf
ROOT
ATOM      1  C   UNL     1       3.200  -3.660   0.924  1.00  0.00     0.023 C 
ENDROOT
BRANCH   1   2
ATOM      2  C   UNL     1       2.155  -3.780  -0.189  1.00  0.00     0.116 C 
BRANCH   2   3
ATOM      3  N   UNL     1       0.831  -3.887   0.400  1.00  0.00    -0.352 N 
ATOM      4  C   UNL     1      -0.145  -2.944   0.634  1.00  0.00     0.253 C 
ATOM      5  O   UNL     1      -1.163  -3.304   1.223  1.00  0.00    -0.269 OA
ATOM      6  H   UNL     1       0.588  -4.798   0.683  1.00  0.00     0.163 HD
BRANCH   4   7
ATOM      7  C   UNL     1      -0.053  -1.556   0.091  1.00  0.00     0.064 A 
ATOM      8  C   UNL     1       2.688   0.930  -0.724  1.00  0.00     0.044 C 
ATOM      9  C   UNL     1       1.342   0.271  -0.679  1.00  0.00    -0.050 A 
ATOM     10  C   UNL     1       0.265   0.730  -1.444  1.00  0.00     0.009 A 
ATOM     11  C   UNL     1       1.172  -0.884   0.078  1.00  0.00     0.019 A 
ATOM     12  C   UNL     1      -1.007   0.117  -1.373  1.00  0.00    -0.026 A 
ATOM     13  C   UNL     1      -2.079   0.624  -2.295  1.00  0.00     0.046 C 
ATOM     14  C   UNL     1      -1.203  -0.944  -0.473  1.00  0.00     0.065 A 
BRANCH  14  15
ATOM     15  N   UNL     1      -2.489  -1.521  -0.175  1.00  0.00    -0.278 N 
ATOM     16  H   UNL     1      -2.563  -2.499  -0.266  1.00  0.00     0.180 HD
BRANCH  15  17
ATOM     17  S   UNL     1      -3.881  -0.704   0.314  1.00  0.00     0.264 S 
ATOM     18  O   UNL     1      -4.766  -0.809  -0.838  1.00  0.00    -0.201 OA
ATOM     19  O   UNL     1      -4.298  -1.308   1.564  1.00  0.00    -0.201 OA
BRANCH  17  20
ATOM     20  C   UNL     1      -3.724   1.033   0.626  1.00  0.00     0.114 A 
ATOM     21  C   UNL     1      -4.821   1.814   0.189  1.00  0.00     0.024 A 
ATOM     22  C   UNL     1      -2.567   1.624   1.122  1.00  0.00     0.091 A 
ATOM     23  C   UNL     1      -4.731   3.195   0.128  1.00  0.00     0.002 A 
ATOM     24  C   UNL     1      -2.454   3.024   0.930  1.00  0.00     0.002 A 
ATOM     25  N   UNL     1      -1.566   0.940   1.716  1.00  0.00    -0.255 NA
ATOM     26  C   UNL     1      -3.527   3.796   0.454  1.00  0.00     0.010 A 
ATOM     27  C   UNL     1      -1.220   3.640   1.167  1.00  0.00     0.015 A 
ATOM     28  C   UNL     1      -0.401   1.580   1.976  1.00  0.00     0.115 A 
ATOM     29  C   UNL     1      -0.147   2.897   1.644  1.00  0.00    -0.032 A 
ATOM     30  C   UNL     1       1.219   3.494   1.735  1.00  0.00     0.046 C 
ENDBRANCH  17  20
ENDBRANCH  15  17
ENDBRANCH  14  15
ENDBRANCH   4   7
ENDBRANCH   2   3
ENDBRANCH   1   2
BRANCH   1  31
ATOM     31  C   UNL     1       3.674  -5.013   1.456  1.00  0.00     0.023 C 
BRANCH  31  32
ATOM     32  C   UNL     1       4.541  -5.794   0.477  1.00  0.00     0.116 C 
BRANCH  32  33
ATOM     33  N   UNL     1       5.782  -5.110   0.139  1.00  0.00    -0.352 N 
ATOM     34  C   UNL     1       7.005  -5.667  -0.147  1.00  0.00     0.251 C 
ATOM     35  H   UNL     1       5.739  -4.127   0.113  1.00  0.00     0.163 HD
ATOM     36  O   UNL     1       7.992  -4.961  -0.324  1.00  0.00    -0.269 OA
BRANCH  34  37
ATOM     37  C   UNL     1       7.120  -7.136  -0.187  1.00  0.00     0.039 A 
ATOM     38  C   UNL     1       8.081  -7.757   0.614  1.00  0.00     0.014 A 
ATOM     39  C   UNL     1       6.230  -7.894  -0.952  1.00  0.00     0.014 A 
ATOM     40  C   UNL     1       8.100  -9.148   0.706  1.00  0.00     0.010 A 
ATOM     41  C   UNL     1       6.205  -9.276  -0.805  1.00  0.00     0.010 A 
ATOM     42  C   UNL     1       7.136  -9.915   0.029  1.00  0.00    -0.014 A 
BRANCH  42  43
ATOM     43  C   UNL     1       7.078 -11.387   0.194  1.00  0.00     0.031 A 
ATOM     44  C   UNL     1       7.352 -12.286  -0.976  1.00  0.00     0.074 A 
ATOM     45  C   UNL     1       6.711 -11.908   1.381  1.00  0.00     0.049 A 
ATOM     46  N   UNL     1       7.299 -13.592  -1.046  1.00  0.00    -0.248 NA
ATOM     47  C   UNL     1       7.706 -11.630  -2.245  1.00  0.00     0.031 C 
ATOM     48  C   UNL     1       6.361 -11.135   2.574  1.00  0.00     0.029 A 
ATOM     49  N   UNL     1       6.561 -13.214   1.777  1.00  0.00    -0.354 N 
ATOM     50  C   UNL     1       7.598 -13.910  -2.364  1.00  0.00     0.074 A 
ATOM     51  C   UNL     1       7.778 -12.662  -3.072  1.00  0.00     0.031 C 
ATOM     52  C   UNL     1       6.060 -11.979   3.573  1.00  0.00     0.029 A 
ATOM     53  C   UNL     1       6.165 -13.351   3.085  1.00  0.00     0.049 A 
ATOM     54  H   UNL     1       6.722 -13.980   1.179  1.00  0.00     0.167 HD
ATOM     55  C   UNL     1       7.736 -15.135  -2.925  1.00  0.00     0.037 A 
ATOM     56  C   UNL     1       5.916 -14.460   3.806  1.00  0.00     0.037 A 
ATOM     57  C   UNL     1       7.584 -16.374  -2.210  1.00  0.00     0.049 A 
ATOM     58  C   UNL     1       6.088 -15.808   3.161  1.00  0.00     0.074 A 
ATOM     59  C   UNL     1       7.766 -17.665  -2.672  1.00  0.00     0.029 A 
ATOM     60  N   UNL     1       7.213 -16.474  -0.877  1.00  0.00    -0.354 N 
ATOM     61  N   UNL     1       6.450 -16.098   1.935  1.00  0.00    -0.248 NA
ATOM     62  C   UNL     1       5.826 -16.984   4.003  1.00  0.00     0.031 C 
ATOM     63  C   UNL     1       7.467 -18.548  -1.629  1.00  0.00     0.029 A 
ATOM     64  C   UNL     1       7.143 -17.806  -0.505  1.00  0.00     0.049 A 
ATOM     65  H   UNL     1       7.026 -15.710  -0.284  1.00  0.00     0.167 HD
ATOM     66  C   UNL     1       6.487 -17.484   1.866  1.00  0.00     0.074 A 
ATOM     67  C   UNL     1       6.125 -17.977   3.179  1.00  0.00     0.031 C 
ATOM     68  C   UNL     1       6.793 -18.277   0.810  1.00  0.00     0.037 A 
BRANCH  55  69
ATOM     69  C   UNL     1       8.081 -15.192  -4.384  1.00  0.00     0.064 A 
ATOM     70  C   UNL     1       9.349 -14.814  -4.853  1.00  0.00     0.173 A 
ATOM     71  C   UNL     1       7.148 -15.660  -5.320  1.00  0.00     0.173 A 
ATOM     72  F   UNL     1      10.273 -14.347  -3.999  1.00  0.00    -0.203 F 
ATOM     73  C   UNL     1       9.660 -14.877  -6.208  1.00  0.00     0.198 A 
ATOM     74  C   UNL     1       7.472 -15.749  -6.671  1.00  0.00     0.198 A 
ATOM     75  F   UNL     1       5.923 -16.037  -4.924  1.00  0.00    -0.203 F 
ATOM     76  F   UNL     1      10.860 -14.465  -6.638  1.00  0.00    -0.200 F 
ATOM     77  C   UNL     1       8.724 -15.351  -7.115  1.00  0.00     0.200 A 
ATOM     78  F   UNL     1       6.570 -16.217  -7.546  1.00  0.00    -0.200 F 
ATOM     79  F   UNL     1       9.027 -15.416  -8.419  1.00  0.00    -0.200 F 
ENDBRANCH  55  69
BRANCH  56  80
ATOM     80  C   UNL     1       5.510 -14.345   5.231  1.00  0.00     0.064 A 
ATOM     81  C   UNL     1       6.380 -14.734   6.259  1.00  0.00     0.173 A 
ATOM     82  C   UNL     1       4.247 -13.857   5.595  1.00  0.00     0.173 A 
ATOM     83  F   UNL     1       7.592 -15.226   5.959  1.00  0.00    -0.203 F 
ATOM     84  C   UNL     1       5.995 -14.660   7.596  1.00  0.00     0.198 A 
ATOM     85  C   UNL     1       3.872 -13.759   6.934  1.00  0.00     0.198 A 
ATOM     86  F   UNL     1       3.380 -13.466   4.650  1.00  0.00    -0.203 F 
ATOM     87  F   UNL     1       6.830 -15.082   8.555  1.00  0.00    -0.200 F 
ATOM     88  C   UNL     1       4.743 -14.168   7.932  1.00  0.00     0.200 A 
ATOM     89  F   UNL     1       2.667 -13.271   7.256  1.00  0.00    -0.200 F 
ATOM     90  F   UNL     1       4.373 -14.097   9.218  1.00  0.00    -0.200 F 
ENDBRANCH  56  80
BRANCH  68  91
ATOM     91  C   UNL     1       6.787 -19.759   1.040  1.00  0.00     0.064 A 
ATOM     92  C   UNL     1       5.590 -20.474   1.194  1.00  0.00     0.173 A 
ATOM     93  C   UNL     1       7.992 -20.478   1.062  1.00  0.00     0.173 A 
ATOM     94  F   UNL     1       4.414 -19.829   1.196  1.00  0.00    -0.203 F 
ATOM     95  C   UNL     1       5.602 -21.853   1.384  1.00  0.00     0.198 A 
ATOM     96  C   UNL     1       7.997 -21.860   1.223  1.00  0.00     0.198 A 
ATOM     97  F   UNL     1       9.162 -19.841   0.912  1.00  0.00    -0.203 F 
ATOM     98  F   UNL     1       4.449 -22.511   1.572  1.00  0.00    -0.200 F 
ATOM     99  C   UNL     1       6.803 -22.546   1.391  1.00  0.00     0.200 A 
ATOM    100  F   UNL     1       9.159 -22.530   1.217  1.00  0.00    -0.200 F 
ATOM    101  F   UNL     1       6.811 -23.874   1.566  1.00  0.00    -0.200 F 
ENDBRANCH  68  91
ENDBRANCH  42  43
ENDBRANCH  34  37
ENDBRANCH  32  33
ENDBRANCH  31  32
ENDBRANCH   1  31
TORSDOF 14
