REMARK SMILES Cc1nc(-c2ccc3c(c2)CCN3S(=O)(=O)c2ccc(F)c(C(=O)NCCCCNC(=O)c3ccc(-c4c5nc(c(-c6c(F)c(F)c(F)c(F)c6F)c6ccc([nH]6)c(-c6c(F)c(F)c(F)c(F)c6F)c6nc(c(-c7c(F)c(F)c(F)c(F)c7F)c7ccc4[nH]7)C=C6)C=C5)cc3)c2)cs1
REMARK SMILES IDX 27 1 26 2 25 3 23 4 24 5 22 7 17 8 18 9 96 10 19 11 20 12
REMARK SMILES IDX 21 13 14 14 15 15 16 16 13 17 5 18 6 19 10 20 7 21 9 22 8 23
REMARK SMILES IDX 11 24 12 25 4 26 1 27 2 28 3 29 98 30 97 31 28 32 29 33
REMARK SMILES IDX 30 34 31 35 32 37 33 38 34 39 95 40 35 41 94 42 36 43 37 44
REMARK SMILES IDX 38 45 88 46 39 47 93 48 87 49 89 50 40 51 92 52 86 53 85 54
REMARK SMILES IDX 41 56 73 57 53 58 72 59 54 60 57 61 71 62 90 63 55 64 56 65
REMARK SMILES IDX 70 67 91 68 58 69 42 70 43 71 51 72 44 73 45 74 49 75 52 76
REMARK SMILES IDX 46 77 47 78 50 79 48 80 74 81 75 82 83 83 76 84 77 85 81 86
REMARK SMILES IDX 84 87 78 88 79 89 82 90 80 91 59 92 60 93 68 94 61 95 62 96
REMARK SMILES IDX 66 97 69 98 63 99 64 100 67 101 65 102
REMARK H PARENT 25 6 30 36 89 55 57 66
REMARK Flexibility Score: inf
ROOT
ATOM      1  C   UNL     1       0.077  -8.716  -7.285  1.00  0.00     0.023 C 
ENDROOT
BRANCH   1   2
ATOM      2  C   UNL     1       0.049  -7.942  -5.977  1.00  0.00     0.116 C 
BRANCH   2   3
ATOM      3  N   UNL     1       0.155  -8.746  -4.773  1.00  0.00    -0.352 N 
ATOM      4  C   UNL     1       0.915  -8.583  -3.634  1.00  0.00     0.254 C 
ATOM      5  O   UNL     1       0.753  -9.395  -2.721  1.00  0.00    -0.269 OA
ATOM      6  H   UNL     1      -0.415  -9.549  -4.769  1.00  0.00     0.163 HD
BRANCH   4   7
ATOM      7  C   UNL     1       1.968  -7.540  -3.476  1.00  0.00     0.076 A 
ATOM      8  C   UNL     1       4.023  -6.824  -2.405  1.00  0.00     0.089 A 
ATOM      9  C   UNL     1       4.129  -5.742  -3.287  1.00  0.00     0.025 A 
ATOM     10  C   UNL     1       3.007  -7.778  -2.555  1.00  0.00     0.039 A 
ATOM     11  C   UNL     1       3.064  -5.463  -4.128  1.00  0.00     0.041 A 
ATOM     12  C   UNL     1       1.955  -6.305  -4.130  1.00  0.00     0.136 A 
ATOM     13  F   UNL     1       0.836  -5.813  -4.680  1.00  0.00    -0.206 F 
BRANCH   8  14
ATOM     14  S   UNL     1       5.140  -6.854  -1.026  1.00  0.00     0.264 S 
ATOM     15  O   UNL     1       6.344  -6.181  -1.471  1.00  0.00    -0.201 OA
ATOM     16  O   UNL     1       5.215  -8.220  -0.545  1.00  0.00    -0.201 OA
BRANCH  14  17
ATOM     17  N   UNL     1       4.424  -5.914   0.223  1.00  0.00    -0.266 N 
ATOM     18  C   UNL     1       2.086  -2.388   0.075  1.00  0.00     0.001 A 
ATOM     19  C   UNL     1       1.758  -3.434  -0.800  1.00  0.00     0.012 A 
ATOM     20  C   UNL     1       3.154  -2.559   0.966  1.00  0.00     0.016 A 
ATOM     21  C   UNL     1       2.491  -4.624  -0.806  1.00  0.00     0.028 A 
ATOM     22  C   UNL     1       3.888  -3.748   0.919  1.00  0.00    -0.021 A 
ATOM     23  C   UNL     1       3.615  -4.748  -0.013  1.00  0.00     0.055 A 
ATOM     24  C   UNL     1       4.888  -4.223   1.924  1.00  0.00     0.060 C 
ATOM     25  C   UNL     1       5.442  -5.494   1.261  1.00  0.00     0.140 C 
BRANCH  18  26
ATOM     26  C   UNL     1       1.223  -1.217   0.105  1.00  0.00     0.081 A 
ATOM     27  C   UNL     1      -2.207   0.031  -0.008  1.00  0.00     0.079 C 
ATOM     28  C   UNL     1      -0.734  -0.179   0.046  1.00  0.00     0.090 A 
ATOM     29  N   UNL     1      -0.153  -1.357  -0.004  1.00  0.00    -0.242 NA
ATOM     30  S   UNL     1       0.333   1.162   0.176  1.00  0.00    -0.127 S 
ATOM     31  C   UNL     1       1.670   0.084   0.196  1.00  0.00     0.095 A 
ENDBRANCH  18  26
ENDBRANCH  14  17
ENDBRANCH   8  14
ENDBRANCH   4   7
ENDBRANCH   2   3
ENDBRANCH   1   2
BRANCH   1  32
ATOM     32  C   UNL     1      -1.113  -9.615  -7.574  1.00  0.00     0.023 C 
BRANCH  32  33
ATOM     33  C   UNL     1      -2.485  -8.969  -7.433  1.00  0.00     0.116 C 
BRANCH  33  34
ATOM     34  N   UNL     1      -2.667  -7.774  -8.247  1.00  0.00    -0.352 N 
ATOM     35  C   UNL     1      -3.660  -7.474  -9.151  1.00  0.00     0.251 C 
ATOM     36  H   UNL     1      -1.979  -7.079  -8.133  1.00  0.00     0.163 HD
ATOM     37  O   UNL     1      -3.607  -6.445  -9.817  1.00  0.00    -0.269 OA
BRANCH  35  38
ATOM     38  C   UNL     1      -4.774  -8.423  -9.350  1.00  0.00     0.039 A 
ATOM     39  C   UNL     1      -5.125  -8.795 -10.650  1.00  0.00     0.014 A 
ATOM     40  C   UNL     1      -5.430  -8.987  -8.254  1.00  0.00     0.014 A 
ATOM     41  C   UNL     1      -6.068  -9.806 -10.845  1.00  0.00     0.010 A 
ATOM     42  C   UNL     1      -6.293 -10.060  -8.447  1.00  0.00     0.010 A 
ATOM     43  C   UNL     1      -6.620 -10.483  -9.744  1.00  0.00    -0.014 A 
BRANCH  43  44
ATOM     44  C   UNL     1      -7.535 -11.639  -9.924  1.00  0.00     0.031 A 
ATOM     45  C   UNL     1      -8.944 -11.570  -9.404  1.00  0.00     0.074 A 
ATOM     46  C   UNL     1      -7.082 -12.771 -10.497  1.00  0.00     0.049 A 
ATOM     47  N   UNL     1      -9.870 -12.495  -9.401  1.00  0.00    -0.248 NA
ATOM     48  C   UNL     1      -9.358 -10.304  -8.779  1.00  0.00     0.031 C 
ATOM     49  C   UNL     1      -5.724 -12.976 -11.004  1.00  0.00     0.029 A 
ATOM     50  N   UNL     1      -7.712 -13.965 -10.748  1.00  0.00    -0.354 N 
ATOM     51  C   UNL     1     -10.969 -11.923  -8.774  1.00  0.00     0.074 A 
ATOM     52  C   UNL     1     -10.573 -10.601  -8.344  1.00  0.00     0.031 C 
ATOM     53  C   UNL     1      -5.636 -14.202 -11.541  1.00  0.00     0.029 A 
ATOM     54  C   UNL     1      -6.913 -14.890 -11.375  1.00  0.00     0.049 A 
ATOM     55  H   UNL     1      -8.649 -14.142 -10.501  1.00  0.00     0.167 HD
ATOM     56  C   UNL     1     -12.207 -12.442  -8.602  1.00  0.00     0.037 A 
ATOM     57  C   UNL     1      -7.179 -16.150 -11.771  1.00  0.00     0.037 A 
ATOM     58  C   UNL     1     -12.601 -13.753  -9.047  1.00  0.00     0.049 A 
ATOM     59  C   UNL     1      -8.551 -16.720 -11.535  1.00  0.00     0.074 A 
ATOM     60  C   UNL     1     -13.843 -14.355  -8.954  1.00  0.00     0.029 A 
ATOM     61  N   UNL     1     -11.758 -14.664  -9.668  1.00  0.00    -0.354 N 
ATOM     62  N   UNL     1      -9.598 -16.153 -10.986  1.00  0.00    -0.248 NA
ATOM     63  C   UNL     1      -8.781 -18.103 -11.974  1.00  0.00     0.031 C 
ATOM     64  C   UNL     1     -13.739 -15.650  -9.468  1.00  0.00     0.029 A 
ATOM     65  C   UNL     1     -12.449 -15.833  -9.941  1.00  0.00     0.049 A 
ATOM     66  H   UNL     1     -10.811 -14.504  -9.882  1.00  0.00     0.167 HD
ATOM     67  C   UNL     1     -10.616 -17.095 -11.039  1.00  0.00     0.074 A 
ATOM     68  C   UNL     1     -10.065 -18.269 -11.683  1.00  0.00     0.031 C 
ATOM     69  C   UNL     1     -11.892 -16.992 -10.593  1.00  0.00     0.037 A 
BRANCH  56  70
ATOM     70  C   UNL     1     -13.234 -11.586  -7.919  1.00  0.00     0.064 A 
ATOM     71  C   UNL     1     -13.749 -11.948  -6.665  1.00  0.00     0.173 A 
ATOM     72  C   UNL     1     -13.752 -10.434  -8.532  1.00  0.00     0.173 A 
ATOM     73  F   UNL     1     -13.293 -13.042  -6.036  1.00  0.00    -0.203 F 
ATOM     74  C   UNL     1     -14.751 -11.196  -6.057  1.00  0.00     0.198 A 
ATOM     75  C   UNL     1     -14.729  -9.665  -7.905  1.00  0.00     0.198 A 
ATOM     76  F   UNL     1     -13.286 -10.036  -9.726  1.00  0.00    -0.203 F 
ATOM     77  F   UNL     1     -15.251 -11.581  -4.875  1.00  0.00    -0.200 F 
ATOM     78  C   UNL     1     -15.235 -10.052  -6.674  1.00  0.00     0.200 A 
ATOM     79  F   UNL     1     -15.174  -8.544  -8.490  1.00  0.00    -0.200 F 
ATOM     80  F   UNL     1     -16.188  -9.321  -6.080  1.00  0.00    -0.200 F 
ENDBRANCH  56  70
BRANCH  57  81
ATOM     81  C   UNL     1      -6.130 -16.933 -12.476  1.00  0.00     0.064 A 
ATOM     82  C   UNL     1      -4.973 -17.373 -11.818  1.00  0.00     0.173 A 
ATOM     83  C   UNL     1      -6.251 -17.222 -13.843  1.00  0.00     0.173 A 
ATOM     84  F   UNL     1      -4.806 -17.119 -10.511  1.00  0.00    -0.203 F 
ATOM     85  C   UNL     1      -3.965 -18.047 -12.505  1.00  0.00     0.198 A 
ATOM     86  C   UNL     1      -5.256 -17.921 -14.523  1.00  0.00     0.198 A 
ATOM     87  F   UNL     1      -7.349 -16.841 -14.513  1.00  0.00    -0.203 F 
ATOM     88  F   UNL     1      -2.851 -18.419 -11.860  1.00  0.00    -0.200 F 
ATOM     89  C   UNL     1      -4.109 -18.324 -13.856  1.00  0.00     0.200 A 
ATOM     90  F   UNL     1      -5.410 -18.206 -15.823  1.00  0.00    -0.200 F 
ATOM     91  F   UNL     1      -3.143 -18.978 -14.515  1.00  0.00    -0.200 F 
ENDBRANCH  57  81
BRANCH  69  92
ATOM     92  C   UNL     1     -12.806 -18.165 -10.805  1.00  0.00     0.064 A 
ATOM     93  C   UNL     1     -13.890 -18.065 -11.692  1.00  0.00     0.173 A 
ATOM     94  C   UNL     1     -12.671 -19.347 -10.064  1.00  0.00     0.173 A 
ATOM     95  F   UNL     1     -14.070 -16.951 -12.418  1.00  0.00    -0.203 F 
ATOM     96  C   UNL     1     -14.818 -19.096 -11.810  1.00  0.00     0.198 A 
ATOM     97  C   UNL     1     -13.583 -20.390 -10.209  1.00  0.00     0.198 A 
ATOM     98  F   UNL     1     -11.646 -19.497  -9.212  1.00  0.00    -0.203 F 
ATOM     99  F   UNL     1     -15.870 -18.958 -12.628  1.00  0.00    -0.200 F 
ATOM    100  C   UNL     1     -14.662 -20.258 -11.071  1.00  0.00     0.200 A 
ATOM    101  F   UNL     1     -13.418 -21.523  -9.513  1.00  0.00    -0.200 F 
ATOM    102  F   UNL     1     -15.552 -21.253 -11.189  1.00  0.00    -0.200 F 
ENDBRANCH  69  92
ENDBRANCH  43  44
ENDBRANCH  35  38
ENDBRANCH  33  34
ENDBRANCH  32  33
ENDBRANCH   1  32
TORSDOF 14
