REMARK SMILES O=C(NCCCCNC(=O)c1[nH]ncc1C[NH+]1CCC([N@H+]2CCC[C@@H](C(=O)N3CCCC3)C2)CC1)c1ccc(-c2c3nc(c(-c4c(F)c(F)c(F)c(F)c4F)c4ccc([nH]4)c(-c4c(F)c(F)c(F)c(F)c4F)c4nc(c(-c5c(F)c(F)c(F)c(F)c5F)c5ccc2[nH]5)C=C4)C=C3)cc1
REMARK SMILES IDX 6 1 5 2 4 3 3 4 1 5 2 6 36 8 37 9 98 10 38 11 97 12 39 13
REMARK SMILES IDX 40 14 41 15 91 16 42 17 96 18 90 19 92 20 43 21 95 22 89 23
REMARK SMILES IDX 88 24 44 26 76 27 56 28 75 29 57 30 60 31 74 32 93 33 58 34
REMARK SMILES IDX 59 35 73 37 94 38 61 39 45 40 46 41 54 42 47 43 48 44 52 45
REMARK SMILES IDX 55 46 49 47 50 48 53 49 51 50 77 51 78 52 86 53 79 54 80 55
REMARK SMILES IDX 84 56 87 57 81 58 82 59 85 60 83 61 62 62 63 63 71 64 64 65
REMARK SMILES IDX 65 66 69 67 72 68 66 69 67 70 70 71 68 72 7 73 8 74 9 75
REMARK SMILES IDX 10 77 11 78 12 79 15 80 13 81 14 83 16 84 17 85 18 86 35 87
REMARK SMILES IDX 19 89 34 90 20 91 21 92 22 93 33 94 23 96 25 97 24 98 26 99
REMARK SMILES IDX 27 100 28 101 29 102 32 103 30 104 31 105
REMARK H PARENT 3 7 92 25 60 36 8 76 12 82 17 88 21 95
REMARK Flexibility Score: inf
ROOT
ATOM      1  C   UNL     1       4.423   2.788  -2.717  1.00  0.00     0.023 C 
ENDROOT
BRANCH   1   2
ATOM      2  C   UNL     1       4.900   1.434  -2.204  1.00  0.00     0.023 C 
BRANCH   2   3
ATOM      3  C   UNL     1       4.558   1.132  -0.751  1.00  0.00     0.116 C 
BRANCH   3   4
ATOM      4  N   UNL     1       3.125   1.073  -0.499  1.00  0.00    -0.352 N 
ATOM      5  O   UNL     1       1.144   0.107   0.001  1.00  0.00    -0.269 OA
ATOM      6  C   UNL     1       2.367   0.027  -0.029  1.00  0.00     0.251 C 
ATOM      7  H   UNL     1       2.628   1.900  -0.694  1.00  0.00     0.163 HD
BRANCH   6   8
ATOM      8  C   UNL     1       3.037  -1.214   0.413  1.00  0.00     0.039 A 
ATOM      9  C   UNL     1       4.153  -1.151   1.249  1.00  0.00     0.014 A 
ATOM     10  C   UNL     1       2.562  -2.449  -0.036  1.00  0.00     0.014 A 
ATOM     11  C   UNL     1       4.893  -2.300   1.492  1.00  0.00     0.010 A 
ATOM     12  C   UNL     1       3.252  -3.618   0.295  1.00  0.00     0.010 A 
ATOM     13  C   UNL     1       4.443  -3.549   1.032  1.00  0.00    -0.014 A 
BRANCH  13  14
ATOM     14  C   UNL     1       5.209  -4.765   1.404  1.00  0.00     0.031 A 
ATOM     15  C   UNL     1       5.893  -5.611   0.367  1.00  0.00     0.074 A 
ATOM     16  C   UNL     1       5.322  -5.070   2.711  1.00  0.00     0.049 A 
ATOM     17  N   UNL     1       6.632  -6.680   0.535  1.00  0.00    -0.248 NA
ATOM     18  C   UNL     1       5.723  -5.217  -1.040  1.00  0.00     0.031 C 
ATOM     19  C   UNL     1       4.687  -4.326   3.803  1.00  0.00     0.029 A 
ATOM     20  N   UNL     1       6.024  -6.058   3.349  1.00  0.00    -0.354 N 
ATOM     21  C   UNL     1       7.001  -7.094  -0.738  1.00  0.00     0.074 A 
ATOM     22  C   UNL     1       6.387  -6.176  -1.674  1.00  0.00     0.031 C 
ATOM     23  C   UNL     1       5.074  -4.848   4.974  1.00  0.00     0.029 A 
ATOM     24  C   UNL     1       5.927  -6.001   4.717  1.00  0.00     0.049 A 
ATOM     25  H   UNL     1       6.547  -6.743   2.872  1.00  0.00     0.167 HD
ATOM     26  C   UNL     1       7.788  -8.141  -1.088  1.00  0.00     0.037 A 
ATOM     27  C   UNL     1       6.454  -6.799   5.663  1.00  0.00     0.037 A 
ATOM     28  C   UNL     1       8.410  -9.040  -0.148  1.00  0.00     0.049 A 
ATOM     29  C   UNL     1       7.311  -7.955   5.241  1.00  0.00     0.074 A 
ATOM     30  C   UNL     1       9.247 -10.113  -0.404  1.00  0.00     0.029 A 
ATOM     31  N   UNL     1       8.263  -8.970   1.230  1.00  0.00    -0.354 N 
ATOM     32  N   UNL     1       7.671  -8.320   4.035  1.00  0.00    -0.248 NA
ATOM     33  C   UNL     1       7.831  -8.815   6.312  1.00  0.00     0.031 C 
ATOM     34  C   UNL     1       9.574 -10.717   0.815  1.00  0.00     0.029 A 
ATOM     35  C   UNL     1       8.977  -9.993   1.835  1.00  0.00     0.049 A 
ATOM     36  H   UNL     1       7.730  -8.294   1.707  1.00  0.00     0.167 HD
ATOM     37  C   UNL     1       8.464  -9.445   4.200  1.00  0.00     0.074 A 
ATOM     38  C   UNL     1       8.558  -9.685   5.626  1.00  0.00     0.031 C 
ATOM     39  C   UNL     1       9.053 -10.218   3.255  1.00  0.00     0.037 A 
BRANCH  26  40
ATOM     40  C   UNL     1       8.020  -8.388  -2.550  1.00  0.00     0.064 A 
ATOM     41  C   UNL     1       8.861  -7.562  -3.311  1.00  0.00     0.173 A 
ATOM     42  C   UNL     1       7.454  -9.507  -3.181  1.00  0.00     0.173 A 
ATOM     43  F   UNL     1       9.419  -6.475  -2.759  1.00  0.00    -0.203 F 
ATOM     44  C   UNL     1       9.116  -7.841  -4.652  1.00  0.00     0.198 A 
ATOM     45  C   UNL     1       7.730  -9.795  -4.515  1.00  0.00     0.198 A 
ATOM     46  F   UNL     1       6.648 -10.332  -2.497  1.00  0.00    -0.203 F 
ATOM     47  F   UNL     1       9.900  -7.022  -5.368  1.00  0.00    -0.200 F 
ATOM     48  C   UNL     1       8.558  -8.961  -5.251  1.00  0.00     0.200 A 
ATOM     49  F   UNL     1       7.200 -10.885  -5.088  1.00  0.00    -0.200 F 
ATOM     50  F   UNL     1       8.816  -9.235  -6.537  1.00  0.00    -0.200 F 
ENDBRANCH  26  40
BRANCH  27  51
ATOM     51  C   UNL     1       6.171  -6.530   7.096  1.00  0.00     0.064 A 
ATOM     52  C   UNL     1       7.181  -6.098   7.964  1.00  0.00     0.173 A 
ATOM     53  C   UNL     1       4.880  -6.691   7.622  1.00  0.00     0.173 A 
ATOM     54  F   UNL     1       8.435  -5.947   7.511  1.00  0.00    -0.203 F 
ATOM     55  C   UNL     1       6.915  -5.853   9.310  1.00  0.00     0.198 A 
ATOM     56  C   UNL     1       4.609  -6.415   8.959  1.00  0.00     0.198 A 
ATOM     57  F   UNL     1       3.877  -7.096   6.829  1.00  0.00    -0.203 F 
ATOM     58  F   UNL     1       7.908  -5.483  10.130  1.00  0.00    -0.200 F 
ATOM     59  C   UNL     1       5.628  -6.005   9.804  1.00  0.00     0.200 A 
ATOM     60  F   UNL     1       3.360  -6.545   9.427  1.00  0.00    -0.200 F 
ATOM     61  F   UNL     1       5.372  -5.761  11.096  1.00  0.00    -0.200 F 
ENDBRANCH  27  51
BRANCH  39  62
ATOM     62  C   UNL     1       9.858 -11.385   3.744  1.00  0.00     0.064 A 
ATOM     63  C   UNL     1       9.241 -12.523   4.284  1.00  0.00     0.173 A 
ATOM     64  C   UNL     1      11.258 -11.367   3.666  1.00  0.00     0.173 A 
ATOM     65  F   UNL     1       7.905 -12.578   4.397  1.00  0.00    -0.203 F 
ATOM     66  C   UNL     1      10.000 -13.590   4.758  1.00  0.00     0.198 A 
ATOM     67  C   UNL     1      12.012 -12.447   4.115  1.00  0.00     0.198 A 
ATOM     68  F   UNL     1      11.893 -10.303   3.154  1.00  0.00    -0.203 F 
ATOM     69  F   UNL     1       9.393 -14.644   5.320  1.00  0.00    -0.200 F 
ATOM     70  C   UNL     1      11.384 -13.553   4.668  1.00  0.00     0.200 A 
ATOM     71  F   UNL     1      13.348 -12.415   4.020  1.00  0.00    -0.200 F 
ATOM     72  F   UNL     1      12.113 -14.580   5.127  1.00  0.00    -0.200 F 
ENDBRANCH  39  62
ENDBRANCH  13  14
ENDBRANCH   6   8
ENDBRANCH   3   4
ENDBRANCH   2   3
ENDBRANCH   1   2
BRANCH   1  73
ATOM     73  C   UNL     1       4.766   3.976  -1.826  1.00  0.00     0.116 C 
BRANCH  73  74
ATOM     74  N   UNL     1       6.195   4.138  -1.612  1.00  0.00    -0.351 N 
ATOM     75  C   UNL     1       6.959   5.265  -1.756  1.00  0.00     0.269 C 
ATOM     76  H   UNL     1       6.677   3.329  -1.326  1.00  0.00     0.163 HD
ATOM     77  O   UNL     1       8.188   5.150  -1.712  1.00  0.00    -0.268 OA
BRANCH  75  78
ATOM     78  C   UNL     1       6.316   6.515  -2.027  1.00  0.00     0.131 A 
ATOM     79  N   UNL     1       6.746   7.338  -3.031  1.00  0.00    -0.272 N 
ATOM     80  C   UNL     1       5.258   7.188  -1.421  1.00  0.00     0.057 A 
ATOM     81  N   UNL     1       5.936   8.383  -3.257  1.00  0.00    -0.183 NA
ATOM     82  H   UNL     1       7.573   7.177  -3.541  1.00  0.00     0.190 HD
ATOM     83  C   UNL     1       5.037   8.294  -2.276  1.00  0.00     0.145 A 
BRANCH  80  84
ATOM     84  C   UNL     1       4.487   6.798  -0.203  1.00  0.00     0.303 C 
BRANCH  84  85
ATOM     85  N   UNL     1       4.631   7.703   0.935  1.00  0.00    -0.331 N 
ATOM     86  C   UNL     1       6.011   7.874   1.387  1.00  0.00     0.268 C 
ATOM     87  C   UNL     1       3.926   8.975   0.797  1.00  0.00     0.268 C 
ATOM     88  H   UNL     1       4.147   7.213   1.687  1.00  0.00     0.348 HD
ATOM     89  C   UNL     1       6.040   8.568   2.749  1.00  0.00     0.126 C 
ATOM     90  C   UNL     1       3.862   9.689   2.147  1.00  0.00     0.126 C 
ATOM     91  C   UNL     1       5.277   9.907   2.709  1.00  0.00     0.195 C 
BRANCH  91  92
ATOM     92  N   UNL     1       5.256  10.678   3.978  1.00  0.00    -0.331 N 
ATOM     93  C   UNL     1       4.617   9.986   5.107  1.00  0.00     0.262 C 
ATOM     94  C   UNL     1       6.618  11.105   4.341  1.00  0.00     0.275 C 
ATOM     95  H   UNL     1       4.669  11.491   3.792  1.00  0.00     0.348 HD
ATOM     96  C   UNL     1       4.572  10.878   6.354  1.00  0.00     0.062 C 
ATOM     97  C   UNL     1       6.637  12.033   5.566  1.00  0.00     0.134 C 
ATOM     98  C   UNL     1       5.965  11.359   6.756  1.00  0.00     0.025 C 
BRANCH  97  99
ATOM     99  C   UNL     1       8.107  12.342   5.813  1.00  0.00     0.231 C 
ATOM    100  O   UNL     1       8.921  11.439   6.017  1.00  0.00    -0.274 OA
ATOM    101  N   UNL     1       8.513  13.638   5.606  1.00  0.00    -0.342 N 
ATOM    102  C   UNL     1       7.779  14.863   5.858  1.00  0.00     0.119 C 
ATOM    103  C   UNL     1       9.852  13.920   5.127  1.00  0.00     0.119 C 
ATOM    104  C   UNL     1       8.421  15.853   4.905  1.00  0.00     0.023 C 
ATOM    105  C   UNL     1       9.888  15.428   4.898  1.00  0.00     0.023 C 
ENDBRANCH  97  99
ENDBRANCH  91  92
ENDBRANCH  84  85
ENDBRANCH  80  84
ENDBRANCH  75  78
ENDBRANCH  73  74
ENDBRANCH   1  73
TORSDOF 15
