REMARK SMILES C[C@@H]1[C@@H](C)CC[C@H]1[NH2+][C@@H](C)[C@@H](C)C(=O)NCCCCNC(=O)c1ccc(-c2c3nc(c(-c4c(F)c(F)c(F)c(F)c4F)c4ccc([nH]4)c(-c4c(F)c(F)c(F)c(F)c4F)c4nc(c(-c5c(F)c(F)c(F)c(F)c5F)c5ccc2[nH]5)C=C4)C=C3)cc1
REMARK SMILES IDX 17 1 16 2 15 3 13 4 14 5 11 7 12 8 9 9 10 10 8 11 7 14 1 15
REMARK SMILES IDX 2 16 3 17 5 18 4 19 6 20 18 21 19 22 20 23 21 24 22 26 23 27
REMARK SMILES IDX 24 28 85 29 25 30 84 31 26 32 27 33 28 34 78 35 29 36 83 37
REMARK SMILES IDX 77 38 79 39 30 40 82 41 76 42 75 43 31 45 63 46 43 47 62 48
REMARK SMILES IDX 44 49 47 50 61 51 80 52 45 53 46 54 60 56 81 57 48 58 32 59
REMARK SMILES IDX 33 60 41 61 34 62 35 63 39 64 42 65 36 66 37 67 40 68 38 69
REMARK SMILES IDX 64 70 65 71 73 72 66 73 67 74 71 75 74 76 68 77 69 78 72 79
REMARK SMILES IDX 70 80 49 81 50 82 58 83 51 84 52 85 56 86 59 87 53 88 54 89
REMARK SMILES IDX 57 90 55 91
REMARK H PARENT 15 6 8 12 8 13 20 25 79 44 47 55
REMARK Flexibility Score: inf
ROOT
ATOM      1  C   UNL     1       5.984  -0.475   3.975  1.00  0.00     0.023 C 
ENDROOT
BRANCH   1   2
ATOM      2  C   UNL     1       5.338  -1.859   4.036  1.00  0.00     0.116 C 
BRANCH   2   3
ATOM      3  N   UNL     1       4.754  -2.150   5.331  1.00  0.00    -0.356 N 
ATOM      4  C   UNL     1       3.457  -2.234   5.736  1.00  0.00     0.228 C 
ATOM      5  O   UNL     1       3.260  -2.548   6.914  1.00  0.00    -0.275 OA
ATOM      6  H   UNL     1       5.412  -2.317   6.044  1.00  0.00     0.163 HD
BRANCH   4   7
ATOM      7  C   UNL     1       2.274  -1.952   4.806  1.00  0.00     0.133 C 
ATOM      8  C   UNL     1       2.145  -3.065   3.762  1.00  0.00     0.024 C 
BRANCH   7   9
ATOM      9  C   UNL     1       2.293  -0.495   4.267  1.00  0.00     0.191 C 
ATOM     10  C   UNL     1       2.137   0.477   5.449  1.00  0.00     0.076 C 
BRANCH   9  11
ATOM     11  N   UNL     1       1.248  -0.290   3.251  1.00  0.00    -0.341 N 
ATOM     12  H   UNL     1       1.198  -1.133   2.679  1.00  0.00     0.346 HD
ATOM     13  H   UNL     1       0.393  -0.090   3.770  1.00  0.00     0.346 HD
BRANCH  11  14
ATOM     14  C   UNL     1       1.448   0.851   2.355  1.00  0.00     0.185 C 
ATOM     15  C   UNL     1       0.883  -0.220   0.099  1.00  0.00     0.014 C 
ATOM     16  C   UNL     1       0.462   0.783   1.169  1.00  0.00     0.047 C 
ATOM     17  C   UNL     1       0.400   2.224   0.617  1.00  0.00    -0.005 C 
ATOM     18  C   UNL     1       0.947   3.124   1.731  1.00  0.00     0.010 C 
ATOM     19  C   UNL     1      -1.019   2.618   0.217  1.00  0.00     0.008 C 
ATOM     20  C   UNL     1       1.126   2.223   2.946  1.00  0.00     0.065 C 
ENDBRANCH  11  14
ENDBRANCH   9  11
ENDBRANCH   7   9
ENDBRANCH   4   7
ENDBRANCH   2   3
ENDBRANCH   1   2
BRANCH   1  21
ATOM     21  C   UNL     1       7.212  -0.284   4.863  1.00  0.00     0.023 C 
BRANCH  21  22
ATOM     22  C   UNL     1       8.309  -1.326   4.696  1.00  0.00     0.116 C 
BRANCH  22  23
ATOM     23  N   UNL     1       8.777  -1.462   3.325  1.00  0.00    -0.352 N 
ATOM     24  C   UNL     1      10.061  -1.623   2.863  1.00  0.00     0.251 C 
ATOM     25  H   UNL     1       8.077  -1.435   2.633  1.00  0.00     0.163 HD
ATOM     26  O   UNL     1      10.290  -1.634   1.657  1.00  0.00    -0.269 OA
BRANCH  24  27
ATOM     27  C   UNL     1      11.173  -1.739   3.828  1.00  0.00     0.039 A 
ATOM     28  C   UNL     1      12.309  -0.949   3.641  1.00  0.00     0.014 A 
ATOM     29  C   UNL     1      11.081  -2.594   4.929  1.00  0.00     0.014 A 
ATOM     30  C   UNL     1      13.321  -0.957   4.602  1.00  0.00     0.010 A 
ATOM     31  C   UNL     1      12.054  -2.546   5.922  1.00  0.00     0.010 A 
ATOM     32  C   UNL     1      13.182  -1.724   5.769  1.00  0.00    -0.014 A 
BRANCH  32  33
ATOM     33  C   UNL     1      14.202  -1.681   6.846  1.00  0.00     0.031 A 
ATOM     34  C   UNL     1      14.990  -2.914   7.184  1.00  0.00     0.074 A 
ATOM     35  C   UNL     1      14.365  -0.553   7.565  1.00  0.00     0.049 A 
ATOM     36  N   UNL     1      15.861  -3.103   8.143  1.00  0.00    -0.248 NA
ATOM     37  C   UNL     1      14.746  -4.102   6.351  1.00  0.00     0.031 C 
ATOM     38  C   UNL     1      13.624   0.693   7.364  1.00  0.00     0.029 A 
ATOM     39  N   UNL     1      15.199  -0.278   8.620  1.00  0.00    -0.354 N 
ATOM     40  C   UNL     1      16.256  -4.430   8.036  1.00  0.00     0.074 A 
ATOM     41  C   UNL     1      15.492  -5.014   6.956  1.00  0.00     0.031 C 
ATOM     42  C   UNL     1      14.051   1.606   8.253  1.00  0.00     0.029 A 
ATOM     43  C   UNL     1      15.067   0.999   9.107  1.00  0.00     0.049 A 
ATOM     44  H   UNL     1      15.832  -0.934   8.991  1.00  0.00     0.167 HD
ATOM     45  C   UNL     1      17.191  -5.093   8.757  1.00  0.00     0.037 A 
ATOM     46  C   UNL     1      15.692   1.608  10.133  1.00  0.00     0.037 A 
ATOM     47  C   UNL     1      17.969  -4.502   9.813  1.00  0.00     0.049 A 
ATOM     48  C   UNL     1      16.725   0.848  10.918  1.00  0.00     0.074 A 
ATOM     49  C   UNL     1      18.975  -5.076  10.570  1.00  0.00     0.029 A 
ATOM     50  N   UNL     1      17.826  -3.197  10.261  1.00  0.00    -0.354 N 
ATOM     51  N   UNL     1      17.135  -0.388  10.768  1.00  0.00    -0.248 NA
ATOM     52  C   UNL     1      17.388   1.570  12.013  1.00  0.00     0.031 C 
ATOM     53  C   UNL     1      19.417  -4.129  11.500  1.00  0.00     0.029 A 
ATOM     54  C   UNL     1      18.716  -2.952  11.294  1.00  0.00     0.049 A 
ATOM     55  H   UNL     1      17.186  -2.542   9.899  1.00  0.00     0.167 HD
ATOM     56  C   UNL     1      18.121  -0.583  11.726  1.00  0.00     0.074 A 
ATOM     57  C   UNL     1      18.257   0.667  12.445  1.00  0.00     0.031 C 
ATOM     58  C   UNL     1      18.847  -1.697  11.988  1.00  0.00     0.037 A 
BRANCH  45  59
ATOM     59  C   UNL     1      17.431  -6.535   8.416  1.00  0.00     0.064 A 
ATOM     60  C   UNL     1      18.061  -6.909   7.220  1.00  0.00     0.173 A 
ATOM     61  C   UNL     1      17.056  -7.551   9.306  1.00  0.00     0.173 A 
ATOM     62  F   UNL     1      18.428  -5.975   6.329  1.00  0.00    -0.203 F 
ATOM     63  C   UNL     1      18.281  -8.249   6.914  1.00  0.00     0.198 A 
ATOM     64  C   UNL     1      17.303  -8.889   9.011  1.00  0.00     0.198 A 
ATOM     65  F   UNL     1      16.454  -7.247  10.466  1.00  0.00    -0.203 F 
ATOM     66  F   UNL     1      18.840  -8.585   5.743  1.00  0.00    -0.200 F 
ATOM     67  C   UNL     1      17.908  -9.238   7.812  1.00  0.00     0.200 A 
ATOM     68  F   UNL     1      16.953  -9.843   9.885  1.00  0.00    -0.200 F 
ATOM     69  F   UNL     1      18.125 -10.527   7.520  1.00  0.00    -0.200 F 
ENDBRANCH  45  59
BRANCH  46  70
ATOM     70  C   UNL     1      15.379   3.023  10.460  1.00  0.00     0.064 A 
ATOM     71  C   UNL     1      16.316   4.039  10.221  1.00  0.00     0.173 A 
ATOM     72  C   UNL     1      14.150   3.389  11.026  1.00  0.00     0.173 A 
ATOM     73  F   UNL     1      17.514   3.734   9.700  1.00  0.00    -0.203 F 
ATOM     74  C   UNL     1      16.044   5.363  10.556  1.00  0.00     0.198 A 
ATOM     75  C   UNL     1      13.868   4.718  11.336  1.00  0.00     0.198 A 
ATOM     76  F   UNL     1      13.218   2.456  11.270  1.00  0.00    -0.203 F 
ATOM     77  F   UNL     1      16.975   6.306  10.360  1.00  0.00    -0.200 F 
ATOM     78  C   UNL     1      14.818   5.703  11.109  1.00  0.00     0.200 A 
ATOM     79  F   UNL     1      12.678   5.045  11.858  1.00  0.00    -0.200 F 
ATOM     80  F   UNL     1      14.556   6.977  11.430  1.00  0.00    -0.200 F 
ENDBRANCH  46  70
BRANCH  58  81
ATOM     81  C   UNL     1      19.880  -1.603  13.071  1.00  0.00     0.064 A 
ATOM     82  C   UNL     1      19.523  -1.554  14.426  1.00  0.00     0.173 A 
ATOM     83  C   UNL     1      21.246  -1.602  12.749  1.00  0.00     0.173 A 
ATOM     84  F   UNL     1      18.230  -1.536  14.783  1.00  0.00    -0.203 F 
ATOM     85  C   UNL     1      20.497  -1.484  15.419  1.00  0.00     0.198 A 
ATOM     86  C   UNL     1      22.216  -1.560  13.745  1.00  0.00     0.198 A 
ATOM     87  F   UNL     1      21.638  -1.654  11.467  1.00  0.00    -0.203 F 
ATOM     88  F   UNL     1      20.133  -1.392  16.706  1.00  0.00    -0.200 F 
ATOM     89  C   UNL     1      21.841  -1.494  15.079  1.00  0.00     0.200 A 
ATOM     90  F   UNL     1      23.515  -1.582  13.415  1.00  0.00    -0.200 F 
ATOM     91  F   UNL     1      22.776  -1.433  16.036  1.00  0.00    -0.200 F 
ENDBRANCH  58  81
ENDBRANCH  32  33
ENDBRANCH  24  27
ENDBRANCH  22  23
ENDBRANCH  21  22
ENDBRANCH   1  21
TORSDOF 14
