REMARK SMILES O=C(COc1csc(C(=O)NCCCCNC(=O)c2ccc(-c3c4nc(c(-c5c(F)c(F)c(F)c(F)c5F)c5ccc([nH]5)c(-c5c(F)c(F)c(F)c(F)c5F)c5nc(c(-c6c(F)c(F)c(F)c(F)c6F)c6ccc3[nH]6)C=C5)C=C4)cc2)c1)Nc1nccs1
REMARK SMILES IDX 12 1 11 2 9 3 10 4 8 6 5 7 6 8 82 9 7 10 4 11 3 12 2 13 1 14
REMARK SMILES IDX 83 15 84 17 85 18 88 19 86 20 87 21 13 22 14 23 15 24 16 25
REMARK SMILES IDX 17 26 18 28 19 29 20 30 81 31 21 32 80 33 22 34 23 35 24 36
REMARK SMILES IDX 74 37 25 38 79 39 73 40 75 41 26 42 78 43 72 44 71 45 27 47
REMARK SMILES IDX 59 48 39 49 58 50 40 51 43 52 57 53 76 54 41 55 42 56 56 58
REMARK SMILES IDX 77 59 44 60 28 61 29 62 37 63 30 64 31 65 35 66 38 67 32 68
REMARK SMILES IDX 33 69 36 70 34 71 60 72 61 73 69 74 62 75 63 76 67 77 70 78
REMARK SMILES IDX 64 79 65 80 68 81 66 82 45 83 46 84 54 85 47 86 48 87 52 88
REMARK SMILES IDX 55 89 49 90 50 91 53 92 51 93
REMARK H PARENT 11 5 83 16 16 27 75 46 43 57
REMARK Flexibility Score: inf
ROOT
ATOM      1  C   UNL     1       4.915   5.044   4.138  1.00  0.00     0.116 C 
ENDROOT
BRANCH   1   2
ATOM      2  N   UNL     1       3.850   4.715   5.059  1.00  0.00    -0.351 N 
ATOM      3  C   UNL     1       2.839   3.787   5.010  1.00  0.00     0.261 C 
ATOM      4  O   UNL     1       2.082   3.809   5.986  1.00  0.00    -0.268 OA
ATOM      5  H   UNL     1       3.850   5.261   5.878  1.00  0.00     0.163 HD
BRANCH   3   6
ATOM      6  C   UNL     1       2.710   2.832   3.914  1.00  0.00     0.096 A 
ATOM      7  C   UNL     1       2.969   1.533   1.986  1.00  0.00     0.131 A 
ATOM      8  C   UNL     1       2.090   0.753   2.694  1.00  0.00     0.112 A 
ATOM      9  C   UNL     1       3.266   2.753   2.648  1.00  0.00     0.072 A 
ATOM     10  S   UNL     1       1.656   1.484   4.174  1.00  0.00    -0.135 S 
BRANCH   7  11
ATOM     11  O   UNL     1       3.589   1.142   0.846  1.00  0.00    -0.483 OA
BRANCH  11  12
ATOM     12  C   UNL     1       2.727   1.131  -0.289  1.00  0.00     0.329 C 
BRANCH  12  13
ATOM     13  C   UNL     1       1.958  -0.179  -0.468  1.00  0.00     0.264 C 
ATOM     14  O   UNL     1       0.893  -0.200  -1.075  1.00  0.00    -0.271 OA
ATOM     15  N   UNL     1       2.618  -1.244   0.107  1.00  0.00    -0.299 N 
ATOM     16  H   UNL     1       3.545  -1.118   0.413  1.00  0.00     0.172 HD
BRANCH  15  17
ATOM     17  C   UNL     1       2.036  -2.466   0.270  1.00  0.00     0.189 A 
ATOM     18  N   UNL     1       0.875  -2.896  -0.146  1.00  0.00    -0.229 NA
ATOM     19  S   UNL     1       2.945  -3.539   1.241  1.00  0.00    -0.105 S 
ATOM     20  C   UNL     1       0.656  -4.165   0.349  1.00  0.00     0.125 A 
ATOM     21  C   UNL     1       1.660  -4.674   1.146  1.00  0.00     0.088 A 
ENDBRANCH  15  17
ENDBRANCH  12  13
ENDBRANCH  11  12
ENDBRANCH   7  11
ENDBRANCH   3   6
ENDBRANCH   1   2
BRANCH   1  22
ATOM     22  C   UNL     1       4.509   6.222   3.253  1.00  0.00     0.023 C 
BRANCH  22  23
ATOM     23  C   UNL     1       4.635   7.581   3.951  1.00  0.00     0.023 C 
BRANCH  23  24
ATOM     24  C   UNL     1       6.038   7.919   4.447  1.00  0.00     0.116 C 
BRANCH  24  25
ATOM     25  N   UNL     1       7.047   7.845   3.403  1.00  0.00    -0.352 N 
ATOM     26  C   UNL     1       8.165   8.623   3.229  1.00  0.00     0.251 C 
ATOM     27  H   UNL     1       6.911   7.140   2.730  1.00  0.00     0.163 HD
ATOM     28  O   UNL     1       8.848   8.508   2.221  1.00  0.00    -0.269 OA
BRANCH  26  29
ATOM     29  C   UNL     1       8.515   9.628   4.254  1.00  0.00     0.039 A 
ATOM     30  C   UNL     1       8.861  10.914   3.838  1.00  0.00     0.014 A 
ATOM     31  C   UNL     1       8.491   9.306   5.614  1.00  0.00     0.014 A 
ATOM     32  C   UNL     1       9.138  11.893   4.793  1.00  0.00     0.010 A 
ATOM     33  C   UNL     1       8.684  10.303   6.564  1.00  0.00     0.010 A 
ATOM     34  C   UNL     1       9.026  11.603   6.163  1.00  0.00    -0.014 A 
BRANCH  34  35
ATOM     35  C   UNL     1       9.286  12.652   7.180  1.00  0.00     0.031 A 
ATOM     36  C   UNL     1      10.438  12.511   8.136  1.00  0.00     0.074 A 
ATOM     37  C   UNL     1       8.469  13.720   7.257  1.00  0.00     0.049 A 
ATOM     38  N   UNL     1      10.842  13.332   9.073  1.00  0.00    -0.248 NA
ATOM     39  C   UNL     1      11.227  11.273   8.046  1.00  0.00     0.031 C 
ATOM     40  C   UNL     1       7.285  13.939   6.425  1.00  0.00     0.029 A 
ATOM     41  N   UNL     1       8.516  14.825   8.067  1.00  0.00    -0.354 N 
ATOM     42  C   UNL     1      11.924  12.709   9.681  1.00  0.00     0.074 A 
ATOM     43  C   UNL     1      12.069  11.412   9.059  1.00  0.00     0.031 C 
ATOM     44  C   UNL     1       6.743  15.127   6.737  1.00  0.00     0.029 A 
ATOM     45  C   UNL     1       7.521  15.737   7.811  1.00  0.00     0.049 A 
ATOM     46  H   UNL     1       9.197  14.953   8.766  1.00  0.00     0.167 HD
ATOM     47  C   UNL     1      12.746  13.188  10.646  1.00  0.00     0.037 A 
ATOM     48  C   UNL     1       7.273  16.934   8.373  1.00  0.00     0.037 A 
ATOM     49  C   UNL     1      12.603  14.485  11.255  1.00  0.00     0.049 A 
ATOM     50  C   UNL     1       8.199  17.442   9.446  1.00  0.00     0.074 A 
ATOM     51  C   UNL     1      13.402  15.083  12.214  1.00  0.00     0.029 A 
ATOM     52  N   UNL     1      11.587  15.385  10.965  1.00  0.00    -0.354 N 
ATOM     53  N   UNL     1       9.265  16.878   9.960  1.00  0.00    -0.248 NA
ATOM     54  C   UNL     1       7.893  18.766  10.005  1.00  0.00     0.031 C 
ATOM     55  C   UNL     1      12.841  16.322  12.540  1.00  0.00     0.029 A 
ATOM     56  C   UNL     1      11.729  16.526  11.739  1.00  0.00     0.049 A 
ATOM     57  H   UNL     1      10.871  15.235  10.306  1.00  0.00     0.167 HD
ATOM     58  C   UNL     1       9.778  17.791  10.873  1.00  0.00     0.074 A 
ATOM     59  C   UNL     1       8.915  18.953  10.826  1.00  0.00     0.031 C 
ATOM     60  C   UNL     1      10.865  17.678  11.677  1.00  0.00     0.037 A 
BRANCH  47  61
ATOM     61  C   UNL     1      13.873  12.301  11.095  1.00  0.00     0.064 A 
ATOM     62  C   UNL     1      14.945  11.984  10.246  1.00  0.00     0.173 A 
ATOM     63  C   UNL     1      13.892  11.773  12.395  1.00  0.00     0.173 A 
ATOM     64  F   UNL     1      14.971  12.451   8.988  1.00  0.00    -0.203 F 
ATOM     65  C   UNL     1      15.972  11.143  10.667  1.00  0.00     0.198 A 
ATOM     66  C   UNL     1      14.939  10.961  12.825  1.00  0.00     0.198 A 
ATOM     67  F   UNL     1      12.896  12.045  13.251  1.00  0.00    -0.203 F 
ATOM     68  F   UNL     1      16.951  10.805   9.816  1.00  0.00    -0.200 F 
ATOM     69  C   UNL     1      15.972  10.638  11.958  1.00  0.00     0.200 A 
ATOM     70  F   UNL     1      14.945  10.485  14.077  1.00  0.00    -0.200 F 
ATOM     71  F   UNL     1      16.963   9.832  12.363  1.00  0.00    -0.200 F 
ENDBRANCH  47  61
BRANCH  48  72
ATOM     72  C   UNL     1       6.130  17.759   7.900  1.00  0.00     0.064 A 
ATOM     73  C   UNL     1       6.346  18.961   7.210  1.00  0.00     0.173 A 
ATOM     74  C   UNL     1       4.803  17.373   8.136  1.00  0.00     0.173 A 
ATOM     75  F   UNL     1       7.598  19.382   6.975  1.00  0.00    -0.203 F 
ATOM     76  C   UNL     1       5.280  19.760   6.802  1.00  0.00     0.198 A 
ATOM     77  C   UNL     1       3.737  18.157   7.699  1.00  0.00     0.198 A 
ATOM     78  F   UNL     1       4.541  16.229   8.784  1.00  0.00    -0.203 F 
ATOM     79  F   UNL     1       5.517  20.930   6.194  1.00  0.00    -0.200 F 
ATOM     80  C   UNL     1       3.976  19.355   7.042  1.00  0.00     0.200 A 
ATOM     81  F   UNL     1       2.478  17.754   7.918  1.00  0.00    -0.200 F 
ATOM     82  F   UNL     1       2.951  20.122   6.648  1.00  0.00    -0.200 F 
ENDBRANCH  48  72
BRANCH  60  83
ATOM     83  C   UNL     1      11.209  18.866  12.531  1.00  0.00     0.064 A 
ATOM     84  C   UNL     1      10.398  19.270  13.603  1.00  0.00     0.173 A 
ATOM     85  C   UNL     1      12.371  19.610  12.273  1.00  0.00     0.173 A 
ATOM     86  F   UNL     1       9.270  18.602  13.887  1.00  0.00    -0.203 F 
ATOM     87  C   UNL     1      10.712  20.402  14.351  1.00  0.00     0.198 A 
ATOM     88  C   UNL     1      12.702  20.718  13.047  1.00  0.00     0.198 A 
ATOM     89  F   UNL     1      13.188  19.261  11.268  1.00  0.00    -0.203 F 
ATOM     90  F   UNL     1       9.884  20.811  15.322  1.00  0.00    -0.200 F 
ATOM     91  C   UNL     1      11.865  21.122  14.076  1.00  0.00     0.200 A 
ATOM     92  F   UNL     1      13.826  21.401  12.791  1.00  0.00    -0.200 F 
ATOM     93  F   UNL     1      12.164  22.212  14.795  1.00  0.00    -0.200 F 
ENDBRANCH  60  83
ENDBRANCH  34  35
ENDBRANCH  26  29
ENDBRANCH  24  25
ENDBRANCH  23  24
ENDBRANCH  22  23
ENDBRANCH   1  22
TORSDOF 15
