REMARK SMILES COc1ccc(C[N@@H+]2C[C@@H](C(=O)NCCCCNC(=O)c3ccc(-c4c5nc(c(-c6c(F)c(F)c(F)c(F)c6F)c6ccc([nH]6)c(-c6c(F)c(F)c(F)c(F)c6F)c6nc(c(-c7c(F)c(F)c(F)c(F)c7F)c7ccc4[nH]7)C=C6)C=C5)cc3)[C@H](c3ccccc3OC)C2)c(OC)c1
REMARK SMILES IDX 15 1 14 2 13 3 11 4 12 5 10 7 8 8 9 9 93 10 84 12 7 13 6 14
REMARK SMILES IDX 3 15 4 16 97 17 5 18 94 19 2 20 1 21 95 22 96 23 85 24 86 25
REMARK SMILES IDX 90 26 87 27 89 28 88 29 91 30 92 31 16 32 17 33 18 34 19 35
REMARK SMILES IDX 20 37 21 38 22 39 83 40 23 41 82 42 24 43 25 44 26 45 76 46
REMARK SMILES IDX 27 47 81 48 75 49 77 50 28 51 80 52 74 53 73 54 29 56 61 57
REMARK SMILES IDX 41 58 60 59 42 60 45 61 59 62 78 63 43 64 44 65 58 67 79 68
REMARK SMILES IDX 46 69 30 70 31 71 39 72 32 73 33 74 37 75 40 76 34 77 35 78
REMARK SMILES IDX 38 79 36 80 62 81 63 82 71 83 64 84 65 85 69 86 72 87 66 88
REMARK SMILES IDX 67 89 70 90 68 91 47 92 48 93 56 94 49 95 50 96 54 97 57 98
REMARK SMILES IDX 51 99 52 100 55 101 53 102
REMARK H PARENT 13 6 8 11 18 36 77 55 45 66
REMARK Flexibility Score: inf
ROOT
ATOM      1  C   UNL     1      -2.658  -2.583  -7.706  1.00  0.00     0.023 C 
ENDROOT
BRANCH   1   2
ATOM      2  C   UNL     1      -2.262  -2.622  -6.228  1.00  0.00     0.116 C 
BRANCH   2   3
ATOM      3  N   UNL     1      -2.018  -3.998  -5.840  1.00  0.00    -0.356 N 
ATOM      4  C   UNL     1      -0.821  -4.675  -5.792  1.00  0.00     0.229 C 
ATOM      5  O   UNL     1      -0.849  -5.899  -5.891  1.00  0.00    -0.275 OA
ATOM      6  H   UNL     1      -2.813  -4.516  -5.577  1.00  0.00     0.163 HD
BRANCH   4   7
ATOM      7  C   UNL     1       0.451  -3.872  -5.580  1.00  0.00     0.146 C 
ATOM      8  N   UNL     1       2.177  -2.769  -6.793  1.00  0.00    -0.330 N 
ATOM      9  C   UNL     1       0.804  -3.212  -6.917  1.00  0.00     0.276 C 
ATOM     10  C   UNL     1       2.822  -3.850  -6.045  1.00  0.00     0.272 C 
ATOM     11  H   UNL     1       2.606  -2.626  -7.707  1.00  0.00     0.348 HD
ATOM     12  C   UNL     1       1.751  -4.646  -5.211  1.00  0.00     0.096 C 
BRANCH   8  13
ATOM     13  C   UNL     1       2.380  -1.402  -6.252  1.00  0.00     0.303 C 
BRANCH  13  14
ATOM     14  C   UNL     1       1.990  -1.096  -4.812  1.00  0.00     0.048 A 
ATOM     15  C   UNL     1       1.124  -0.852  -2.146  1.00  0.00     0.122 A 
ATOM     16  C   UNL     1       0.230  -0.632  -3.185  1.00  0.00     0.047 A 
ATOM     17  C   UNL     1       2.465  -1.114  -2.420  1.00  0.00     0.093 A 
ATOM     18  C   UNL     1       0.671  -0.715  -4.507  1.00  0.00     0.017 A 
ATOM     19  C   UNL     1       2.907  -1.193  -3.749  1.00  0.00     0.131 A 
BRANCH  15  20
ATOM     20  O   UNL     1       0.611  -0.906  -0.878  1.00  0.00    -0.497 OA
ATOM     21  C   UNL     1       1.152   0.104  -0.031  1.00  0.00     0.278 C 
ENDBRANCH  15  20
BRANCH  19  22
ATOM     22  O   UNL     1       4.222  -1.406  -4.079  1.00  0.00    -0.496 OA
ATOM     23  C   UNL     1       5.164  -0.771  -3.218  1.00  0.00     0.278 C 
ENDBRANCH  19  22
ENDBRANCH  13  14
ENDBRANCH   8  13
BRANCH  12  24
ATOM     24  C   UNL     1       2.198  -4.856  -3.749  1.00  0.00     0.004 A 
ATOM     25  C   UNL     1       3.587  -4.858  -3.462  1.00  0.00     0.008 A 
ATOM     26  C   UNL     1       1.367  -5.205  -2.670  1.00  0.00     0.122 A 
ATOM     27  C   UNL     1       4.112  -5.018  -2.179  1.00  0.00     0.001 A 
ATOM     28  C   UNL     1       1.888  -5.363  -1.366  1.00  0.00     0.047 A 
ATOM     29  C   UNL     1       3.256  -5.238  -1.116  1.00  0.00     0.004 A 
BRANCH  26  30
ATOM     30  O   UNL     1       0.125  -5.736  -2.899  1.00  0.00    -0.496 OA
ATOM     31  C   UNL     1      -0.950  -4.835  -2.689  1.00  0.00     0.278 C 
ENDBRANCH  26  30
ENDBRANCH  12  24
ENDBRANCH   4   7
ENDBRANCH   2   3
ENDBRANCH   1   2
BRANCH   1  32
ATOM     32  C   UNL     1      -4.130  -2.932  -7.921  1.00  0.00     0.023 C 
BRANCH  32  33
ATOM     33  C   UNL     1      -5.090  -1.905  -7.339  1.00  0.00     0.116 C 
BRANCH  33  34
ATOM     34  N   UNL     1      -4.913  -0.584  -7.926  1.00  0.00    -0.352 N 
ATOM     35  C   UNL     1      -5.879   0.296  -8.329  1.00  0.00     0.251 C 
ATOM     36  H   UNL     1      -3.982  -0.288  -8.047  1.00  0.00     0.163 HD
ATOM     37  O   UNL     1      -5.582   1.306  -8.970  1.00  0.00    -0.269 OA
BRANCH  35  38
ATOM     38  C   UNL     1      -7.285   0.010  -8.003  1.00  0.00     0.039 A 
ATOM     39  C   UNL     1      -8.250   0.125  -9.002  1.00  0.00     0.014 A 
ATOM     40  C   UNL     1      -7.636  -0.402  -6.713  1.00  0.00     0.014 A 
ATOM     41  C   UNL     1      -9.574  -0.196  -8.710  1.00  0.00     0.010 A 
ATOM     42  C   UNL     1      -8.934  -0.815  -6.453  1.00  0.00     0.010 A 
ATOM     43  C   UNL     1      -9.922  -0.681  -7.438  1.00  0.00    -0.014 A 
BRANCH  43  44
ATOM     44  C   UNL     1     -11.332  -0.987  -7.106  1.00  0.00     0.031 A 
ATOM     45  C   UNL     1     -12.046  -0.173  -6.062  1.00  0.00     0.074 A 
ATOM     46  C   UNL     1     -11.961  -1.997  -7.733  1.00  0.00     0.049 A 
ATOM     47  N   UNL     1     -13.287  -0.251  -5.656  1.00  0.00    -0.248 NA
ATOM     48  C   UNL     1     -11.249   0.844  -5.358  1.00  0.00     0.031 C 
ATOM     49  C   UNL     1     -11.354  -2.886  -8.725  1.00  0.00     0.029 A 
ATOM     50  N   UNL     1     -13.256  -2.436  -7.639  1.00  0.00    -0.354 N 
ATOM     51  C   UNL     1     -13.414   0.702  -4.654  1.00  0.00     0.074 A 
ATOM     52  C   UNL     1     -12.106   1.281  -4.450  1.00  0.00     0.031 C 
ATOM     53  C   UNL     1     -12.291  -3.728  -9.189  1.00  0.00     0.029 A 
ATOM     54  C   UNL     1     -13.552  -3.458  -8.506  1.00  0.00     0.049 A 
ATOM     55  H   UNL     1     -13.911  -2.055  -7.010  1.00  0.00     0.167 HD
ATOM     56  C   UNL     1     -14.529   1.091  -3.991  1.00  0.00     0.037 A 
ATOM     57  C   UNL     1     -14.720  -4.088  -8.734  1.00  0.00     0.037 A 
ATOM     58  C   UNL     1     -15.829   0.513  -4.205  1.00  0.00     0.049 A 
ATOM     59  C   UNL     1     -15.942  -3.653  -7.972  1.00  0.00     0.074 A 
ATOM     60  C   UNL     1     -17.033   0.843  -3.609  1.00  0.00     0.029 A 
ATOM     61  N   UNL     1     -16.090  -0.527  -5.088  1.00  0.00    -0.354 N 
ATOM     62  N   UNL     1     -16.071  -2.703  -7.077  1.00  0.00    -0.248 NA
ATOM     63  C   UNL     1     -17.188  -4.371  -8.269  1.00  0.00     0.031 C 
ATOM     64  C   UNL     1     -18.013  -0.030  -4.096  1.00  0.00     0.029 A 
ATOM     65  C   UNL     1     -17.434  -0.861  -5.042  1.00  0.00     0.049 A 
ATOM     66  H   UNL     1     -15.419  -0.962  -5.662  1.00  0.00     0.167 HD
ATOM     67  C   UNL     1     -17.416  -2.679  -6.736  1.00  0.00     0.074 A 
ATOM     68  C   UNL     1     -18.063  -3.704  -7.529  1.00  0.00     0.031 C 
ATOM     69  C   UNL     1     -18.061  -1.877  -5.851  1.00  0.00     0.037 A 
BRANCH  56  70
ATOM     70  C   UNL     1     -14.373   2.190  -2.977  1.00  0.00     0.064 A 
ATOM     71  C   UNL     1     -14.025   3.498  -3.355  1.00  0.00     0.173 A 
ATOM     72  C   UNL     1     -14.552   1.933  -1.610  1.00  0.00     0.173 A 
ATOM     73  F   UNL     1     -13.825   3.797  -4.648  1.00  0.00    -0.203 F 
ATOM     74  C   UNL     1     -13.811   4.490  -2.402  1.00  0.00     0.198 A 
ATOM     75  C   UNL     1     -14.376   2.938  -0.661  1.00  0.00     0.198 A 
ATOM     76  F   UNL     1     -14.889   0.705  -1.189  1.00  0.00    -0.203 F 
ATOM     77  F   UNL     1     -13.400   5.707  -2.784  1.00  0.00    -0.200 F 
ATOM     78  C   UNL     1     -13.991   4.211  -1.056  1.00  0.00     0.200 A 
ATOM     79  F   UNL     1     -14.563   2.671   0.638  1.00  0.00    -0.200 F 
ATOM     80  F   UNL     1     -13.779   5.164  -0.139  1.00  0.00    -0.200 F 
ENDBRANCH  56  70
BRANCH  57  81
ATOM     81  C   UNL     1     -14.802  -5.141  -9.779  1.00  0.00     0.064 A 
ATOM     82  C   UNL     1     -15.513  -4.915 -10.967  1.00  0.00     0.173 A 
ATOM     83  C   UNL     1     -14.176  -6.385  -9.620  1.00  0.00     0.173 A 
ATOM     84  F   UNL     1     -16.142  -3.747 -11.159  1.00  0.00    -0.203 F 
ATOM     85  C   UNL     1     -15.612  -5.902 -11.946  1.00  0.00     0.198 A 
ATOM     86  C   UNL     1     -14.252  -7.360 -10.612  1.00  0.00     0.198 A 
ATOM     87  F   UNL     1     -13.477  -6.648  -8.506  1.00  0.00    -0.203 F 
ATOM     88  F   UNL     1     -16.335  -5.675 -13.051  1.00  0.00    -0.200 F 
ATOM     89  C   UNL     1     -14.977  -7.121 -11.770  1.00  0.00     0.200 A 
ATOM     90  F   UNL     1     -13.623  -8.532 -10.446  1.00  0.00    -0.200 F 
ATOM     91  F   UNL     1     -15.069  -8.068 -12.714  1.00  0.00    -0.200 F 
ENDBRANCH  57  81
BRANCH  69  92
ATOM     92  C   UNL     1     -19.551  -2.037  -5.742  1.00  0.00     0.064 A 
ATOM     93  C   UNL     1     -20.139  -3.182  -5.184  1.00  0.00     0.173 A 
ATOM     94  C   UNL     1     -20.402  -1.016  -6.194  1.00  0.00     0.173 A 
ATOM     95  F   UNL     1     -19.371  -4.191  -4.748  1.00  0.00    -0.203 F 
ATOM     96  C   UNL     1     -21.524  -3.317  -5.124  1.00  0.00     0.198 A 
ATOM     97  C   UNL     1     -21.785  -1.139  -6.097  1.00  0.00     0.198 A 
ATOM     98  F   UNL     1     -19.892   0.105  -6.726  1.00  0.00    -0.203 F 
ATOM     99  F   UNL     1     -22.064  -4.449  -4.650  1.00  0.00    -0.200 F 
ATOM    100  C   UNL     1     -22.345  -2.294  -5.575  1.00  0.00     0.200 A 
ATOM    101  F   UNL     1     -22.576  -0.142  -6.517  1.00  0.00    -0.200 F 
ATOM    102  F   UNL     1     -23.677  -2.427  -5.515  1.00  0.00    -0.200 F 
ENDBRANCH  69  92
ENDBRANCH  43  44
ENDBRANCH  35  38
ENDBRANCH  33  34
ENDBRANCH  32  33
ENDBRANCH   1  32
TORSDOF 17
