REMARK SMILES CCc1ccc(Oc2ncnc(N3CCC(C(=O)NCCCCNC(=O)c4ccc(-c5c6nc(c(-c7c(F)c(F)c(F)c(F)c7F)c7ccc([nH]7)c(-c7c(F)c(F)c(F)c(F)c7F)c7nc(c(-c8c(F)c(F)c(F)c(F)c8F)c8ccc5[nH]8)C=C7)C=C6)cc4)CC3)c2[N+](=O)[O-])cc1
REMARK SMILES IDX 20 1 19 2 17 3 18 4 16 6 13 7 14 8 91 9 15 10 90 11 12 12
REMARK SMILES IDX 8 13 9 14 92 15 10 16 11 17 7 18 6 19 3 20 4 21 97 22 5 23
REMARK SMILES IDX 96 24 2 25 1 26 93 27 94 28 95 29 21 30 22 31 23 32 24 33
REMARK SMILES IDX 25 34 26 36 27 37 28 38 89 39 29 40 88 41 30 42 31 43 32 44
REMARK SMILES IDX 82 45 33 46 87 47 81 48 83 49 34 50 86 51 80 52 79 53 35 55
REMARK SMILES IDX 67 56 47 57 66 58 48 59 51 60 65 61 84 62 49 63 50 64 64 66
REMARK SMILES IDX 85 67 52 68 36 69 37 70 45 71 38 72 39 73 43 74 46 75 40 76
REMARK SMILES IDX 41 77 44 78 42 79 68 80 69 81 77 82 70 83 71 84 75 85 78 86
REMARK SMILES IDX 72 87 73 88 76 89 74 90 53 91 54 92 62 93 55 94 56 95 60 96
REMARK SMILES IDX 63 97 57 98 58 99 61 100 59 101
REMARK H PARENT 19 5 24 35 83 54 51 65
REMARK Flexibility Score: inf
ROOT
ATOM      1  C   UNL     1       1.070  -1.947  12.091  1.00  0.00     0.116 C 
ENDROOT
BRANCH   1   2
ATOM      2  N   UNL     1       0.097  -0.962  12.538  1.00  0.00    -0.356 N 
ATOM      3  C   UNL     1      -0.725  -0.140  11.824  1.00  0.00     0.223 C 
ATOM      4  O   UNL     1      -1.456   0.630  12.450  1.00  0.00    -0.275 OA
ATOM      5  H   UNL     1       0.019  -0.874  13.515  1.00  0.00     0.163 HD
BRANCH   3   6
ATOM      6  C   UNL     1      -0.767  -0.184  10.303  1.00  0.00     0.082 C 
ATOM      7  N   UNL     1       0.382  -1.619   8.155  1.00  0.00    -0.351 N 
ATOM      8  C   UNL     1       0.817  -0.234   8.282  1.00  0.00     0.119 C 
ATOM      9  C   UNL     1      -1.031  -1.864   8.389  1.00  0.00     0.119 C 
ATOM     10  C   UNL     1       0.583   0.248   9.703  1.00  0.00     0.035 C 
ATOM     11  C   UNL     1      -1.343  -1.535   9.840  1.00  0.00     0.035 C 
BRANCH   7  12
ATOM     12  C   UNL     1       1.212  -2.472   7.469  1.00  0.00     0.215 A 
ATOM     13  C   UNL     1       1.918  -3.853   5.674  1.00  0.00     0.305 A 
ATOM     14  N   UNL     1       3.104  -4.091   6.268  1.00  0.00    -0.195 NA
ATOM     15  C   UNL     1       0.928  -3.096   6.268  1.00  0.00     0.373 A 
ATOM     16  C   UNL     1       3.292  -3.488   7.443  1.00  0.00     0.228 A 
ATOM     17  N   UNL     1       2.419  -2.671   8.051  1.00  0.00    -0.212 NA
BRANCH  13  18
ATOM     18  O   UNL     1       1.792  -4.450   4.441  1.00  0.00    -0.434 OA
BRANCH  18  19
ATOM     19  C   UNL     1       1.646  -3.636   3.337  1.00  0.00     0.129 A 
ATOM     20  C   UNL     1       1.053  -2.108   1.045  1.00  0.00    -0.048 A 
ATOM     21  C   UNL     1       0.790  -3.487   1.081  1.00  0.00     0.007 A 
ATOM     22  C   UNL     1       1.673  -1.522   2.155  1.00  0.00     0.007 A 
ATOM     23  C   UNL     1       1.083  -4.244   2.217  1.00  0.00     0.047 A 
ATOM     24  C   UNL     1       1.992  -2.284   3.284  1.00  0.00     0.047 A 
BRANCH  20  25
ATOM     25  C   UNL     1       0.621  -1.331  -0.178  1.00  0.00     0.032 C 
ATOM     26  C   UNL     1       0.993   0.146  -0.221  1.00  0.00     0.009 C 
ENDBRANCH  20  25
ENDBRANCH  18  19
ENDBRANCH  13  18
BRANCH  15  27
ATOM     27  N   UNL     1      -0.321  -2.905   5.606  1.00  0.00     0.072 N 
ATOM     28  O   UNL     1      -0.593  -1.762   5.212  1.00  0.00    -0.258 OA
ATOM     29  O   UNL     1      -1.059  -3.894   5.502  1.00  0.00    -0.258 OA
ENDBRANCH  15  27
ENDBRANCH   7  12
ENDBRANCH   3   6
ENDBRANCH   1   2
BRANCH   1  30
ATOM     30  C   UNL     1       2.492  -1.562  12.494  1.00  0.00     0.023 C 
BRANCH  30  31
ATOM     31  C   UNL     1       2.754  -1.585  13.999  1.00  0.00     0.023 C 
BRANCH  31  32
ATOM     32  C   UNL     1       2.430  -2.904  14.689  1.00  0.00     0.116 C 
BRANCH  32  33
ATOM     33  N   UNL     1       3.157  -4.034  14.131  1.00  0.00    -0.352 N 
ATOM     34  C   UNL     1       3.826  -5.039  14.786  1.00  0.00     0.251 C 
ATOM     35  H   UNL     1       3.172  -4.085  13.148  1.00  0.00     0.163 HD
ATOM     36  O   UNL     1       4.502  -5.848  14.158  1.00  0.00    -0.269 OA
BRANCH  34  37
ATOM     37  C   UNL     1       3.755  -5.118  16.259  1.00  0.00     0.039 A 
ATOM     38  C   UNL     1       4.938  -5.291  16.982  1.00  0.00     0.014 A 
ATOM     39  C   UNL     1       2.533  -4.993  16.924  1.00  0.00     0.014 A 
ATOM     40  C   UNL     1       4.902  -5.267  18.377  1.00  0.00     0.010 A 
ATOM     41  C   UNL     1       2.509  -4.890  18.311  1.00  0.00     0.010 A 
ATOM     42  C   UNL     1       3.693  -5.028  19.051  1.00  0.00    -0.014 A 
BRANCH  42  43
ATOM     43  C   UNL     1       3.647  -4.918  20.531  1.00  0.00     0.031 A 
ATOM     44  C   UNL     1       2.864  -5.916  21.337  1.00  0.00     0.074 A 
ATOM     45  C   UNL     1       4.255  -3.882  21.142  1.00  0.00     0.049 A 
ATOM     46  N   UNL     1       2.651  -5.954  22.628  1.00  0.00    -0.248 NA
ATOM     47  C   UNL     1       2.211  -7.002  20.590  1.00  0.00     0.031 C 
ATOM     48  C   UNL     1       5.000  -2.820  20.465  1.00  0.00     0.029 A 
ATOM     49  N   UNL     1       4.334  -3.548  22.471  1.00  0.00    -0.354 N 
ATOM     50  C   UNL     1       1.831  -7.053  22.843  1.00  0.00     0.074 A 
ATOM     51  C   UNL     1       1.537  -7.622  21.546  1.00  0.00     0.031 C 
ATOM     52  C   UNL     1       5.482  -1.968  21.384  1.00  0.00     0.029 A 
ATOM     53  C   UNL     1       5.049  -2.400  22.709  1.00  0.00     0.049 A 
ATOM     54  H   UNL     1       3.917  -4.081  23.186  1.00  0.00     0.167 HD
ATOM     55  C   UNL     1       1.386  -7.559  24.018  1.00  0.00     0.037 A 
ATOM     56  C   UNL     1       5.321  -1.767  23.866  1.00  0.00     0.037 A 
ATOM     57  C   UNL     1       1.701  -7.004  25.308  1.00  0.00     0.049 A 
ATOM     58  C   UNL     1       4.810  -2.347  25.157  1.00  0.00     0.074 A 
ATOM     59  C   UNL     1       1.347  -7.476  26.560  1.00  0.00     0.029 A 
ATOM     60  N   UNL     1       2.445  -5.851  25.511  1.00  0.00    -0.354 N 
ATOM     61  N   UNL     1       4.095  -3.428  25.354  1.00  0.00    -0.248 NA
ATOM     62  C   UNL     1       5.151  -1.621  26.389  1.00  0.00     0.031 C 
ATOM     63  C   UNL     1       1.838  -6.582  27.518  1.00  0.00     0.029 A 
ATOM     64  C   UNL     1       2.543  -5.583  26.867  1.00  0.00     0.049 A 
ATOM     65  H   UNL     1       2.844  -5.303  24.796  1.00  0.00     0.167 HD
ATOM     66  C   UNL     1       3.927  -3.530  26.728  1.00  0.00     0.074 A 
ATOM     67  C   UNL     1       4.628  -2.408  27.318  1.00  0.00     0.031 C 
ATOM     68  C   UNL     1       3.253  -4.468  27.438  1.00  0.00     0.037 A 
BRANCH  55  69
ATOM     69  C   UNL     1       0.513  -8.780  23.961  1.00  0.00     0.064 A 
ATOM     70  C   UNL     1       1.022 -10.030  23.576  1.00  0.00     0.173 A 
ATOM     71  C   UNL     1      -0.839  -8.707  24.327  1.00  0.00     0.173 A 
ATOM     72  F   UNL     1       2.305 -10.152  23.205  1.00  0.00    -0.203 F 
ATOM     73  C   UNL     1       0.202 -11.155  23.530  1.00  0.00     0.198 A 
ATOM     74  C   UNL     1      -1.648  -9.841  24.311  1.00  0.00     0.198 A 
ATOM     75  F   UNL     1      -1.376  -7.538  24.709  1.00  0.00    -0.203 F 
ATOM     76  F   UNL     1       0.698 -12.326  23.108  1.00  0.00    -0.200 F 
ATOM     77  C   UNL     1      -1.130 -11.061  23.904  1.00  0.00     0.200 A 
ATOM     78  F   UNL     1      -2.932  -9.751  24.686  1.00  0.00    -0.200 F 
ATOM     79  F   UNL     1      -1.915 -12.146  23.866  1.00  0.00    -0.200 F 
ENDBRANCH  55  69
BRANCH  56  80
ATOM     80  C   UNL     1       6.140  -0.526  23.860  1.00  0.00     0.064 A 
ATOM     81  C   UNL     1       7.435  -0.519  24.398  1.00  0.00     0.173 A 
ATOM     82  C   UNL     1       5.648   0.674  23.328  1.00  0.00     0.173 A 
ATOM     83  F   UNL     1       7.942  -1.637  24.937  1.00  0.00    -0.203 F 
ATOM     84  C   UNL     1       8.197   0.647  24.424  1.00  0.00     0.198 A 
ATOM     85  C   UNL     1       6.423   1.832  23.328  1.00  0.00     0.198 A 
ATOM     86  F   UNL     1       4.418   0.719  22.797  1.00  0.00    -0.203 F 
ATOM     87  F   UNL     1       9.413   0.637  24.988  1.00  0.00    -0.200 F 
ATOM     88  C   UNL     1       7.693   1.820  23.884  1.00  0.00     0.200 A 
ATOM     89  F   UNL     1       5.937   2.960  22.793  1.00  0.00    -0.200 F 
ATOM     90  F   UNL     1       8.427   2.941  23.907  1.00  0.00    -0.200 F 
ENDBRANCH  56  80
BRANCH  68  91
ATOM     91  C   UNL     1       3.273  -4.344  28.934  1.00  0.00     0.064 A 
ATOM     92  C   UNL     1       2.562  -3.336  29.601  1.00  0.00     0.173 A 
ATOM     93  C   UNL     1       3.984  -5.272  29.712  1.00  0.00     0.173 A 
ATOM     94  F   UNL     1       1.880  -2.416  28.903  1.00  0.00    -0.203 F 
ATOM     95  C   UNL     1       2.584  -3.245  30.991  1.00  0.00     0.198 A 
ATOM     96  C   UNL     1       3.978  -5.197  31.101  1.00  0.00     0.198 A 
ATOM     97  F   UNL     1       4.675  -6.260  29.123  1.00  0.00    -0.203 F 
ATOM     98  F   UNL     1       1.939  -2.244  31.604  1.00  0.00    -0.200 F 
ATOM     99  C   UNL     1       3.285  -4.179  31.739  1.00  0.00     0.200 A 
ATOM    100  F   UNL     1       4.644  -6.108  31.823  1.00  0.00    -0.200 F 
ATOM    101  F   UNL     1       3.299  -4.093  33.076  1.00  0.00    -0.200 F 
ENDBRANCH  68  91
ENDBRANCH  42  43
ENDBRANCH  34  37
ENDBRANCH  32  33
ENDBRANCH  31  32
ENDBRANCH  30  31
ENDBRANCH   1  30
TORSDOF 16
