REMARK SMILES O=C(NCCCCNC(=O)[C@H]1O[C@@H](Oc2c(-c3cc(O)c(O)c(O)c3)oc3cc(O)cc(O)c3c2=O)[C@H](O)[C@@H](O)[C@@H]1O)c1ccc(-c2c3nc(c(-c4c(F)c(F)c(F)c(F)c4F)c4ccc([nH]4)c(-c4c(F)c(F)c(F)c(F)c4F)c4nc(c(-c5c(F)c(F)c(F)c(F)c5F)c5ccc2[nH]5)C=C4)C=C3)cc1
REMARK SMILES IDX 6 1 5 2 4 3 3 4 1 5 2 6 43 8 44 9 105 10 45 11 104 12 46 13
REMARK SMILES IDX 47 14 48 15 98 16 49 17 103 18 97 19 99 20 50 21 102 22
REMARK SMILES IDX 96 23 95 24 51 26 83 27 63 28 82 29 64 30 67 31 81 32 100 33
REMARK SMILES IDX 65 34 66 35 80 37 101 38 68 39 52 40 53 41 61 42 54 43 55 44
REMARK SMILES IDX 59 45 62 46 56 47 57 48 60 49 58 50 84 51 85 52 93 53 86 54
REMARK SMILES IDX 87 55 91 56 94 57 88 58 89 59 92 60 90 61 69 62 70 63 78 64
REMARK SMILES IDX 71 65 72 66 76 67 79 68 73 69 74 70 77 71 75 72 7 73 8 74
REMARK SMILES IDX 9 75 10 77 11 78 12 79 41 80 13 81 39 82 37 83 42 84 14 86
REMARK SMILES IDX 15 87 16 88 35 89 26 90 34 91 36 92 27 93 32 94 28 95 31 96
REMARK SMILES IDX 29 97 17 98 18 99 25 100 19 101 23 102 21 103 20 104 24 106
REMARK SMILES IDX 22 108 33 110 30 112 40 114 38 116
REMARK H PARENT 3 7 99 25 67 36 8 76 42 85 20 105 24 107 22 109 33 111 30 113
REMARK H PARENT 40 115 38 117
REMARK Flexibility Score: inf
ROOT
ATOM      1  C   UNL     1       2.550   8.766  -0.611  1.00  0.00     0.023 C 
ENDROOT
BRANCH   1   2
ATOM      2  C   UNL     1       1.761   8.524   0.675  1.00  0.00     0.023 C 
BRANCH   2   3
ATOM      3  C   UNL     1       2.388   9.093   1.943  1.00  0.00     0.116 C 
BRANCH   3   4
ATOM      4  N   UNL     1       2.535  10.542   1.908  1.00  0.00    -0.352 N 
ATOM      5  O   UNL     1       2.155  12.683   2.532  1.00  0.00    -0.269 OA
ATOM      6  C   UNL     1       2.033  11.486   2.773  1.00  0.00     0.251 C 
ATOM      7  H   UNL     1       3.069  10.895   1.159  1.00  0.00     0.163 HD
BRANCH   6   8
ATOM      8  C   UNL     1       1.318  11.043   3.986  1.00  0.00     0.039 A 
ATOM      9  C   UNL     1       1.883  10.071   4.814  1.00  0.00     0.014 A 
ATOM     10  C   UNL     1       0.057  11.572   4.274  1.00  0.00     0.014 A 
ATOM     11  C   UNL     1       1.121   9.513   5.832  1.00  0.00     0.010 A 
ATOM     12  C   UNL     1      -0.673  11.071   5.355  1.00  0.00     0.010 A 
ATOM     13  C   UNL     1      -0.162  10.012   6.120  1.00  0.00    -0.014 A 
BRANCH  13  14
ATOM     14  C   UNL     1      -0.912   9.441   7.267  1.00  0.00     0.031 A 
ATOM     15  C   UNL     1      -2.191   8.677   7.066  1.00  0.00     0.074 A 
ATOM     16  C   UNL     1      -0.392   9.582   8.501  1.00  0.00     0.049 A 
ATOM     17  N   UNL     1      -2.949   8.092   7.960  1.00  0.00    -0.248 NA
ATOM     18  C   UNL     1      -2.690   8.556   5.688  1.00  0.00     0.031 C 
ATOM     19  C   UNL     1       0.838  10.314   8.813  1.00  0.00     0.029 A 
ATOM     20  N   UNL     1      -0.810   9.102   9.715  1.00  0.00    -0.354 N 
ATOM     21  C   UNL     1      -4.020   7.552   7.259  1.00  0.00     0.074 A 
ATOM     22  C   UNL     1      -3.826   7.894   5.866  1.00  0.00     0.031 C 
ATOM     23  C   UNL     1       1.105  10.188  10.120  1.00  0.00     0.029 A 
ATOM     24  C   UNL     1       0.033   9.425  10.749  1.00  0.00     0.049 A 
ATOM     25  H   UNL     1      -1.634   8.577   9.833  1.00  0.00     0.167 HD
ATOM     26  C   UNL     1      -5.063   6.833   7.740  1.00  0.00     0.037 A 
ATOM     27  C   UNL     1      -0.053   9.151  12.063  1.00  0.00     0.037 A 
ATOM     28  C   UNL     1      -5.236   6.478   9.126  1.00  0.00     0.049 A 
ATOM     29  C   UNL     1      -1.224   8.359  12.564  1.00  0.00     0.074 A 
ATOM     30  C   UNL     1      -6.244   5.727   9.707  1.00  0.00     0.029 A 
ATOM     31  N   UNL     1      -4.378   6.851  10.151  1.00  0.00    -0.354 N 
ATOM     32  N   UNL     1      -2.220   7.841  11.887  1.00  0.00    -0.248 NA
ATOM     33  C   UNL     1      -1.288   8.120  14.011  1.00  0.00     0.031 C 
ATOM     34  C   UNL     1      -6.017   5.679  11.087  1.00  0.00     0.029 A 
ATOM     35  C   UNL     1      -4.844   6.362  11.362  1.00  0.00     0.049 A 
ATOM     36  H   UNL     1      -3.558   7.384  10.035  1.00  0.00     0.167 HD
ATOM     37  C   UNL     1      -3.027   7.211  12.822  1.00  0.00     0.074 A 
ATOM     38  C   UNL     1      -2.387   7.386  14.111  1.00  0.00     0.031 C 
ATOM     39  C   UNL     1      -4.197   6.556  12.633  1.00  0.00     0.037 A 
BRANCH  26  40
ATOM     40  C   UNL     1      -6.115   6.384   6.767  1.00  0.00     0.064 A 
ATOM     41  C   UNL     1      -5.883   5.342   5.858  1.00  0.00     0.173 A 
ATOM     42  C   UNL     1      -7.397   6.957   6.794  1.00  0.00     0.173 A 
ATOM     43  F   UNL     1      -4.673   4.767   5.785  1.00  0.00    -0.203 F 
ATOM     44  C   UNL     1      -6.890   4.898   5.004  1.00  0.00     0.198 A 
ATOM     45  C   UNL     1      -8.408   6.495   5.955  1.00  0.00     0.198 A 
ATOM     46  F   UNL     1      -7.674   7.953   7.649  1.00  0.00    -0.203 F 
ATOM     47  F   UNL     1      -6.637   3.920   4.123  1.00  0.00    -0.200 F 
ATOM     48  C   UNL     1      -8.153   5.469   5.058  1.00  0.00     0.200 A 
ATOM     49  F   UNL     1      -9.631   7.040   6.017  1.00  0.00    -0.200 F 
ATOM     50  F   UNL     1      -9.124   5.032   4.245  1.00  0.00    -0.200 F 
ENDBRANCH  26  40
BRANCH  27  51
ATOM     51  C   UNL     1       0.999   9.645  12.987  1.00  0.00     0.064 A 
ATOM     52  C   UNL     1       1.883   8.759  13.615  1.00  0.00     0.173 A 
ATOM     53  C   UNL     1       1.154  11.015  13.243  1.00  0.00     0.173 A 
ATOM     54  F   UNL     1       1.763   7.438  13.415  1.00  0.00    -0.203 F 
ATOM     55  C   UNL     1       2.876   9.224  14.474  1.00  0.00     0.198 A 
ATOM     56  C   UNL     1       2.166  11.482  14.077  1.00  0.00     0.198 A 
ATOM     57  F   UNL     1       0.336  11.904  12.660  1.00  0.00    -0.203 F 
ATOM     58  F   UNL     1       3.686   8.354  15.092  1.00  0.00    -0.200 F 
ATOM     59  C   UNL     1       3.022  10.585  14.698  1.00  0.00     0.200 A 
ATOM     60  F   UNL     1       2.314  12.799  14.275  1.00  0.00    -0.200 F 
ATOM     61  F   UNL     1       3.984  11.033  15.515  1.00  0.00    -0.200 F 
ENDBRANCH  27  51
BRANCH  39  62
ATOM     62  C   UNL     1      -4.849   5.975  13.852  1.00  0.00     0.064 A 
ATOM     63  C   UNL     1      -5.478   6.793  14.803  1.00  0.00     0.173 A 
ATOM     64  C   UNL     1      -4.852   4.590  14.068  1.00  0.00     0.173 A 
ATOM     65  F   UNL     1      -5.484   8.125  14.649  1.00  0.00    -0.203 F 
ATOM     66  C   UNL     1      -6.060   6.245  15.942  1.00  0.00     0.198 A 
ATOM     67  C   UNL     1      -5.459   4.043  15.195  1.00  0.00     0.198 A 
ATOM     68  F   UNL     1      -4.266   3.766  13.185  1.00  0.00    -0.203 F 
ATOM     69  F   UNL     1      -6.609   7.048  16.864  1.00  0.00    -0.200 F 
ATOM     70  C   UNL     1      -6.055   4.872  16.135  1.00  0.00     0.200 A 
ATOM     71  F   UNL     1      -5.460   2.716  15.376  1.00  0.00    -0.200 F 
ATOM     72  F   UNL     1      -6.614   4.346  17.233  1.00  0.00    -0.200 F 
ENDBRANCH  39  62
ENDBRANCH  13  14
ENDBRANCH   6   8
ENDBRANCH   3   4
ENDBRANCH   2   3
ENDBRANCH   1   2
BRANCH   1  73
ATOM     73  C   UNL     1       4.003   8.304  -0.576  1.00  0.00     0.116 C 
BRANCH  73  74
ATOM     74  N   UNL     1       4.132   6.875  -0.399  1.00  0.00    -0.354 N 
ATOM     75  C   UNL     1       5.131   6.044  -0.817  1.00  0.00     0.252 C 
ATOM     76  H   UNL     1       3.397   6.441   0.090  1.00  0.00     0.163 HD
ATOM     77  O   UNL     1       5.038   4.851  -0.509  1.00  0.00    -0.272 OA
BRANCH  75  78
ATOM     78  C   UNL     1       6.324   6.563  -1.636  1.00  0.00     0.242 C 
ATOM     79  O   UNL     1       5.906   7.168  -2.870  1.00  0.00    -0.324 OA
ATOM     80  C   UNL     1       7.188   7.550  -0.844  1.00  0.00     0.184 C 
ATOM     81  C   UNL     1       7.017   7.355  -3.756  1.00  0.00     0.340 C 
ATOM     82  C   UNL     1       8.406   7.950  -1.679  1.00  0.00     0.181 C 
ATOM     83  C   UNL     1       8.046   8.316  -3.116  1.00  0.00     0.214 C 
BRANCH  80  84
ATOM     84  O   UNL     1       7.648   7.011   0.397  1.00  0.00    -0.387 OA
ATOM     85  H   UNL     1       8.212   6.240   0.226  1.00  0.00     0.211 HD
ENDBRANCH  80  84
BRANCH  81  86
ATOM     86  O   UNL     1       6.694   7.892  -5.057  1.00  0.00    -0.454 OA
BRANCH  86  87
ATOM     87  C   UNL     1       5.400   8.301  -5.297  1.00  0.00     0.214 A 
ATOM     88  C   UNL     1       4.987   9.575  -5.146  1.00  0.00     0.181 A 
ATOM     89  C   UNL     1       4.471   7.336  -5.958  1.00  0.00     0.239 A 
ATOM     90  O   UNL     1       3.734  10.045  -5.479  1.00  0.00    -0.452 OA
ATOM     91  C   UNL     1       3.219   7.905  -6.523  1.00  0.00     0.111 A 
ATOM     92  O   UNL     1       4.763   6.148  -6.031  1.00  0.00    -0.285 OA
ATOM     93  C   UNL     1       2.927   9.242  -6.243  1.00  0.00     0.146 A 
ATOM     94  C   UNL     1       2.331   7.179  -7.333  1.00  0.00     0.134 A 
ATOM     95  C   UNL     1       1.772   9.845  -6.745  1.00  0.00     0.094 A 
ATOM     96  C   UNL     1       1.172   7.780  -7.842  1.00  0.00     0.093 A 
ATOM     97  C   UNL     1       0.904   9.110  -7.540  1.00  0.00     0.123 A 
BRANCH  88  98
ATOM     98  C   UNL     1       5.841  10.605  -4.534  1.00  0.00     0.029 A 
ATOM     99  C   UNL     1       5.500  11.105  -3.265  1.00  0.00     0.062 A 
ATOM    100  C   UNL     1       7.042  11.011  -5.141  1.00  0.00     0.062 A 
ATOM    101  C   UNL     1       6.389  11.931  -2.586  1.00  0.00     0.162 A 
ATOM    102  C   UNL     1       7.917  11.838  -4.443  1.00  0.00     0.162 A 
ATOM    103  C   UNL     1       7.607  12.274  -3.159  1.00  0.00     0.200 A 
BRANCH 101 104
ATOM    104  O   UNL     1       6.072  12.350  -1.328  1.00  0.00    -0.504 OA
ATOM    105  H   UNL     1       5.248  12.114  -0.950  1.00  0.00     0.293 HD
ENDBRANCH 101 104
BRANCH 102 106
ATOM    106  O   UNL     1       9.126  12.145  -4.996  1.00  0.00    -0.504 OA
ATOM    107  H   UNL     1       9.723  12.701  -4.536  1.00  0.00     0.293 HD
ENDBRANCH 102 106
BRANCH 103 108
ATOM    108  O   UNL     1       8.557  12.965  -2.460  1.00  0.00    -0.502 OA
ATOM    109  H   UNL     1       8.372  13.270  -1.593  1.00  0.00     0.293 HD
ENDBRANCH 103 108
ENDBRANCH  88  98
BRANCH  94 110
ATOM    110  O   UNL     1       2.586   5.878  -7.658  1.00  0.00    -0.507 OA
ATOM    111  H   UNL     1       1.986   5.404  -8.199  1.00  0.00     0.293 HD
ENDBRANCH  94 110
BRANCH  97 112
ATOM    112  O   UNL     1      -0.207   9.743  -8.012  1.00  0.00    -0.508 OA
ATOM    113  H   UNL     1      -0.363  10.641  -7.794  1.00  0.00     0.293 HD
ENDBRANCH  97 112
ENDBRANCH  86  87
ENDBRANCH  81  86
BRANCH  82 114
ATOM    114  O   UNL     1       9.047   9.076  -1.034  1.00  0.00    -0.387 OA
ATOM    115  H   UNL     1       8.428   9.823  -0.998  1.00  0.00     0.211 HD
ENDBRANCH  82 114
BRANCH  83 116
ATOM    116  O   UNL     1       9.244   8.404  -3.896  1.00  0.00    -0.384 OA
ATOM    117  H   UNL     1       9.683   7.539  -3.913  1.00  0.00     0.211 HD
ENDBRANCH  83 116
ENDBRANCH  75  78
ENDBRANCH  73  74
ENDBRANCH   1  73
TORSDOF 22
