REMARK SMILES C[C@@]1(O)CC(NCCCCNC(=O)c2ccc(-c3c4nc(c(-c5c(F)c(F)c(F)c(F)c5F)c5ccc([nH]5)c(-c5c(F)c(F)c(F)c(F)c5F)c5nc(c(-c6c(F)c(F)c(F)c(F)c6F)c6ccc3[nH]6)C=C5)C=C4)cc2)=C(C(=O)Nc2ccccc2)[C@H](c2ccccc2C(=O)[O-])[C@@H]1C(=O)Nc1ccccc1
REMARK SMILES IDX 8 1 7 2 6 3 5 5 1 6 2 7 4 8 97 9 87 10 77 11 3 12 98 14
REMARK SMILES IDX 99 15 100 16 101 18 102 19 106 20 103 21 105 22 104 23 88 24
REMARK SMILES IDX 89 25 93 26 90 27 92 28 91 29 94 30 95 31 96 32 78 33 79 34
REMARK SMILES IDX 80 35 81 37 82 38 86 39 83 40 85 41 84 42 9 43 10 44 11 45
REMARK SMILES IDX 12 46 13 48 14 49 15 50 76 51 16 52 75 53 17 54 18 55 19 56
REMARK SMILES IDX 69 57 20 58 74 59 68 60 70 61 21 62 73 63 67 64 66 65 22 67
REMARK SMILES IDX 54 68 34 69 53 70 35 71 38 72 52 73 71 74 36 75 37 76 51 78
REMARK SMILES IDX 72 79 39 80 23 81 24 82 32 83 25 84 26 85 30 86 33 87 27 88
REMARK SMILES IDX 28 89 31 90 29 91 55 92 56 93 64 94 57 95 58 96 62 97 65 98
REMARK SMILES IDX 59 99 60 100 63 101 61 102 40 103 41 104 49 105 42 106
REMARK SMILES IDX 43 107 47 108 50 109 44 110 45 111 48 112 46 113
REMARK H PARENT 6 4 3 13 100 17 80 36 11 47 70 66 38 77
REMARK Flexibility Score: inf
ROOT
ATOM      1  C   UNL     1       3.642   3.643  -3.173  1.00  0.00     0.023 C 
ENDROOT
BRANCH   1   2
ATOM      2  C   UNL     1       2.381   2.898  -3.591  1.00  0.00     0.112 C 
BRANCH   2   3
ATOM      3  N   UNL     1       2.602   1.455  -3.589  1.00  0.00    -0.388 N 
ATOM      4  H   UNL     1       3.443   1.134  -3.988  1.00  0.00     0.160 HD
BRANCH   3   5
ATOM      5  C   UNL     1       1.738   0.488  -3.076  1.00  0.00     0.023 C 
ATOM      6  C   UNL     1       0.985   0.158   0.324  1.00  0.00     0.043 C 
ATOM      7  C   UNL     1       0.207   0.044  -1.006  1.00  0.00     0.080 C 
ATOM      8  C   UNL     1       0.781   1.019  -2.036  1.00  0.00     0.089 C 
ATOM      9  C   UNL     1       0.238  -1.438  -1.464  1.00  0.00     0.123 C 
ATOM     10  C   UNL     1       0.468  -1.656  -3.005  1.00  0.00     0.073 C 
ATOM     11  C   UNL     1       1.680  -0.821  -3.453  1.00  0.00     0.045 C 
BRANCH   7  12
ATOM     12  O   UNL     1      -1.103   0.555  -0.737  1.00  0.00    -0.389 OA
ATOM     13  H   UNL     1      -1.037   1.482  -0.458  1.00  0.00     0.211 HD
ENDBRANCH   7  12
BRANCH   9  14
ATOM     14  C   UNL     1      -0.830  -2.310  -0.775  1.00  0.00     0.231 C 
ATOM     15  O   UNL     1      -1.805  -1.844  -0.178  1.00  0.00    -0.274 OA
ATOM     16  N   UNL     1      -0.814  -3.662  -0.943  1.00  0.00    -0.326 N 
ATOM     17  H   UNL     1      -1.655  -4.054  -1.274  1.00  0.00     0.169 HD
BRANCH  16  18
ATOM     18  C   UNL     1       0.220  -4.577  -0.716  1.00  0.00     0.041 A 
ATOM     19  C   UNL     1      -0.008  -5.899  -1.108  1.00  0.00     0.026 A 
ATOM     20  C   UNL     1       1.371  -4.263   0.006  1.00  0.00     0.026 A 
ATOM     21  C   UNL     1       0.924  -6.894  -0.813  1.00  0.00     0.002 A 
ATOM     22  C   UNL     1       2.298  -5.262   0.312  1.00  0.00     0.002 A 
ATOM     23  C   UNL     1       2.078  -6.574  -0.103  1.00  0.00     0.000 A 
ENDBRANCH  16  18
ENDBRANCH   9  14
BRANCH  10  24
ATOM     24  C   UNL     1      -0.639  -1.716  -4.132  1.00  0.00    -0.030 A 
ATOM     25  C   UNL     1      -0.204  -1.616  -5.483  1.00  0.00     0.005 A 
ATOM     26  C   UNL     1      -1.898  -2.329  -3.976  1.00  0.00     0.001 A 
ATOM     27  C   UNL     1      -0.792  -2.358  -6.519  1.00  0.00     0.000 A 
ATOM     28  C   UNL     1      -2.466  -3.112  -5.004  1.00  0.00     0.010 A 
ATOM     29  C   UNL     1      -1.877  -3.175  -6.258  1.00  0.00     0.001 A 
BRANCH  26  30
ATOM     30  C   UNL     1      -2.797  -2.123  -2.837  1.00  0.00     0.072 C 
ATOM     31  O   UNL     1      -3.536  -2.969  -2.357  1.00  0.00    -0.545 OA
ATOM     32  O   UNL     1      -2.746  -0.855  -2.395  1.00  0.00    -0.545 OA
ENDBRANCH  26  30
ENDBRANCH  10  24
BRANCH  11  33
ATOM     33  C   UNL     1       2.768  -1.330  -4.389  1.00  0.00     0.253 C 
ATOM     34  O   UNL     1       3.368  -0.510  -5.105  1.00  0.00    -0.269 OA
ATOM     35  N   UNL     1       3.298  -2.583  -4.438  1.00  0.00    -0.322 N 
ATOM     36  H   UNL     1       4.263  -2.533  -4.627  1.00  0.00     0.170 HD
BRANCH  35  37
ATOM     37  C   UNL     1       2.905  -3.925  -4.304  1.00  0.00     0.041 A 
ATOM     38  C   UNL     1       3.927  -4.873  -4.154  1.00  0.00     0.026 A 
ATOM     39  C   UNL     1       1.614  -4.406  -4.475  1.00  0.00     0.026 A 
ATOM     40  C   UNL     1       3.644  -6.244  -4.087  1.00  0.00     0.002 A 
ATOM     41  C   UNL     1       1.316  -5.770  -4.396  1.00  0.00     0.002 A 
ATOM     42  C   UNL     1       2.332  -6.691  -4.189  1.00  0.00     0.000 A 
ENDBRANCH  35  37
ENDBRANCH  11  33
ENDBRANCH   3   5
ENDBRANCH   2   3
ENDBRANCH   1   2
BRANCH   1  43
ATOM     43  C   UNL     1       4.682   3.776  -4.281  1.00  0.00     0.023 C 
BRANCH  43  44
ATOM     44  C   UNL     1       4.189   4.478  -5.542  1.00  0.00     0.116 C 
BRANCH  44  45
ATOM     45  N   UNL     1       3.712   5.835  -5.302  1.00  0.00    -0.352 N 
ATOM     46  C   UNL     1       3.959   6.968  -6.040  1.00  0.00     0.251 C 
ATOM     47  H   UNL     1       3.139   5.955  -4.510  1.00  0.00     0.163 HD
ATOM     48  O   UNL     1       3.585   8.069  -5.653  1.00  0.00    -0.269 OA
BRANCH  46  49
ATOM     49  C   UNL     1       4.724   6.843  -7.296  1.00  0.00     0.039 A 
ATOM     50  C   UNL     1       5.852   7.643  -7.484  1.00  0.00     0.014 A 
ATOM     51  C   UNL     1       4.364   5.882  -8.244  1.00  0.00     0.014 A 
ATOM     52  C   UNL     1       6.671   7.422  -8.593  1.00  0.00     0.010 A 
ATOM     53  C   UNL     1       5.222   5.613  -9.304  1.00  0.00     0.010 A 
ATOM     54  C   UNL     1       6.386   6.376  -9.486  1.00  0.00    -0.014 A 
BRANCH  54  55
ATOM     55  C   UNL     1       7.296   6.053 -10.612  1.00  0.00     0.031 A 
ATOM     56  C   UNL     1       6.814   6.191 -12.028  1.00  0.00     0.074 A 
ATOM     57  C   UNL     1       8.527   5.566 -10.358  1.00  0.00     0.049 A 
ATOM     58  N   UNL     1       7.423   5.878 -13.144  1.00  0.00    -0.248 NA
ATOM     59  C   UNL     1       5.456   6.724 -12.214  1.00  0.00     0.031 C 
ATOM     60  C   UNL     1       9.090   5.341  -9.026  1.00  0.00     0.029 A 
ATOM     61  N   UNL     1       9.522   5.158 -11.211  1.00  0.00    -0.354 N 
ATOM     62  C   UNL     1       6.519   6.165 -14.158  1.00  0.00     0.074 A 
ATOM     63  C   UNL     1       5.301   6.622 -13.526  1.00  0.00     0.031 C 
ATOM     64  C   UNL     1      10.336   4.857  -9.150  1.00  0.00     0.029 A 
ATOM     65  C   UNL     1      10.645   4.698 -10.568  1.00  0.00     0.049 A 
ATOM     66  H   UNL     1       9.438   5.192 -12.192  1.00  0.00     0.167 HD
ATOM     67  C   UNL     1       6.699   6.080 -15.498  1.00  0.00     0.037 A 
ATOM     68  C   UNL     1      11.790   4.195 -11.067  1.00  0.00     0.037 A 
ATOM     69  C   UNL     1       7.920   5.646 -16.123  1.00  0.00     0.049 A 
ATOM     70  C   UNL     1      11.957   4.095 -12.560  1.00  0.00     0.074 A 
ATOM     71  C   UNL     1       8.222   5.580 -17.471  1.00  0.00     0.029 A 
ATOM     72  N   UNL     1       9.043   5.203 -15.438  1.00  0.00    -0.354 N 
ATOM     73  N   UNL     1      11.122   4.436 -13.511  1.00  0.00    -0.248 NA
ATOM     74  C   UNL     1      13.229   3.544 -13.049  1.00  0.00     0.031 C 
ATOM     75  C   UNL     1       9.510   5.051 -17.605  1.00  0.00     0.029 A 
ATOM     76  C   UNL     1      10.031   4.838 -16.339  1.00  0.00     0.049 A 
ATOM     77  H   UNL     1       9.125   5.155 -14.458  1.00  0.00     0.167 HD
ATOM     78  C   UNL     1      11.776   4.170 -14.707  1.00  0.00     0.074 A 
ATOM     79  C   UNL     1      13.083   3.653 -14.362  1.00  0.00     0.031 C 
ATOM     80  C   UNL     1      11.332   4.337 -15.977  1.00  0.00     0.037 A 
BRANCH  67  81
ATOM     81  C   UNL     1       5.549   6.470 -16.379  1.00  0.00     0.064 A 
ATOM     82  C   UNL     1       5.131   7.805 -16.493  1.00  0.00     0.173 A 
ATOM     83  C   UNL     1       4.883   5.506 -17.151  1.00  0.00     0.173 A 
ATOM     84  F   UNL     1       5.727   8.763 -15.768  1.00  0.00    -0.203 F 
ATOM     85  C   UNL     1       4.072   8.156 -17.326  1.00  0.00     0.198 A 
ATOM     86  C   UNL     1       3.845   5.866 -18.007  1.00  0.00     0.198 A 
ATOM     87  F   UNL     1       5.245   4.216 -17.084  1.00  0.00    -0.203 F 
ATOM     88  F   UNL     1       3.661   9.430 -17.383  1.00  0.00    -0.200 F 
ATOM     89  C   UNL     1       3.436   7.188 -18.088  1.00  0.00     0.200 A 
ATOM     90  F   UNL     1       3.240   4.931 -18.753  1.00  0.00    -0.200 F 
ATOM     91  F   UNL     1       2.424   7.530 -18.898  1.00  0.00    -0.200 F 
ENDBRANCH  67  81
BRANCH  68  92
ATOM     92  C   UNL     1      12.879   3.762 -10.151  1.00  0.00     0.064 A 
ATOM     93  C   UNL     1      14.089   4.466 -10.089  1.00  0.00     0.173 A 
ATOM     94  C   UNL     1      12.740   2.631  -9.333  1.00  0.00     0.173 A 
ATOM     95  F   UNL     1      14.278   5.542 -10.868  1.00  0.00    -0.203 F 
ATOM     96  C   UNL     1      15.129   4.042  -9.264  1.00  0.00     0.198 A 
ATOM     97  C   UNL     1      13.769   2.225  -8.486  1.00  0.00     0.198 A 
ATOM     98  F   UNL     1      11.601   1.923  -9.352  1.00  0.00    -0.203 F 
ATOM     99  F   UNL     1      16.294   4.703  -9.264  1.00  0.00    -0.200 F 
ATOM    100  C   UNL     1      14.966   2.924  -8.459  1.00  0.00     0.200 A 
ATOM    101  F   UNL     1      13.603   1.152  -7.700  1.00  0.00    -0.200 F 
ATOM    102  F   UNL     1      15.966   2.516  -7.666  1.00  0.00    -0.200 F 
ENDBRANCH  68  92
BRANCH  80 103
ATOM    103  C   UNL     1      12.280   3.994 -17.089  1.00  0.00     0.064 A 
ATOM    104  C   UNL     1      12.608   2.665 -17.394  1.00  0.00     0.173 A 
ATOM    105  C   UNL     1      12.827   5.007 -17.891  1.00  0.00     0.173 A 
ATOM    106  F   UNL     1      12.123   1.661 -16.647  1.00  0.00    -0.203 F 
ATOM    107  C   UNL     1      13.469   2.365 -18.446  1.00  0.00     0.198 A 
ATOM    108  C   UNL     1      13.662   4.701 -18.962  1.00  0.00     0.198 A 
ATOM    109  F   UNL     1      12.538   6.294 -17.646  1.00  0.00    -0.203 F 
ATOM    110  F   UNL     1      13.806   1.091 -18.690  1.00  0.00    -0.200 F 
ATOM    111  C   UNL     1      13.988   3.381 -19.234  1.00  0.00     0.200 A 
ATOM    112  F   UNL     1      14.151   5.684 -19.731  1.00  0.00    -0.200 F 
ATOM    113  F   UNL     1      14.808   3.089 -20.253  1.00  0.00    -0.200 F 
ENDBRANCH  80 103
ENDBRANCH  54  55
ENDBRANCH  46  49
ENDBRANCH  44  45
ENDBRANCH  43  44
ENDBRANCH   1  43
TORSDOF 18
