REMARK SMILES O=C(NCCCCNC(=O)[C@H]1CC=CC[C@@H]1C(=O)Nc1ccccc1C(=O)NCc1ccco1)c1ccc(-c2c3nc(c(-c4c(F)c(F)c(F)c(F)c4F)c4ccc([nH]4)c(-c4c(F)c(F)c(F)c(F)c4F)c4nc(c(-c5c(F)c(F)c(F)c(F)c5F)c5ccc2[nH]5)C=C4)C=C3)cc1
REMARK SMILES IDX 7 1 6 2 5 3 4 4 3 5 1 6 2 7 35 9 36 10 97 11 37 12 96 13
REMARK SMILES IDX 38 14 39 15 40 16 90 17 41 18 95 19 89 20 91 21 42 22 94 23
REMARK SMILES IDX 88 24 87 25 43 27 75 28 55 29 74 30 56 31 59 32 73 33 92 34
REMARK SMILES IDX 57 35 58 36 72 38 93 39 60 40 44 41 45 42 53 43 46 44 47 45
REMARK SMILES IDX 51 46 54 47 48 48 49 49 52 50 50 51 76 52 77 53 85 54 78 55
REMARK SMILES IDX 79 56 83 57 86 58 80 59 81 60 84 61 82 62 61 63 62 64 70 65
REMARK SMILES IDX 63 66 64 67 68 68 71 69 65 70 66 71 69 72 67 73 8 74 9 75
REMARK SMILES IDX 10 77 11 78 12 79 16 80 13 81 15 82 14 83 17 84 18 85 19 86
REMARK SMILES IDX 20 88 21 89 25 90 22 91 24 92 23 93 26 94 27 95 28 96 29 98
REMARK SMILES IDX 30 99 31 100 34 101 32 102 33 103
REMARK H PARENT 3 8 91 26 59 37 8 76 19 87 28 97
REMARK Flexibility Score: inf
ROOT
ATOM      1  C   UNL     1       5.554   3.005  -2.625  1.00  0.00     0.116 C 
ENDROOT
BRANCH   1   2
ATOM      2  C   UNL     1       5.047   1.717  -3.257  1.00  0.00     0.023 C 
BRANCH   2   3
ATOM      3  C   UNL     1       5.316   0.470  -2.435  1.00  0.00     0.023 C 
BRANCH   3   4
ATOM      4  C   UNL     1       4.787   0.529  -1.011  1.00  0.00     0.116 C 
BRANCH   4   5
ATOM      5  N   UNL     1       3.337   0.669  -0.915  1.00  0.00    -0.352 N 
ATOM      6  O   UNL     1       1.257   0.110  -0.186  1.00  0.00    -0.269 OA
ATOM      7  C   UNL     1       2.471  -0.042  -0.111  1.00  0.00     0.251 C 
ATOM      8  H   UNL     1       2.929   1.354  -1.493  1.00  0.00     0.163 HD
BRANCH   7   9
ATOM      9  C   UNL     1       3.050  -1.036   0.816  1.00  0.00     0.039 A 
ATOM     10  C   UNL     1       4.125  -0.664   1.623  1.00  0.00     0.014 A 
ATOM     11  C   UNL     1       2.627  -2.366   0.761  1.00  0.00     0.014 A 
ATOM     12  C   UNL     1       4.914  -1.652   2.188  1.00  0.00     0.010 A 
ATOM     13  C   UNL     1       3.353  -3.348   1.445  1.00  0.00     0.010 A 
ATOM     14  C   UNL     1       4.536  -3.006   2.118  1.00  0.00    -0.014 A 
BRANCH  14  15
ATOM     15  C   UNL     1       5.394  -4.012   2.800  1.00  0.00     0.031 A 
ATOM     16  C   UNL     1       6.089  -5.112   2.043  1.00  0.00     0.074 A 
ATOM     17  C   UNL     1       5.614  -3.857   4.121  1.00  0.00     0.049 A 
ATOM     18  N   UNL     1       6.921  -6.020   2.494  1.00  0.00    -0.248 NA
ATOM     19  C   UNL     1       5.816  -5.221   0.602  1.00  0.00     0.031 C 
ATOM     20  C   UNL     1       4.981  -2.837   4.961  1.00  0.00     0.029 A 
ATOM     21  N   UNL     1       6.458  -4.513   4.978  1.00  0.00    -0.354 N 
ATOM     22  C   UNL     1       7.248  -6.818   1.405  1.00  0.00     0.074 A 
ATOM     23  C   UNL     1       6.513  -6.301   0.271  1.00  0.00     0.031 C 
ATOM     24  C   UNL     1       5.521  -2.876   6.185  1.00  0.00     0.029 A 
ATOM     25  C   UNL     1       6.473  -3.977   6.243  1.00  0.00     0.049 A 
ATOM     26  H   UNL     1       6.999  -5.292   4.714  1.00  0.00     0.167 HD
ATOM     27  C   UNL     1       8.089  -7.881   1.360  1.00  0.00     0.037 A 
ATOM     28  C   UNL     1       7.165  -4.338   7.338  1.00  0.00     0.037 A 
ATOM     29  C   UNL     1       8.838  -8.374   2.489  1.00  0.00     0.049 A 
ATOM     30  C   UNL     1       8.103  -5.504   7.248  1.00  0.00     0.074 A 
ATOM     31  C   UNL     1       9.719  -9.442   2.542  1.00  0.00     0.029 A 
ATOM     32  N   UNL     1       8.804  -7.825   3.763  1.00  0.00    -0.354 N 
ATOM     33  N   UNL     1       8.391  -6.253   6.213  1.00  0.00    -0.248 NA
ATOM     34  C   UNL     1       8.802  -5.882   8.482  1.00  0.00     0.031 C 
ATOM     35  C   UNL     1      10.191  -9.559   3.855  1.00  0.00     0.029 A 
ATOM     36  C   UNL     1       9.639  -8.538   4.610  1.00  0.00     0.049 A 
ATOM     37  H   UNL     1       8.265  -7.044   4.026  1.00  0.00     0.167 HD
ATOM     38  C   UNL     1       9.297  -7.197   6.669  1.00  0.00     0.074 A 
ATOM     39  C   UNL     1       9.546  -6.897   8.065  1.00  0.00     0.031 C 
ATOM     40  C   UNL     1       9.859  -8.232   5.999  1.00  0.00     0.037 A 
BRANCH  27  41
ATOM     41  C   UNL     1       8.246  -8.601   0.051  1.00  0.00     0.064 A 
ATOM     42  C   UNL     1       8.982  -8.050  -1.008  1.00  0.00     0.173 A 
ATOM     43  C   UNL     1       7.723  -9.893  -0.117  1.00  0.00     0.173 A 
ATOM     44  F   UNL     1       9.495  -6.815  -0.903  1.00  0.00    -0.203 F 
ATOM     45  C   UNL     1       9.180  -8.761  -2.190  1.00  0.00     0.198 A 
ATOM     46  C   UNL     1       7.942 -10.610  -1.291  1.00  0.00     0.198 A 
ATOM     47  F   UNL     1       7.017 -10.469   0.867  1.00  0.00    -0.203 F 
ATOM     48  F   UNL     1       9.864  -8.204  -3.199  1.00  0.00    -0.200 F 
ATOM     49  C   UNL     1       8.668 -10.043  -2.327  1.00  0.00     0.200 A 
ATOM     50  F   UNL     1       7.457 -11.853  -1.416  1.00  0.00    -0.200 F 
ATOM     51  F   UNL     1       8.873 -10.732  -3.459  1.00  0.00    -0.200 F 
ENDBRANCH  27  41
BRANCH  28  52
ATOM     52  C   UNL     1       6.971  -3.595   8.608  1.00  0.00     0.064 A 
ATOM     53  C   UNL     1       7.994  -2.809   9.154  1.00  0.00     0.173 A 
ATOM     54  C   UNL     1       5.746  -3.640   9.291  1.00  0.00     0.173 A 
ATOM     55  F   UNL     1       9.188  -2.748   8.547  1.00  0.00    -0.203 F 
ATOM     56  C   UNL     1       7.803  -2.107  10.342  1.00  0.00     0.198 A 
ATOM     57  C   UNL     1       5.545  -2.911  10.459  1.00  0.00     0.198 A 
ATOM     58  F   UNL     1       4.732  -4.372   8.805  1.00  0.00    -0.203 F 
ATOM     59  F   UNL     1       8.811  -1.396  10.866  1.00  0.00    -0.200 F 
ATOM     60  C   UNL     1       6.577  -2.152  10.989  1.00  0.00     0.200 A 
ATOM     61  F   UNL     1       4.352  -2.940  11.068  1.00  0.00    -0.200 F 
ATOM     62  F   UNL     1       6.391  -1.467  12.125  1.00  0.00    -0.200 F 
ENDBRANCH  28  52
BRANCH  40  63
ATOM     63  C   UNL     1      10.792  -9.107   6.780  1.00  0.00     0.064 A 
ATOM     64  C   UNL     1      10.311  -9.996   7.754  1.00  0.00     0.173 A 
ATOM     65  C   UNL     1      12.175  -9.052   6.562  1.00  0.00     0.173 A 
ATOM     66  F   UNL     1       8.996 -10.069   8.010  1.00  0.00    -0.203 F 
ATOM     67  C   UNL     1      11.187 -10.773   8.506  1.00  0.00     0.198 A 
ATOM     68  C   UNL     1      13.046  -9.851   7.298  1.00  0.00     0.198 A 
ATOM     69  F   UNL     1      12.682  -8.221   5.640  1.00  0.00    -0.203 F 
ATOM     70  F   UNL     1      10.710 -11.572   9.471  1.00  0.00    -0.200 F 
ATOM     71  C   UNL     1      12.552 -10.702   8.275  1.00  0.00     0.200 A 
ATOM     72  F   UNL     1      14.365  -9.788   7.069  1.00  0.00    -0.200 F 
ATOM     73  F   UNL     1      13.395 -11.446   9.005  1.00  0.00    -0.200 F 
ENDBRANCH  40  63
ENDBRANCH  14  15
ENDBRANCH   7   9
ENDBRANCH   4   5
ENDBRANCH   3   4
ENDBRANCH   2   3
ENDBRANCH   1   2
BRANCH   1  74
ATOM     74  N   UNL     1       6.991   3.154  -2.682  1.00  0.00    -0.356 N 
ATOM     75  C   UNL     1       7.710   4.220  -3.153  1.00  0.00     0.224 C 
ATOM     76  H   UNL     1       7.517   2.395  -2.341  1.00  0.00     0.163 HD
ATOM     77  O   UNL     1       8.927   4.215  -2.974  1.00  0.00    -0.275 OA
BRANCH  75  78
ATOM     78  C   UNL     1       6.994   5.310  -3.958  1.00  0.00     0.095 C 
ATOM     79  C   UNL     1       7.623   6.694  -3.713  1.00  0.00     0.041 C 
ATOM     80  C   UNL     1       6.929   4.850  -5.421  1.00  0.00     0.095 C 
ATOM     81  C   UNL     1       8.525   7.202  -4.790  1.00  0.00    -0.030 C 
ATOM     82  C   UNL     1       8.295   5.109  -6.117  1.00  0.00     0.041 C 
ATOM     83  C   UNL     1       8.843   6.485  -5.872  1.00  0.00    -0.030 C 
BRANCH  80  84
ATOM     84  C   UNL     1       5.809   5.398  -6.316  1.00  0.00     0.228 C 
ATOM     85  O   UNL     1       6.067   6.111  -7.297  1.00  0.00    -0.274 OA
ATOM     86  N   UNL     1       4.530   4.936  -6.307  1.00  0.00    -0.325 N 
ATOM     87  H   UNL     1       4.183   4.869  -7.226  1.00  0.00     0.169 HD
BRANCH  86  88
ATOM     88  C   UNL     1       3.555   4.525  -5.384  1.00  0.00     0.054 A 
ATOM     89  C   UNL     1       2.744   3.476  -5.876  1.00  0.00     0.027 A 
ATOM     90  C   UNL     1       3.205   5.100  -4.149  1.00  0.00     0.063 A 
ATOM     91  C   UNL     1       1.694   2.930  -5.134  1.00  0.00     0.002 A 
ATOM     92  C   UNL     1       2.150   4.516  -3.400  1.00  0.00     0.016 A 
ATOM     93  C   UNL     1       1.408   3.438  -3.879  1.00  0.00     0.001 A 
BRANCH  90  94
ATOM     94  C   UNL     1       3.785   6.283  -3.462  1.00  0.00     0.253 C 
ATOM     95  O   UNL     1       3.994   6.193  -2.250  1.00  0.00    -0.269 OA
ATOM     96  N   UNL     1       4.059   7.467  -4.078  1.00  0.00    -0.345 N 
ATOM     97  H   UNL     1       4.337   8.188  -3.468  1.00  0.00     0.164 HD
BRANCH  96  98
ATOM     98  C   UNL     1       4.012   7.846  -5.467  1.00  0.00     0.191 C 
BRANCH  98  99
ATOM     99  C   UNL     1       3.615   9.260  -5.601  1.00  0.00     0.122 A 
ATOM    100  C   UNL     1       2.532   9.875  -6.190  1.00  0.00     0.047 A 
ATOM    101  O   UNL     1       4.496  10.194  -5.141  1.00  0.00    -0.467 OA
ATOM    102  C   UNL     1       2.776  11.265  -6.109  1.00  0.00     0.042 A 
ATOM    103  C   UNL     1       3.982  11.408  -5.463  1.00  0.00     0.195 A 
ENDBRANCH  98  99
ENDBRANCH  96  98
ENDBRANCH  90  94
ENDBRANCH  86  88
ENDBRANCH  80  84
ENDBRANCH  75  78
ENDBRANCH   1  74
TORSDOF 16
