REMARK SMILES CCc1cc(N2CCC[C@H](C(=O)NCCCCNC(=O)c3ccc(-c4c5nc(c(-c6c(F)c(F)c(F)c(F)c6F)c6ccc([nH]6)c(-c6c(F)c(F)c(F)c(F)c6F)c6nc(c(-c7c(F)c(F)c(F)c(F)c7F)c7ccc4[nH]7)C=C6)C=C5)cc3)C2)nc(-c2ccc(Cl)cc2)n1
REMARK SMILES IDX 15 1 14 2 13 3 11 4 12 5 10 7 6 8 7 9 84 10 8 11 9 12 5 13
REMARK SMILES IDX 3 14 4 15 94 16 86 17 85 18 2 19 1 20 87 21 88 22 93 23
REMARK SMILES IDX 89 24 92 25 90 26 91 27 16 28 17 29 18 30 19 31 20 33 21 34
REMARK SMILES IDX 22 35 83 36 23 37 82 38 24 39 25 40 26 41 76 42 27 43 81 44
REMARK SMILES IDX 75 45 77 46 28 47 80 48 74 49 73 50 29 52 61 53 41 54 60 55
REMARK SMILES IDX 42 56 45 57 59 58 78 59 43 60 44 61 58 63 79 64 46 65 30 66
REMARK SMILES IDX 31 67 39 68 32 69 33 70 37 71 40 72 34 73 35 74 38 75 36 76
REMARK SMILES IDX 62 77 63 78 71 79 64 80 65 81 69 82 72 83 66 84 67 85 70 86
REMARK SMILES IDX 68 87 47 88 48 89 56 90 49 91 50 92 54 93 57 94 51 95 52 96
REMARK SMILES IDX 55 97 53 98
REMARK H PARENT 13 6 18 32 77 51 45 62
REMARK Flexibility Score: inf
ROOT
ATOM      1  C   UNL     1       2.731   2.831   7.694  1.00  0.00     0.023 C 
ENDROOT
BRANCH   1   2
ATOM      2  C   UNL     1       1.441   2.508   6.949  1.00  0.00     0.116 C 
BRANCH   2   3
ATOM      3  N   UNL     1       0.285   3.273   7.358  1.00  0.00    -0.356 N 
ATOM      4  C   UNL     1      -0.536   4.060   6.612  1.00  0.00     0.224 C 
ATOM      5  O   UNL     1      -1.654   4.290   7.091  1.00  0.00    -0.275 OA
ATOM      6  H   UNL     1       0.059   3.216   8.314  1.00  0.00     0.163 HD
BRANCH   4   7
ATOM      7  C   UNL     1      -0.164   4.688   5.260  1.00  0.00     0.098 C 
ATOM      8  N   UNL     1       1.058   3.143   3.786  1.00  0.00    -0.356 N 
ATOM      9  C   UNL     1       2.230   3.985   3.616  1.00  0.00     0.118 C 
ATOM     10  C   UNL     1      -0.233   3.745   4.061  1.00  0.00     0.131 C 
ATOM     11  C   UNL     1       2.370   4.981   4.771  1.00  0.00     0.022 C 
ATOM     12  C   UNL     1       1.065   5.602   5.266  1.00  0.00     0.017 C 
BRANCH   8  13
ATOM     13  C   UNL     1       1.108   1.822   3.388  1.00  0.00     0.132 A 
ATOM     14  C   UNL     1       0.644   0.083   1.864  1.00  0.00     0.046 A 
ATOM     15  C   UNL     1       0.590   1.427   2.167  1.00  0.00     0.070 A 
ATOM     16  N   UNL     1       1.154  -0.810   2.719  1.00  0.00    -0.233 NA
ATOM     17  C   UNL     1       1.595  -0.350   3.898  1.00  0.00     0.161 A 
ATOM     18  N   UNL     1       1.603   0.934   4.272  1.00  0.00    -0.211 NA
BRANCH  14  19
ATOM     19  C   UNL     1       0.105  -0.492   0.586  1.00  0.00     0.053 C 
ATOM     20  C   UNL     1       0.844   0.023  -0.634  1.00  0.00     0.011 C 
ENDBRANCH  14  19
BRANCH  17  21
ATOM     21  C   UNL     1       1.817  -1.410   4.877  1.00  0.00     0.019 A 
ATOM     22  C   UNL     1       2.857  -2.335   4.683  1.00  0.00     0.013 A 
ATOM     23  C   UNL     1       0.822  -1.697   5.829  1.00  0.00     0.013 A 
ATOM     24  C   UNL     1       2.820  -3.582   5.307  1.00  0.00     0.021 A 
ATOM     25  C   UNL     1       0.780  -2.946   6.447  1.00  0.00     0.021 A 
ATOM     26  C   UNL     1       1.745  -3.900   6.132  1.00  0.00     0.041 A 
ATOM     27  Cl  UNL     1       1.545  -5.502   6.709  1.00  0.00    -0.084 Cl
ENDBRANCH  17  21
ENDBRANCH   8  13
ENDBRANCH   4   7
ENDBRANCH   2   3
ENDBRANCH   1   2
BRANCH   1  28
ATOM     28  C   UNL     1       3.088   1.873   8.826  1.00  0.00     0.023 C 
BRANCH  28  29
ATOM     29  C   UNL     1       3.256   0.407   8.428  1.00  0.00     0.116 C 
BRANCH  29  30
ATOM     30  N   UNL     1       4.333   0.145   7.489  1.00  0.00    -0.352 N 
ATOM     31  C   UNL     1       5.123  -0.976   7.346  1.00  0.00     0.251 C 
ATOM     32  H   UNL     1       4.528   0.877   6.860  1.00  0.00     0.163 HD
ATOM     33  O   UNL     1       6.026  -0.971   6.514  1.00  0.00    -0.269 OA
BRANCH  31  34
ATOM     34  C   UNL     1       4.926  -2.187   8.190  1.00  0.00     0.039 A 
ATOM     35  C   UNL     1       6.044  -2.960   8.531  1.00  0.00     0.014 A 
ATOM     36  C   UNL     1       3.663  -2.610   8.610  1.00  0.00     0.014 A 
ATOM     37  C   UNL     1       5.900  -4.100   9.331  1.00  0.00     0.010 A 
ATOM     38  C   UNL     1       3.515  -3.727   9.427  1.00  0.00     0.010 A 
ATOM     39  C   UNL     1       4.635  -4.474   9.802  1.00  0.00    -0.014 A 
BRANCH  39  40
ATOM     40  C   UNL     1       4.459  -5.592  10.755  1.00  0.00     0.031 A 
ATOM     41  C   UNL     1       3.861  -6.893  10.315  1.00  0.00     0.074 A 
ATOM     42  C   UNL     1       4.727  -5.362  12.052  1.00  0.00     0.049 A 
ATOM     43  N   UNL     1       3.483  -7.923  11.026  1.00  0.00    -0.248 NA
ATOM     44  C   UNL     1       3.604  -7.032   8.879  1.00  0.00     0.031 C 
ATOM     45  C   UNL     1       5.222  -4.097  12.597  1.00  0.00     0.029 A 
ATOM     46  N   UNL     1       4.603  -6.175  13.146  1.00  0.00    -0.354 N 
ATOM     47  C   UNL     1       2.887  -8.804  10.129  1.00  0.00     0.074 A 
ATOM     48  C   UNL     1       2.919  -8.166   8.832  1.00  0.00     0.031 C 
ATOM     49  C   UNL     1       5.373  -4.223  13.925  1.00  0.00     0.029 A 
ATOM     50  C   UNL     1       4.972  -5.569  14.320  1.00  0.00     0.049 A 
ATOM     51  H   UNL     1       4.281  -7.103  13.095  1.00  0.00     0.167 HD
ATOM     52  C   UNL     1       2.393 -10.043  10.373  1.00  0.00     0.037 A 
ATOM     53  C   UNL     1       4.989  -6.059  15.572  1.00  0.00     0.037 A 
ATOM     54  C   UNL     1       2.496 -10.697  11.653  1.00  0.00     0.049 A 
ATOM     55  C   UNL     1       4.586  -7.493  15.784  1.00  0.00     0.074 A 
ATOM     56  C   UNL     1       2.181 -12.002  11.987  1.00  0.00     0.029 A 
ATOM     57  N   UNL     1       2.982 -10.095  12.806  1.00  0.00    -0.354 N 
ATOM     58  N   UNL     1       4.111  -8.357  14.918  1.00  0.00    -0.248 NA
ATOM     59  C   UNL     1       4.750  -8.032  17.140  1.00  0.00     0.031 C 
ATOM     60  C   UNL     1       2.456 -12.184  13.346  1.00  0.00     0.029 A 
ATOM     61  C   UNL     1       2.981 -11.004  13.850  1.00  0.00     0.049 A 
ATOM     62  H   UNL     1       3.284  -9.160  12.871  1.00  0.00     0.167 HD
ATOM     63  C   UNL     1       3.945  -9.545  15.616  1.00  0.00     0.074 A 
ATOM     64  C   UNL     1       4.401  -9.298  16.968  1.00  0.00     0.031 C 
ATOM     65  C   UNL     1       3.452 -10.732  15.184  1.00  0.00     0.037 A 
BRANCH  52  66
ATOM     66  C   UNL     1       1.745 -10.801   9.244  1.00  0.00     0.064 A 
ATOM     67  C   UNL     1       2.479 -11.257   8.138  1.00  0.00     0.173 A 
ATOM     68  C   UNL     1       0.388 -11.160   9.314  1.00  0.00     0.173 A 
ATOM     69  F   UNL     1       3.781 -10.954   8.020  1.00  0.00    -0.203 F 
ATOM     70  C   UNL     1       1.877 -12.014   7.135  1.00  0.00     0.198 A 
ATOM     71  C   UNL     1      -0.202 -11.949   8.328  1.00  0.00     0.198 A 
ATOM     72  F   UNL     1      -0.363 -10.771  10.356  1.00  0.00    -0.203 F 
ATOM     73  F   UNL     1       2.594 -12.403   6.072  1.00  0.00    -0.200 F 
ATOM     74  C   UNL     1       0.541 -12.369   7.236  1.00  0.00     0.200 A 
ATOM     75  F   UNL     1      -1.487 -12.313   8.441  1.00  0.00    -0.200 F 
ATOM     76  F   UNL     1      -0.028 -13.121   6.284  1.00  0.00    -0.200 F 
ENDBRANCH  52  66
BRANCH  53  77
ATOM     77  C   UNL     1       5.464  -5.212  16.695  1.00  0.00     0.064 A 
ATOM     78  C   UNL     1       6.677  -5.489  17.341  1.00  0.00     0.173 A 
ATOM     79  C   UNL     1       4.722  -4.111  17.144  1.00  0.00     0.173 A 
ATOM     80  F   UNL     1       7.421  -6.534  16.948  1.00  0.00    -0.203 F 
ATOM     81  C   UNL     1       7.109  -4.724  18.421  1.00  0.00     0.198 A 
ATOM     82  C   UNL     1       5.173  -3.325  18.203  1.00  0.00     0.198 A 
ATOM     83  F   UNL     1       3.567  -3.788  16.546  1.00  0.00    -0.203 F 
ATOM     84  F   UNL     1       8.242  -5.050  19.058  1.00  0.00    -0.200 F 
ATOM     85  C   UNL     1       6.358  -3.641  18.850  1.00  0.00     0.200 A 
ATOM     86  F   UNL     1       4.456  -2.264  18.599  1.00  0.00    -0.200 F 
ATOM     87  F   UNL     1       6.773  -2.905  19.890  1.00  0.00    -0.200 F 
ENDBRANCH  53  77
BRANCH  65  88
ATOM     88  C   UNL     1       3.411 -11.853  16.180  1.00  0.00     0.064 A 
ATOM     89  C   UNL     1       2.513 -11.844  17.258  1.00  0.00     0.173 A 
ATOM     90  C   UNL     1       4.263 -12.959  16.042  1.00  0.00     0.173 A 
ATOM     91  F   UNL     1       1.688 -10.801  17.440  1.00  0.00    -0.203 F 
ATOM     92  C   UNL     1       2.496 -12.883  18.182  1.00  0.00     0.198 A 
ATOM     93  C   UNL     1       4.218 -14.014  16.949  1.00  0.00     0.198 A 
ATOM     94  F   UNL     1       5.134 -13.021  15.023  1.00  0.00    -0.203 F 
ATOM     95  F   UNL     1       1.673 -12.824  19.238  1.00  0.00    -0.200 F 
ATOM     96  C   UNL     1       3.343 -13.970  18.023  1.00  0.00     0.200 A 
ATOM     97  F   UNL     1       5.026 -15.071  16.785  1.00  0.00    -0.200 F 
ATOM     98  F   UNL     1       3.322 -14.972  18.913  1.00  0.00    -0.200 F 
ENDBRANCH  65  88
ENDBRANCH  39  40
ENDBRANCH  31  34
ENDBRANCH  29  30
ENDBRANCH  28  29
ENDBRANCH   1  28
TORSDOF 14
