REMARK SMILES [NH3+][C@]1(C(=O)NCCCCNC(=O)c2ccc(-c3c4nc(c(-c5c(F)c(F)c(F)c(F)c5F)c5ccc([nH]5)c(-c5c(F)c(F)c(F)c(F)c5F)c5nc(c(-c6c(F)c(F)c(F)c(F)c6F)c6ccc3[nH]6)C=C5)C=C4)cc2)CCC[C@H]1CCSc1ncnc2nc[nH]c12
REMARK SMILES IDX 6 1 5 2 3 3 4 4 2 6 76 7 79 8 77 9 78 10 1 11 80 15 81 16
REMARK SMILES IDX 82 17 83 18 84 19 91 20 85 21 87 22 90 23 86 24 88 25 89 26
REMARK SMILES IDX 7 28 8 29 9 30 10 31 11 32 12 34 13 35 14 36 75 37 15 38
REMARK SMILES IDX 74 39 16 40 17 41 18 42 68 43 19 44 73 45 67 46 69 47 20 48
REMARK SMILES IDX 72 49 66 50 65 51 21 53 53 54 33 55 52 56 34 57 37 58 51 59
REMARK SMILES IDX 70 60 35 61 36 62 50 64 71 65 38 66 22 67 23 68 31 69 24 70
REMARK SMILES IDX 25 71 29 72 32 73 26 74 27 75 30 76 28 77 54 78 55 79 63 80
REMARK SMILES IDX 56 81 57 82 61 83 64 84 58 85 59 86 62 87 60 88 39 89 40 90
REMARK SMILES IDX 48 91 41 92 42 93 46 94 49 95 43 96 44 97 47 98 45 99
REMARK H PARENT 5 5 1 12 1 13 1 14 90 27 10 33 69 52 37 63
REMARK Flexibility Score: inf
ROOT
ATOM      1  C   UNL     1       4.043  -0.919   0.724  1.00  0.00     0.116 C 
ENDROOT
BRANCH   1   2
ATOM      2  N   UNL     1       3.031  -0.585  -0.242  1.00  0.00    -0.351 N 
ATOM      3  C   UNL     1       1.692  -0.494  -0.086  1.00  0.00     0.281 C 
ATOM      4  O   UNL     1       1.024  -0.473  -1.130  1.00  0.00    -0.268 OA
ATOM      5  H   UNL     1       3.363  -0.395  -1.149  1.00  0.00     0.163 HD
BRANCH   3   6
ATOM      6  C   UNL     1       0.978  -0.277   1.296  1.00  0.00     0.176 C 
ATOM      7  C   UNL     1       1.317  -1.217   2.470  1.00  0.00     0.079 C 
ATOM      8  C   UNL     1       1.188   1.159   1.873  1.00  0.00     0.061 C 
ATOM      9  C   UNL     1       1.461  -0.321   3.697  1.00  0.00     0.008 C 
ATOM     10  C   UNL     1       2.017   0.984   3.142  1.00  0.00     0.011 C 
BRANCH   6  11
ATOM     11  N   UNL     1      -0.480  -0.467   1.023  1.00  0.00    -0.345 N 
ATOM     12  H   UNL     1      -1.007  -0.339   1.887  1.00  0.00     0.345 HD
ATOM     13  H   UNL     1      -0.639  -1.408   0.664  1.00  0.00     0.345 HD
ATOM     14  H   UNL     1      -0.788   0.217   0.332  1.00  0.00     0.345 HD
ENDBRANCH   6  11
BRANCH   8  15
ATOM     15  C   UNL     1       1.621   2.269   0.910  1.00  0.00     0.022 C 
BRANCH  15  16
ATOM     16  C   UNL     1       0.446   2.770   0.045  1.00  0.00     0.077 C 
BRANCH  16  17
ATOM     17  S   UNL     1      -0.632   3.827   1.080  1.00  0.00    -0.104 SA
BRANCH  17  18
ATOM     18  C   UNL     1      -2.261   3.152   0.908  1.00  0.00     0.125 A 
ATOM     19  N   UNL     1      -3.162   3.929   0.266  1.00  0.00    -0.228 NA
ATOM     20  C   UNL     1      -2.768   2.124   1.691  1.00  0.00     0.117 A 
ATOM     21  C   UNL     1      -4.474   3.697   0.467  1.00  0.00     0.225 A 
ATOM     22  C   UNL     1      -4.137   2.001   1.873  1.00  0.00     0.181 A 
ATOM     23  N   UNL     1      -2.267   1.082   2.420  1.00  0.00    -0.341 N 
ATOM     24  N   UNL     1      -5.039   2.786   1.265  1.00  0.00    -0.215 NA
ATOM     25  N   UNL     1      -4.447   1.003   2.762  1.00  0.00    -0.217 NA
ATOM     26  C   UNL     1      -3.294   0.464   3.074  1.00  0.00     0.199 A 
ATOM     27  H   UNL     1      -1.319   0.821   2.466  1.00  0.00     0.168 HD
ENDBRANCH  17  18
ENDBRANCH  16  17
ENDBRANCH  15  16
ENDBRANCH   8  15
ENDBRANCH   3   6
ENDBRANCH   1   2
BRANCH   1  28
ATOM     28  C   UNL     1       4.182  -2.439   0.819  1.00  0.00     0.023 C 
BRANCH  28  29
ATOM     29  C   UNL     1       4.785  -3.082  -0.425  1.00  0.00     0.023 C 
BRANCH  29  30
ATOM     30  C   UNL     1       6.079  -2.437  -0.882  1.00  0.00     0.116 C 
BRANCH  30  31
ATOM     31  N   UNL     1       7.037  -2.255   0.199  1.00  0.00    -0.352 N 
ATOM     32  C   UNL     1       8.406  -2.190   0.102  1.00  0.00     0.251 C 
ATOM     33  H   UNL     1       6.660  -2.168   1.104  1.00  0.00     0.163 HD
ATOM     34  O   UNL     1       9.114  -2.102   1.083  1.00  0.00    -0.269 OA
BRANCH  32  35
ATOM     35  C   UNL     1       8.976  -2.285  -1.251  1.00  0.00     0.039 A 
ATOM     36  C   UNL     1       9.801  -3.368  -1.546  1.00  0.00     0.014 A 
ATOM     37  C   UNL     1       8.562  -1.386  -2.237  1.00  0.00     0.014 A 
ATOM     38  C   UNL     1      10.184  -3.579  -2.866  1.00  0.00     0.010 A 
ATOM     39  C   UNL     1       8.876  -1.647  -3.561  1.00  0.00     0.010 A 
ATOM     40  C   UNL     1       9.700  -2.738  -3.882  1.00  0.00    -0.014 A 
BRANCH  40  41
ATOM     41  C   UNL     1      10.078  -2.962  -5.293  1.00  0.00     0.031 A 
ATOM     42  C   UNL     1      10.924  -1.942  -5.995  1.00  0.00     0.074 A 
ATOM     43  C   UNL     1       9.618  -4.047  -5.942  1.00  0.00     0.049 A 
ATOM     44  N   UNL     1      11.341  -1.924  -7.234  1.00  0.00    -0.248 NA
ATOM     45  C   UNL     1      11.326  -0.764  -5.208  1.00  0.00     0.031 C 
ATOM     46  C   UNL     1       8.748  -5.074  -5.366  1.00  0.00     0.029 A 
ATOM     47  N   UNL     1       9.821  -4.466  -7.231  1.00  0.00    -0.354 N 
ATOM     48  C   UNL     1      12.033  -0.730  -7.377  1.00  0.00     0.074 A 
ATOM     49  C   UNL     1      11.928  -0.021  -6.122  1.00  0.00     0.031 C 
ATOM     50  C   UNL     1       8.523  -6.025  -6.287  1.00  0.00     0.029 A 
ATOM     51  C   UNL     1       9.205  -5.657  -7.524  1.00  0.00     0.049 A 
ATOM     52  H   UNL     1      10.357  -3.961  -7.884  1.00  0.00     0.167 HD
ATOM     53  C   UNL     1      12.719  -0.281  -8.453  1.00  0.00     0.037 A 
ATOM     54  C   UNL     1       9.204  -6.371  -8.665  1.00  0.00     0.037 A 
ATOM     55  C   UNL     1      12.847  -1.016  -9.682  1.00  0.00     0.049 A 
ATOM     56  C   UNL     1       9.979  -5.851  -9.846  1.00  0.00     0.074 A 
ATOM     57  C   UNL     1      13.586  -0.697 -10.806  1.00  0.00     0.029 A 
ATOM     58  N   UNL     1      12.215  -2.223  -9.944  1.00  0.00    -0.354 N 
ATOM     59  N   UNL     1      10.703  -4.762  -9.947  1.00  0.00    -0.248 NA
ATOM     60  C   UNL     1       9.938  -6.662 -11.070  1.00  0.00     0.031 C 
ATOM     61  C   UNL     1      13.362  -1.688 -11.768  1.00  0.00     0.029 A 
ATOM     62  C   UNL     1      12.524  -2.650 -11.225  1.00  0.00     0.049 A 
ATOM     63  H   UNL     1      11.632  -2.705  -9.313  1.00  0.00     0.167 HD
ATOM     64  C   UNL     1      11.230  -4.772 -11.231  1.00  0.00     0.074 A 
ATOM     65  C   UNL     1      10.750  -5.982 -11.868  1.00  0.00     0.031 C 
ATOM     66  C   UNL     1      12.040  -3.864 -11.830  1.00  0.00     0.037 A 
BRANCH  53  67
ATOM     67  C   UNL     1      13.374   1.065  -8.341  1.00  0.00     0.064 A 
ATOM     68  C   UNL     1      14.470   1.284  -7.492  1.00  0.00     0.173 A 
ATOM     69  C   UNL     1      12.899   2.149  -9.093  1.00  0.00     0.173 A 
ATOM     70  F   UNL     1      14.951   0.285  -6.737  1.00  0.00    -0.203 F 
ATOM     71  C   UNL     1      15.041   2.548  -7.371  1.00  0.00     0.198 A 
ATOM     72  C   UNL     1      13.495   3.404  -8.994  1.00  0.00     0.198 A 
ATOM     73  F   UNL     1      11.855   1.994  -9.919  1.00  0.00    -0.203 F 
ATOM     74  F   UNL     1      16.045   2.748  -6.506  1.00  0.00    -0.200 F 
ATOM     75  C   UNL     1      14.557   3.606  -8.126  1.00  0.00     0.200 A 
ATOM     76  F   UNL     1      13.031   4.423  -9.732  1.00  0.00    -0.200 F 
ATOM     77  F   UNL     1      15.108   4.822  -8.009  1.00  0.00    -0.200 F 
ENDBRANCH  53  67
BRANCH  54  78
ATOM     78  C   UNL     1       8.492  -7.673  -8.729  1.00  0.00     0.064 A 
ATOM     79  C   UNL     1       9.209  -8.875  -8.808  1.00  0.00     0.173 A 
ATOM     80  C   UNL     1       7.093  -7.747  -8.709  1.00  0.00     0.173 A 
ATOM     81  F   UNL     1      10.549  -8.853  -8.847  1.00  0.00    -0.203 F 
ATOM     82  C   UNL     1       8.553 -10.102  -8.882  1.00  0.00     0.198 A 
ATOM     83  C   UNL     1       6.437  -8.977  -8.758  1.00  0.00     0.198 A 
ATOM     84  F   UNL     1       6.361  -6.627  -8.627  1.00  0.00    -0.203 F 
ATOM     85  F   UNL     1       9.262 -11.233  -8.996  1.00  0.00    -0.200 F 
ATOM     86  C   UNL     1       7.168 -10.152  -8.852  1.00  0.00     0.200 A 
ATOM     87  F   UNL     1       5.099  -9.022  -8.713  1.00  0.00    -0.200 F 
ATOM     88  F   UNL     1       6.536 -11.332  -8.918  1.00  0.00    -0.200 F 
ENDBRANCH  54  78
BRANCH  66  89
ATOM     89  C   UNL     1      12.484  -4.164 -13.231  1.00  0.00     0.064 A 
ATOM     90  C   UNL     1      11.604  -4.069 -14.318  1.00  0.00     0.173 A 
ATOM     91  C   UNL     1      13.820  -4.507 -13.491  1.00  0.00     0.173 A 
ATOM     92  F   UNL     1      10.315  -3.759 -14.118  1.00  0.00    -0.203 F 
ATOM     93  C   UNL     1      12.040  -4.331 -15.614  1.00  0.00     0.198 A 
ATOM     94  C   UNL     1      14.259  -4.738 -14.791  1.00  0.00     0.198 A 
ATOM     95  F   UNL     1      14.702  -4.604 -12.485  1.00  0.00    -0.203 F 
ATOM     96  F   UNL     1      11.172  -4.280 -16.634  1.00  0.00    -0.200 F 
ATOM     97  C   UNL     1      13.368  -4.657 -15.850  1.00  0.00     0.200 A 
ATOM     98  F   UNL     1      15.545  -5.039 -15.018  1.00  0.00    -0.200 F 
ATOM     99  F   UNL     1      13.787  -4.900 -17.099  1.00  0.00    -0.200 F 
ENDBRANCH  66  89
ENDBRANCH  40  41
ENDBRANCH  32  35
ENDBRANCH  30  31
ENDBRANCH  29  30
ENDBRANCH  28  29
ENDBRANCH   1  28
TORSDOF 16
