REMARK SMILES CC1(C)S[C@H](c2ccc(-c3ccccc3)o2)[NH2+][C@H]1C(=O)NCCCCNC(=O)c1ccc(-c2c3nc(c(-c4c(F)c(F)c(F)c(F)c4F)c4ccc([nH]4)c(-c4c(F)c(F)c(F)c(F)c4F)c4nc(c(-c5c(F)c(F)c(F)c(F)c5F)c5ccc2[nH]5)C=C4)C=C3)cc1
REMARK SMILES IDX 23 1 22 2 21 3 19 4 20 5 18 7 1 8 2 9 3 10 4 11 5 12 17 13
REMARK SMILES IDX 6 16 7 17 16 18 8 19 9 20 10 21 11 22 15 23 12 24 14 25
REMARK SMILES IDX 13 26 24 27 25 28 26 29 27 30 28 32 29 33 30 34 91 35 31 36
REMARK SMILES IDX 90 37 32 38 33 39 34 40 84 41 35 42 89 43 83 44 85 45 36 46
REMARK SMILES IDX 88 47 82 48 81 49 37 51 69 52 49 53 68 54 50 55 53 56 67 57
REMARK SMILES IDX 86 58 51 59 52 60 66 62 87 63 54 64 38 65 39 66 47 67 40 68
REMARK SMILES IDX 41 69 45 70 48 71 42 72 43 73 46 74 44 75 70 76 71 77 79 78
REMARK SMILES IDX 72 79 73 80 77 81 80 82 74 83 75 84 78 85 76 86 55 87 56 88
REMARK SMILES IDX 64 89 57 90 58 91 62 92 65 93 59 94 60 95 63 96 61 97
REMARK H PARENT 21 6 17 14 17 15 26 31 85 50 53 61
REMARK Flexibility Score: inf
ROOT
ATOM      1  C   UNL     1       1.522   1.925   3.234  1.00  0.00     0.023 C 
ENDROOT
BRANCH   1   2
ATOM      2  C   UNL     1       0.302   2.176   2.345  1.00  0.00     0.116 C 
BRANCH   2   3
ATOM      3  N   UNL     1       0.661   2.808   1.088  1.00  0.00    -0.351 N 
ATOM      4  C   UNL     1       0.608   2.410  -0.215  1.00  0.00     0.279 C 
ATOM      5  O   UNL     1       1.123   3.185  -1.031  1.00  0.00    -0.268 OA
ATOM      6  H   UNL     1       1.019   3.718   1.201  1.00  0.00     0.163 HD
BRANCH   4   7
ATOM      7  C   UNL     1       0.009   1.069  -0.699  1.00  0.00     0.289 C 
ATOM      8  C   UNL     1       1.780  -0.276   0.715  1.00  0.00     0.030 C 
ATOM      9  C   UNL     1       0.948  -0.149  -0.555  1.00  0.00     0.078 C 
ATOM     10  C   UNL     1       1.886  -0.260  -1.763  1.00  0.00     0.030 C 
ATOM     11  S   UNL     1      -0.189  -1.570  -0.544  1.00  0.00    -0.078 SA
ATOM     12  C   UNL     1      -1.690  -0.576  -0.340  1.00  0.00     0.311 C 
ATOM     13  N   UNL     1      -1.350   0.833  -0.164  1.00  0.00    -0.317 N 
ATOM     14  H   UNL     1      -1.373   1.069   0.828  1.00  0.00     0.348 HD
ATOM     15  H   UNL     1      -2.023   1.416  -0.661  1.00  0.00     0.348 HD
BRANCH  12  16
ATOM     16  C   UNL     1      -2.633  -0.878  -1.459  1.00  0.00     0.172 A 
ATOM     17  C   UNL     1      -3.418  -1.994  -1.691  1.00  0.00     0.054 A 
ATOM     18  O   UNL     1      -2.781   0.013  -2.489  1.00  0.00    -0.454 OA
ATOM     19  C   UNL     1      -4.089  -1.770  -2.909  1.00  0.00     0.051 A 
ATOM     20  C   UNL     1      -3.685  -0.531  -3.360  1.00  0.00     0.134 A 
BRANCH  20  21
ATOM     21  C   UNL     1      -4.042   0.253  -4.531  1.00  0.00     0.017 A 
ATOM     22  C   UNL     1      -3.074   0.933  -5.277  1.00  0.00     0.012 A 
ATOM     23  C   UNL     1      -5.377   0.284  -4.965  1.00  0.00     0.012 A 
ATOM     24  C   UNL     1      -3.430   1.613  -6.446  1.00  0.00     0.001 A 
ATOM     25  C   UNL     1      -5.735   0.973  -6.125  1.00  0.00     0.001 A 
ATOM     26  C   UNL     1      -4.760   1.631  -6.869  1.00  0.00     0.000 A 
ENDBRANCH  20  21
ENDBRANCH  12  16
ENDBRANCH   4   7
ENDBRANCH   2   3
ENDBRANCH   1   2
BRANCH   1  27
ATOM     27  C   UNL     1       2.130   3.166   3.871  1.00  0.00     0.023 C 
BRANCH  27  28
ATOM     28  C   UNL     1       1.201   3.908   4.814  1.00  0.00     0.116 C 
BRANCH  28  29
ATOM     29  N   UNL     1       0.692   3.070   5.892  1.00  0.00    -0.352 N 
ATOM     30  C   UNL     1       0.671   3.319   7.244  1.00  0.00     0.251 C 
ATOM     31  H   UNL     1       0.311   2.206   5.614  1.00  0.00     0.163 HD
ATOM     32  O   UNL     1       0.330   2.451   8.034  1.00  0.00    -0.269 OA
BRANCH  30  33
ATOM     33  C   UNL     1       1.097   4.646   7.729  1.00  0.00     0.039 A 
ATOM     34  C   UNL     1       1.995   4.726   8.795  1.00  0.00     0.014 A 
ATOM     35  C   UNL     1       0.642   5.803   7.092  1.00  0.00     0.014 A 
ATOM     36  C   UNL     1       2.489   5.973   9.181  1.00  0.00     0.010 A 
ATOM     37  C   UNL     1       1.212   7.027   7.408  1.00  0.00     0.010 A 
ATOM     38  C   UNL     1       2.125   7.127   8.468  1.00  0.00    -0.014 A 
BRANCH  38  39
ATOM     39  C   UNL     1       2.639   8.466   8.841  1.00  0.00     0.031 A 
ATOM     40  C   UNL     1       1.670   9.526   9.285  1.00  0.00     0.074 A 
ATOM     41  C   UNL     1       3.948   8.749   8.703  1.00  0.00     0.049 A 
ATOM     42  N   UNL     1       1.884  10.790   9.546  1.00  0.00    -0.248 NA
ATOM     43  C   UNL     1       0.260   9.120   9.409  1.00  0.00     0.031 C 
ATOM     44  C   UNL     1       4.972   7.820   8.223  1.00  0.00     0.029 A 
ATOM     45  N   UNL     1       4.638   9.910   8.944  1.00  0.00    -0.354 N 
ATOM     46  C   UNL     1       0.636  11.330   9.829  1.00  0.00     0.074 A 
ATOM     47  C   UNL     1      -0.337  10.276   9.647  1.00  0.00     0.031 C 
ATOM     48  C   UNL     1       6.164   8.439   8.230  1.00  0.00     0.029 A 
ATOM     49  C   UNL     1       5.983   9.814   8.684  1.00  0.00     0.049 A 
ATOM     50  H   UNL     1       4.210  10.733   9.272  1.00  0.00     0.167 HD
ATOM     51  C   UNL     1       0.332  12.584  10.236  1.00  0.00     0.037 A 
ATOM     52  C   UNL     1       6.955  10.738   8.803  1.00  0.00     0.037 A 
ATOM     53  C   UNL     1       1.311  13.611  10.467  1.00  0.00     0.049 A 
ATOM     54  C   UNL     1       6.599  12.111   9.305  1.00  0.00     0.074 A 
ATOM     55  C   UNL     1       1.121  14.897  10.940  1.00  0.00     0.029 A 
ATOM     56  N   UNL     1       2.673  13.458  10.252  1.00  0.00    -0.354 N 
ATOM     57  N   UNL     1       5.424  12.595   9.628  1.00  0.00    -0.248 NA
ATOM     58  C   UNL     1       7.706  13.062   9.470  1.00  0.00     0.031 C 
ATOM     59  C   UNL     1       2.367  15.532  10.984  1.00  0.00     0.029 A 
ATOM     60  C   UNL     1       3.336  14.628  10.579  1.00  0.00     0.049 A 
ATOM     61  H   UNL     1       3.104  12.639   9.916  1.00  0.00     0.167 HD
ATOM     62  C   UNL     1       5.653  13.892  10.066  1.00  0.00     0.074 A 
ATOM     63  C   UNL     1       7.081  14.116   9.977  1.00  0.00     0.031 C 
ATOM     64  C   UNL     1       4.762  14.817  10.502  1.00  0.00     0.037 A 
BRANCH  51  65
ATOM     65  C   UNL     1      -1.117  12.902  10.469  1.00  0.00     0.064 A 
ATOM     66  C   UNL     1      -1.831  12.337  11.537  1.00  0.00     0.173 A 
ATOM     67  C   UNL     1      -1.798  13.788   9.621  1.00  0.00     0.173 A 
ATOM     68  F   UNL     1      -1.231  11.470  12.367  1.00  0.00    -0.203 F 
ATOM     69  C   UNL     1      -3.182  12.618  11.725  1.00  0.00     0.198 A 
ATOM     70  C   UNL     1      -3.140  14.092   9.832  1.00  0.00     0.198 A 
ATOM     71  F   UNL     1      -1.162  14.358   8.586  1.00  0.00    -0.203 F 
ATOM     72  F   UNL     1      -3.857  12.019  12.716  1.00  0.00    -0.200 F 
ATOM     73  C   UNL     1      -3.833  13.500  10.877  1.00  0.00     0.200 A 
ATOM     74  F   UNL     1      -3.767  14.953   9.018  1.00  0.00    -0.200 F 
ATOM     75  F   UNL     1      -5.133  13.772  11.061  1.00  0.00    -0.200 F 
ENDBRANCH  51  65
BRANCH  52  76
ATOM     76  C   UNL     1       8.363  10.380   8.492  1.00  0.00     0.064 A 
ATOM     77  C   UNL     1       9.313  10.255   9.516  1.00  0.00     0.173 A 
ATOM     78  C   UNL     1       8.790  10.159   7.175  1.00  0.00     0.173 A 
ATOM     79  F   UNL     1       8.956  10.474  10.790  1.00  0.00    -0.203 F 
ATOM     80  C   UNL     1      10.641   9.945   9.233  1.00  0.00     0.198 A 
ATOM     81  C   UNL     1      10.114   9.823   6.895  1.00  0.00     0.198 A 
ATOM     82  F   UNL     1       7.919  10.258   6.161  1.00  0.00    -0.203 F 
ATOM     83  F   UNL     1      11.537   9.876  10.227  1.00  0.00    -0.200 F 
ATOM     84  C   UNL     1      11.040   9.725   7.923  1.00  0.00     0.200 A 
ATOM     85  F   UNL     1      10.493   9.597   5.630  1.00  0.00    -0.200 F 
ATOM     86  F   UNL     1      12.317   9.425   7.651  1.00  0.00    -0.200 F 
ENDBRANCH  52  76
BRANCH  64  87
ATOM     87  C   UNL     1       5.312  16.133  10.964  1.00  0.00     0.064 A 
ATOM     88  C   UNL     1       5.809  17.082  10.060  1.00  0.00     0.173 A 
ATOM     89  C   UNL     1       5.302  16.462  12.328  1.00  0.00     0.173 A 
ATOM     90  F   UNL     1       5.852  16.806   8.748  1.00  0.00    -0.203 F 
ATOM     91  C   UNL     1       6.303  18.304  10.508  1.00  0.00     0.198 A 
ATOM     92  C   UNL     1       5.769  17.696  12.769  1.00  0.00     0.198 A 
ATOM     93  F   UNL     1       4.829  15.590  13.231  1.00  0.00    -0.203 F 
ATOM     94  F   UNL     1       6.816  19.178   9.632  1.00  0.00    -0.200 F 
ATOM     95  C   UNL     1       6.276  18.613  11.860  1.00  0.00     0.200 A 
ATOM     96  F   UNL     1       5.731  17.998  14.074  1.00  0.00    -0.200 F 
ATOM     97  F   UNL     1       6.746  19.792  12.288  1.00  0.00    -0.200 F 
ENDBRANCH  64  87
ENDBRANCH  38  39
ENDBRANCH  30  33
ENDBRANCH  28  29
ENDBRANCH  27  28
ENDBRANCH   1  27
TORSDOF 13
