REMARK SMILES CC(C)[C@H](NC(N)=O)C(=O)N[C@H](C)C(=O)NCCCCNC(=O)c1ccc(-c2c3nc(c(-c4c(F)c(F)c(F)c(F)c4F)c4ccc([nH]4)c(-c4c(F)c(F)c(F)c(F)c4F)c4nc(c(-c5c(F)c(F)c(F)c(F)c5F)c5ccc2[nH]5)C=C4)C=C3)cc1
REMARK SMILES IDX 18 1 17 2 16 3 14 4 15 5 12 7 13 8 11 9 9 10 10 11 4 13 2 14
REMARK SMILES IDX 1 15 3 16 5 17 6 18 7 20 8 21 19 24 20 25 21 26 22 27 23 29
REMARK SMILES IDX 24 30 25 31 86 32 26 33 85 34 27 35 28 36 29 37 79 38 30 39
REMARK SMILES IDX 84 40 78 41 80 42 31 43 83 44 77 45 76 46 32 48 64 49 44 50
REMARK SMILES IDX 63 51 45 52 48 53 62 54 81 55 46 56 47 57 61 59 82 60 49 61
REMARK SMILES IDX 33 62 34 63 42 64 35 65 36 66 40 67 43 68 37 69 38 70 41 71
REMARK SMILES IDX 39 72 65 73 66 74 74 75 67 76 68 77 72 78 75 79 69 80 70 81
REMARK SMILES IDX 73 82 71 83 50 84 51 85 59 86 52 87 53 88 57 89 60 90 54 91
REMARK SMILES IDX 55 92 58 93 56 94
REMARK H PARENT 16 6 11 12 5 19 7 22 7 23 21 28 80 47 48 58
REMARK Flexibility Score: inf
ROOT
ATOM      1  C   UNL     1      -4.410   6.569  -0.189  1.00  0.00     0.023 C 
ENDROOT
BRANCH   1   2
ATOM      2  C   UNL     1      -3.146   5.755   0.093  1.00  0.00     0.116 C 
BRANCH   2   3
ATOM      3  N   UNL     1      -3.055   5.041   1.340  1.00  0.00    -0.354 N 
ATOM      4  C   UNL     1      -1.949   4.380   1.812  1.00  0.00     0.242 C 
ATOM      5  O   UNL     1      -1.889   4.221   3.038  1.00  0.00    -0.273 OA
ATOM      6  H   UNL     1      -3.860   5.025   1.906  1.00  0.00     0.163 HD
BRANCH   4   7
ATOM      7  C   UNL     1      -0.774   3.888   0.908  1.00  0.00     0.168 C 
ATOM      8  C   UNL     1      -1.161   3.040  -0.309  1.00  0.00     0.041 C 
BRANCH   7   9
ATOM      9  N   UNL     1       0.513   4.593   0.735  1.00  0.00    -0.343 N 
ATOM     10  C   UNL     1       0.927   5.634  -0.026  1.00  0.00     0.243 C 
ATOM     11  O   UNL     1       1.950   5.427  -0.698  1.00  0.00    -0.273 OA
ATOM     12  H   UNL     1       1.230   4.224   1.301  1.00  0.00     0.164 HD
BRANCH  10  13
ATOM     13  C   UNL     1       0.331   7.068  -0.004  1.00  0.00     0.175 C 
BRANCH  13  14
ATOM     14  C   UNL     1       0.319   7.712   1.431  1.00  0.00     0.015 C 
ATOM     15  C   UNL     1       0.627   9.213   1.366  1.00  0.00     0.010 C 
ATOM     16  C   UNL     1      -0.855   7.499   2.386  1.00  0.00     0.010 C 
ENDBRANCH  13  14
BRANCH  13  17
ATOM     17  N   UNL     1      -0.649   7.510  -1.008  1.00  0.00    -0.326 N 
ATOM     18  C   UNL     1      -1.068   6.716  -2.037  1.00  0.00     0.312 C 
ATOM     19  H   UNL     1      -1.019   8.419  -0.935  1.00  0.00     0.166 HD
ATOM     20  N   UNL     1      -1.813   7.355  -2.967  1.00  0.00    -0.352 N 
ATOM     21  O   UNL     1      -0.929   5.508  -2.108  1.00  0.00    -0.249 OA
ATOM     22  H   UNL     1      -1.931   8.331  -2.917  1.00  0.00     0.161 HD
ATOM     23  H   UNL     1      -2.237   6.845  -3.694  1.00  0.00     0.161 HD
ENDBRANCH  13  17
ENDBRANCH  10  13
ENDBRANCH   7   9
ENDBRANCH   4   7
ENDBRANCH   2   3
ENDBRANCH   1   2
BRANCH   1  24
ATOM     24  C   UNL     1      -4.732   7.804   0.669  1.00  0.00     0.023 C 
BRANCH  24  25
ATOM     25  C   UNL     1      -3.724   8.949   0.813  1.00  0.00     0.116 C 
BRANCH  25  26
ATOM     26  N   UNL     1      -3.407   9.722  -0.374  1.00  0.00    -0.352 N 
ATOM     27  C   UNL     1      -3.205  11.084  -0.512  1.00  0.00     0.251 C 
ATOM     28  H   UNL     1      -3.323   9.199  -1.204  1.00  0.00     0.163 HD
ATOM     29  O   UNL     1      -2.760  11.513  -1.575  1.00  0.00    -0.269 OA
BRANCH  27  30
ATOM     30  C   UNL     1      -3.595  12.051   0.555  1.00  0.00     0.039 A 
ATOM     31  C   UNL     1      -4.402  13.136   0.189  1.00  0.00     0.014 A 
ATOM     32  C   UNL     1      -3.213  11.917   1.893  1.00  0.00     0.014 A 
ATOM     33  C   UNL     1      -4.924  13.996   1.165  1.00  0.00     0.010 A 
ATOM     34  C   UNL     1      -3.780  12.745   2.877  1.00  0.00     0.010 A 
ATOM     35  C   UNL     1      -4.674  13.771   2.530  1.00  0.00    -0.014 A 
BRANCH  35  36
ATOM     36  C   UNL     1      -5.436  14.534   3.568  1.00  0.00     0.031 A 
ATOM     37  C   UNL     1      -4.764  15.482   4.524  1.00  0.00     0.074 A 
ATOM     38  C   UNL     1      -6.768  14.338   3.677  1.00  0.00     0.049 A 
ATOM     39  N   UNL     1      -5.302  16.256   5.437  1.00  0.00    -0.248 NA
ATOM     40  C   UNL     1      -3.299  15.558   4.465  1.00  0.00     0.031 C 
ATOM     41  C   UNL     1      -7.547  13.393   2.876  1.00  0.00     0.029 A 
ATOM     42  N   UNL     1      -7.703  14.921   4.500  1.00  0.00    -0.354 N 
ATOM     43  C   UNL     1      -4.246  16.911   6.058  1.00  0.00     0.074 A 
ATOM     44  C   UNL     1      -3.032  16.403   5.452  1.00  0.00     0.031 C 
ATOM     45  C   UNL     1      -8.841  13.485   3.220  1.00  0.00     0.029 A 
ATOM     46  C   UNL     1      -8.985  14.476   4.282  1.00  0.00     0.049 A 
ATOM     47  H   UNL     1      -7.476  15.594   5.182  1.00  0.00     0.167 HD
ATOM     48  C   UNL     1      -4.283  17.861   7.027  1.00  0.00     0.037 A 
ATOM     49  C   UNL     1     -10.151  14.827   4.860  1.00  0.00     0.037 A 
ATOM     50  C   UNL     1      -5.487  18.377   7.632  1.00  0.00     0.049 A 
ATOM     51  C   UNL     1     -10.167  15.898   5.917  1.00  0.00     0.074 A 
ATOM     52  C   UNL     1      -5.619  19.391   8.568  1.00  0.00     0.029 A 
ATOM     53  N   UNL     1      -6.768  17.910   7.375  1.00  0.00    -0.354 N 
ATOM     54  N   UNL     1      -9.169  16.584   6.415  1.00  0.00    -0.248 NA
ATOM     55  C   UNL     1     -11.478  16.252   6.481  1.00  0.00     0.031 C 
ATOM     56  C   UNL     1      -6.971  19.503   8.912  1.00  0.00     0.029 A 
ATOM     57  C   UNL     1      -7.690  18.597   8.152  1.00  0.00     0.049 A 
ATOM     58  H   UNL     1      -6.990  17.197   6.734  1.00  0.00     0.167 HD
ATOM     59  C   UNL     1      -9.731  17.464   7.332  1.00  0.00     0.074 A 
ATOM     60  C   UNL     1     -11.161  17.243   7.301  1.00  0.00     0.031 C 
ATOM     61  C   UNL     1      -9.113  18.370   8.129  1.00  0.00     0.037 A 
BRANCH  48  62
ATOM     62  C   UNL     1      -2.970  18.423   7.497  1.00  0.00     0.064 A 
ATOM     63  C   UNL     1      -2.191  19.253   6.676  1.00  0.00     0.173 A 
ATOM     64  C   UNL     1      -2.509  18.173   8.799  1.00  0.00     0.173 A 
ATOM     65  F   UNL     1      -2.584  19.522   5.422  1.00  0.00    -0.203 F 
ATOM     66  C   UNL     1      -0.985  19.783   7.128  1.00  0.00     0.198 A 
ATOM     67  C   UNL     1      -1.317  18.730   9.258  1.00  0.00     0.198 A 
ATOM     68  F   UNL     1      -3.220  17.399   9.632  1.00  0.00    -0.203 F 
ATOM     69  F   UNL     1      -0.236  20.534   6.308  1.00  0.00    -0.200 F 
ATOM     70  C   UNL     1      -0.552  19.527   8.420  1.00  0.00     0.200 A 
ATOM     71  F   UNL     1      -0.908  18.495  10.513  1.00  0.00    -0.200 F 
ATOM     72  F   UNL     1       0.605  20.044   8.856  1.00  0.00    -0.200 F 
ENDBRANCH  48  62
BRANCH  49  73
ATOM     73  C   UNL     1     -11.419  14.184   4.421  1.00  0.00     0.064 A 
ATOM     74  C   UNL     1     -12.383  14.908   3.705  1.00  0.00     0.173 A 
ATOM     75  C   UNL     1     -11.697  12.842   4.717  1.00  0.00     0.173 A 
ATOM     76  F   UNL     1     -12.173  16.202   3.419  1.00  0.00    -0.203 F 
ATOM     77  C   UNL     1     -13.586  14.320   3.320  1.00  0.00     0.198 A 
ATOM     78  C   UNL     1     -12.887  12.247   4.305  1.00  0.00     0.198 A 
ATOM     79  F   UNL     1     -10.806  12.106   5.396  1.00  0.00    -0.203 F 
ATOM     80  F   UNL     1     -14.510  15.049   2.679  1.00  0.00    -0.200 F 
ATOM     81  C   UNL     1     -13.835  12.988   3.615  1.00  0.00     0.200 A 
ATOM     82  F   UNL     1     -13.118  10.956   4.579  1.00  0.00    -0.200 F 
ATOM     83  F   UNL     1     -14.989  12.421   3.240  1.00  0.00    -0.200 F 
ENDBRANCH  49  73
BRANCH  61  84
ATOM     84  C   UNL     1      -9.987  19.205   9.023  1.00  0.00     0.064 A 
ATOM     85  C   UNL     1     -10.663  18.649  10.121  1.00  0.00     0.173 A 
ATOM     86  C   UNL     1     -10.151  20.578   8.782  1.00  0.00     0.173 A 
ATOM     87  F   UNL     1     -10.554  17.339  10.388  1.00  0.00    -0.203 F 
ATOM     88  C   UNL     1     -11.498  19.428  10.919  1.00  0.00     0.198 A 
ATOM     89  C   UNL     1     -10.962  21.360   9.601  1.00  0.00     0.198 A 
ATOM     90  F   UNL     1      -9.525  21.163   7.750  1.00  0.00    -0.203 F 
ATOM     91  F   UNL     1     -12.181  18.861  11.923  1.00  0.00    -0.200 F 
ATOM     92  C   UNL     1     -11.644  20.782  10.661  1.00  0.00     0.200 A 
ATOM     93  F   UNL     1     -11.092  22.671   9.357  1.00  0.00    -0.200 F 
ATOM     94  F   UNL     1     -12.451  21.529  11.428  1.00  0.00    -0.200 F 
ENDBRANCH  61  84
ENDBRANCH  35  36
ENDBRANCH  27  30
ENDBRANCH  25  26
ENDBRANCH  24  25
ENDBRANCH   1  24
TORSDOF 15
