REMARK SMILES CC(C)(O)CC[NH2+]CC(=O)NCCCCNC(=O)c1ccc(-c2c3nc(c(-c4c(F)c(F)c(F)c(F)c4F)c4ccc([nH]4)c(-c4c(F)c(F)c(F)c(F)c4F)c4nc(c(-c5c(F)c(F)c(F)c(F)c5F)c5ccc2[nH]5)C=C4)C=C3)cc1
REMARK SMILES IDX 12 1 11 2 9 3 10 4 8 6 7 7 6 10 5 11 2 12 1 13 3 14 4 15
REMARK SMILES IDX 13 17 14 18 15 19 16 20 17 21 18 23 19 24 20 25 81 26 21 27
REMARK SMILES IDX 80 28 22 29 23 30 24 31 74 32 25 33 79 34 73 35 75 36 26 37
REMARK SMILES IDX 78 38 72 39 71 40 27 42 59 43 39 44 58 45 40 46 43 47 57 48
REMARK SMILES IDX 76 49 41 50 42 51 56 53 77 54 44 55 28 56 29 57 37 58 30 59
REMARK SMILES IDX 31 60 35 61 38 62 32 63 33 64 36 65 34 66 60 67 61 68 69 69
REMARK SMILES IDX 62 70 63 71 67 72 70 73 64 74 65 75 68 76 66 77 45 78 46 79
REMARK SMILES IDX 54 80 47 81 48 82 52 83 55 84 49 85 50 86 53 87 51 88
REMARK H PARENT 11 5 7 8 7 9 4 16 16 22 75 41 43 52
REMARK Flexibility Score: inf
ROOT
ATOM      1  C   UNL     1      -1.302  -0.274  -4.561  1.00  0.00     0.116 C 
ENDROOT
BRANCH   1   2
ATOM      2  N   UNL     1      -1.586   0.936  -3.806  1.00  0.00    -0.351 N 
ATOM      3  C   UNL     1      -0.733   1.854  -3.255  1.00  0.00     0.275 C 
ATOM      4  O   UNL     1      -1.220   2.723  -2.525  1.00  0.00    -0.269 OA
ATOM      5  H   UNL     1      -2.543   1.124  -3.669  1.00  0.00     0.163 HD
BRANCH   3   6
ATOM      6  C   UNL     1       0.786   1.806  -3.518  1.00  0.00     0.361 C 
BRANCH   6   7
ATOM      7  N   UNL     1       1.538   1.149  -2.413  1.00  0.00    -0.338 N 
ATOM      8  H   UNL     1       2.534   1.339  -2.521  1.00  0.00     0.346 HD
ATOM      9  H   UNL     1       1.215   1.518  -1.518  1.00  0.00     0.346 HD
BRANCH   7  10
ATOM     10  C   UNL     1       1.311  -0.290  -2.453  1.00  0.00     0.263 C 
BRANCH  10  11
ATOM     11  C   UNL     1       1.871  -1.184  -1.346  1.00  0.00     0.096 C 
BRANCH  11  12
ATOM     12  C   UNL     1       1.063  -1.235  -0.028  1.00  0.00     0.064 C 
ATOM     13  C   UNL     1       1.269   0.020   0.817  1.00  0.00     0.042 C 
ATOM     14  C   UNL     1       1.459  -2.487   0.763  1.00  0.00     0.042 C 
BRANCH  12  15
ATOM     15  O   UNL     1      -0.333  -1.365  -0.314  1.00  0.00    -0.390 OA
ATOM     16  H   UNL     1      -0.832  -1.396   0.517  1.00  0.00     0.211 HD
ENDBRANCH  12  15
ENDBRANCH  11  12
ENDBRANCH  10  11
ENDBRANCH   7  10
ENDBRANCH   6   7
ENDBRANCH   3   6
ENDBRANCH   1   2
BRANCH   1  17
ATOM     17  C   UNL     1      -1.563  -1.543  -3.736  1.00  0.00     0.023 C 
BRANCH  17  18
ATOM     18  C   UNL     1      -3.011  -1.986  -3.641  1.00  0.00     0.023 C 
BRANCH  18  19
ATOM     19  C   UNL     1      -3.593  -2.483  -4.945  1.00  0.00     0.116 C 
BRANCH  19  20
ATOM     20  N   UNL     1      -2.870  -3.615  -5.511  1.00  0.00    -0.352 N 
ATOM     21  C   UNL     1      -3.379  -4.761  -6.079  1.00  0.00     0.251 C 
ATOM     22  H   UNL     1      -1.888  -3.551  -5.482  1.00  0.00     0.163 HD
ATOM     23  O   UNL     1      -2.647  -5.673  -6.423  1.00  0.00    -0.269 OA
BRANCH  21  24
ATOM     24  C   UNL     1      -4.845  -4.881  -6.217  1.00  0.00     0.039 A 
ATOM     25  C   UNL     1      -5.475  -6.039  -5.759  1.00  0.00     0.014 A 
ATOM     26  C   UNL     1      -5.592  -3.809  -6.709  1.00  0.00     0.014 A 
ATOM     27  C   UNL     1      -6.868  -6.087  -5.722  1.00  0.00     0.010 A 
ATOM     28  C   UNL     1      -6.970  -3.816  -6.567  1.00  0.00     0.010 A 
ATOM     29  C   UNL     1      -7.623  -4.959  -6.084  1.00  0.00    -0.014 A 
BRANCH  29  30
ATOM     30  C   UNL     1      -9.102  -4.954  -6.000  1.00  0.00     0.031 A 
ATOM     31  C   UNL     1      -9.909  -4.757  -7.253  1.00  0.00     0.074 A 
ATOM     32  C   UNL     1      -9.709  -5.041  -4.801  1.00  0.00     0.049 A 
ATOM     33  N   UNL     1     -11.202  -4.613  -7.392  1.00  0.00    -0.248 NA
ATOM     34  C   UNL     1      -9.157  -4.665  -8.516  1.00  0.00     0.031 C 
ATOM     35  C   UNL     1      -9.027  -5.168  -3.512  1.00  0.00     0.029 A 
ATOM     36  N   UNL     1     -11.040  -5.022  -4.472  1.00  0.00    -0.354 N 
ATOM     37  C   UNL     1     -11.409  -4.389  -8.746  1.00  0.00     0.074 A 
ATOM     38  C   UNL     1     -10.110  -4.349  -9.378  1.00  0.00     0.031 C 
ATOM     39  C   UNL     1      -9.945  -5.243  -2.534  1.00  0.00     0.029 A 
ATOM     40  C   UNL     1     -11.276  -5.134  -3.124  1.00  0.00     0.049 A 
ATOM     41  H   UNL     1     -11.759  -4.937  -5.139  1.00  0.00     0.167 HD
ATOM     42  C   UNL     1     -12.582  -4.261  -9.410  1.00  0.00     0.037 A 
ATOM     43  C   UNL     1     -12.438  -5.146  -2.445  1.00  0.00     0.037 A 
ATOM     44  C   UNL     1     -13.871  -4.351  -8.783  1.00  0.00     0.049 A 
ATOM     45  C   UNL     1     -13.730  -5.037  -3.209  1.00  0.00     0.074 A 
ATOM     46  C   UNL     1     -15.123  -4.305  -9.370  1.00  0.00     0.029 A 
ATOM     47  N   UNL     1     -14.072  -4.514  -7.419  1.00  0.00    -0.354 N 
ATOM     48  N   UNL     1     -13.918  -4.894  -4.499  1.00  0.00    -0.248 NA
ATOM     49  C   UNL     1     -14.971  -5.098  -2.425  1.00  0.00     0.031 C 
ATOM     50  C   UNL     1     -16.082  -4.408  -8.357  1.00  0.00     0.029 A 
ATOM     51  C   UNL     1     -15.428  -4.561  -7.145  1.00  0.00     0.049 A 
ATOM     52  H   UNL     1     -13.356  -4.587  -6.747  1.00  0.00     0.167 HD
ATOM     53  C   UNL     1     -15.293  -4.876  -4.685  1.00  0.00     0.074 A 
ATOM     54  C   UNL     1     -15.893  -5.038  -3.376  1.00  0.00     0.031 C 
ATOM     55  C   UNL     1     -15.998  -4.736  -5.834  1.00  0.00     0.037 A 
BRANCH  42  56
ATOM     56  C   UNL     1     -12.516  -4.030 -10.891  1.00  0.00     0.064 A 
ATOM     57  C   UNL     1     -12.086  -5.034 -11.772  1.00  0.00     0.173 A 
ATOM     58  C   UNL     1     -12.905  -2.798 -11.438  1.00  0.00     0.173 A 
ATOM     59  F   UNL     1     -11.687  -6.224 -11.297  1.00  0.00    -0.203 F 
ATOM     60  C   UNL     1     -12.018  -4.803 -13.143  1.00  0.00     0.198 A 
ATOM     61  C   UNL     1     -12.864  -2.582 -12.813  1.00  0.00     0.198 A 
ATOM     62  F   UNL     1     -13.325  -1.805 -10.641  1.00  0.00    -0.203 F 
ATOM     63  F   UNL     1     -11.551  -5.759 -13.959  1.00  0.00    -0.200 F 
ATOM     64  C   UNL     1     -12.413  -3.580 -13.663  1.00  0.00     0.200 A 
ATOM     65  F   UNL     1     -13.257  -1.403 -13.316  1.00  0.00    -0.200 F 
ATOM     66  F   UNL     1     -12.352  -3.361 -14.984  1.00  0.00    -0.200 F 
ENDBRANCH  42  56
BRANCH  43  67
ATOM     67  C   UNL     1     -12.436  -5.304  -0.967  1.00  0.00     0.064 A 
ATOM     68  C   UNL     1     -12.891  -6.489  -0.371  1.00  0.00     0.173 A 
ATOM     69  C   UNL     1     -11.986  -4.280  -0.122  1.00  0.00     0.173 A 
ATOM     70  F   UNL     1     -13.349  -7.490  -1.138  1.00  0.00    -0.203 F 
ATOM     71  C   UNL     1     -12.917  -6.635   1.014  1.00  0.00     0.198 A 
ATOM     72  C   UNL     1     -11.988  -4.437   1.263  1.00  0.00     0.198 A 
ATOM     73  F   UNL     1     -11.535  -3.129  -0.642  1.00  0.00    -0.203 F 
ATOM     74  F   UNL     1     -13.399  -7.761   1.558  1.00  0.00    -0.200 F 
ATOM     75  C   UNL     1     -12.461  -5.611   1.830  1.00  0.00     0.200 A 
ATOM     76  F   UNL     1     -11.533  -3.451   2.048  1.00  0.00    -0.200 F 
ATOM     77  F   UNL     1     -12.484  -5.753   3.162  1.00  0.00    -0.200 F 
ENDBRANCH  43  67
BRANCH  55  78
ATOM     78  C   UNL     1     -17.493  -4.787  -5.732  1.00  0.00     0.064 A 
ATOM     79  C   UNL     1     -18.228  -3.723  -5.190  1.00  0.00     0.173 A 
ATOM     80  C   UNL     1     -18.199  -5.893  -6.227  1.00  0.00     0.173 A 
ATOM     81  F   UNL     1     -17.596  -2.651  -4.691  1.00  0.00    -0.203 F 
ATOM     82  C   UNL     1     -19.618  -3.776  -5.127  1.00  0.00     0.198 A 
ATOM     83  C   UNL     1     -19.590  -5.930  -6.189  1.00  0.00     0.198 A 
ATOM     84  F   UNL     1     -17.540  -6.932  -6.762  1.00  0.00    -0.203 F 
ATOM     85  F   UNL     1     -20.299  -2.767  -4.566  1.00  0.00    -0.200 F 
ATOM     86  C   UNL     1     -20.297  -4.874  -5.633  1.00  0.00     0.200 A 
ATOM     87  F   UNL     1     -20.245  -6.986  -6.690  1.00  0.00    -0.200 F 
ATOM     88  F   UNL     1     -21.635  -4.918  -5.579  1.00  0.00    -0.200 F 
ENDBRANCH  55  78
ENDBRANCH  29  30
ENDBRANCH  21  24
ENDBRANCH  19  20
ENDBRANCH  18  19
ENDBRANCH  17  18
ENDBRANCH   1  17
TORSDOF 16
