REMARK SMILES O=C(NCCCCNC(=O)[C@@]12CCC[C@@H](C[NH2+]1)C2)c1ccc(-c2c3nc(c(-c4c(F)c(F)c(F)c(F)c4F)c4ccc([nH]4)c(-c4c(F)c(F)c(F)c(F)c4F)c4nc(c(-c5c(F)c(F)c(F)c(F)c5F)c5ccc2[nH]5)C=C4)C=C3)cc1
REMARK SMILES IDX 4 1 3 2 1 3 2 4 19 6 20 7 81 8 21 9 80 10 22 11 23 12 24 13
REMARK SMILES IDX 74 14 25 15 79 16 73 17 75 18 26 19 78 20 72 21 71 22 27 24
REMARK SMILES IDX 59 25 39 26 58 27 40 28 43 29 57 30 76 31 41 32 42 33 56 35
REMARK SMILES IDX 77 36 44 37 28 38 29 39 37 40 30 41 31 42 35 43 38 44 32 45
REMARK SMILES IDX 33 46 36 47 34 48 60 49 61 50 69 51 62 52 63 53 67 54 70 55
REMARK SMILES IDX 64 56 65 57 68 58 66 59 45 60 46 61 54 62 47 63 48 64 52 65
REMARK SMILES IDX 55 66 49 67 50 68 53 69 51 70 5 71 6 72 7 73 8 74 9 75 10 77
REMARK SMILES IDX 11 78 12 79 17 80 18 81 13 82 16 83 15 86 14 87
REMARK H PARENT 3 5 75 23 43 34 8 76 17 84 17 85
REMARK Flexibility Score: inf
ROOT
ATOM      1  C   UNL     1       4.554   1.332  -0.294  1.00  0.00     0.116 C 
ENDROOT
BRANCH   1   2
ATOM      2  N   UNL     1       3.121   1.190  -0.092  1.00  0.00    -0.352 N 
ATOM      3  O   UNL     1       1.148   0.118   0.129  1.00  0.00    -0.269 OA
ATOM      4  C   UNL     1       2.373   0.050   0.079  1.00  0.00     0.251 C 
ATOM      5  H   UNL     1       2.613   2.033  -0.075  1.00  0.00     0.163 HD
BRANCH   4   6
ATOM      6  C   UNL     1       3.043  -1.264   0.169  1.00  0.00     0.039 A 
ATOM      7  C   UNL     1       4.175  -1.434   0.968  1.00  0.00     0.014 A 
ATOM      8  C   UNL     1       2.533  -2.338  -0.565  1.00  0.00     0.014 A 
ATOM      9  C   UNL     1       4.883  -2.629   0.914  1.00  0.00     0.010 A 
ATOM     10  C   UNL     1       3.196  -3.568  -0.547  1.00  0.00     0.010 A 
ATOM     11  C   UNL     1       4.395  -3.713   0.167  1.00  0.00    -0.014 A 
BRANCH  11  12
ATOM     12  C   UNL     1       5.123  -5.006   0.205  1.00  0.00     0.031 A 
ATOM     13  C   UNL     1       5.768  -5.574  -1.026  1.00  0.00     0.074 A 
ATOM     14  C   UNL     1       5.216  -5.655   1.381  1.00  0.00     0.049 A 
ATOM     15  N   UNL     1       6.450  -6.686  -1.161  1.00  0.00    -0.248 NA
ATOM     16  C   UNL     1       5.628  -4.804  -2.271  1.00  0.00     0.031 C 
ATOM     17  C   UNL     1       4.618  -5.202   2.639  1.00  0.00     0.029 A 
ATOM     18  N   UNL     1       5.857  -6.819   1.718  1.00  0.00    -0.354 N 
ATOM     19  C   UNL     1       6.804  -6.756  -2.502  1.00  0.00     0.074 A 
ATOM     20  C   UNL     1       6.241  -5.589  -3.148  1.00  0.00     0.031 C 
ATOM     21  C   UNL     1       4.955  -6.053   3.618  1.00  0.00     0.029 A 
ATOM     22  C   UNL     1       5.737  -7.143   3.047  1.00  0.00     0.049 A 
ATOM     23  H   UNL     1       6.354  -7.369   1.071  1.00  0.00     0.167 HD
ATOM     24  C   UNL     1       7.538  -7.706  -3.131  1.00  0.00     0.037 A 
ATOM     25  C   UNL     1       6.191  -8.210   3.729  1.00  0.00     0.037 A 
ATOM     26  C   UNL     1       8.107  -8.858  -2.477  1.00  0.00     0.049 A 
ATOM     27  C   UNL     1       6.981  -9.258   3.000  1.00  0.00     0.074 A 
ATOM     28  C   UNL     1       8.897  -9.857  -3.020  1.00  0.00     0.029 A 
ATOM     29  N   UNL     1       7.942  -9.166  -1.134  1.00  0.00    -0.354 N 
ATOM     30  N   UNL     1       7.338  -9.295   1.740  1.00  0.00    -0.248 NA
ATOM     31  C   UNL     1       7.428 -10.413   3.788  1.00  0.00     0.031 C 
ATOM     32  C   UNL     1       9.171 -10.794  -2.017  1.00  0.00     0.029 A 
ATOM     33  C   UNL     1       8.595 -10.353  -0.837  1.00  0.00     0.049 A 
ATOM     34  H   UNL     1       7.437  -8.623  -0.487  1.00  0.00     0.167 HD
ATOM     35  C   UNL     1       8.066 -10.465   1.585  1.00  0.00     0.074 A 
ATOM     36  C   UNL     1       8.117 -11.099   2.887  1.00  0.00     0.031 C 
ATOM     37  C   UNL     1       8.637 -10.970   0.465  1.00  0.00     0.037 A 
BRANCH  24  38
ATOM     38  C   UNL     1       7.760  -7.556  -4.609  1.00  0.00     0.064 A 
ATOM     39  C   UNL     1       8.616  -6.576  -5.131  1.00  0.00     0.173 A 
ATOM     40  C   UNL     1       7.152  -8.443  -5.511  1.00  0.00     0.173 A 
ATOM     41  F   UNL     1       9.215  -5.697  -4.313  1.00  0.00    -0.203 F 
ATOM     42  C   UNL     1       8.840  -6.476  -6.503  1.00  0.00     0.198 A 
ATOM     43  C   UNL     1       7.398  -8.357  -6.880  1.00  0.00     0.198 A 
ATOM     44  F   UNL     1       6.329  -9.404  -5.065  1.00  0.00    -0.203 F 
ATOM     45  F   UNL     1       9.632  -5.507  -6.982  1.00  0.00    -0.200 F 
ATOM     46  C   UNL     1       8.237  -7.370  -7.375  1.00  0.00     0.200 A 
ATOM     47  F   UNL     1       6.825  -9.231  -7.719  1.00  0.00    -0.200 F 
ATOM     48  F   UNL     1       8.461  -7.279  -8.693  1.00  0.00    -0.200 F 
ENDBRANCH  24  38
BRANCH  25  49
ATOM     49  C   UNL     1       5.899  -8.333   5.180  1.00  0.00     0.064 A 
ATOM     50  C   UNL     1       6.919  -8.217   6.133  1.00  0.00     0.173 A 
ATOM     51  C   UNL     1       4.592  -8.549   5.642  1.00  0.00     0.173 A 
ATOM     52  F   UNL     1       8.187  -8.028   5.739  1.00  0.00    -0.203 F 
ATOM     53  C   UNL     1       6.645  -8.328   7.495  1.00  0.00     0.198 A 
ATOM     54  C   UNL     1       4.315  -8.628   7.004  1.00  0.00     0.198 A 
ATOM     55  F   UNL     1       3.580  -8.659   4.769  1.00  0.00    -0.203 F 
ATOM     56  F   UNL     1       7.643  -8.253   8.385  1.00  0.00    -0.200 F 
ATOM     57  C   UNL     1       5.342  -8.525   7.929  1.00  0.00     0.200 A 
ATOM     58  F   UNL     1       3.053  -8.799   7.420  1.00  0.00    -0.200 F 
ATOM     59  F   UNL     1       5.078  -8.620   9.239  1.00  0.00    -0.200 F 
ENDBRANCH  25  49
BRANCH  37  60
ATOM     60  C   UNL     1       9.391 -12.259   0.607  1.00  0.00     0.064 A 
ATOM     61  C   UNL     1       8.729 -13.480   0.806  1.00  0.00     0.173 A 
ATOM     62  C   UNL     1      10.791 -12.276   0.519  1.00  0.00     0.173 A 
ATOM     63  F   UNL     1       7.392 -13.512   0.915  1.00  0.00    -0.203 F 
ATOM     64  C   UNL     1       9.443 -14.667   0.938  1.00  0.00     0.198 A 
ATOM     65  C   UNL     1      11.500 -13.469   0.623  1.00  0.00     0.198 A 
ATOM     66  F   UNL     1      11.470 -11.136   0.326  1.00  0.00    -0.203 F 
ATOM     67  F   UNL     1       8.793 -15.815   1.177  1.00  0.00    -0.200 F 
ATOM     68  C   UNL     1      10.827 -14.662   0.840  1.00  0.00     0.200 A 
ATOM     69  F   UNL     1      12.836 -13.464   0.516  1.00  0.00    -0.200 F 
ATOM     70  F   UNL     1      11.512 -15.807   0.963  1.00  0.00    -0.200 F 
ENDBRANCH  37  60
ENDBRANCH  11  12
ENDBRANCH   4   6
ENDBRANCH   1   2
BRANCH   1  71
ATOM     71  C   UNL     1       4.914   2.172  -1.511  1.00  0.00     0.023 C 
BRANCH  71  72
ATOM     72  C   UNL     1       4.368   3.596  -1.513  1.00  0.00     0.023 C 
BRANCH  72  73
ATOM     73  C   UNL     1       4.617   4.400  -0.240  1.00  0.00     0.116 C 
BRANCH  73  74
ATOM     74  N   UNL     1       6.020   4.540   0.097  1.00  0.00    -0.351 N 
ATOM     75  C   UNL     1       6.836   5.631   0.203  1.00  0.00     0.281 C 
ATOM     76  H   UNL     1       6.472   3.686   0.285  1.00  0.00     0.163 HD
ATOM     77  O   UNL     1       7.961   5.414   0.664  1.00  0.00    -0.268 OA
BRANCH  75  78
ATOM     78  C   UNL     1       6.398   7.043  -0.273  1.00  0.00     0.176 C 
ATOM     79  C   UNL     1       7.564   8.065  -0.172  1.00  0.00     0.079 C 
ATOM     80  N   UNL     1       6.018   6.992  -1.720  1.00  0.00    -0.333 N 
ATOM     81  C   UNL     1       5.193   7.662   0.443  1.00  0.00     0.088 C 
ATOM     82  C   UNL     1       7.098   9.531  -0.107  1.00  0.00     0.008 C 
ATOM     83  C   UNL     1       4.777   7.750  -1.870  1.00  0.00     0.265 C 
ATOM     84  H   UNL     1       5.874   6.025  -2.010  1.00  0.00     0.347 HD
ATOM     85  H   UNL     1       6.757   7.389  -2.302  1.00  0.00     0.347 HD
ATOM     86  C   UNL     1       4.738   8.646  -0.633  1.00  0.00     0.051 C 
ATOM     87  C   UNL     1       5.748   9.805  -0.780  1.00  0.00     0.010 C 
ENDBRANCH  75  78
ENDBRANCH  73  74
ENDBRANCH  72  73
ENDBRANCH  71  72
ENDBRANCH   1  71
TORSDOF 11
