REMARK SMILES O=C(CCNc1cc(N2CCC3(CC2)OCCO3)c2noc3c2c1C(=O)c1ccccc1-3)NCCCCNC(=O)c1ccc(-c2c3nc(c(-c4c(F)c(F)c(F)c(F)c4F)c4ccc([nH]4)c(-c4c(F)c(F)c(F)c(F)c4F)c4nc(c(-c5c(F)c(F)c(F)c(F)c5F)c5ccc2[nH]5)C=C4)C=C3)cc1
REMARK SMILES IDX 34 1 33 2 1 3 2 4 3 6 4 7 5 8 6 10 7 11 24 12 8 13 23 14
REMARK SMILES IDX 25 15 19 16 22 17 26 18 27 19 20 20 21 21 32 22 28 23 31 24
REMARK SMILES IDX 29 25 30 26 9 27 10 28 14 29 11 30 13 31 12 32 15 33 18 34
REMARK SMILES IDX 16 35 17 36 35 37 36 38 37 39 38 40 39 41 40 43 41 44 42 45
REMARK SMILES IDX 103 46 43 47 102 48 44 49 45 50 46 51 96 52 47 53 101 54
REMARK SMILES IDX 95 55 97 56 48 57 100 58 94 59 93 60 49 62 81 63 61 64 80 65
REMARK SMILES IDX 62 66 65 67 79 68 98 69 63 70 64 71 78 73 99 74 66 75 50 76
REMARK SMILES IDX 51 77 59 78 52 79 53 80 57 81 60 82 54 83 55 84 58 85 56 86
REMARK SMILES IDX 82 87 83 88 91 89 84 90 85 91 89 92 92 93 86 94 87 95 90 96
REMARK SMILES IDX 88 97 67 98 68 99 76 100 69 101 70 102 74 103 77 104 71 105
REMARK SMILES IDX 72 106 75 107 73 108
REMARK H PARENT 33 5 5 9 38 42 97 61 65 72
REMARK Flexibility Score: inf
ROOT
ATOM      1  C   UNL     1       2.104  -1.563  -1.818  1.00  0.00     0.116 C 
ENDROOT
BRANCH   1   2
ATOM      2  N   UNL     1       2.804  -0.652  -0.935  1.00  0.00    -0.356 N 
ATOM      3  O   UNL     1       0.946   0.138   0.164  1.00  0.00    -0.275 OA
ATOM      4  C   UNL     1       2.160   0.130  -0.003  1.00  0.00     0.221 C 
ATOM      5  H   UNL     1       3.784  -0.590  -1.004  1.00  0.00     0.163 HD
BRANCH   4   6
ATOM      6  C   UNL     1       3.091   1.014   0.795  1.00  0.00     0.121 C 
BRANCH   6   7
ATOM      7  C   UNL     1       3.904   0.224   1.812  1.00  0.00     0.123 C 
BRANCH   7   8
ATOM      8  N   UNL     1       4.952  -0.579   1.161  1.00  0.00    -0.384 N 
ATOM      9  H   UNL     1       4.715  -1.244   0.475  1.00  0.00     0.160 HD
BRANCH   8  10
ATOM     10  C   UNL     1       6.297  -0.386   1.529  1.00  0.00     0.048 A 
ATOM     11  C   UNL     1       7.223  -0.260   0.416  1.00  0.00     0.054 A 
ATOM     12  C   UNL     1       6.782  -0.431   2.855  1.00  0.00     0.059 A 
ATOM     13  C   UNL     1       8.648  -0.108   0.493  1.00  0.00     0.069 A 
ATOM     14  C   UNL     1       8.155  -0.272   2.877  1.00  0.00     0.065 A 
ATOM     15  C   UNL     1       6.088  -0.633   4.159  1.00  0.00     0.196 C 
ATOM     16  C   UNL     1       9.094  -0.119   1.832  1.00  0.00     0.138 A 
ATOM     17  C   UNL     1       8.835  -0.197   4.042  1.00  0.00     0.176 A 
ATOM     18  O   UNL     1       4.909  -0.957   4.219  1.00  0.00    -0.288 OA
ATOM     19  C   UNL     1       6.886  -0.455   5.430  1.00  0.00     0.034 A 
ATOM     20  N   UNL     1      10.323   0.013   2.384  1.00  0.00    -0.077 NA
ATOM     21  O   UNL     1      10.149  -0.026   3.775  1.00  0.00    -0.355 OA
ATOM     22  C   UNL     1       8.284  -0.244   5.364  1.00  0.00     0.032 A 
ATOM     23  C   UNL     1       6.246  -0.490   6.668  1.00  0.00     0.013 A 
ATOM     24  C   UNL     1       9.028  -0.070   6.528  1.00  0.00     0.013 A 
ATOM     25  C   UNL     1       6.996  -0.310   7.832  1.00  0.00     0.001 A 
ATOM     26  C   UNL     1       8.378  -0.102   7.763  1.00  0.00     0.001 A 
BRANCH  13  27
ATOM     27  N   UNL     1       9.469   0.088  -0.591  1.00  0.00    -0.369 N 
ATOM     28  C   UNL     1      10.190  -1.028  -1.165  1.00  0.00     0.122 C 
ATOM     29  C   UNL     1       9.236   1.208  -1.464  1.00  0.00     0.122 C 
ATOM     30  C   UNL     1       9.419  -1.595  -2.374  1.00  0.00     0.087 C 
ATOM     31  C   UNL     1       8.491   0.714  -2.672  1.00  0.00     0.087 C 
ATOM     32  C   UNL     1       9.184  -0.503  -3.456  1.00  0.00     0.171 C 
ATOM     33  O   UNL     1      10.991  -0.346  -4.140  1.00  0.00    -0.347 OA
ATOM     34  O   UNL     1       8.013  -0.657  -5.018  1.00  0.00    -0.347 OA
ATOM     35  C   UNL     1      11.005  -0.126  -6.074  1.00  0.00     0.192 C 
ATOM     36  C   UNL     1       9.059  -0.386  -6.691  1.00  0.00     0.192 C 
ENDBRANCH  13  27
ENDBRANCH   8  10
ENDBRANCH   7   8
ENDBRANCH   6   7
ENDBRANCH   4   6
ENDBRANCH   1   2
BRANCH   1  37
ATOM     37  C   UNL     1       2.562  -1.436  -3.272  1.00  0.00     0.023 C 
BRANCH  37  38
ATOM     38  C   UNL     1       4.058  -1.666  -3.509  1.00  0.00     0.023 C 
BRANCH  38  39
ATOM     39  C   UNL     1       4.584  -3.015  -3.023  1.00  0.00     0.116 C 
BRANCH  39  40
ATOM     40  N   UNL     1       4.187  -4.138  -3.864  1.00  0.00    -0.352 N 
ATOM     41  C   UNL     1       4.934  -4.843  -4.783  1.00  0.00     0.251 C 
ATOM     42  H   UNL     1       3.253  -4.433  -3.762  1.00  0.00     0.163 HD
ATOM     43  O   UNL     1       4.439  -5.735  -5.461  1.00  0.00    -0.269 OA
BRANCH  41  44
ATOM     44  C   UNL     1       6.326  -4.430  -5.008  1.00  0.00     0.039 A 
ATOM     45  C   UNL     1       7.280  -4.459  -4.001  1.00  0.00     0.014 A 
ATOM     46  C   UNL     1       6.646  -3.884  -6.233  1.00  0.00     0.014 A 
ATOM     47  C   UNL     1       8.434  -3.678  -4.131  1.00  0.00     0.010 A 
ATOM     48  C   UNL     1       7.787  -3.094  -6.331  1.00  0.00     0.010 A 
ATOM     49  C   UNL     1       8.588  -2.782  -5.203  1.00  0.00    -0.014 A 
BRANCH  49  50
ATOM     50  C   UNL     1       9.720  -1.401  -5.163  1.00  0.00     0.031 A 
ATOM     51  C   UNL     1      10.768  -2.388  -6.126  1.00  0.00     0.074 A 
ATOM     52  C   UNL     1       9.491   0.471  -5.058  1.00  0.00     0.049 A 
ATOM     53  N   UNL     1      10.643  -2.277  -7.423  1.00  0.00    -0.248 NA
ATOM     54  C   UNL     1      11.762  -3.394  -5.760  1.00  0.00     0.031 C 
ATOM     55  C   UNL     1       8.240   1.531  -5.460  1.00  0.00     0.029 A 
ATOM     56  N   UNL     1      10.356   1.622  -4.618  1.00  0.00    -0.354 N 
ATOM     57  C   UNL     1      11.586  -3.016  -8.050  1.00  0.00     0.074 A 
ATOM     58  C   UNL     1      12.228  -3.759  -6.982  1.00  0.00     0.031 C 
ATOM     59  C   UNL     1       8.716   2.777  -5.633  1.00  0.00     0.029 A 
ATOM     60  C   UNL     1      10.078   2.854  -5.174  1.00  0.00     0.049 A 
ATOM     61  H   UNL     1      11.085   1.501  -3.967  1.00  0.00     0.167 HD
ATOM     62  C   UNL     1      11.758  -2.821  -9.383  1.00  0.00     0.037 A 
ATOM     63  C   UNL     1      11.027   3.757  -5.535  1.00  0.00     0.037 A 
ATOM     64  C   UNL     1      10.930  -1.792 -10.011  1.00  0.00     0.049 A 
ATOM     65  C   UNL     1      11.309   3.369  -6.988  1.00  0.00     0.074 A 
ATOM     66  C   UNL     1      10.028  -1.742 -11.052  1.00  0.00     0.029 A 
ATOM     67  N   UNL     1      11.000  -0.505  -9.508  1.00  0.00    -0.354 N 
ATOM     68  N   UNL     1      10.397   3.353  -7.937  1.00  0.00    -0.248 NA
ATOM     69  C   UNL     1      12.538   2.660  -7.390  1.00  0.00     0.031 C 
ATOM     70  C   UNL     1       9.541  -0.401 -11.139  1.00  0.00     0.029 A 
ATOM     71  C   UNL     1      10.159   0.372 -10.163  1.00  0.00     0.049 A 
ATOM     72  H   UNL     1      11.588  -0.243  -8.763  1.00  0.00     0.167 HD
ATOM     73  C   UNL     1      10.803   2.380  -8.848  1.00  0.00     0.074 A 
ATOM     74  C   UNL     1      12.171   2.074  -8.530  1.00  0.00     0.031 C 
ATOM     75  C   UNL     1       9.936   1.722  -9.669  1.00  0.00     0.037 A 
BRANCH  62  76
ATOM     76  C   UNL     1      12.833  -3.433 -10.188  1.00  0.00     0.064 A 
ATOM     77  C   UNL     1      13.820  -2.588 -10.722  1.00  0.00     0.173 A 
ATOM     78  C   UNL     1      12.817  -4.768 -10.596  1.00  0.00     0.173 A 
ATOM     79  F   UNL     1      13.873  -1.297 -10.351  1.00  0.00    -0.203 F 
ATOM     80  C   UNL     1      14.741  -3.052 -11.652  1.00  0.00     0.198 A 
ATOM     81  C   UNL     1      13.750  -5.235 -11.524  1.00  0.00     0.198 A 
ATOM     82  F   UNL     1      11.879  -5.607 -10.133  1.00  0.00    -0.203 F 
ATOM     83  F   UNL     1      15.651  -2.213 -12.165  1.00  0.00    -0.200 F 
ATOM     84  C   UNL     1      14.703  -4.376 -12.057  1.00  0.00     0.200 A 
ATOM     85  F   UNL     1      13.714  -6.514 -11.922  1.00  0.00    -0.200 F 
ATOM     86  F   UNL     1      15.582  -4.822 -12.965  1.00  0.00    -0.200 F 
ENDBRANCH  62  76
BRANCH  63  87
ATOM     87  C   UNL     1      12.000   4.005  -4.413  1.00  0.00     0.064 A 
ATOM     88  C   UNL     1      11.451   4.226  -3.119  1.00  0.00     0.173 A 
ATOM     89  C   UNL     1      13.394   3.989  -4.469  1.00  0.00     0.173 A 
ATOM     90  F   UNL     1      10.128   4.408  -2.967  1.00  0.00    -0.203 F 
ATOM     91  C   UNL     1      12.226   4.217  -1.961  1.00  0.00     0.198 A 
ATOM     92  C   UNL     1      14.175   3.960  -3.306  1.00  0.00     0.198 A 
ATOM     93  F   UNL     1      14.044   4.020  -5.636  1.00  0.00    -0.203 F 
ATOM     94  F   UNL     1      11.639   4.345  -0.764  1.00  0.00    -0.200 F 
ATOM     95  C   UNL     1      13.590   4.039  -2.054  1.00  0.00     0.200 A 
ATOM     96  F   UNL     1      15.505   3.832  -3.409  1.00  0.00    -0.200 F 
ATOM     97  F   UNL     1      14.340   3.962  -0.947  1.00  0.00    -0.200 F 
ENDBRANCH  63  87
BRANCH  75  98
ATOM     98  C   UNL     1       8.663   2.461  -9.946  1.00  0.00     0.064 A 
ATOM     99  C   UNL     1       8.717   3.757 -10.493  1.00  0.00     0.173 A 
ATOM    100  C   UNL     1       7.395   1.912  -9.712  1.00  0.00     0.173 A 
ATOM    101  F   UNL     1       9.901   4.320 -10.785  1.00  0.00    -0.203 F 
ATOM    102  C   UNL     1       7.560   4.480 -10.766  1.00  0.00     0.198 A 
ATOM    103  C   UNL     1       6.236   2.631 -10.010  1.00  0.00     0.198 A 
ATOM    104  F   UNL     1       7.266   0.679  -9.200  1.00  0.00    -0.203 F 
ATOM    105  F   UNL     1       7.649   5.718 -11.272  1.00  0.00    -0.200 F 
ATOM    106  C   UNL     1       6.320   3.914 -10.530  1.00  0.00     0.200 A 
ATOM    107  F   UNL     1       5.033   2.076  -9.801  1.00  0.00    -0.200 F 
ATOM    108  F   UNL     1       5.204   4.599 -10.818  1.00  0.00    -0.200 F 
ENDBRANCH  75  98
ENDBRANCH  49  50
ENDBRANCH  41  44
ENDBRANCH  39  40
ENDBRANCH  38  39
ENDBRANCH  37  38
ENDBRANCH   1  37
TORSDOF 15
