REMARK SMILES CC(=O)c1ccc(O)c(C(=O)NCCCCNC(=O)c2ccc(-c3c4nc(c(-c5c(F)c(F)c(F)c(F)c5F)c5ccc([nH]5)c(-c5c(F)c(F)c(F)c(F)c5F)c5nc(c(-c6c(F)c(F)c(F)c(F)c6F)c6ccc3[nH]6)C=C5)C=C4)cc2)c1
REMARK SMILES IDX 15 1 14 2 13 3 12 4 10 5 11 6 9 8 4 9 5 10 83 11 6 12 7 13
REMARK SMILES IDX 2 14 1 15 3 16 8 17 16 19 17 20 18 21 19 23 20 24 21 25
REMARK SMILES IDX 82 26 22 27 81 28 23 29 24 30 25 31 75 32 26 33 80 34 74 35
REMARK SMILES IDX 76 36 27 37 79 38 73 39 72 40 28 42 60 43 40 44 59 45 41 46
REMARK SMILES IDX 44 47 58 48 77 49 42 50 43 51 57 53 78 54 45 55 29 56 30 57
REMARK SMILES IDX 38 58 31 59 32 60 36 61 39 62 33 63 34 64 37 65 35 66 61 67
REMARK SMILES IDX 62 68 70 69 63 70 64 71 68 72 71 73 65 74 66 75 69 76 67 77
REMARK SMILES IDX 46 78 47 79 55 80 48 81 49 82 53 83 56 84 50 85 51 86 54 87
REMARK SMILES IDX 52 88
REMARK H PARENT 12 7 8 18 17 22 76 41 44 52
REMARK Flexibility Score: inf
ROOT
ATOM      1  C   UNL     1       0.464   8.831  -4.595  1.00  0.00     0.023 C 
ENDROOT
BRANCH   1   2
ATOM      2  C   UNL     1       1.123   7.781  -3.700  1.00  0.00     0.023 C 
BRANCH   2   3
ATOM      3  C   UNL     1       0.307   7.392  -2.463  1.00  0.00     0.116 C 
BRANCH   3   4
ATOM      4  N   UNL     1      -0.689   6.408  -2.816  1.00  0.00    -0.352 N 
ATOM      5  C   UNL     1      -0.679   5.039  -2.825  1.00  0.00     0.255 C 
ATOM      6  O   UNL     1      -1.693   4.508  -3.291  1.00  0.00    -0.269 OA
ATOM      7  H   UNL     1      -1.544   6.799  -3.107  1.00  0.00     0.163 HD
BRANCH   5   8
ATOM      8  C   UNL     1       0.388   4.154  -2.254  1.00  0.00     0.082 A 
ATOM      9  C   UNL     1       0.770   1.927  -1.275  1.00  0.00     0.018 A 
ATOM     10  C   UNL     1       2.124   2.213  -1.123  1.00  0.00     0.015 A 
ATOM     11  C   UNL     1      -0.083   2.893  -1.827  1.00  0.00     0.029 A 
ATOM     12  C   UNL     1       2.619   3.437  -1.565  1.00  0.00     0.048 A 
ATOM     13  C   UNL     1       1.767   4.386  -2.151  1.00  0.00     0.128 A 
BRANCH   9  14
ATOM     14  C   UNL     1       0.201   0.604  -0.902  1.00  0.00     0.159 C 
ATOM     15  C   UNL     1       0.866  -0.185   0.194  1.00  0.00     0.093 C 
ATOM     16  O   UNL     1      -0.806   0.192  -1.472  1.00  0.00    -0.295 OA
ENDBRANCH   9  14
BRANCH  13  17
ATOM     17  O   UNL     1       2.367   5.497  -2.663  1.00  0.00    -0.507 OA
ATOM     18  H   UNL     1       3.292   5.614  -2.571  1.00  0.00     0.293 HD
ENDBRANCH  13  17
ENDBRANCH   5   8
ENDBRANCH   3   4
ENDBRANCH   2   3
ENDBRANCH   1   2
BRANCH   1  19
ATOM     19  C   UNL     1       0.329  10.210  -3.964  1.00  0.00     0.116 C 
BRANCH  19  20
ATOM     20  N   UNL     1       1.598  10.775  -3.530  1.00  0.00    -0.352 N 
ATOM     21  C   UNL     1       1.972  12.098  -3.463  1.00  0.00     0.251 C 
ATOM     22  H   UNL     1       2.280  10.124  -3.245  1.00  0.00     0.163 HD
ATOM     23  O   UNL     1       3.108  12.412  -3.156  1.00  0.00    -0.269 OA
BRANCH  21  24
ATOM     24  C   UNL     1       0.982  13.133  -3.824  1.00  0.00     0.039 A 
ATOM     25  C   UNL     1       1.340  14.100  -4.766  1.00  0.00     0.014 A 
ATOM     26  C   UNL     1      -0.304  13.113  -3.279  1.00  0.00     0.014 A 
ATOM     27  C   UNL     1       0.379  15.002  -5.223  1.00  0.00     0.010 A 
ATOM     28  C   UNL     1      -1.277  13.966  -3.784  1.00  0.00     0.010 A 
ATOM     29  C   UNL     1      -0.946  14.912  -4.767  1.00  0.00    -0.014 A 
BRANCH  29  30
ATOM     30  C   UNL     1      -2.008  15.782  -5.324  1.00  0.00     0.031 A 
ATOM     31  C   UNL     1      -2.692  16.792  -4.450  1.00  0.00     0.074 A 
ATOM     32  C   UNL     1      -2.408  15.603  -6.598  1.00  0.00     0.049 A 
ATOM     33  N   UNL     1      -3.683  17.598  -4.737  1.00  0.00    -0.248 NA
ATOM     34  C   UNL     1      -2.221  16.888  -3.061  1.00  0.00     0.031 C 
ATOM     35  C   UNL     1      -1.856  14.614  -7.526  1.00  0.00     0.029 A 
ATOM     36  N   UNL     1      -3.379  16.239  -7.328  1.00  0.00    -0.354 N 
ATOM     37  C   UNL     1      -3.964  18.281  -3.562  1.00  0.00     0.074 A 
ATOM     38  C   UNL     1      -3.073  17.763  -2.546  1.00  0.00     0.031 C 
ATOM     39  C   UNL     1      -2.478  14.728  -8.710  1.00  0.00     0.029 A 
ATOM     40  C   UNL     1      -3.494  15.773  -8.614  1.00  0.00     0.049 A 
ATOM     41  H   UNL     1      -3.940  16.962  -6.965  1.00  0.00     0.167 HD
ATOM     42  C   UNL     1      -4.870  19.265  -3.357  1.00  0.00     0.037 A 
ATOM     43  C   UNL     1      -4.327  16.145  -9.604  1.00  0.00     0.037 A 
ATOM     44  C   UNL     1      -5.730  19.799  -4.380  1.00  0.00     0.049 A 
ATOM     45  C   UNL     1      -5.322  17.243  -9.349  1.00  0.00     0.074 A 
ATOM     46  C   UNL     1      -6.614  20.860  -4.297  1.00  0.00     0.029 A 
ATOM     47  N   UNL     1      -5.815  19.306  -5.674  1.00  0.00    -0.354 N 
ATOM     48  N   UNL     1      -5.521  17.943  -8.259  1.00  0.00    -0.248 NA
ATOM     49  C   UNL     1      -6.208  17.603 -10.465  1.00  0.00     0.031 C 
ATOM     50  C   UNL     1      -7.268  20.980  -5.528  1.00  0.00     0.029 A 
ATOM     51  C   UNL     1      -6.760  20.023  -6.391  1.00  0.00     0.049 A 
ATOM     52  H   UNL     1      -5.283  18.558  -6.030  1.00  0.00     0.167 HD
ATOM     53  C   UNL     1      -6.536  18.839  -8.561  1.00  0.00     0.074 A 
ATOM     54  C   UNL     1      -6.903  18.604  -9.943  1.00  0.00     0.031 C 
ATOM     55  C   UNL     1      -7.113  19.773  -7.766  1.00  0.00     0.037 A 
BRANCH  42  56
ATOM     56  C   UNL     1      -4.976  19.828  -1.970  1.00  0.00     0.064 A 
ATOM     57  C   UNL     1      -3.961  20.625  -1.419  1.00  0.00     0.173 A 
ATOM     58  C   UNL     1      -6.117  19.586  -1.190  1.00  0.00     0.173 A 
ATOM     59  F   UNL     1      -2.845  20.876  -2.120  1.00  0.00    -0.203 F 
ATOM     60  C   UNL     1      -4.069  21.132  -0.127  1.00  0.00     0.198 A 
ATOM     61  C   UNL     1      -6.234  20.118   0.091  1.00  0.00     0.198 A 
ATOM     62  F   UNL     1      -7.118  18.834  -1.671  1.00  0.00    -0.203 F 
ATOM     63  F   UNL     1      -3.064  21.847   0.397  1.00  0.00    -0.200 F 
ATOM     64  C   UNL     1      -5.208  20.883   0.625  1.00  0.00     0.200 A 
ATOM     65  F   UNL     1      -7.339  19.886   0.813  1.00  0.00    -0.200 F 
ATOM     66  F   UNL     1      -5.312  21.373   1.868  1.00  0.00    -0.200 F 
ENDBRANCH  42  56
BRANCH  43  67
ATOM     67  C   UNL     1      -4.227  15.500 -10.937  1.00  0.00     0.064 A 
ATOM     68  C   UNL     1      -3.706  16.202 -12.032  1.00  0.00     0.173 A 
ATOM     69  C   UNL     1      -4.635  14.175 -11.143  1.00  0.00     0.173 A 
ATOM     70  F   UNL     1      -3.322  17.479 -11.886  1.00  0.00    -0.203 F 
ATOM     71  C   UNL     1      -3.608  15.607 -13.288  1.00  0.00     0.198 A 
ATOM     72  C   UNL     1      -4.515  13.573 -12.394  1.00  0.00     0.198 A 
ATOM     73  F   UNL     1      -5.136  13.460 -10.125  1.00  0.00    -0.203 F 
ATOM     74  F   UNL     1      -3.138  16.312 -14.326  1.00  0.00    -0.200 F 
ATOM     75  C   UNL     1      -4.007  14.291 -13.466  1.00  0.00     0.200 A 
ATOM     76  F   UNL     1      -4.890  12.297 -12.560  1.00  0.00    -0.200 F 
ATOM     77  F   UNL     1      -3.906  13.717 -14.673  1.00  0.00    -0.200 F 
ENDBRANCH  43  67
BRANCH  55  78
ATOM     78  C   UNL     1      -8.187  20.623  -8.376  1.00  0.00     0.064 A 
ATOM     79  C   UNL     1      -9.464  20.110  -8.644  1.00  0.00     0.173 A 
ATOM     80  C   UNL     1      -7.948  21.977  -8.659  1.00  0.00     0.173 A 
ATOM     81  F   UNL     1      -9.735  18.818  -8.406  1.00  0.00    -0.203 F 
ATOM     82  C   UNL     1     -10.457  20.916  -9.193  1.00  0.00     0.198 A 
ATOM     83  C   UNL     1      -8.951  22.786  -9.183  1.00  0.00     0.198 A 
ATOM     84  F   UNL     1      -6.744  22.516  -8.417  1.00  0.00    -0.203 F 
ATOM     85  F   UNL     1     -11.658  20.394  -9.480  1.00  0.00    -0.200 F 
ATOM     86  C   UNL     1     -10.203  22.254  -9.455  1.00  0.00     0.200 A 
ATOM     87  F   UNL     1      -8.707  24.081  -9.425  1.00  0.00    -0.200 F 
ATOM     88  F   UNL     1     -11.163  23.030  -9.976  1.00  0.00    -0.200 F 
ENDBRANCH  55  78
ENDBRANCH  29  30
ENDBRANCH  21  24
ENDBRANCH  19  20
ENDBRANCH   1  19
TORSDOF 13
