REMARK SMILES CCc1ccc2[nH]c(C(=O)c3cc(C)ccn3)c(CC(=O)NCCCCNC(=O)c3ccc(-c4c5nc(c(-c6c(F)c(F)c(F)c(F)c6F)c6ccc([nH]6)c(-c6c(F)c(F)c(F)c(F)c6F)c6nc(c(-c7c(F)c(F)c(F)c(F)c7F)c7ccc4[nH]7)C=C6)C=C5)cc3)c2c1
REMARK SMILES IDX 24 1 23 2 22 3 20 4 21 5 19 7 18 8 3 9 4 10 94 11 5 12 93 13
REMARK SMILES IDX 6 14 7 15 8 16 2 18 1 19 9 20 10 21 11 22 12 23 17 24 13 25
REMARK SMILES IDX 16 26 14 27 15 28 25 29 26 30 27 31 28 32 29 34 30 35 31 36
REMARK SMILES IDX 92 37 32 38 91 39 33 40 34 41 35 42 85 43 36 44 90 45 84 46
REMARK SMILES IDX 86 47 37 48 89 49 83 50 82 51 38 53 70 54 50 55 69 56 51 57
REMARK SMILES IDX 54 58 68 59 87 60 52 61 53 62 67 64 88 65 55 66 39 67 40 68
REMARK SMILES IDX 48 69 41 70 42 71 46 72 49 73 43 74 44 75 47 76 45 77 71 78
REMARK SMILES IDX 72 79 80 80 73 81 74 82 78 83 81 84 75 85 76 86 79 87 77 88
REMARK SMILES IDX 56 89 57 90 65 91 58 92 59 93 63 94 66 95 60 96 61 97 64 98
REMARK SMILES IDX 62 99
REMARK H PARENT 22 6 7 17 27 33 86 52 54 63
REMARK Flexibility Score: inf
ROOT
ATOM      1  C   UNL     1       5.242   0.555  -4.386  1.00  0.00     0.023 C 
ENDROOT
BRANCH   1   2
ATOM      2  C   UNL     1       4.822   2.021  -4.316  1.00  0.00     0.116 C 
BRANCH   2   3
ATOM      3  N   UNL     1       4.927   2.690  -5.594  1.00  0.00    -0.356 N 
ATOM      4  C   UNL     1       3.937   3.096  -6.444  1.00  0.00     0.224 C 
ATOM      5  O   UNL     1       4.274   3.840  -7.370  1.00  0.00    -0.275 OA
ATOM      6  H   UNL     1       5.845   2.881  -5.895  1.00  0.00     0.163 HD
BRANCH   4   7
ATOM      7  C   UNL     1       2.471   2.766  -6.177  1.00  0.00     0.138 C 
BRANCH   7   8
ATOM      8  C   UNL     1       2.163   1.300  -6.009  1.00  0.00    -0.002 A 
ATOM      9  C   UNL     1       0.900   0.278  -2.516  1.00  0.00    -0.048 A 
ATOM     10  C   UNL     1       0.850  -1.091  -2.797  1.00  0.00     0.006 A 
ATOM     11  C   UNL     1       1.283   1.168  -3.536  1.00  0.00     0.014 A 
ATOM     12  C   UNL     1       1.204  -1.597  -4.054  1.00  0.00     0.027 A 
ATOM     13  C   UNL     1       1.660   0.685  -4.810  1.00  0.00     0.004 A 
ATOM     14  C   UNL     1       1.606  -0.684  -5.034  1.00  0.00     0.046 A 
ATOM     15  N   UNL     1       2.016  -0.897  -6.327  1.00  0.00    -0.352 N 
ATOM     16  C   UNL     1       2.286   0.293  -6.970  1.00  0.00     0.093 A 
ATOM     17  H   UNL     1       2.106  -1.785  -6.742  1.00  0.00     0.167 HD
BRANCH   9  18
ATOM     18  C   UNL     1       0.500   0.829  -1.165  1.00  0.00     0.032 C 
ATOM     19  C   UNL     1       1.096   0.086   0.024  1.00  0.00     0.009 C 
ENDBRANCH   9  18
BRANCH  16  20
ATOM     20  C   UNL     1       2.662   0.425  -8.375  1.00  0.00     0.227 C 
ATOM     21  O   UNL     1       2.891   1.503  -8.915  1.00  0.00    -0.285 OA
BRANCH  20  22
ATOM     22  C   UNL     1       2.723  -0.796  -9.223  1.00  0.00     0.113 A 
ATOM     23  C   UNL     1       1.565  -1.532  -9.458  1.00  0.00     0.036 A 
ATOM     24  N   UNL     1       3.939  -1.116  -9.732  1.00  0.00    -0.253 NA
ATOM     25  C   UNL     1       1.655  -2.672 -10.259  1.00  0.00    -0.047 A 
ATOM     26  C   UNL     1       3.991  -2.199 -10.532  1.00  0.00     0.112 A 
ATOM     27  C   UNL     1       0.453  -3.522 -10.540  1.00  0.00     0.044 C 
ATOM     28  C   UNL     1       2.895  -3.001 -10.815  1.00  0.00     0.023 A 
ENDBRANCH  20  22
ENDBRANCH  16  20
ENDBRANCH   7   8
ENDBRANCH   4   7
ENDBRANCH   2   3
ENDBRANCH   1   2
BRANCH   1  29
ATOM     29  C   UNL     1       6.733   0.331  -4.641  1.00  0.00     0.023 C 
BRANCH  29  30
ATOM     30  C   UNL     1       7.670   1.013  -3.653  1.00  0.00     0.116 C 
BRANCH  30  31
ATOM     31  N   UNL     1       7.450   0.603  -2.274  1.00  0.00    -0.352 N 
ATOM     32  C   UNL     1       8.378   0.331  -1.299  1.00  0.00     0.251 C 
ATOM     33  H   UNL     1       6.508   0.508  -2.004  1.00  0.00     0.163 HD
ATOM     34  O   UNL     1       8.027  -0.121  -0.213  1.00  0.00    -0.269 OA
BRANCH  32  35
ATOM     35  C   UNL     1       9.813   0.547  -1.579  1.00  0.00     0.039 A 
ATOM     36  C   UNL     1      10.722  -0.463  -1.252  1.00  0.00     0.014 A 
ATOM     37  C   UNL     1      10.256   1.723  -2.189  1.00  0.00     0.014 A 
ATOM     38  C   UNL     1      12.066  -0.321  -1.602  1.00  0.00     0.010 A 
ATOM     39  C   UNL     1      11.578   1.828  -2.607  1.00  0.00     0.010 A 
ATOM     40  C   UNL     1      12.497   0.808  -2.318  1.00  0.00    -0.014 A 
BRANCH  40  41
ATOM     41  C   UNL     1      13.903   0.934  -2.780  1.00  0.00     0.031 A 
ATOM     42  C   UNL     1      14.770   2.050  -2.269  1.00  0.00     0.074 A 
ATOM     43  C   UNL     1      14.376   0.088  -3.715  1.00  0.00     0.049 A 
ATOM     44  N   UNL     1      15.996   2.367  -2.603  1.00  0.00    -0.248 NA
ATOM     45  C   UNL     1      14.167   2.946  -1.271  1.00  0.00     0.031 C 
ATOM     46  C   UNL     1      13.614  -0.997  -4.334  1.00  0.00     0.029 A 
ATOM     47  N   UNL     1      15.606   0.020  -4.321  1.00  0.00    -0.354 N 
ATOM     48  C   UNL     1      16.306   3.500  -1.863  1.00  0.00     0.074 A 
ATOM     49  C   UNL     1      15.118   3.854  -1.116  1.00  0.00     0.031 C 
ATOM     50  C   UNL     1      14.396  -1.632  -5.221  1.00  0.00     0.029 A 
ATOM     51  C   UNL     1      15.700  -0.976  -5.262  1.00  0.00     0.049 A 
ATOM     52  H   UNL     1      16.349   0.626  -4.102  1.00  0.00     0.167 HD
ATOM     53  C   UNL     1      17.482   4.169  -1.792  1.00  0.00     0.037 A 
ATOM     54  C   UNL     1      16.717  -1.314  -6.077  1.00  0.00     0.037 A 
ATOM     55  C   UNL     1      18.662   3.810  -2.534  1.00  0.00     0.049 A 
ATOM     56  C   UNL     1      18.012  -0.552  -5.991  1.00  0.00     0.074 A 
ATOM     57  C   UNL     1      19.917   4.391  -2.496  1.00  0.00     0.029 A 
ATOM     58  N   UNL     1      18.728   2.778  -3.461  1.00  0.00    -0.354 N 
ATOM     59  N   UNL     1      18.320   0.471  -5.232  1.00  0.00    -0.248 NA
ATOM     60  C   UNL     1      19.103  -0.999  -6.867  1.00  0.00     0.031 C 
ATOM     61  C   UNL     1      20.727   3.745  -3.438  1.00  0.00     0.029 A 
ATOM     62  C   UNL     1      19.996   2.722  -4.019  1.00  0.00     0.049 A 
ATOM     63  H   UNL     1      17.984   2.175  -3.688  1.00  0.00     0.167 HD
ATOM     64  C   UNL     1      19.643   0.778  -5.521  1.00  0.00     0.074 A 
ATOM     65  C   UNL     1      20.084  -0.181  -6.513  1.00  0.00     0.031 C 
ATOM     66  C   UNL     1      20.421   1.764  -5.010  1.00  0.00     0.037 A 
BRANCH  53  67
ATOM     67  C   UNL     1      17.541   5.359  -0.876  1.00  0.00     0.064 A 
ATOM     68  C   UNL     1      17.447   5.221   0.519  1.00  0.00     0.173 A 
ATOM     69  C   UNL     1      17.696   6.654  -1.395  1.00  0.00     0.173 A 
ATOM     70  F   UNL     1      17.288   4.007   1.068  1.00  0.00    -0.203 F 
ATOM     71  C   UNL     1      17.460   6.335   1.354  1.00  0.00     0.198 A 
ATOM     72  C   UNL     1      17.745   7.763  -0.553  1.00  0.00     0.198 A 
ATOM     73  F   UNL     1      17.799   6.845  -2.718  1.00  0.00    -0.203 F 
ATOM     74  F   UNL     1      17.299   6.181   2.675  1.00  0.00    -0.200 F 
ATOM     75  C   UNL     1      17.614   7.604   0.818  1.00  0.00     0.200 A 
ATOM     76  F   UNL     1      17.910   8.988  -1.072  1.00  0.00    -0.200 F 
ATOM     77  F   UNL     1      17.625   8.676   1.622  1.00  0.00    -0.200 F 
ENDBRANCH  53  67
BRANCH  54  78
ATOM     78  C   UNL     1      16.549  -2.441  -7.031  1.00  0.00     0.064 A 
ATOM     79  C   UNL     1      17.229  -3.652  -6.847  1.00  0.00     0.173 A 
ATOM     80  C   UNL     1      15.688  -2.337  -8.134  1.00  0.00     0.173 A 
ATOM     81  F   UNL     1      18.078  -3.794  -5.818  1.00  0.00    -0.203 F 
ATOM     82  C   UNL     1      17.064  -4.713  -7.736  1.00  0.00     0.198 A 
ATOM     83  C   UNL     1      15.501  -3.407  -9.005  1.00  0.00     0.198 A 
ATOM     84  F   UNL     1      15.009  -1.201  -8.351  1.00  0.00    -0.203 F 
ATOM     85  F   UNL     1      17.754  -5.847  -7.557  1.00  0.00    -0.200 F 
ATOM     86  C   UNL     1      16.194  -4.592  -8.809  1.00  0.00     0.200 A 
ATOM     87  F   UNL     1      14.646  -3.293 -10.031  1.00  0.00    -0.200 F 
ATOM     88  F   UNL     1      16.026  -5.617  -9.656  1.00  0.00    -0.200 F 
ENDBRANCH  54  78
BRANCH  66  89
ATOM     89  C   UNL     1      21.842   1.841  -5.493  1.00  0.00     0.064 A 
ATOM     90  C   UNL     1      22.157   2.260  -6.794  1.00  0.00     0.173 A 
ATOM     91  C   UNL     1      22.903   1.531  -4.628  1.00  0.00     0.173 A 
ATOM     92  F   UNL     1      21.180   2.554  -7.665  1.00  0.00    -0.203 F 
ATOM     93  C   UNL     1      23.481   2.340  -7.219  1.00  0.00     0.198 A 
ATOM     94  C   UNL     1      24.226   1.643  -5.047  1.00  0.00     0.198 A 
ATOM     95  F   UNL     1      22.657   1.131  -3.372  1.00  0.00    -0.203 F 
ATOM     96  F   UNL     1      23.757   2.695  -8.482  1.00  0.00    -0.200 F 
ATOM     97  C   UNL     1      24.514   2.040  -6.343  1.00  0.00     0.200 A 
ATOM     98  F   UNL     1      25.222   1.367  -4.194  1.00  0.00    -0.200 F 
ATOM     99  F   UNL     1      25.787   2.126  -6.752  1.00  0.00    -0.200 F 
ENDBRANCH  66  89
ENDBRANCH  40  41
ENDBRANCH  32  35
ENDBRANCH  30  31
ENDBRANCH  29  30
ENDBRANCH   1  29
TORSDOF 15
