REMARK SMILES Cn1ncc(C(=O)NCCCCNC(=O)c2ccc(-c3c4nc(c(-c5c(F)c(F)c(F)c(F)c5F)c5ccc([nH]5)c(-c5c(F)c(F)c(F)c(F)c5F)c5nc(c(-c6c(F)c(F)c(F)c(F)c6F)c6ccc3[nH]6)C=C5)C=C4)cc2)c1C(=O)Nc1ccccn1
REMARK SMILES IDX 10 1 9 2 8 3 6 4 7 5 5 7 1 8 2 9 3 10 79 11 4 12 80 13 81 14
REMARK SMILES IDX 82 15 83 17 84 18 88 19 85 20 87 21 86 22 11 23 12 24 13 25
REMARK SMILES IDX 14 26 15 28 16 29 17 30 78 31 18 32 77 33 19 34 20 35 21 36
REMARK SMILES IDX 71 37 22 38 76 39 70 40 72 41 23 42 75 43 69 44 68 45 24 47
REMARK SMILES IDX 56 48 36 49 55 50 37 51 40 52 54 53 73 54 38 55 39 56 53 58
REMARK SMILES IDX 74 59 41 60 25 61 26 62 34 63 27 64 28 65 32 66 35 67 29 68
REMARK SMILES IDX 30 69 33 70 31 71 57 72 58 73 66 74 59 75 60 76 64 77 67 78
REMARK SMILES IDX 61 79 62 80 65 81 63 82 42 83 43 84 51 85 44 86 45 87 49 88
REMARK SMILES IDX 52 89 46 90 47 91 50 92 48 93
REMARK H PARENT 8 6 82 16 13 27 72 46 40 57
REMARK Flexibility Score: inf
ROOT
ATOM      1  C   UNL     1       1.432  -4.665  -1.920  1.00  0.00     0.023 C 
ENDROOT
BRANCH   1   2
ATOM      2  C   UNL     1       1.189  -3.694  -0.772  1.00  0.00     0.116 C 
BRANCH   2   3
ATOM      3  N   UNL     1       2.333  -2.880  -0.437  1.00  0.00    -0.352 N 
ATOM      4  C   UNL     1       2.438  -1.556  -0.100  1.00  0.00     0.255 C 
ATOM      5  O   UNL     1       3.581  -1.131   0.083  1.00  0.00    -0.269 OA
ATOM      6  H   UNL     1       3.192  -3.362  -0.455  1.00  0.00     0.163 HD
BRANCH   4   7
ATOM      7  C   UNL     1       1.300  -0.647  -0.019  1.00  0.00     0.090 A 
ATOM      8  C   UNL     1      -1.674   0.979   1.211  1.00  0.00     0.174 C 
ATOM      9  N   UNL     1      -0.519   0.482   0.494  1.00  0.00    -0.262 N 
ATOM     10  N   UNL     1       0.277   1.402  -0.079  1.00  0.00    -0.180 NA
ATOM     11  C   UNL     1      -0.017  -0.802   0.430  1.00  0.00     0.139 A 
ATOM     12  C   UNL     1       1.407   0.737  -0.300  1.00  0.00     0.149 A 
BRANCH  11  13
ATOM     13  C   UNL     1      -0.624  -1.988   0.973  1.00  0.00     0.275 C 
ATOM     14  O   UNL     1      -0.017  -2.698   1.778  1.00  0.00    -0.267 OA
ATOM     15  N   UNL     1      -1.872  -2.431   0.608  1.00  0.00    -0.305 N 
ATOM     16  H   UNL     1      -2.009  -3.399   0.723  1.00  0.00     0.171 HD
BRANCH  15  17
ATOM     17  C   UNL     1      -2.971  -1.752   0.105  1.00  0.00     0.132 A 
ATOM     18  C   UNL     1      -2.985  -0.973  -1.040  1.00  0.00     0.047 A 
ATOM     19  N   UNL     1      -4.040  -1.887   0.915  1.00  0.00    -0.239 NA
ATOM     20  C   UNL     1      -4.144  -0.238  -1.312  1.00  0.00     0.005 A 
ATOM     21  C   UNL     1      -5.127  -1.137   0.655  1.00  0.00     0.113 A 
ATOM     22  C   UNL     1      -5.223  -0.295  -0.433  1.00  0.00     0.020 A 
ENDBRANCH  15  17
ENDBRANCH  11  13
ENDBRANCH   4   7
ENDBRANCH   2   3
ENDBRANCH   1   2
BRANCH   1  23
ATOM     23  C   UNL     1       2.511  -5.722  -1.698  1.00  0.00     0.023 C 
BRANCH  23  24
ATOM     24  C   UNL     1       2.432  -6.512  -0.396  1.00  0.00     0.116 C 
BRANCH  24  25
ATOM     25  N   UNL     1       1.165  -7.202  -0.198  1.00  0.00    -0.352 N 
ATOM     26  C   UNL     1       0.910  -8.535   0.025  1.00  0.00     0.251 C 
ATOM     27  H   UNL     1       0.368  -6.626  -0.228  1.00  0.00     0.163 HD
ATOM     28  O   UNL     1      -0.248  -8.943   0.090  1.00  0.00    -0.269 OA
BRANCH  26  29
ATOM     29  C   UNL     1       2.030  -9.492   0.139  1.00  0.00     0.039 A 
ATOM     30  C   UNL     1       1.991 -10.671  -0.610  1.00  0.00     0.014 A 
ATOM     31  C   UNL     1       3.136  -9.208   0.943  1.00  0.00     0.014 A 
ATOM     32  C   UNL     1       3.105 -11.513  -0.635  1.00  0.00     0.010 A 
ATOM     33  C   UNL     1       4.276  -9.999   0.848  1.00  0.00     0.010 A 
ATOM     34  C   UNL     1       4.277 -11.154   0.050  1.00  0.00    -0.014 A 
BRANCH  34  35
ATOM     35  C   UNL     1       5.521 -11.959  -0.068  1.00  0.00     0.031 A 
ATOM     36  C   UNL     1       6.122 -12.603   1.150  1.00  0.00     0.074 A 
ATOM     37  C   UNL     1       6.158 -12.036  -1.253  1.00  0.00     0.049 A 
ATOM     38  N   UNL     1       7.246 -13.263   1.270  1.00  0.00    -0.248 NA
ATOM     39  C   UNL     1       5.375 -12.454   2.409  1.00  0.00     0.031 C 
ATOM     40  C   UNL     1       5.713 -11.403  -2.496  1.00  0.00     0.029 A 
ATOM     41  N   UNL     1       7.325 -12.668  -1.604  1.00  0.00    -0.354 N 
ATOM     42  C   UNL     1       7.349 -13.589   2.615  1.00  0.00     0.074 A 
ATOM     43  C   UNL     1       6.206 -13.004   3.282  1.00  0.00     0.031 C 
ATOM     44  C   UNL     1       6.583 -11.696  -3.476  1.00  0.00     0.029 A 
ATOM     45  C   UNL     1       7.665 -12.505  -2.925  1.00  0.00     0.049 A 
ATOM     46  H   UNL     1       7.868 -13.188  -0.968  1.00  0.00     0.167 HD
ATOM     47  C   UNL     1       8.297 -14.332   3.236  1.00  0.00     0.037 A 
ATOM     48  C   UNL     1       8.732 -12.954  -3.613  1.00  0.00     0.037 A 
ATOM     49  C   UNL     1       9.417 -14.937   2.566  1.00  0.00     0.049 A 
ATOM     50  C   UNL     1       9.765 -13.788  -2.905  1.00  0.00     0.074 A 
ATOM     51  C   UNL     1      10.395 -15.762   3.092  1.00  0.00     0.029 A 
ATOM     52  N   UNL     1       9.709 -14.779   1.218  1.00  0.00    -0.354 N 
ATOM     53  N   UNL     1       9.814 -14.153  -1.647  1.00  0.00    -0.248 NA
ATOM     54  C   UNL     1      10.889 -14.279  -3.716  1.00  0.00     0.031 C 
ATOM     55  C   UNL     1      11.302 -16.071   2.072  1.00  0.00     0.029 A 
ATOM     56  C   UNL     1      10.863 -15.478   0.899  1.00  0.00     0.049 A 
ATOM     57  H   UNL     1       9.175 -14.250   0.583  1.00  0.00     0.167 HD
ATOM     58  C   UNL     1      10.953 -14.936  -1.520  1.00  0.00     0.074 A 
ATOM     59  C   UNL     1      11.560 -15.005  -2.833  1.00  0.00     0.031 C 
ATOM     60  C   UNL     1      11.450 -15.542  -0.414  1.00  0.00     0.037 A 
BRANCH  47  61
ATOM     61  C   UNL     1       8.153 -14.535   4.717  1.00  0.00     0.064 A 
ATOM     62  C   UNL     1       7.122 -15.321   5.254  1.00  0.00     0.173 A 
ATOM     63  C   UNL     1       9.064 -13.951   5.609  1.00  0.00     0.173 A 
ATOM     64  F   UNL     1       6.216 -15.892   4.444  1.00  0.00    -0.203 F 
ATOM     65  C   UNL     1       6.986 -15.483   6.630  1.00  0.00     0.198 A 
ATOM     66  C   UNL     1       8.944 -14.143   6.983  1.00  0.00     0.198 A 
ATOM     67  F   UNL     1      10.073 -13.195   5.150  1.00  0.00    -0.203 F 
ATOM     68  F   UNL     1       5.958 -16.190   7.121  1.00  0.00    -0.200 F 
ATOM     69  C   UNL     1       7.900 -14.899   7.493  1.00  0.00     0.200 A 
ATOM     70  F   UNL     1       9.836 -13.588   7.816  1.00  0.00    -0.200 F 
ATOM     71  F   UNL     1       7.769 -15.059   8.817  1.00  0.00    -0.200 F 
ENDBRANCH  47  61
BRANCH  48  72
ATOM     72  C   UNL     1       8.860 -12.650  -5.062  1.00  0.00     0.064 A 
ATOM     73  C   UNL     1       8.694 -13.656  -6.024  1.00  0.00     0.173 A 
ATOM     74  C   UNL     1       9.141 -11.353  -5.516  1.00  0.00     0.173 A 
ATOM     75  F   UNL     1       8.444 -14.916  -5.638  1.00  0.00    -0.203 F 
ATOM     76  C   UNL     1       8.822 -13.381  -7.384  1.00  0.00     0.198 A 
ATOM     77  C   UNL     1       9.242 -11.074  -6.878  1.00  0.00     0.198 A 
ATOM     78  F   UNL     1       9.303 -10.354  -4.636  1.00  0.00    -0.203 F 
ATOM     79  F   UNL     1       8.698 -14.370  -8.279  1.00  0.00    -0.200 F 
ATOM     80  C   UNL     1       9.089 -12.089  -7.810  1.00  0.00     0.200 A 
ATOM     81  F   UNL     1       9.487  -9.821  -7.286  1.00  0.00    -0.200 F 
ATOM     82  F   UNL     1       9.205 -11.823  -9.118  1.00  0.00    -0.200 F 
ENDBRANCH  48  72
BRANCH  60  83
ATOM     83  C   UNL     1      12.697 -16.362  -0.581  1.00  0.00     0.064 A 
ATOM     84  C   UNL     1      13.948 -15.764  -0.790  1.00  0.00     0.173 A 
ATOM     85  C   UNL     1      12.643 -17.761  -0.486  1.00  0.00     0.173 A 
ATOM     86  F   UNL     1      14.049 -14.432  -0.904  1.00  0.00    -0.203 F 
ATOM     87  C   UNL     1      15.097 -16.540  -0.921  1.00  0.00     0.198 A 
ATOM     88  C   UNL     1      13.797 -18.531  -0.588  1.00  0.00     0.198 A 
ATOM     89  F   UNL     1      11.470 -18.380  -0.280  1.00  0.00    -0.203 F 
ATOM     90  F   UNL     1      16.276 -15.951  -1.165  1.00  0.00    -0.200 F 
ATOM     91  C   UNL     1      15.022 -17.921  -0.812  1.00  0.00     0.200 A 
ATOM     92  F   UNL     1      13.725 -19.864  -0.469  1.00  0.00    -0.200 F 
ATOM     93  F   UNL     1      16.131 -18.665  -0.929  1.00  0.00    -0.200 F 
ENDBRANCH  60  83
ENDBRANCH  34  35
ENDBRANCH  26  29
ENDBRANCH  24  25
ENDBRANCH  23  24
ENDBRANCH   1  23
TORSDOF 13
