REMARK SMILES O=C1C[C@@H](C(=O)NCCCCNC(=O)c2ccc(-c3c4nc(c(-c5c(F)c(F)c(F)c(F)c5F)c5ccc([nH]5)c(-c5c(F)c(F)c(F)c(F)c5F)c5nc(c(-c6c(F)c(F)c(F)c(F)c6F)c6ccc3[nH]6)C=C5)C=C4)cc2)C2(CC[NH+](Cc3c[nH]nc3-c3ccc(Cl)cc3)CC2)N1
REMARK SMILES IDX 9 1 8 2 7 3 5 4 6 5 4 7 1 8 2 9 3 10 97 11 78 12 79 14 96 15
REMARK SMILES IDX 80 16 95 17 81 18 82 20 83 21 84 22 87 23 85 24 86 25 88 27
REMARK SMILES IDX 89 28 94 29 90 30 93 31 91 32 92 33 10 34 11 35 12 36 13 37
REMARK SMILES IDX 14 39 15 40 16 41 77 42 17 43 76 44 18 45 19 46 20 47 70 48
REMARK SMILES IDX 21 49 75 50 69 51 71 52 22 53 74 54 68 55 67 56 23 58 55 59
REMARK SMILES IDX 35 60 54 61 36 62 39 63 53 64 72 65 37 66 38 67 52 69 73 70
REMARK SMILES IDX 40 71 24 72 25 73 33 74 26 75 27 76 31 77 34 78 28 79 29 80
REMARK SMILES IDX 32 81 30 82 56 83 57 84 65 85 58 86 59 87 63 88 66 89 60 90
REMARK SMILES IDX 61 91 64 92 62 93 41 94 42 95 50 96 43 97 44 98 48 99 51 100
REMARK SMILES IDX 45 101 46 102 49 103 47 104
REMARK H PARENT 7 6 97 13 81 19 85 26 12 38 71 57 39 68
REMARK Flexibility Score: inf
ROOT
ATOM      1  C   UNL     1       1.698   3.284  -0.637  1.00  0.00     0.023 C 
ENDROOT
BRANCH   1   2
ATOM      2  C   UNL     1       1.621   1.938  -1.361  1.00  0.00     0.116 C 
BRANCH   2   3
ATOM      3  N   UNL     1       2.644   1.747  -2.376  1.00  0.00    -0.356 N 
ATOM      4  C   UNL     1       3.736   0.940  -2.461  1.00  0.00     0.226 C 
ATOM      5  O   UNL     1       4.395   1.027  -3.504  1.00  0.00    -0.275 OA
ATOM      6  H   UNL     1       2.521   2.320  -3.167  1.00  0.00     0.163 HD
BRANCH   4   7
ATOM      7  C   UNL     1       4.220  -0.011  -1.360  1.00  0.00     0.114 C 
ATOM      8  O   UNL     1       1.718  -1.166   0.914  1.00  0.00    -0.275 OA
ATOM      9  C   UNL     1       2.668  -0.686   0.329  1.00  0.00     0.221 C 
ATOM     10  C   UNL     1       3.188  -1.096  -1.024  1.00  0.00     0.116 C 
ATOM     11  N   UNL     1       3.426   0.371   0.783  1.00  0.00    -0.349 N 
ATOM     12  C   UNL     1       4.628   0.610  -0.006  1.00  0.00     0.063 C 
ATOM     13  H   UNL     1       3.180   0.914   1.567  1.00  0.00     0.164 HD
ATOM     14  C   UNL     1       4.955   2.109  -0.088  1.00  0.00     0.091 C 
ATOM     15  C   UNL     1       5.749  -0.212   0.698  1.00  0.00     0.091 C 
ATOM     16  C   UNL     1       6.422   2.423  -0.309  1.00  0.00     0.264 C 
ATOM     17  C   UNL     1       7.165   0.361   0.636  1.00  0.00     0.264 C 
ATOM     18  N   UNL     1       7.263   1.809   0.693  1.00  0.00    -0.331 N 
ATOM     19  H   UNL     1       8.232   1.999   0.438  1.00  0.00     0.348 HD
BRANCH  18  20
ATOM     20  C   UNL     1       7.353   2.481   1.999  1.00  0.00     0.303 C 
BRANCH  20  21
ATOM     21  C   UNL     1       6.108   2.482   2.835  1.00  0.00     0.052 A 
ATOM     22  C   UNL     1       5.630   1.435   3.603  1.00  0.00     0.115 A 
ATOM     23  C   UNL     1       5.212   3.567   3.154  1.00  0.00     0.101 A 
ATOM     24  N   UNL     1       4.468   1.854   4.167  1.00  0.00    -0.285 N 
ATOM     25  N   UNL     1       4.187   3.133   3.909  1.00  0.00    -0.175 NA
ATOM     26  H   UNL     1       3.890   1.272   4.711  1.00  0.00     0.189 HD
BRANCH  23  27
ATOM     27  C   UNL     1       5.290   4.993   2.832  1.00  0.00     0.003 A 
ATOM     28  C   UNL     1       5.284   5.921   3.885  1.00  0.00     0.012 A 
ATOM     29  C   UNL     1       5.327   5.474   1.519  1.00  0.00     0.012 A 
ATOM     30  C   UNL     1       5.354   7.294   3.634  1.00  0.00     0.021 A 
ATOM     31  C   UNL     1       5.405   6.848   1.262  1.00  0.00     0.021 A 
ATOM     32  C   UNL     1       5.425   7.751   2.321  1.00  0.00     0.041 A 
ATOM     33  Cl  UNL     1       5.524   9.439   2.005  1.00  0.00    -0.084 Cl
ENDBRANCH  23  27
ENDBRANCH  20  21
ENDBRANCH  18  20
ENDBRANCH   4   7
ENDBRANCH   2   3
ENDBRANCH   1   2
BRANCH   1  34
ATOM     34  C   UNL     1       1.331   4.486  -1.499  1.00  0.00     0.023 C 
BRANCH  34  35
ATOM     35  C   UNL     1      -0.028   4.369  -2.167  1.00  0.00     0.116 C 
BRANCH  35  36
ATOM     36  N   UNL     1      -1.105   4.107  -1.219  1.00  0.00    -0.352 N 
ATOM     37  C   UNL     1      -2.332   4.717  -1.131  1.00  0.00     0.251 C 
ATOM     38  H   UNL     1      -0.930   3.401  -0.555  1.00  0.00     0.163 HD
ATOM     39  O   UNL     1      -3.088   4.495  -0.194  1.00  0.00    -0.269 OA
BRANCH  37  40
ATOM     40  C   UNL     1      -2.700   5.682  -2.180  1.00  0.00     0.039 A 
ATOM     41  C   UNL     1      -3.092   6.968  -1.809  1.00  0.00     0.014 A 
ATOM     42  C   UNL     1      -2.537   5.338  -3.524  1.00  0.00     0.014 A 
ATOM     43  C   UNL     1      -3.239   7.942  -2.795  1.00  0.00     0.010 A 
ATOM     44  C   UNL     1      -2.588   6.331  -4.490  1.00  0.00     0.010 A 
ATOM     45  C   UNL     1      -2.936   7.644  -4.134  1.00  0.00    -0.014 A 
BRANCH  45  46
ATOM     46  C   UNL     1      -2.964   8.691  -5.183  1.00  0.00     0.031 A 
ATOM     47  C   UNL     1      -3.910   8.559  -6.341  1.00  0.00     0.074 A 
ATOM     48  C   UNL     1      -2.083   9.709  -5.132  1.00  0.00     0.049 A 
ATOM     49  N   UNL     1      -4.025   9.311  -7.405  1.00  0.00    -0.248 NA
ATOM     50  C   UNL     1      -4.829   7.409  -6.317  1.00  0.00     0.031 C 
ATOM     51  C   UNL     1      -1.079   9.911  -4.084  1.00  0.00     0.029 A 
ATOM     52  N   UNL     1      -1.879  10.759  -5.992  1.00  0.00    -0.354 N 
ATOM     53  C   UNL     1      -5.012   8.718  -8.180  1.00  0.00     0.074 A 
ATOM     54  C   UNL     1      -5.425   7.513  -7.495  1.00  0.00     0.031 C 
ATOM     55  C   UNL     1      -0.382  11.027  -4.352  1.00  0.00     0.029 A 
ATOM     56  C   UNL     1      -0.854  11.592  -5.612  1.00  0.00     0.049 A 
ATOM     57  H   UNL     1      -2.416  10.903  -6.804  1.00  0.00     0.167 HD
ATOM     58  C   UNL     1      -5.543   9.155  -9.345  1.00  0.00     0.037 A 
ATOM     59  C   UNL     1      -0.342  12.678  -6.221  1.00  0.00     0.037 A 
ATOM     60  C   UNL     1      -5.143  10.368 -10.007  1.00  0.00     0.049 A 
ATOM     61  C   UNL     1      -0.944  13.133  -7.525  1.00  0.00     0.074 A 
ATOM     62  C   UNL     1      -5.668  10.937 -11.153  1.00  0.00     0.029 A 
ATOM     63  N   UNL     1      -4.114  11.197  -9.583  1.00  0.00    -0.354 N 
ATOM     64  N   UNL     1      -1.934  12.611  -8.207  1.00  0.00    -0.248 NA
ATOM     65  C   UNL     1      -0.360  14.332  -8.141  1.00  0.00     0.031 C 
ATOM     66  C   UNL     1      -4.915  12.074 -11.459  1.00  0.00     0.029 A 
ATOM     67  C   UNL     1      -3.966  12.254 -10.466  1.00  0.00     0.049 A 
ATOM     68  H   UNL     1      -3.571  11.055  -8.774  1.00  0.00     0.167 HD
ATOM     69  C   UNL     1      -2.110  13.430  -9.314  1.00  0.00     0.074 A 
ATOM     70  C   UNL     1      -1.138  14.497  -9.201  1.00  0.00     0.031 C 
ATOM     71  C   UNL     1      -2.994  13.309 -10.335  1.00  0.00     0.037 A 
BRANCH  58  72
ATOM     72  C   UNL     1      -6.612   8.316  -9.984  1.00  0.00     0.064 A 
ATOM     73  C   UNL     1      -7.887   8.182  -9.413  1.00  0.00     0.173 A 
ATOM     74  C   UNL     1      -6.372   7.675 -11.209  1.00  0.00     0.173 A 
ATOM     75  F   UNL     1      -8.165   8.763  -8.236  1.00  0.00    -0.203 F 
ATOM     76  C   UNL     1      -8.873   7.419 -10.033  1.00  0.00     0.198 A 
ATOM     77  C   UNL     1      -7.371   6.941 -11.843  1.00  0.00     0.198 A 
ATOM     78  F   UNL     1      -5.171   7.772 -11.800  1.00  0.00    -0.203 F 
ATOM     79  F   UNL     1     -10.068   7.267  -9.445  1.00  0.00    -0.200 F 
ATOM     80  C   UNL     1      -8.618   6.808 -11.251  1.00  0.00     0.200 A 
ATOM     81  F   UNL     1      -7.127   6.364 -13.027  1.00  0.00    -0.200 F 
ATOM     82  F   UNL     1      -9.573   6.086 -11.853  1.00  0.00    -0.200 F 
ENDBRANCH  58  72
BRANCH  59  83
ATOM     83  C   UNL     1       0.800  13.411  -5.612  1.00  0.00     0.064 A 
ATOM     84  C   UNL     1       0.646  14.719  -5.130  1.00  0.00     0.173 A 
ATOM     85  C   UNL     1       2.074  12.830  -5.519  1.00  0.00     0.173 A 
ATOM     86  F   UNL     1      -0.546  15.327  -5.213  1.00  0.00    -0.203 F 
ATOM     87  C   UNL     1       1.728  15.428  -4.609  1.00  0.00     0.198 A 
ATOM     88  C   UNL     1       3.146  13.527  -4.967  1.00  0.00     0.198 A 
ATOM     89  F   UNL     1       2.276  11.580  -5.960  1.00  0.00    -0.203 F 
ATOM     90  F   UNL     1       1.564  16.698  -4.213  1.00  0.00    -0.200 F 
ATOM     91  C   UNL     1       2.975  14.830  -4.524  1.00  0.00     0.200 A 
ATOM     92  F   UNL     1       4.346  12.939  -4.871  1.00  0.00    -0.200 F 
ATOM     93  F   UNL     1       4.015  15.512  -4.024  1.00  0.00    -0.200 F 
ENDBRANCH  59  83
BRANCH  71  94
ATOM     94  C   UNL     1      -2.974  14.375 -11.394  1.00  0.00     0.064 A 
ATOM     95  C   UNL     1      -1.913  14.494 -12.303  1.00  0.00     0.173 A 
ATOM     96  C   UNL     1      -4.053  15.263 -11.526  1.00  0.00     0.173 A 
ATOM     97  F   UNL     1      -0.851  13.679 -12.211  1.00  0.00    -0.203 F 
ATOM     98  C   UNL     1      -1.918  15.481 -13.284  1.00  0.00     0.198 A 
ATOM     99  C   UNL     1      -4.072  16.224 -12.532  1.00  0.00     0.198 A 
ATOM    100  F   UNL     1      -5.099  15.187 -10.688  1.00  0.00    -0.203 F 
ATOM    101  F   UNL     1      -0.867  15.611 -14.106  1.00  0.00    -0.200 F 
ATOM    102  C   UNL     1      -3.001  16.339 -13.404  1.00  0.00     0.200 A 
ATOM    103  F   UNL     1      -5.128  17.040 -12.657  1.00  0.00    -0.200 F 
ATOM    104  F   UNL     1      -3.009  17.282 -14.356  1.00  0.00    -0.200 F 
ENDBRANCH  71  94
ENDBRANCH  45  46
ENDBRANCH  37  40
ENDBRANCH  35  36
ENDBRANCH  34  35
ENDBRANCH   1  34
TORSDOF 14
