REMARK SMILES C[NH2+][C@@]1(C(=O)NCCCCNC(=O)c2ccc(-c3c4nc(c(-c5c(F)c(F)c(F)c(F)c5F)c5ccc([nH]5)c(-c5c(F)c(F)c(F)c(F)c5F)c5nc(c(-c6c(F)c(F)c(F)c(F)c6F)c6ccc3[nH]6)C=C5)C=C4)cc2)CC[C@H](SC(C)C)C1
REMARK SMILES IDX 8 1 7 2 6 3 4 4 5 5 3 7 77 8 84 9 78 10 79 11 2 12 1 13
REMARK SMILES IDX 80 16 81 17 82 18 83 19 9 20 10 21 11 22 12 23 13 25 14 26
REMARK SMILES IDX 15 27 76 28 16 29 75 30 17 31 18 32 19 33 69 34 20 35 74 36
REMARK SMILES IDX 68 37 70 38 21 39 73 40 67 41 66 42 22 44 54 45 34 46 53 47
REMARK SMILES IDX 35 48 38 49 52 50 71 51 36 52 37 53 51 55 72 56 39 57 23 58
REMARK SMILES IDX 24 59 32 60 25 61 26 62 30 63 33 64 27 65 28 66 31 67 29 68
REMARK SMILES IDX 55 69 56 70 64 71 57 72 58 73 62 74 65 75 59 76 60 77 63 78
REMARK SMILES IDX 61 79 40 80 41 81 49 82 42 83 43 84 47 85 50 86 44 87 45 88
REMARK SMILES IDX 48 89 46 90
REMARK H PARENT 6 6 2 14 2 15 11 24 70 43 38 54
REMARK Flexibility Score: inf
ROOT
ATOM      1  C   UNL     1      -4.323  -2.872   1.478  1.00  0.00     0.023 C 
ENDROOT
BRANCH   1   2
ATOM      2  C   UNL     1      -3.639  -1.550   1.149  1.00  0.00     0.116 C 
BRANCH   2   3
ATOM      3  N   UNL     1      -2.306  -1.446   1.678  1.00  0.00    -0.351 N 
ATOM      4  C   UNL     1      -1.087  -1.327   1.083  1.00  0.00     0.281 C 
ATOM      5  O   UNL     1      -0.155  -1.335   1.900  1.00  0.00    -0.268 OA
ATOM      6  H   UNL     1      -2.268  -1.465   2.661  1.00  0.00     0.163 HD
BRANCH   4   7
ATOM      7  C   UNL     1      -0.842  -1.189  -0.496  1.00  0.00     0.176 C 
ATOM      8  C   UNL     1      -1.465   0.046  -1.163  1.00  0.00     0.080 C 
ATOM      9  C   UNL     1      -1.437  -2.392  -1.265  1.00  0.00     0.093 C 
ATOM     10  C   UNL     1      -2.726  -0.398  -1.897  1.00  0.00     0.022 C 
ATOM     11  C   UNL     1      -2.548  -1.877  -2.225  1.00  0.00     0.054 C 
BRANCH   7  12
ATOM     12  N   UNL     1       0.636  -1.197  -0.736  1.00  0.00    -0.336 N 
ATOM     13  C   UNL     1       1.355  -0.014  -0.268  1.00  0.00     0.331 C 
ATOM     14  H   UNL     1       1.027  -2.011  -0.261  1.00  0.00     0.346 HD
ATOM     15  H   UNL     1       0.756  -1.216  -1.749  1.00  0.00     0.346 HD
ENDBRANCH   7  12
BRANCH  11  16
ATOM     16  S   UNL     1      -3.921  -3.112  -2.116  1.00  0.00    -0.155 SA
BRANCH  16  17
ATOM     17  C   UNL     1      -5.546  -2.340  -2.493  1.00  0.00     0.040 C 
ATOM     18  C   UNL     1      -5.804  -0.884  -2.149  1.00  0.00     0.019 C 
ATOM     19  C   UNL     1      -5.943  -2.649  -3.931  1.00  0.00     0.019 C 
ENDBRANCH  16  17
ENDBRANCH  11  16
ENDBRANCH   4   7
ENDBRANCH   2   3
ENDBRANCH   1   2
BRANCH   1  20
ATOM     20  C   UNL     1      -5.114  -2.877   2.778  1.00  0.00     0.023 C 
BRANCH  20  21
ATOM     21  C   UNL     1      -6.169  -1.782   2.908  1.00  0.00     0.116 C 
BRANCH  21  22
ATOM     22  N   UNL     1      -7.076  -1.662   1.771  1.00  0.00    -0.352 N 
ATOM     23  C   UNL     1      -8.416  -1.341   1.773  1.00  0.00     0.251 C 
ATOM     24  H   UNL     1      -6.678  -1.833   0.887  1.00  0.00     0.163 HD
ATOM     25  O   UNL     1      -9.054  -1.298   0.730  1.00  0.00    -0.269 OA
BRANCH  23  26
ATOM     26  C   UNL     1      -9.085  -1.113   3.071  1.00  0.00     0.039 A 
ATOM     27  C   UNL     1     -10.210  -1.876   3.390  1.00  0.00     0.014 A 
ATOM     28  C   UNL     1      -8.522  -0.247   4.010  1.00  0.00     0.014 A 
ATOM     29  C   UNL     1     -10.699  -1.861   4.698  1.00  0.00     0.010 A 
ATOM     30  C   UNL     1      -8.955  -0.300   5.329  1.00  0.00     0.010 A 
ATOM     31  C   UNL     1     -10.032  -1.125   5.691  1.00  0.00    -0.014 A 
BRANCH  31  32
ATOM     32  C   UNL     1     -10.409  -1.231   7.123  1.00  0.00     0.031 A 
ATOM     33  C   UNL     1     -10.864  -0.012   7.873  1.00  0.00     0.074 A 
ATOM     34  C   UNL     1     -10.231  -2.397   7.775  1.00  0.00     0.049 A 
ATOM     35  N   UNL     1     -11.104   0.133   9.151  1.00  0.00    -0.248 NA
ATOM     36  C   UNL     1     -11.029   1.221   7.087  1.00  0.00     0.031 C 
ATOM     37  C   UNL     1      -9.721  -3.634   7.179  1.00  0.00     0.029 A 
ATOM     38  N   UNL     1     -10.442  -2.728   9.091  1.00  0.00    -0.354 N 
ATOM     39  C   UNL     1     -11.408   1.476   9.326  1.00  0.00     0.074 A 
ATOM     40  C   UNL     1     -11.284   2.112   8.033  1.00  0.00     0.031 C 
ATOM     41  C   UNL     1      -9.682  -4.593   8.118  1.00  0.00     0.029 A 
ATOM     42  C   UNL     1     -10.130  -4.032   9.389  1.00  0.00     0.049 A 
ATOM     43  H   UNL     1     -10.784  -2.091   9.758  1.00  0.00     0.167 HD
ATOM     44  C   UNL     1     -11.778   2.116  10.461  1.00  0.00     0.037 A 
ATOM     45  C   UNL     1     -10.194  -4.699  10.556  1.00  0.00     0.037 A 
ATOM     46  C   UNL     1     -11.959   1.470  11.732  1.00  0.00     0.049 A 
ATOM     47  C   UNL     1     -10.678  -3.982  11.786  1.00  0.00     0.074 A 
ATOM     48  C   UNL     1     -12.416   2.014  12.920  1.00  0.00     0.029 A 
ATOM     49  N   UNL     1     -11.702   0.129  11.978  1.00  0.00    -0.354 N 
ATOM     50  N   UNL     1     -11.028  -2.727  11.926  1.00  0.00    -0.248 NA
ATOM     51  C   UNL     1     -10.782  -4.776  13.019  1.00  0.00     0.031 C 
ATOM     52  C   UNL     1     -12.414   1.007  13.891  1.00  0.00     0.029 A 
ATOM     53  C   UNL     1     -11.986  -0.171  13.300  1.00  0.00     0.049 A 
ATOM     54  H   UNL     1     -11.368  -0.514  11.311  1.00  0.00     0.167 HD
ATOM     55  C   UNL     1     -11.413  -2.584  13.251  1.00  0.00     0.074 A 
ATOM     56  C   UNL     1     -11.267  -3.884  13.872  1.00  0.00     0.031 C 
ATOM     57  C   UNL     1     -11.846  -1.474  13.896  1.00  0.00     0.037 A 
BRANCH  44  58
ATOM     58  C   UNL     1     -12.024   3.592  10.370  1.00  0.00     0.064 A 
ATOM     59  C   UNL     1     -13.149   4.109   9.710  1.00  0.00     0.173 A 
ATOM     60  C   UNL     1     -11.136   4.499  10.966  1.00  0.00     0.173 A 
ATOM     61  F   UNL     1     -14.018   3.282   9.110  1.00  0.00    -0.203 F 
ATOM     62  C   UNL     1     -13.360   5.482   9.624  1.00  0.00     0.198 A 
ATOM     63  C   UNL     1     -11.365   5.871  10.902  1.00  0.00     0.198 A 
ATOM     64  F   UNL     1     -10.047   4.056  11.612  1.00  0.00    -0.203 F 
ATOM     65  F   UNL     1     -14.413   5.955   8.944  1.00  0.00    -0.200 F 
ATOM     66  C   UNL     1     -12.472   6.361  10.224  1.00  0.00     0.200 A 
ATOM     67  F   UNL     1     -10.511   6.720  11.490  1.00  0.00    -0.200 F 
ATOM     68  F   UNL     1     -12.677   7.683  10.142  1.00  0.00    -0.200 F 
ENDBRANCH  44  58
BRANCH  45  69
ATOM     69  C   UNL     1      -9.829  -6.138  10.609  1.00  0.00     0.064 A 
ATOM     70  C   UNL     1     -10.819  -7.121  10.744  1.00  0.00     0.173 A 
ATOM     71  C   UNL     1      -8.495  -6.559  10.523  1.00  0.00     0.173 A 
ATOM     72  F   UNL     1     -12.107  -6.763  10.851  1.00  0.00    -0.203 F 
ATOM     73  C   UNL     1     -10.486  -8.472  10.807  1.00  0.00     0.198 A 
ATOM     74  C   UNL     1      -8.165  -7.912  10.564  1.00  0.00     0.198 A 
ATOM     75  F   UNL     1      -7.513  -5.656  10.387  1.00  0.00    -0.203 F 
ATOM     76  F   UNL     1     -11.449  -9.389  10.973  1.00  0.00    -0.200 F 
ATOM     77  C   UNL     1      -9.161  -8.867  10.712  1.00  0.00     0.200 A 
ATOM     78  F   UNL     1      -6.885  -8.292  10.461  1.00  0.00    -0.200 F 
ATOM     79  F   UNL     1      -8.842 -10.168  10.769  1.00  0.00    -0.200 F 
ENDBRANCH  45  69
BRANCH  57  80
ATOM     80  C   UNL     1     -12.223  -1.622  15.338  1.00  0.00     0.064 A 
ATOM     81  C   UNL     1     -11.249  -1.740  16.340  1.00  0.00     0.173 A 
ATOM     82  C   UNL     1     -13.571  -1.598  15.725  1.00  0.00     0.173 A 
ATOM     83  F   UNL     1      -9.949  -1.783  16.015  1.00  0.00    -0.203 F 
ATOM     84  C   UNL     1     -11.614  -1.844  17.679  1.00  0.00     0.198 A 
ATOM     85  C   UNL     1     -13.931  -1.680  17.066  1.00  0.00     0.198 A 
ATOM     86  F   UNL     1     -14.537  -1.483  14.801  1.00  0.00    -0.203 F 
ATOM     87  F   UNL     1     -10.670  -1.990  18.619  1.00  0.00    -0.200 F 
ATOM     88  C   UNL     1     -12.953  -1.807  18.042  1.00  0.00     0.200 A 
ATOM     89  F   UNL     1     -15.223  -1.635  17.416  1.00  0.00    -0.200 F 
ATOM     90  F   UNL     1     -13.301  -1.899  19.332  1.00  0.00    -0.200 F 
ENDBRANCH  57  80
ENDBRANCH  31  32
ENDBRANCH  23  26
ENDBRANCH  21  22
ENDBRANCH  20  21
ENDBRANCH   1  20
TORSDOF 14
