REMARK SMILES C/C(=N/[NH+]=C1\NC(=O)[C@H](CC(=O)NCCCCNC(=O)c2ccc(-c3c4nc(c(-c5c(F)c(F)c(F)c(F)c5F)c5ccc([nH]5)c(-c5c(F)c(F)c(F)c(F)c5F)c5nc(c(-c6c(F)c(F)c(F)c(F)c6F)c6ccc3[nH]6)C=C5)C=C4)cc2)S1)c1ccc(OC(C)C)cc1
REMARK SMILES IDX 14 1 13 2 11 3 12 4 10 6 9 7 4 8 5 9 6 11 84 12 7 13 8 15
REMARK SMILES IDX 3 16 1 17 2 18 85 19 86 20 94 21 87 22 93 23 88 24 89 25
REMARK SMILES IDX 90 26 91 27 92 28 15 29 16 30 17 31 18 32 19 33 20 35 21 36
REMARK SMILES IDX 22 37 83 38 23 39 82 40 24 41 25 42 26 43 76 44 27 45 81 46
REMARK SMILES IDX 75 47 77 48 28 49 80 50 74 51 73 52 29 54 61 55 41 56 60 57
REMARK SMILES IDX 42 58 45 59 59 60 78 61 43 62 44 63 58 65 79 66 46 67 30 68
REMARK SMILES IDX 31 69 39 70 32 71 33 72 37 73 40 74 34 75 35 76 38 77 36 78
REMARK SMILES IDX 62 79 63 80 71 81 64 82 65 83 69 84 72 85 66 86 67 87 70 88
REMARK SMILES IDX 68 89 47 90 48 91 56 92 49 93 50 94 54 95 57 96 51 97 52 98
REMARK SMILES IDX 55 99 53 100
REMARK H PARENT 13 5 4 10 6 14 18 34 77 53 45 64
REMARK Flexibility Score: inf
ROOT
ATOM      1  C   UNL     1       3.681  -4.785  -2.371  1.00  0.00     0.116 C 
ENDROOT
BRANCH   1   2
ATOM      2  N   UNL     1       3.786  -6.228  -2.456  1.00  0.00    -0.356 N 
ATOM      3  C   UNL     1       2.797  -7.167  -2.414  1.00  0.00     0.221 C 
ATOM      4  O   UNL     1       3.098  -8.358  -2.489  1.00  0.00    -0.275 OA
ATOM      5  H   UNL     1       4.700  -6.580  -2.558  1.00  0.00     0.163 HD
BRANCH   3   6
ATOM      6  C   UNL     1       1.355  -6.737  -2.285  1.00  0.00     0.127 C 
BRANCH   6   7
ATOM      7  C   UNL     1       0.868  -6.787  -0.841  1.00  0.00     0.183 C 
ATOM      8  N   UNL     1      -0.862  -3.450  -0.194  1.00  0.00    -0.142 N 
ATOM      9  C   UNL     1      -0.194  -4.550  -0.157  1.00  0.00     0.337 C 
ATOM     10  H   UNL     1      -1.772  -3.406  -0.566  1.00  0.00     0.343 HD
ATOM     11  N   UNL     1       1.057  -4.707   0.323  1.00  0.00    -0.202 N 
ATOM     12  S   UNL     1      -0.810  -6.043  -0.799  1.00  0.00    -0.020 SA
ATOM     13  C   UNL     1       1.667  -5.908   0.109  1.00  0.00     0.322 C 
ATOM     14  H   UNL     1       1.512  -3.983   0.810  1.00  0.00     0.316 HD
ATOM     15  O   UNL     1       2.751  -6.203   0.593  1.00  0.00    -0.246 OA
BRANCH   8  16
ATOM     16  N   UNL     1      -0.220  -2.323   0.325  1.00  0.00    -0.090 NA
ATOM     17  C   UNL     1       0.919  -0.231   0.029  1.00  0.00     0.071 C 
ATOM     18  C   UNL     1       0.370  -1.530  -0.527  1.00  0.00     0.088 C 
BRANCH  18  19
ATOM     19  C   UNL     1       0.634  -1.807  -1.974  1.00  0.00    -0.000 A 
ATOM     20  C   UNL     1      -0.327  -2.384  -2.799  1.00  0.00     0.014 A 
ATOM     21  C   UNL     1       1.910  -1.555  -2.495  1.00  0.00     0.014 A 
ATOM     22  C   UNL     1       0.011  -2.766  -4.101  1.00  0.00     0.047 A 
ATOM     23  C   UNL     1       2.240  -1.938  -3.806  1.00  0.00     0.047 A 
ATOM     24  C   UNL     1       1.298  -2.562  -4.613  1.00  0.00     0.119 A 
BRANCH  24  25
ATOM     25  O   UNL     1       1.456  -3.017  -5.882  1.00  0.00    -0.491 OA
BRANCH  25  26
ATOM     26  C   UNL     1       2.666  -2.979  -6.642  1.00  0.00     0.167 C 
ATOM     27  C   UNL     1       3.219  -1.584  -6.907  1.00  0.00     0.052 C 
ATOM     28  C   UNL     1       3.718  -3.967  -6.155  1.00  0.00     0.052 C 
ENDBRANCH  25  26
ENDBRANCH  24  25
ENDBRANCH  18  19
ENDBRANCH   8  16
ENDBRANCH   6   7
ENDBRANCH   3   6
ENDBRANCH   1   2
BRANCH   1  29
ATOM     29  C   UNL     1       4.594  -4.187  -1.306  1.00  0.00     0.023 C 
BRANCH  29  30
ATOM     30  C   UNL     1       6.068  -4.069  -1.697  1.00  0.00     0.023 C 
BRANCH  30  31
ATOM     31  C   UNL     1       6.381  -3.170  -2.891  1.00  0.00     0.116 C 
BRANCH  31  32
ATOM     32  N   UNL     1       5.806  -1.838  -2.798  1.00  0.00    -0.352 N 
ATOM     33  C   UNL     1       6.274  -0.637  -3.277  1.00  0.00     0.251 C 
ATOM     34  H   UNL     1       4.948  -1.788  -2.317  1.00  0.00     0.163 HD
ATOM     35  O   UNL     1       5.633   0.384  -3.071  1.00  0.00    -0.269 OA
BRANCH  33  36
ATOM     36  C   UNL     1       7.575  -0.573  -3.981  1.00  0.00     0.039 A 
ATOM     37  C   UNL     1       8.479   0.423  -3.600  1.00  0.00     0.014 A 
ATOM     38  C   UNL     1       7.923  -1.493  -4.973  1.00  0.00     0.014 A 
ATOM     39  C   UNL     1       9.762   0.440  -4.149  1.00  0.00     0.010 A 
ATOM     40  C   UNL     1       9.225  -1.514  -5.472  1.00  0.00     0.010 A 
ATOM     41  C   UNL     1      10.161  -0.557  -5.054  1.00  0.00    -0.014 A 
BRANCH  41  42
ATOM     42  C   UNL     1      11.571  -0.627  -5.516  1.00  0.00     0.031 A 
ATOM     43  C   UNL     1      11.928  -0.373  -6.951  1.00  0.00     0.074 A 
ATOM     44  C   UNL     1      12.532  -0.960  -4.632  1.00  0.00     0.049 A 
ATOM     45  N   UNL     1      13.110  -0.341  -7.514  1.00  0.00    -0.248 NA
ATOM     46  C   UNL     1      10.813  -0.152  -7.883  1.00  0.00     0.031 C 
ATOM     47  C   UNL     1      12.303  -1.310  -3.228  1.00  0.00     0.029 A 
ATOM     48  N   UNL     1      13.893  -1.054  -4.779  1.00  0.00    -0.354 N 
ATOM     49  C   UNL     1      12.882  -0.097  -8.861  1.00  0.00     0.074 A 
ATOM     50  C   UNL     1      11.446  -0.047  -9.043  1.00  0.00     0.031 C 
ATOM     51  C   UNL     1      13.485  -1.544  -2.635  1.00  0.00     0.029 A 
ATOM     52  C   UNL     1      14.551  -1.376  -3.617  1.00  0.00     0.049 A 
ATOM     53  H   UNL     1      14.354  -0.905  -5.636  1.00  0.00     0.167 HD
ATOM     54  C   UNL     1      13.787   0.093  -9.851  1.00  0.00     0.037 A 
ATOM     55  C   UNL     1      15.868  -1.504  -3.368  1.00  0.00     0.037 A 
ATOM     56  C   UNL     1      15.214   0.059  -9.665  1.00  0.00     0.049 A 
ATOM     57  C   UNL     1      16.852  -1.243  -4.474  1.00  0.00     0.074 A 
ATOM     58  C   UNL     1      16.214   0.296 -10.593  1.00  0.00     0.029 A 
ATOM     59  N   UNL     1      15.846  -0.236  -8.466  1.00  0.00    -0.354 N 
ATOM     60  N   UNL     1      16.626  -0.918  -5.723  1.00  0.00    -0.248 NA
ATOM     61  C   UNL     1      18.276  -1.346  -4.128  1.00  0.00     0.031 C 
ATOM     62  C   UNL     1      17.450   0.110  -9.964  1.00  0.00     0.029 A 
ATOM     63  C   UNL     1      17.222  -0.200  -8.633  1.00  0.00     0.049 A 
ATOM     64  H   UNL     1      15.385  -0.441  -7.621  1.00  0.00     0.167 HD
ATOM     65  C   UNL     1      17.875  -0.756  -6.307  1.00  0.00     0.074 A 
ATOM     66  C   UNL     1      18.855  -0.996  -5.267  1.00  0.00     0.031 C 
ATOM     67  C   UNL     1      18.183  -0.441  -7.588  1.00  0.00     0.037 A 
BRANCH  54  68
ATOM     68  C   UNL     1      13.255   0.370 -11.228  1.00  0.00     0.064 A 
ATOM     69  C   UNL     1      12.630   1.588 -11.539  1.00  0.00     0.173 A 
ATOM     70  C   UNL     1      13.398  -0.575 -12.254  1.00  0.00     0.173 A 
ATOM     71  F   UNL     1      12.457   2.520 -10.590  1.00  0.00    -0.203 F 
ATOM     72  C   UNL     1      12.142   1.837 -12.819  1.00  0.00     0.198 A 
ATOM     73  C   UNL     1      12.934  -0.312 -13.540  1.00  0.00     0.198 A 
ATOM     74  F   UNL     1      13.991  -1.753 -12.011  1.00  0.00    -0.203 F 
ATOM     75  F   UNL     1      11.505   2.986 -13.080  1.00  0.00    -0.200 F 
ATOM     76  C   UNL     1      12.300   0.890 -13.820  1.00  0.00     0.200 A 
ATOM     77  F   UNL     1      13.095  -1.223 -14.509  1.00  0.00    -0.200 F 
ATOM     78  F   UNL     1      11.832   1.132 -15.052  1.00  0.00    -0.200 F 
ENDBRANCH  54  68
BRANCH  55  79
ATOM     79  C   UNL     1      16.334  -1.837  -1.997  1.00  0.00     0.064 A 
ATOM     80  C   UNL     1      16.978  -0.876  -1.205  1.00  0.00     0.173 A 
ATOM     81  C   UNL     1      16.149  -3.115  -1.453  1.00  0.00     0.173 A 
ATOM     82  F   UNL     1      17.192   0.356  -1.690  1.00  0.00    -0.203 F 
ATOM     83  C   UNL     1      17.439  -1.188   0.072  1.00  0.00     0.198 A 
ATOM     84  C   UNL     1      16.588  -3.419  -0.166  1.00  0.00     0.198 A 
ATOM     85  F   UNL     1      15.532  -4.067  -2.169  1.00  0.00    -0.203 F 
ATOM     86  F   UNL     1      18.090  -0.263   0.791  1.00  0.00    -0.200 F 
ATOM     87  C   UNL     1      17.240  -2.457   0.592  1.00  0.00     0.200 A 
ATOM     88  F   UNL     1      16.382  -4.643   0.338  1.00  0.00    -0.200 F 
ATOM     89  F   UNL     1      17.682  -2.756   1.821  1.00  0.00    -0.200 F 
ENDBRANCH  55  79
BRANCH  67  90
ATOM     90  C   UNL     1      19.640  -0.315  -7.926  1.00  0.00     0.064 A 
ATOM     91  C   UNL     1      20.478  -1.438  -7.997  1.00  0.00     0.173 A 
ATOM     92  C   UNL     1      20.203   0.943  -8.190  1.00  0.00     0.173 A 
ATOM     93  F   UNL     1      19.990  -2.661  -7.738  1.00  0.00    -0.203 F 
ATOM     94  C   UNL     1      21.833  -1.303  -8.285  1.00  0.00     0.198 A 
ATOM     95  C   UNL     1      21.552   1.071  -8.506  1.00  0.00     0.198 A 
ATOM     96  F   UNL     1      19.443   2.047  -8.141  1.00  0.00    -0.203 F 
ATOM     97  F   UNL     1      22.626  -2.383  -8.290  1.00  0.00    -0.200 F 
ATOM     98  C   UNL     1      22.368  -0.050  -8.543  1.00  0.00     0.200 A 
ATOM     99  F   UNL     1      22.066   2.282  -8.765  1.00  0.00    -0.200 F 
ATOM    100  F   UNL     1      23.674   0.079  -8.816  1.00  0.00    -0.200 F 
ENDBRANCH  67  90
ENDBRANCH  41  42
ENDBRANCH  33  36
ENDBRANCH  31  32
ENDBRANCH  30  31
ENDBRANCH  29  30
ENDBRANCH   1  29
TORSDOF 16
