REMARK SMILES C/C(=N\Nc1ccccc1C(=O)NCCCCNC(=O)c1ccc(-c2c3nc(c(-c4c(F)c(F)c(F)c(F)c4F)c4ccc([nH]4)c(-c4c(F)c(F)c(F)c(F)c4F)c4nc(c(-c5c(F)c(F)c(F)c(F)c5F)c5ccc2[nH]5)C=C4)C=C3)cc1)c1ccc(S(C)(=O)=O)cc1
REMARK SMILES IDX 14 1 13 2 11 3 12 4 10 6 5 7 6 8 7 9 9 10 8 11 4 12 3 14
REMARK SMILES IDX 1 15 2 16 84 17 85 18 93 19 86 20 92 21 87 22 88 23 89 24
REMARK SMILES IDX 90 25 91 26 15 27 16 28 17 29 18 30 19 31 20 33 21 34 22 35
REMARK SMILES IDX 83 36 23 37 82 38 24 39 25 40 26 41 76 42 27 43 81 44 75 45
REMARK SMILES IDX 77 46 28 47 80 48 74 49 73 50 29 52 61 53 41 54 60 55 42 56
REMARK SMILES IDX 45 57 59 58 78 59 43 60 44 61 58 63 79 64 46 65 30 66 31 67
REMARK SMILES IDX 39 68 32 69 33 70 37 71 40 72 34 73 35 74 38 75 36 76 62 77
REMARK SMILES IDX 63 78 71 79 64 80 65 81 69 82 72 83 66 84 67 85 70 86 68 87
REMARK SMILES IDX 47 88 48 89 56 90 49 91 50 92 54 93 57 94 51 95 52 96 55 97
REMARK SMILES IDX 53 98
REMARK H PARENT 13 5 4 13 18 32 77 51 45 62
REMARK Flexibility Score: inf
ROOT
ATOM      1  C   UNL     1      -2.256  -2.048   0.575  1.00  0.00     0.116 C 
ENDROOT
BRANCH   1   2
ATOM      2  N   UNL     1      -2.027  -0.906  -0.289  1.00  0.00    -0.352 N 
ATOM      3  C   UNL     1      -1.224   0.192  -0.074  1.00  0.00     0.253 C 
ATOM      4  O   UNL     1      -1.107   1.025  -0.973  1.00  0.00    -0.269 OA
ATOM      5  H   UNL     1      -2.511  -0.917  -1.146  1.00  0.00     0.163 HD
BRANCH   3   6
ATOM      6  C   UNL     1      -0.605   0.462   1.248  1.00  0.00     0.064 A 
ATOM      7  C   UNL     1       0.224  -0.424   1.956  1.00  0.00     0.069 A 
ATOM      8  C   UNL     1       0.622  -0.049   3.260  1.00  0.00     0.028 A 
ATOM      9  C   UNL     1       0.295   1.195   3.803  1.00  0.00     0.002 A 
ATOM     10  C   UNL     1      -0.891   1.734   1.784  1.00  0.00     0.016 A 
ATOM     11  C   UNL     1      -0.433   2.104   3.048  1.00  0.00     0.001 A 
BRANCH   7  12
ATOM     12  N   UNL     1       0.869  -1.566   1.431  1.00  0.00    -0.277 N 
ATOM     13  H   UNL     1       1.291  -2.182   2.073  1.00  0.00     0.190 HD
BRANCH  12  14
ATOM     14  N   UNL     1       0.953  -1.883   0.121  1.00  0.00    -0.180 NA
ATOM     15  C   UNL     1       2.429   0.115  -0.282  1.00  0.00     0.069 C 
ATOM     16  C   UNL     1       1.684  -1.147  -0.667  1.00  0.00     0.065 C 
BRANCH  16  17
ATOM     17  C   UNL     1       1.788  -1.561  -2.091  1.00  0.00    -0.002 A 
ATOM     18  C   UNL     1       0.624  -1.757  -2.843  1.00  0.00     0.011 A 
ATOM     19  C   UNL     1       3.044  -1.766  -2.667  1.00  0.00     0.011 A 
ATOM     20  C   UNL     1       0.714  -2.139  -4.183  1.00  0.00     0.021 A 
ATOM     21  C   UNL     1       3.140  -2.143  -4.006  1.00  0.00     0.021 A 
ATOM     22  C   UNL     1       1.975  -2.327  -4.757  1.00  0.00     0.067 A 
BRANCH  22  23
ATOM     23  S   UNL     1       2.101  -2.715  -6.488  1.00  0.00     0.175 S 
ATOM     24  C   UNL     1       1.685  -4.433  -6.564  1.00  0.00     0.163 C 
ATOM     25  O   UNL     1       1.064  -1.968  -7.170  1.00  0.00    -0.224 OA
ATOM     26  O   UNL     1       3.496  -2.584  -6.867  1.00  0.00    -0.224 OA
ENDBRANCH  22  23
ENDBRANCH  16  17
ENDBRANCH  12  14
ENDBRANCH   7  12
ENDBRANCH   3   6
ENDBRANCH   1   2
BRANCH   1  27
ATOM     27  C   UNL     1      -3.372  -2.974   0.088  1.00  0.00     0.023 C 
BRANCH  27  28
ATOM     28  C   UNL     1      -3.198  -3.558  -1.321  1.00  0.00     0.023 C 
BRANCH  28  29
ATOM     29  C   UNL     1      -1.877  -4.268  -1.612  1.00  0.00     0.116 C 
BRANCH  29  30
ATOM     30  N   UNL     1      -1.708  -5.528  -0.905  1.00  0.00    -0.352 N 
ATOM     31  C   UNL     1      -1.659  -6.824  -1.363  1.00  0.00     0.251 C 
ATOM     32  H   UNL     1      -1.613  -5.437   0.070  1.00  0.00     0.163 HD
ATOM     33  O   UNL     1      -1.549  -7.749  -0.563  1.00  0.00    -0.269 OA
BRANCH  31  34
ATOM     34  C   UNL     1      -1.785  -7.133  -2.807  1.00  0.00     0.039 A 
ATOM     35  C   UNL     1      -2.665  -8.149  -3.197  1.00  0.00     0.014 A 
ATOM     36  C   UNL     1      -1.047  -6.453  -3.776  1.00  0.00     0.014 A 
ATOM     37  C   UNL     1      -2.886  -8.407  -4.555  1.00  0.00     0.010 A 
ATOM     38  C   UNL     1      -1.324  -6.660  -5.127  1.00  0.00     0.010 A 
ATOM     39  C   UNL     1      -2.256  -7.625  -5.535  1.00  0.00    -0.014 A 
BRANCH  39  40
ATOM     40  C   UNL     1      -2.602  -7.749  -6.978  1.00  0.00     0.031 A 
ATOM     41  C   UNL     1      -1.572  -8.170  -7.990  1.00  0.00     0.074 A 
ATOM     42  C   UNL     1      -3.829  -7.376  -7.394  1.00  0.00     0.049 A 
ATOM     43  N   UNL     1      -1.679  -8.259  -9.293  1.00  0.00    -0.248 NA
ATOM     44  C   UNL     1      -0.235  -8.505  -7.476  1.00  0.00     0.031 C 
ATOM     45  C   UNL     1      -4.896  -6.872  -6.529  1.00  0.00     0.029 A 
ATOM     46  N   UNL     1      -4.380  -7.344  -8.652  1.00  0.00    -0.354 N 
ATOM     47  C   UNL     1      -0.430  -8.652  -9.754  1.00  0.00     0.074 A 
ATOM     48  C   UNL     1       0.438  -8.728  -8.597  1.00  0.00     0.031 C 
ATOM     49  C   UNL     1      -5.978  -6.601  -7.277  1.00  0.00     0.029 A 
ATOM     50  C   UNL     1      -5.673  -6.880  -8.676  1.00  0.00     0.049 A 
ATOM     51  H   UNL     1      -3.894  -7.627  -9.460  1.00  0.00     0.167 HD
ATOM     52  C   UNL     1      -0.048  -8.949 -11.020  1.00  0.00     0.037 A 
ATOM     53  C   UNL     1      -6.519  -6.696  -9.708  1.00  0.00     0.037 A 
ATOM     54  C   UNL     1      -0.917  -8.901 -12.168  1.00  0.00     0.049 A 
ATOM     55  C   UNL     1      -6.072  -7.041 -11.102  1.00  0.00     0.074 A 
ATOM     56  C   UNL     1      -0.641  -9.262 -13.476  1.00  0.00     0.029 A 
ATOM     57  N   UNL     1      -2.232  -8.459 -12.147  1.00  0.00    -0.354 N 
ATOM     58  N   UNL     1      -4.917  -7.505 -11.510  1.00  0.00    -0.248 NA
ATOM     59  C   UNL     1      -7.053  -6.846 -12.180  1.00  0.00     0.031 C 
ATOM     60  C   UNL     1      -1.773  -8.998 -14.254  1.00  0.00     0.029 A 
ATOM     61  C   UNL     1      -2.771  -8.518 -13.423  1.00  0.00     0.049 A 
ATOM     62  H   UNL     1      -2.711  -8.148 -11.345  1.00  0.00     0.167 HD
ATOM     63  C   UNL     1      -5.040  -7.685 -12.881  1.00  0.00     0.074 A 
ATOM     64  C   UNL     1      -6.388  -7.293 -13.235  1.00  0.00     0.031 C 
ATOM     65  C   UNL     1      -4.117  -8.136 -13.765  1.00  0.00     0.037 A 
BRANCH  52  66
ATOM     66  C   UNL     1       1.377  -9.374 -11.237  1.00  0.00     0.064 A 
ATOM     67  C   UNL     1       1.849 -10.614 -10.779  1.00  0.00     0.173 A 
ATOM     68  C   UNL     1       2.265  -8.561 -11.957  1.00  0.00     0.173 A 
ATOM     69  F   UNL     1       1.043 -11.427 -10.080  1.00  0.00    -0.203 F 
ATOM     70  C   UNL     1       3.164 -11.010 -11.009  1.00  0.00     0.198 A 
ATOM     71  C   UNL     1       3.571  -8.973 -12.211  1.00  0.00     0.198 A 
ATOM     72  F   UNL     1       1.863  -7.370 -12.426  1.00  0.00    -0.203 F 
ATOM     73  F   UNL     1       3.605 -12.178 -10.521  1.00  0.00    -0.200 F 
ATOM     74  C   UNL     1       4.021 -10.193 -11.731  1.00  0.00     0.200 A 
ATOM     75  F   UNL     1       4.394  -8.190 -12.922  1.00  0.00    -0.200 F 
ATOM     76  F   UNL     1       5.284 -10.580 -11.958  1.00  0.00    -0.200 F 
ENDBRANCH  52  66
BRANCH  53  77
ATOM     77  C   UNL     1      -7.894  -6.192  -9.457  1.00  0.00     0.064 A 
ATOM     78  C   UNL     1      -9.005  -7.033  -9.609  1.00  0.00     0.173 A 
ATOM     79  C   UNL     1      -8.127  -4.866  -9.066  1.00  0.00     0.173 A 
ATOM     80  F   UNL     1      -8.832  -8.304 -10.002  1.00  0.00    -0.203 F 
ATOM     81  C   UNL     1     -10.299  -6.562  -9.400  1.00  0.00     0.198 A 
ATOM     82  C   UNL     1      -9.420  -4.403  -8.830  1.00  0.00     0.198 A 
ATOM     83  F   UNL     1      -7.098  -4.023  -8.900  1.00  0.00    -0.203 F 
ATOM     84  F   UNL     1     -11.345  -7.376  -9.596  1.00  0.00    -0.200 F 
ATOM     85  C   UNL     1     -10.505  -5.249  -9.005  1.00  0.00     0.200 A 
ATOM     86  F   UNL     1      -9.615  -3.138  -8.435  1.00  0.00    -0.200 F 
ATOM     87  F   UNL     1     -11.750  -4.798  -8.800  1.00  0.00    -0.200 F 
ENDBRANCH  53  77
BRANCH  65  88
ATOM     88  C   UNL     1      -4.542  -8.269 -15.199  1.00  0.00     0.064 A 
ATOM     89  C   UNL     1      -4.746  -7.147 -16.015  1.00  0.00     0.173 A 
ATOM     90  C   UNL     1      -4.708  -9.539 -15.775  1.00  0.00     0.173 A 
ATOM     91  F   UNL     1      -4.617  -5.912 -15.508  1.00  0.00    -0.203 F 
ATOM     92  C   UNL     1      -5.122  -7.290 -17.348  1.00  0.00     0.198 A 
ATOM     93  C   UNL     1      -5.056  -9.678 -17.115  1.00  0.00     0.198 A 
ATOM     94  F   UNL     1      -4.520 -10.645 -15.039  1.00  0.00    -0.203 F 
ATOM     95  F   UNL     1      -5.355  -6.203 -18.097  1.00  0.00    -0.200 F 
ATOM     96  C   UNL     1      -5.269  -8.555 -17.899  1.00  0.00     0.200 A 
ATOM     97  F   UNL     1      -5.185 -10.901 -17.649  1.00  0.00    -0.200 F 
ATOM     98  F   UNL     1      -5.623  -8.690 -19.184  1.00  0.00    -0.200 F 
ENDBRANCH  65  88
ENDBRANCH  39  40
ENDBRANCH  31  34
ENDBRANCH  29  30
ENDBRANCH  28  29
ENDBRANCH  27  28
ENDBRANCH   1  27
TORSDOF 15
