REMARK SMILES O=C(NCCCCNC(=O)[C@@H](CCO)NC(=O)c1c(F)ccc([N+](=O)[O-])c1F)c1ccc(-c2c3nc(c(-c4c(F)c(F)c(F)c(F)c4F)c4ccc([nH]4)c(-c4c(F)c(F)c(F)c(F)c4F)c4nc(c(-c5c(F)c(F)c(F)c(F)c5F)c5ccc2[nH]5)C=C4)C=C3)cc1
REMARK SMILES IDX 6 1 5 2 4 3 3 4 1 5 2 6 29 8 30 9 91 10 31 11 90 12 32 13
REMARK SMILES IDX 33 14 34 15 84 16 35 17 89 18 83 19 85 20 36 21 88 22 82 23
REMARK SMILES IDX 81 24 37 26 69 27 49 28 68 29 50 30 53 31 67 32 86 33 51 34
REMARK SMILES IDX 52 35 66 37 87 38 54 39 38 40 39 41 47 42 40 43 41 44 45 45
REMARK SMILES IDX 48 46 42 47 43 48 46 49 44 50 70 51 71 52 79 53 72 54 73 55
REMARK SMILES IDX 77 56 80 57 74 58 75 59 78 60 76 61 55 62 56 63 64 64 57 65
REMARK SMILES IDX 58 66 62 67 65 68 59 69 60 70 63 71 61 72 7 73 8 74 9 75
REMARK SMILES IDX 10 77 11 78 12 79 13 80 14 81 15 83 16 84 17 86 18 87 19 88
REMARK SMILES IDX 27 89 20 90 21 91 23 92 28 93 22 94 24 95 25 96 26 97
REMARK H PARENT 3 7 85 25 53 36 8 76 14 82 15 85
REMARK Flexibility Score: inf
ROOT
ATOM      1  C   UNL     1       4.513  -2.661  -2.299  1.00  0.00     0.023 C 
ENDROOT
BRANCH   1   2
ATOM      2  C   UNL     1       4.925  -2.161  -0.921  1.00  0.00     0.023 C 
BRANCH   2   3
ATOM      3  C   UNL     1       4.506  -0.738  -0.599  1.00  0.00     0.116 C 
BRANCH   3   4
ATOM      4  N   UNL     1       3.069  -0.513  -0.670  1.00  0.00    -0.352 N 
ATOM      5  O   UNL     1       1.056   0.230   0.061  1.00  0.00    -0.269 OA
ATOM      6  C   UNL     1       2.270   0.193   0.204  1.00  0.00     0.251 C 
ATOM      7  H   UNL     1       2.609  -0.917  -1.440  1.00  0.00     0.163 HD
BRANCH   6   8
ATOM      8  C   UNL     1       2.908   0.865   1.355  1.00  0.00     0.039 A 
ATOM      9  C   UNL     1       4.054   1.637   1.162  1.00  0.00     0.014 A 
ATOM     10  C   UNL     1       2.413   0.638   2.642  1.00  0.00     0.014 A 
ATOM     11  C   UNL     1       4.815   2.008   2.259  1.00  0.00     0.010 A 
ATOM     12  C   UNL     1       3.126   1.111   3.747  1.00  0.00     0.010 A 
ATOM     13  C   UNL     1       4.360   1.754   3.565  1.00  0.00    -0.014 A 
BRANCH  13  14
ATOM     14  C   UNL     1       5.192   2.201   4.711  1.00  0.00     0.031 A 
ATOM     15  C   UNL     1       5.792   1.215   5.675  1.00  0.00     0.074 A 
ATOM     16  C   UNL     1       5.464   3.515   4.827  1.00  0.00     0.049 A 
ATOM     17  N   UNL     1       6.566   1.444   6.707  1.00  0.00    -0.248 NA
ATOM     18  C   UNL     1       5.483  -0.208   5.467  1.00  0.00     0.031 C 
ATOM     19  C   UNL     1       4.936   4.561   3.948  1.00  0.00     0.029 A 
ATOM     20  N   UNL     1       6.277   4.194   5.697  1.00  0.00    -0.354 N 
ATOM     21  C   UNL     1       6.807   0.205   7.287  1.00  0.00     0.074 A 
ATOM     22  C   UNL     1       6.093  -0.776   6.500  1.00  0.00     0.031 C 
ATOM     23  C   UNL     1       5.498   5.733   4.271  1.00  0.00     0.029 A 
ATOM     24  C   UNL     1       6.363   5.538   5.428  1.00  0.00     0.049 A 
ATOM     25  H   UNL     1       6.753   3.761   6.442  1.00  0.00     0.167 HD
ATOM     26  C   UNL     1       7.563  -0.081   8.373  1.00  0.00     0.037 A 
ATOM     27  C   UNL     1       7.052   6.512   6.051  1.00  0.00     0.037 A 
ATOM     28  C   UNL     1       8.309   0.896   9.124  1.00  0.00     0.049 A 
ATOM     29  C   UNL     1       7.883   6.163   7.248  1.00  0.00     0.074 A 
ATOM     30  C   UNL     1       9.131   0.696  10.220  1.00  0.00     0.029 A 
ATOM     31  N   UNL     1       8.330   2.255   8.851  1.00  0.00    -0.354 N 
ATOM     32  N   UNL     1       8.096   4.988   7.787  1.00  0.00    -0.248 NA
ATOM     33  C   UNL     1       8.553   7.273   7.937  1.00  0.00     0.031 C 
ATOM     34  C   UNL     1       9.624   1.938  10.630  1.00  0.00     0.029 A 
ATOM     35  C   UNL     1       9.138   2.908   9.768  1.00  0.00     0.049 A 
ATOM     36  H   UNL     1       7.844   2.692   8.114  1.00  0.00     0.167 HD
ATOM     37  C   UNL     1       8.916   5.215   8.881  1.00  0.00     0.074 A 
ATOM     38  C   UNL     1       9.189   6.637   8.912  1.00  0.00     0.031 C 
ATOM     39  C   UNL     1       9.389   4.325   9.785  1.00  0.00     0.037 A 
BRANCH  26  40
ATOM     40  C   UNL     1       7.627  -1.506   8.838  1.00  0.00     0.064 A 
ATOM     41  C   UNL     1       6.982  -1.893  10.023  1.00  0.00     0.173 A 
ATOM     42  C   UNL     1       8.406  -2.462   8.172  1.00  0.00     0.173 A 
ATOM     43  F   UNL     1       6.231  -1.012  10.702  1.00  0.00    -0.203 F 
ATOM     44  C   UNL     1       7.130  -3.180  10.533  1.00  0.00     0.198 A 
ATOM     45  C   UNL     1       8.536  -3.755   8.674  1.00  0.00     0.198 A 
ATOM     46  F   UNL     1       9.035  -2.143   7.030  1.00  0.00    -0.203 F 
ATOM     47  F   UNL     1       6.532  -3.517  11.684  1.00  0.00    -0.200 F 
ATOM     48  C   UNL     1       7.907  -4.109   9.859  1.00  0.00     0.200 A 
ATOM     49  F   UNL     1       9.273  -4.658   8.013  1.00  0.00    -0.200 F 
ATOM     50  F   UNL     1       8.050  -5.348  10.351  1.00  0.00    -0.200 F 
ENDBRANCH  26  40
BRANCH  27  51
ATOM     51  C   UNL     1       6.965   7.904   5.542  1.00  0.00     0.064 A 
ATOM     52  C   UNL     1       5.772   8.636   5.632  1.00  0.00     0.173 A 
ATOM     53  C   UNL     1       8.058   8.507   4.906  1.00  0.00     0.173 A 
ATOM     54  F   UNL     1       4.697   8.098   6.226  1.00  0.00    -0.203 F 
ATOM     55  C   UNL     1       5.667   9.909   5.079  1.00  0.00     0.198 A 
ATOM     56  C   UNL     1       7.959   9.792   4.378  1.00  0.00     0.198 A 
ATOM     57  F   UNL     1       9.224   7.851   4.812  1.00  0.00    -0.203 F 
ATOM     58  F   UNL     1       4.502  10.569   5.138  1.00  0.00    -0.200 F 
ATOM     59  C   UNL     1       6.761  10.488   4.455  1.00  0.00     0.200 A 
ATOM     60  F   UNL     1       9.025  10.357   3.793  1.00  0.00    -0.200 F 
ATOM     61  F   UNL     1       6.662  11.716   3.928  1.00  0.00    -0.200 F 
ENDBRANCH  27  51
BRANCH  39  62
ATOM     62  C   UNL     1      10.243   4.862  10.891  1.00  0.00     0.064 A 
ATOM     63  C   UNL     1      11.627   4.637  10.900  1.00  0.00     0.173 A 
ATOM     64  C   UNL     1       9.676   5.545  11.976  1.00  0.00     0.173 A 
ATOM     65  F   UNL     1      12.212   3.982   9.885  1.00  0.00    -0.203 F 
ATOM     66  C   UNL     1      12.413   5.067  11.964  1.00  0.00     0.198 A 
ATOM     67  C   UNL     1      10.469   5.993  13.029  1.00  0.00     0.198 A 
ATOM     68  F   UNL     1       8.359   5.795  12.002  1.00  0.00    -0.203 F 
ATOM     69  F   UNL     1      13.730   4.819  11.966  1.00  0.00    -0.200 F 
ATOM     70  C   UNL     1      11.834   5.746  13.026  1.00  0.00     0.200 A 
ATOM     71  F   UNL     1       9.912   6.667  14.044  1.00  0.00    -0.200 F 
ATOM     72  F   UNL     1      12.593   6.167  14.047  1.00  0.00    -0.200 F 
ENDBRANCH  39  62
ENDBRANCH  13  14
ENDBRANCH   6   8
ENDBRANCH   3   4
ENDBRANCH   2   3
ENDBRANCH   1   2
BRANCH   1  73
ATOM     73  C   UNL     1       5.065  -1.862  -3.479  1.00  0.00     0.116 C 
BRANCH  73  74
ATOM     74  N   UNL     1       6.462  -2.163  -3.702  1.00  0.00    -0.354 N 
ATOM     75  C   UNL     1       7.080  -2.938  -4.629  1.00  0.00     0.242 C 
ATOM     76  H   UNL     1       7.075  -1.726  -3.068  1.00  0.00     0.163 HD
ATOM     77  O   UNL     1       8.283  -3.162  -4.439  1.00  0.00    -0.273 OA
BRANCH  75  78
ATOM     78  C   UNL     1       6.364  -3.614  -5.822  1.00  0.00     0.173 C 
BRANCH  78  79
ATOM     79  C   UNL     1       5.631  -4.923  -5.480  1.00  0.00     0.063 C 
BRANCH  79  80
ATOM     80  C   UNL     1       4.186  -4.882  -4.995  1.00  0.00     0.158 C 
BRANCH  80  81
ATOM     81  O   UNL     1       3.400  -3.890  -5.630  1.00  0.00    -0.396 OA
ATOM     82  H   UNL     1       3.767  -3.013  -5.435  1.00  0.00     0.210 HD
ENDBRANCH  80  81
ENDBRANCH  79  80
ENDBRANCH  78  79
BRANCH  78  83
ATOM     83  N   UNL     1       5.595  -2.714  -6.682  1.00  0.00    -0.340 N 
ATOM     84  C   UNL     1       5.822  -2.303  -7.969  1.00  0.00     0.258 C 
ATOM     85  H   UNL     1       4.782  -2.344  -6.268  1.00  0.00     0.164 HD
ATOM     86  O   UNL     1       5.085  -1.470  -8.488  1.00  0.00    -0.269 OA
BRANCH  84  87
ATOM     87  C   UNL     1       6.908  -2.876  -8.770  1.00  0.00     0.118 A 
ATOM     88  C   UNL     1       6.932  -4.242  -9.050  1.00  0.00     0.139 A 
ATOM     89  C   UNL     1       7.860  -2.034  -9.347  1.00  0.00     0.216 A 
ATOM     90  F   UNL     1       5.977  -5.056  -8.581  1.00  0.00    -0.206 F 
ATOM     91  C   UNL     1       7.941  -4.796  -9.833  1.00  0.00     0.047 A 
ATOM     92  C   UNL     1       8.849  -2.579 -10.168  1.00  0.00     0.305 A 
ATOM     93  F   UNL     1       7.827  -0.722  -9.075  1.00  0.00    -0.198 F 
ATOM     94  C   UNL     1       8.908  -3.965 -10.398  1.00  0.00     0.092 A 
BRANCH  92  95
ATOM     95  N   UNL     1       9.830  -1.714 -10.817  1.00  0.00     0.065 N 
ATOM     96  O   UNL     1       9.556  -0.518 -10.965  1.00  0.00    -0.258 OA
ATOM     97  O   UNL     1      10.874  -2.250 -11.217  1.00  0.00    -0.258 OA
ENDBRANCH  92  95
ENDBRANCH  84  87
ENDBRANCH  78  83
ENDBRANCH  75  78
ENDBRANCH  73  74
ENDBRANCH   1  73
TORSDOF 17
