REMARK SMILES CCCC[C@H](C(=O)NCCCCNC(=O)c1ccc(-c2c3nc(c(-c4c(F)c(F)c(F)c(F)c4F)c4ccc([nH]4)c(-c4c(F)c(F)c(F)c(F)c4F)c4nc(c(-c5c(F)c(F)c(F)c(F)c5F)c5ccc2[nH]5)C=C4)C=C3)cc1)[C@H](O)c1ccc(C(F)(F)F)cc1
REMARK SMILES IDX 10 1 9 2 8 3 6 4 7 5 5 7 4 8 3 9 2 10 1 11 79 12 81 13 82 14
REMARK SMILES IDX 90 15 83 16 89 17 84 18 85 19 86 20 87 21 88 22 80 23 11 25
REMARK SMILES IDX 12 26 13 27 14 28 15 30 16 31 17 32 78 33 18 34 77 35 19 36
REMARK SMILES IDX 20 37 21 38 71 39 22 40 76 41 70 42 72 43 23 44 75 45 69 46
REMARK SMILES IDX 68 47 24 49 56 50 36 51 55 52 37 53 40 54 54 55 73 56 38 57
REMARK SMILES IDX 39 58 53 60 74 61 41 62 25 63 26 64 34 65 27 66 28 67 32 68
REMARK SMILES IDX 35 69 29 70 30 71 33 72 31 73 57 74 58 75 66 76 59 77 60 78
REMARK SMILES IDX 64 79 67 80 61 81 62 82 65 83 63 84 42 85 43 86 51 87 44 88
REMARK SMILES IDX 45 89 49 90 52 91 46 92 47 93 50 94 48 95
REMARK H PARENT 8 6 80 24 13 29 72 48 40 59
REMARK Flexibility Score: inf
ROOT
ATOM      1  C   UNL     1       2.668  -1.009   1.505  1.00  0.00     0.023 C 
ENDROOT
BRANCH   1   2
ATOM      2  C   UNL     1       1.890  -0.247   2.569  1.00  0.00     0.116 C 
BRANCH   2   3
ATOM      3  N   UNL     1       0.643   0.304   2.065  1.00  0.00    -0.356 N 
ATOM      4  C   UNL     1      -0.562   0.439   2.697  1.00  0.00     0.226 C 
ATOM      5  O   UNL     1      -1.438   1.082   2.123  1.00  0.00    -0.275 OA
ATOM      6  H   UNL     1       0.669   0.627   1.135  1.00  0.00     0.163 HD
BRANCH   4   7
ATOM      7  C   UNL     1      -0.787  -0.242   4.039  1.00  0.00     0.111 C 
BRANCH   7   8
ATOM      8  C   UNL     1      -1.293   0.727   5.122  1.00  0.00     0.016 C 
BRANCH   8   9
ATOM      9  C   UNL     1      -0.192   1.615   5.730  1.00  0.00     0.001 C 
BRANCH   9  10
ATOM     10  C   UNL     1       0.432   2.672   4.815  1.00  0.00    -0.003 C 
ATOM     11  C   UNL     1      -0.558   3.682   4.258  1.00  0.00     0.004 C 
ENDBRANCH   9  10
ENDBRANCH   8   9
ENDBRANCH   7   8
BRANCH   7  12
ATOM     12  C   UNL     1      -1.639  -1.526   3.857  1.00  0.00     0.157 C 
BRANCH  12  13
ATOM     13  C   UNL     1      -3.144  -1.523   3.646  1.00  0.00    -0.019 A 
ATOM     14  C   UNL     1      -3.928  -0.376   3.484  1.00  0.00     0.007 A 
ATOM     15  C   UNL     1      -3.818  -2.759   3.722  1.00  0.00     0.007 A 
ATOM     16  C   UNL     1      -5.328  -0.447   3.494  1.00  0.00     0.013 A 
ATOM     17  C   UNL     1      -5.215  -2.837   3.717  1.00  0.00     0.013 A 
ATOM     18  C   UNL     1      -5.987  -1.674   3.631  1.00  0.00     0.056 A 
BRANCH  18  19
ATOM     19  C   UNL     1      -7.492  -1.721   3.720  1.00  0.00     0.416 C 
ATOM     20  F   UNL     1      -7.960  -1.142   4.862  1.00  0.00    -0.166 F 
ATOM     21  F   UNL     1      -8.104  -1.067   2.694  1.00  0.00    -0.166 F 
ATOM     22  F   UNL     1      -8.002  -2.985   3.713  1.00  0.00    -0.166 F 
ENDBRANCH  18  19
ENDBRANCH  12  13
BRANCH  12  23
ATOM     23  O   UNL     1      -1.019  -2.394   2.895  1.00  0.00    -0.388 OA
ATOM     24  H   UNL     1      -1.090  -2.001   2.011  1.00  0.00     0.211 HD
ENDBRANCH  12  23
ENDBRANCH   7  12
ENDBRANCH   4   7
ENDBRANCH   2   3
ENDBRANCH   1   2
BRANCH   1  25
ATOM     25  C   UNL     1       3.150  -0.167   0.327  1.00  0.00     0.023 C 
BRANCH  25  26
ATOM     26  C   UNL     1       3.944   1.078   0.701  1.00  0.00     0.116 C 
BRANCH  26  27
ATOM     27  N   UNL     1       5.132   0.780   1.489  1.00  0.00    -0.352 N 
ATOM     28  C   UNL     1       6.437   1.135   1.252  1.00  0.00     0.251 C 
ATOM     29  H   UNL     1       4.978   0.250   2.305  1.00  0.00     0.163 HD
ATOM     30  O   UNL     1       7.345   0.685   1.945  1.00  0.00    -0.269 OA
BRANCH  28  31
ATOM     31  C   UNL     1       6.743   2.046   0.132  1.00  0.00     0.039 A 
ATOM     32  C   UNL     1       7.729   1.685  -0.788  1.00  0.00     0.014 A 
ATOM     33  C   UNL     1       6.023   3.233  -0.027  1.00  0.00     0.014 A 
ATOM     34  C   UNL     1       7.942   2.481  -1.915  1.00  0.00     0.010 A 
ATOM     35  C   UNL     1       6.182   3.981  -1.187  1.00  0.00     0.010 A 
ATOM     36  C   UNL     1       7.144   3.614  -2.142  1.00  0.00    -0.014 A 
BRANCH  36  37
ATOM     37  C   UNL     1       7.304   4.444  -3.361  1.00  0.00     0.031 A 
ATOM     38  C   UNL     1       7.738   5.878  -3.233  1.00  0.00     0.074 A 
ATOM     39  C   UNL     1       6.990   3.935  -4.568  1.00  0.00     0.049 A 
ATOM     40  N   UNL     1       7.831   6.802  -4.155  1.00  0.00    -0.248 NA
ATOM     41  C   UNL     1       8.085   6.343  -1.881  1.00  0.00     0.031 C 
ATOM     42  C   UNL     1       6.521   2.571  -4.818  1.00  0.00     0.029 A 
ATOM     43  N   UNL     1       7.004   4.513  -5.814  1.00  0.00    -0.354 N 
ATOM     44  C   UNL     1       8.230   7.955  -3.493  1.00  0.00     0.074 A 
ATOM     45  C   UNL     1       8.306   7.633  -2.085  1.00  0.00     0.031 C 
ATOM     46  C   UNL     1       6.311   2.412  -6.135  1.00  0.00     0.029 A 
ATOM     47  C   UNL     1       6.590   3.671  -6.817  1.00  0.00     0.049 A 
ATOM     48  H   UNL     1       7.284   5.444  -5.972  1.00  0.00     0.167 HD
ATOM     49  C   UNL     1       8.533   9.167  -4.016  1.00  0.00     0.037 A 
ATOM     50  C   UNL     1       6.443   3.897  -8.137  1.00  0.00     0.037 A 
ATOM     51  C   UNL     1       8.484   9.476  -5.419  1.00  0.00     0.049 A 
ATOM     52  C   UNL     1       6.773   5.259  -8.689  1.00  0.00     0.074 A 
ATOM     53  C   UNL     1       8.810  10.662  -6.054  1.00  0.00     0.029 A 
ATOM     54  N   UNL     1       8.084   8.589  -6.408  1.00  0.00    -0.354 N 
ATOM     55  N   UNL     1       7.201   6.327  -8.060  1.00  0.00    -0.248 NA
ATOM     56  C   UNL     1       6.603   5.446 -10.137  1.00  0.00     0.031 C 
ATOM     57  C   UNL     1       8.572  10.504  -7.423  1.00  0.00     0.029 A 
ATOM     58  C   UNL     1       8.145   9.205  -7.647  1.00  0.00     0.049 A 
ATOM     59  H   UNL     1       7.800   7.659  -6.252  1.00  0.00     0.167 HD
ATOM     60  C   UNL     1       7.389   7.295  -9.037  1.00  0.00     0.074 A 
ATOM     61  C   UNL     1       7.037   6.687 -10.302  1.00  0.00     0.031 C 
ATOM     62  C   UNL     1       7.816   8.575  -8.899  1.00  0.00     0.037 A 
BRANCH  49  63
ATOM     63  C   UNL     1       8.957  10.247  -3.063  1.00  0.00     0.064 A 
ATOM     64  C   UNL     1      10.192  10.196  -2.400  1.00  0.00     0.173 A 
ATOM     65  C   UNL     1       8.139  11.365  -2.841  1.00  0.00     0.173 A 
ATOM     66  F   UNL     1      11.005   9.142  -2.567  1.00  0.00    -0.203 F 
ATOM     67  C   UNL     1      10.581  11.210  -1.530  1.00  0.00     0.198 A 
ATOM     68  C   UNL     1       8.545  12.393  -1.994  1.00  0.00     0.198 A 
ATOM     69  F   UNL     1       6.949  11.466  -3.453  1.00  0.00    -0.203 F 
ATOM     70  F   UNL     1      11.744  11.116  -0.870  1.00  0.00    -0.200 F 
ATOM     71  C   UNL     1       9.761  12.311  -1.334  1.00  0.00     0.200 A 
ATOM     72  F   UNL     1       7.757  13.462  -1.816  1.00  0.00    -0.200 F 
ATOM     73  F   UNL     1      10.142  13.292  -0.503  1.00  0.00    -0.200 F 
ENDBRANCH  49  63
BRANCH  50  74
ATOM     74  C   UNL     1       5.983   2.807  -9.038  1.00  0.00     0.064 A 
ATOM     75  C   UNL     1       6.848   2.252  -9.992  1.00  0.00     0.173 A 
ATOM     76  C   UNL     1       4.670   2.318  -8.986  1.00  0.00     0.173 A 
ATOM     77  F   UNL     1       8.108   2.701 -10.095  1.00  0.00    -0.203 F 
ATOM     78  C   UNL     1       6.410   1.270 -10.879  1.00  0.00     0.198 A 
ATOM     79  C   UNL     1       4.241   1.315  -9.853  1.00  0.00     0.198 A 
ATOM     80  F   UNL     1       3.804   2.811  -8.089  1.00  0.00    -0.203 F 
ATOM     81  F   UNL     1       7.242   0.798 -11.817  1.00  0.00    -0.200 F 
ATOM     82  C   UNL     1       5.107   0.800 -10.806  1.00  0.00     0.200 A 
ATOM     83  F   UNL     1       2.986   0.853  -9.771  1.00  0.00    -0.200 F 
ATOM     84  F   UNL     1       4.685  -0.142 -11.661  1.00  0.00    -0.200 F 
ENDBRANCH  50  74
BRANCH  62  85
ATOM     85  C   UNL     1       7.983   9.386 -10.150  1.00  0.00     0.064 A 
ATOM     86  C   UNL     1       6.881   9.855 -10.880  1.00  0.00     0.173 A 
ATOM     87  C   UNL     1       9.266   9.738 -10.596  1.00  0.00     0.173 A 
ATOM     88  F   UNL     1       5.635   9.534 -10.502  1.00  0.00    -0.203 F 
ATOM     89  C   UNL     1       7.059  10.628 -12.024  1.00  0.00     0.198 A 
ATOM     90  C   UNL     1       9.439  10.537 -11.723  1.00  0.00     0.198 A 
ATOM     91  F   UNL     1      10.352   9.320  -9.929  1.00  0.00    -0.203 F 
ATOM     92  F   UNL     1       5.994  11.028 -12.732  1.00  0.00    -0.200 F 
ATOM     93  C   UNL     1       8.337  10.975 -12.440  1.00  0.00     0.200 A 
ATOM     94  F   UNL     1      10.674  10.883 -12.114  1.00  0.00    -0.200 F 
ATOM     95  F   UNL     1       8.505  11.728 -13.535  1.00  0.00    -0.200 F 
ENDBRANCH  62  85
ENDBRANCH  36  37
ENDBRANCH  28  31
ENDBRANCH  26  27
ENDBRANCH  25  26
ENDBRANCH   1  25
TORSDOF 18
