REMARK SMILES O=C(CCC1CC[NH+]([C@H]2CCO[C@]3(CCSC3)C2)CC1)NCCCCNC(=O)c1ccc(-c2c3nc(c(-c4c(F)c(F)c(F)c(F)c4F)c4ccc([nH]4)c(-c4c(F)c(F)c(F)c(F)c4F)c4nc(c(-c5c(F)c(F)c(F)c(F)c5F)c5ccc2[nH]5)C=C4)C=C3)cc1
REMARK SMILES IDX 23 1 22 2 21 3 1 4 2 5 3 7 4 8 5 9 6 10 20 11 7 12 19 13
REMARK SMILES IDX 8 14 9 16 10 17 18 18 11 19 13 20 12 21 14 22 17 23 15 24
REMARK SMILES IDX 16 25 24 26 25 27 26 28 27 29 28 31 29 32 30 33 91 34 31 35
REMARK SMILES IDX 90 36 32 37 33 38 34 39 84 40 35 41 89 42 83 43 85 44 36 45
REMARK SMILES IDX 88 46 82 47 81 48 37 50 69 51 49 52 68 53 50 54 53 55 67 56
REMARK SMILES IDX 86 57 51 58 52 59 66 61 87 62 54 63 38 64 39 65 47 66 40 67
REMARK SMILES IDX 41 68 45 69 48 70 42 71 43 72 46 73 44 74 70 75 71 76 79 77
REMARK SMILES IDX 72 78 73 79 77 80 80 81 74 82 75 83 78 84 76 85 55 86 56 87
REMARK SMILES IDX 64 88 57 89 58 90 62 91 65 92 59 93 60 94 63 95 61 96
REMARK H PARENT 21 6 8 15 26 30 85 49 53 60
REMARK Flexibility Score: inf
ROOT
ATOM      1  C   UNL     1       0.147   1.343  -9.107  1.00  0.00     0.023 C 
ENDROOT
BRANCH   1   2
ATOM      2  C   UNL     1       0.787   2.622  -8.569  1.00  0.00     0.116 C 
BRANCH   2   3
ATOM      3  N   UNL     1       2.144   2.802  -9.045  1.00  0.00    -0.356 N 
ATOM      4  O   UNL     1       2.061   5.095  -9.127  1.00  0.00    -0.275 OA
ATOM      5  C   UNL     1       2.690   4.049  -9.254  1.00  0.00     0.220 C 
ATOM      6  H   UNL     1       2.694   2.006  -9.225  1.00  0.00     0.163 HD
BRANCH   5   7
ATOM      7  C   UNL     1       4.170   4.036  -9.601  1.00  0.00     0.100 C 
BRANCH   7   8
ATOM      8  C   UNL     1       5.033   4.178  -8.339  1.00  0.00     0.014 C 
BRANCH   8   9
ATOM      9  C   UNL     1       5.147   2.845  -7.561  1.00  0.00     0.000 C 
ATOM     10  C   UNL     1       4.710   2.997  -6.092  1.00  0.00     0.065 C 
ATOM     11  C   UNL     1       6.521   2.178  -7.760  1.00  0.00     0.065 C 
ATOM     12  C   UNL     1       5.842   3.135  -5.074  1.00  0.00     0.262 C 
ATOM     13  C   UNL     1       7.518   2.462  -6.645  1.00  0.00     0.262 C 
ATOM     14  N   UNL     1       6.987   2.253  -5.301  1.00  0.00    -0.332 N 
ATOM     15  H   UNL     1       7.749   2.535  -4.685  1.00  0.00     0.348 HD
BRANCH  14  16
ATOM     16  C   UNL     1       6.878   0.880  -4.756  1.00  0.00     0.189 C 
ATOM     17  C   UNL     1       5.699   0.023  -5.243  1.00  0.00     0.093 C 
ATOM     18  C   UNL     1       8.199   0.084  -4.879  1.00  0.00     0.101 C 
ATOM     19  C   UNL     1       5.729  -1.377  -4.660  1.00  0.00     0.167 C 
ATOM     20  C   UNL     1       8.104  -1.354  -4.321  1.00  0.00     0.084 C 
ATOM     21  O   UNL     1       6.972  -2.010  -4.919  1.00  0.00    -0.374 OA
ATOM     22  C   UNL     1       8.023  -1.461  -2.787  1.00  0.00     0.047 C 
ATOM     23  C   UNL     1       9.339  -2.183  -4.714  1.00  0.00     0.105 C 
ATOM     24  C   UNL     1       9.410  -1.417  -2.164  1.00  0.00     0.072 C 
ATOM     25  S   UNL     1      10.593  -1.861  -3.453  1.00  0.00    -0.159 SA
ENDBRANCH  14  16
ENDBRANCH   8   9
ENDBRANCH   7   8
ENDBRANCH   5   7
ENDBRANCH   2   3
ENDBRANCH   1   2
BRANCH   1  26
ATOM     26  C   UNL     1       0.816   0.037  -8.665  1.00  0.00     0.023 C 
BRANCH  26  27
ATOM     27  C   UNL     1       0.825  -0.224  -7.161  1.00  0.00     0.116 C 
BRANCH  27  28
ATOM     28  N   UNL     1      -0.513  -0.390  -6.614  1.00  0.00    -0.352 N 
ATOM     29  C   UNL     1      -1.062  -1.439  -5.922  1.00  0.00     0.251 C 
ATOM     30  H   UNL     1      -1.119   0.371  -6.763  1.00  0.00     0.163 HD
ATOM     31  O   UNL     1      -2.275  -1.449  -5.694  1.00  0.00    -0.269 OA
BRANCH  29  32
ATOM     32  C   UNL     1      -0.231  -2.573  -5.462  1.00  0.00     0.039 A 
ATOM     33  C   UNL     1      -0.735  -3.872  -5.591  1.00  0.00     0.014 A 
ATOM     34  C   UNL     1       1.020  -2.370  -4.872  1.00  0.00     0.014 A 
ATOM     35  C   UNL     1       0.039  -4.966  -5.193  1.00  0.00     0.010 A 
ATOM     36  C   UNL     1       1.818  -3.464  -4.537  1.00  0.00     0.010 A 
ATOM     37  C   UNL     1       1.338  -4.774  -4.696  1.00  0.00    -0.014 A 
BRANCH  37  38
ATOM     38  C   UNL     1       2.210  -5.928  -4.351  1.00  0.00     0.031 A 
ATOM     39  C   UNL     1       2.657  -6.150  -2.933  1.00  0.00     0.074 A 
ATOM     40  C   UNL     1       2.653  -6.742  -5.329  1.00  0.00     0.049 A 
ATOM     41  N   UNL     1       3.478  -7.052  -2.454  1.00  0.00    -0.248 NA
ATOM     42  C   UNL     1       2.132  -5.220  -1.921  1.00  0.00     0.031 C 
ATOM     43  C   UNL     1       2.324  -6.614  -6.750  1.00  0.00     0.029 A 
ATOM     44  N   UNL     1       3.486  -7.833  -5.279  1.00  0.00    -0.354 N 
ATOM     45  C   UNL     1       3.580  -6.788  -1.094  1.00  0.00     0.074 A 
ATOM     46  C   UNL     1       2.774  -5.615  -0.831  1.00  0.00     0.031 C 
ATOM     47  C   UNL     1       2.931  -7.598  -7.432  1.00  0.00     0.029 A 
ATOM     48  C   UNL     1       3.724  -8.402  -6.507  1.00  0.00     0.049 A 
ATOM     49  H   UNL     1       3.876  -8.176  -4.442  1.00  0.00     0.167 HD
ATOM     50  C   UNL     1       4.267  -7.474  -0.149  1.00  0.00     0.037 A 
ATOM     51  C   UNL     1       4.502  -9.446  -6.851  1.00  0.00     0.037 A 
ATOM     52  C   UNL     1       5.044  -8.659  -0.407  1.00  0.00     0.049 A 
ATOM     53  C   UNL     1       5.264 -10.181  -5.781  1.00  0.00     0.074 A 
ATOM     54  C   UNL     1       5.718  -9.461   0.497  1.00  0.00     0.029 A 
ATOM     55  N   UNL     1       5.253  -9.210  -1.663  1.00  0.00    -0.354 N 
ATOM     56  N   UNL     1       5.297  -9.964  -4.490  1.00  0.00    -0.248 NA
ATOM     57  C   UNL     1       6.095 -11.312  -6.220  1.00  0.00     0.031 C 
ATOM     58  C   UNL     1       6.375 -10.470  -0.216  1.00  0.00     0.029 A 
ATOM     59  C   UNL     1       6.067 -10.328  -1.559  1.00  0.00     0.049 A 
ATOM     60  H   UNL     1       4.878  -8.860  -2.503  1.00  0.00     0.167 HD
ATOM     61  C   UNL     1       6.123 -10.946  -3.958  1.00  0.00     0.074 A 
ATOM     62  C   UNL     1       6.560 -11.769  -5.066  1.00  0.00     0.031 C 
ATOM     63  C   UNL     1       6.485 -11.147  -2.668  1.00  0.00     0.037 A 
BRANCH  50  64
ATOM     64  C   UNL     1       4.213  -6.961   1.261  1.00  0.00     0.064 A 
ATOM     65  C   UNL     1       3.044  -7.047   2.033  1.00  0.00     0.173 A 
ATOM     66  C   UNL     1       5.358  -6.419   1.865  1.00  0.00     0.173 A 
ATOM     67  F   UNL     1       1.919  -7.546   1.500  1.00  0.00    -0.203 F 
ATOM     68  C   UNL     1       3.017  -6.584   3.346  1.00  0.00     0.198 A 
ATOM     69  C   UNL     1       5.335  -5.986   3.188  1.00  0.00     0.198 A 
ATOM     70  F   UNL     1       6.504  -6.318   1.174  1.00  0.00    -0.203 F 
ATOM     71  F   UNL     1       1.875  -6.632   4.048  1.00  0.00    -0.200 F 
ATOM     72  C   UNL     1       4.163  -6.061   3.925  1.00  0.00     0.200 A 
ATOM     73  F   UNL     1       6.448  -5.492   3.749  1.00  0.00    -0.200 F 
ATOM     74  F   UNL     1       4.137  -5.624   5.191  1.00  0.00    -0.200 F 
ENDBRANCH  50  64
BRANCH  51  75
ATOM     75  C   UNL     1       4.585  -9.876  -8.271  1.00  0.00     0.064 A 
ATOM     76  C   UNL     1       4.030 -11.095  -8.685  1.00  0.00     0.173 A 
ATOM     77  C   UNL     1       5.228  -9.090  -9.238  1.00  0.00     0.173 A 
ATOM     78  F   UNL     1       3.424 -11.892  -7.792  1.00  0.00    -0.203 F 
ATOM     79  C   UNL     1       4.133 -11.522 -10.008  1.00  0.00     0.198 A 
ATOM     80  C   UNL     1       5.305  -9.504 -10.567  1.00  0.00     0.198 A 
ATOM     81  F   UNL     1       5.771  -7.913  -8.895  1.00  0.00    -0.203 F 
ATOM     82  F   UNL     1       3.635 -12.713 -10.365  1.00  0.00    -0.200 F 
ATOM     83  C   UNL     1       4.765 -10.723 -10.948  1.00  0.00     0.200 A 
ATOM     84  F   UNL     1       5.904  -8.723 -11.476  1.00  0.00    -0.200 F 
ATOM     85  F   UNL     1       4.862 -11.132 -12.221  1.00  0.00    -0.200 F 
ENDBRANCH  51  75
BRANCH  63  86
ATOM     86  C   UNL     1       7.366 -12.327  -2.374  1.00  0.00     0.064 A 
ATOM     87  C   UNL     1       8.718 -12.349  -2.747  1.00  0.00     0.173 A 
ATOM     88  C   UNL     1       6.859 -13.434  -1.678  1.00  0.00     0.173 A 
ATOM     89  F   UNL     1       9.248 -11.322  -3.429  1.00  0.00    -0.203 F 
ATOM     90  C   UNL     1       9.523 -13.448  -2.455  1.00  0.00     0.198 A 
ATOM     91  C   UNL     1       7.673 -14.517  -1.361  1.00  0.00     0.198 A 
ATOM     92  F   UNL     1       5.574 -13.460  -1.293  1.00  0.00    -0.203 F 
ATOM     93  F   UNL     1      10.799 -13.469  -2.864  1.00  0.00    -0.200 F 
ATOM     94  C   UNL     1       9.002 -14.527  -1.756  1.00  0.00     0.200 A 
ATOM     95  F   UNL     1       7.172 -15.553  -0.673  1.00  0.00    -0.200 F 
ATOM     96  F   UNL     1       9.780 -15.580  -1.470  1.00  0.00    -0.200 F 
ENDBRANCH  63  86
ENDBRANCH  37  38
ENDBRANCH  29  32
ENDBRANCH  27  28
ENDBRANCH  26  27
ENDBRANCH   1  26
TORSDOF 14
