REMARK SMILES CC[C@@]1(CC(=O)NCCCCNC(=O)c2ccc(-c3c4nc(c(-c5c(F)c(F)c(F)c(F)c5F)c5ccc([nH]5)c(-c5c(F)c(F)c(F)c(F)c5F)c5nc(c(-c6c(F)c(F)c(F)c(F)c6F)c6ccc3[nH]6)C=C5)C=C4)cc2)OC[C@H](Cc2ccccc2)c2c1[nH]c1ccccc21
REMARK SMILES IDX 9 1 8 2 7 3 5 4 6 5 4 7 3 8 78 9 89 10 79 11 88 12 90 13
REMARK SMILES IDX 80 14 96 15 91 16 95 18 92 19 94 20 93 21 2 22 1 23 81 24
REMARK SMILES IDX 82 25 83 26 87 27 84 28 86 29 85 30 10 31 11 32 12 33 13 34
REMARK SMILES IDX 14 36 15 37 16 38 77 39 17 40 76 41 18 42 19 43 20 44 70 45
REMARK SMILES IDX 21 46 75 47 69 48 71 49 22 50 74 51 68 52 67 53 23 55 55 56
REMARK SMILES IDX 35 57 54 58 36 59 39 60 53 61 72 62 37 63 38 64 52 66 73 67
REMARK SMILES IDX 40 68 24 69 25 70 33 71 26 72 27 73 31 74 34 75 28 76 29 77
REMARK SMILES IDX 32 78 30 79 56 80 57 81 65 82 58 83 59 84 63 85 66 86 60 87
REMARK SMILES IDX 61 88 64 89 62 90 41 91 42 92 50 93 43 94 44 95 48 96 51 97
REMARK SMILES IDX 45 98 46 99 49 100 47 101
REMARK H PARENT 7 6 90 17 12 35 71 54 39 65
REMARK Flexibility Score: inf
ROOT
ATOM      1  C   UNL     1      -0.435   1.007   5.565  1.00  0.00     0.023 C 
ENDROOT
BRANCH   1   2
ATOM      2  C   UNL     1      -0.202   0.021   4.414  1.00  0.00     0.116 C 
BRANCH   2   3
ATOM      3  N   UNL     1      -1.191   0.140   3.351  1.00  0.00    -0.356 N 
ATOM      4  C   UNL     1      -1.049   0.502   2.038  1.00  0.00     0.223 C 
ATOM      5  O   UNL     1      -2.075   0.619   1.363  1.00  0.00    -0.275 OA
ATOM      6  H   UNL     1      -2.113  -0.075   3.621  1.00  0.00     0.163 HD
BRANCH   4   7
ATOM      7  C   UNL     1       0.321   0.678   1.411  1.00  0.00     0.142 C 
BRANCH   7   8
ATOM      8  C   UNL     1       1.077   2.015   1.599  1.00  0.00     0.117 C 
ATOM      9  O   UNL     1       0.912   2.585   2.923  1.00  0.00    -0.368 OA
ATOM     10  C   UNL     1       0.700   3.111   0.626  1.00  0.00     0.052 A 
ATOM     11  C   UNL     1      -0.283   3.332   3.182  1.00  0.00     0.170 C 
ATOM     12  C   UNL     1       0.004   4.268   0.926  1.00  0.00    -0.011 A 
ATOM     13  N   UNL     1       1.030   3.196  -0.706  1.00  0.00    -0.356 N 
ATOM     14  C   UNL     1      -0.594   4.516   2.263  1.00  0.00     0.052 C 
ATOM     15  C   UNL     1       0.129   5.163  -0.165  1.00  0.00     0.003 A 
ATOM     16  C   UNL     1       0.803   4.477  -1.171  1.00  0.00     0.046 A 
ATOM     17  H   UNL     1       1.376   2.452  -1.250  1.00  0.00     0.166 HD
ATOM     18  C   UNL     1      -0.226   6.510  -0.371  1.00  0.00     0.010 A 
ATOM     19  C   UNL     1       1.151   5.082  -2.385  1.00  0.00     0.026 A 
ATOM     20  C   UNL     1       0.126   7.134  -1.569  1.00  0.00     0.001 A 
ATOM     21  C   UNL     1       0.808   6.429  -2.558  1.00  0.00     0.002 A 
BRANCH   8  22
ATOM     22  C   UNL     1       2.615   1.717   1.591  1.00  0.00     0.039 C 
ATOM     23  C   UNL     1       3.291   1.395   0.266  1.00  0.00     0.007 C 
ENDBRANCH   8  22
BRANCH  14  24
ATOM     24  C   UNL     1      -2.128   4.728   2.186  1.00  0.00     0.046 C 
BRANCH  24  25
ATOM     25  C   UNL     1      -2.821   4.790   3.532  1.00  0.00    -0.047 A 
ATOM     26  C   UNL     1      -2.464   5.758   4.480  1.00  0.00     0.004 A 
ATOM     27  C   UNL     1      -3.816   3.856   3.858  1.00  0.00     0.004 A 
ATOM     28  C   UNL     1      -3.076   5.778   5.735  1.00  0.00     0.000 A 
ATOM     29  C   UNL     1      -4.432   3.883   5.111  1.00  0.00     0.000 A 
ATOM     30  C   UNL     1      -4.059   4.841   6.051  1.00  0.00     0.000 A 
ENDBRANCH  24  25
ENDBRANCH  14  24
ENDBRANCH   7   8
ENDBRANCH   4   7
ENDBRANCH   2   3
ENDBRANCH   1   2
BRANCH   1  31
ATOM     31  C   UNL     1      -1.750   0.865   6.338  1.00  0.00     0.023 C 
BRANCH  31  32
ATOM     32  C   UNL     1      -1.791  -0.341   7.270  1.00  0.00     0.116 C 
BRANCH  32  33
ATOM     33  N   UNL     1      -0.615  -0.436   8.112  1.00  0.00    -0.352 N 
ATOM     34  C   UNL     1      -0.213   0.114   9.290  1.00  0.00     0.251 C 
ATOM     35  H   UNL     1       0.060  -1.048   7.739  1.00  0.00     0.163 HD
ATOM     36  O   UNL     1       0.916  -0.226   9.676  1.00  0.00    -0.269 OA
BRANCH  34  37
ATOM     37  C   UNL     1      -0.975   1.084  10.120  1.00  0.00     0.039 A 
ATOM     38  C   UNL     1      -2.181   1.694   9.775  1.00  0.00     0.014 A 
ATOM     39  C   UNL     1      -0.369   1.442  11.342  1.00  0.00     0.014 A 
ATOM     40  C   UNL     1      -2.717   2.693  10.589  1.00  0.00     0.010 A 
ATOM     41  C   UNL     1      -0.910   2.421  12.166  1.00  0.00     0.010 A 
ATOM     42  C   UNL     1      -2.063   3.081  11.765  1.00  0.00    -0.014 A 
BRANCH  42  43
ATOM     43  C   UNL     1      -2.691   4.098  12.607  1.00  0.00     0.031 A 
ATOM     44  C   UNL     1      -4.035   3.712  13.115  1.00  0.00     0.074 A 
ATOM     45  C   UNL     1      -2.095   5.246  12.998  1.00  0.00     0.049 A 
ATOM     46  N   UNL     1      -5.170   4.265  12.838  1.00  0.00    -0.248 NA
ATOM     47  C   UNL     1      -4.149   2.498  13.940  1.00  0.00     0.031 C 
ATOM     48  C   UNL     1      -0.685   5.614  12.841  1.00  0.00     0.029 A 
ATOM     49  N   UNL     1      -2.609   6.304  13.701  1.00  0.00    -0.354 N 
ATOM     50  C   UNL     1      -6.120   3.596  13.607  1.00  0.00     0.074 A 
ATOM     51  C   UNL     1      -5.467   2.432  14.145  1.00  0.00     0.031 C 
ATOM     52  C   UNL     1      -0.409   6.686  13.619  1.00  0.00     0.029 A 
ATOM     53  C   UNL     1      -1.648   7.179  14.195  1.00  0.00     0.049 A 
ATOM     54  H   UNL     1      -3.575   6.433  13.844  1.00  0.00     0.167 HD
ATOM     55  C   UNL     1      -7.287   4.207  13.948  1.00  0.00     0.037 A 
ATOM     56  C   UNL     1      -1.852   8.225  15.035  1.00  0.00     0.037 A 
ATOM     57  C   UNL     1      -7.516   5.378  13.145  1.00  0.00     0.049 A 
ATOM     58  C   UNL     1      -3.266   8.639  14.912  1.00  0.00     0.074 A 
ATOM     59  C   UNL     1      -8.040   5.669  11.906  1.00  0.00     0.029 A 
ATOM     60  N   UNL     1      -6.802   6.468  13.552  1.00  0.00    -0.354 N 
ATOM     61  N   UNL     1      -3.770   9.176  13.837  1.00  0.00    -0.248 NA
ATOM     62  C   UNL     1      -4.235   8.192  15.908  1.00  0.00     0.031 C 
ATOM     63  C   UNL     1      -7.514   6.944  11.533  1.00  0.00     0.029 A 
ATOM     64  C   UNL     1      -6.710   7.412  12.567  1.00  0.00     0.049 A 
ATOM     65  H   UNL     1      -6.402   6.563  14.447  1.00  0.00     0.167 HD
ATOM     66  C   UNL     1      -5.080   8.750  13.836  1.00  0.00     0.074 A 
ATOM     67  C   UNL     1      -5.358   8.320  15.199  1.00  0.00     0.031 C 
ATOM     68  C   UNL     1      -5.711   8.447  12.669  1.00  0.00     0.037 A 
BRANCH  55  69
ATOM     69  C   UNL     1      -7.975   4.055  15.287  1.00  0.00     0.064 A 
ATOM     70  C   UNL     1      -9.255   4.618  15.479  1.00  0.00     0.173 A 
ATOM     71  C   UNL     1      -7.302   3.668  16.466  1.00  0.00     0.173 A 
ATOM     72  F   UNL     1      -9.971   5.059  14.433  1.00  0.00    -0.203 F 
ATOM     73  C   UNL     1      -9.794   4.815  16.755  1.00  0.00     0.198 A 
ATOM     74  C   UNL     1      -7.864   3.820  17.733  1.00  0.00     0.198 A 
ATOM     75  F   UNL     1      -6.034   3.241  16.448  1.00  0.00    -0.203 F 
ATOM     76  F   UNL     1     -10.967   5.449  16.894  1.00  0.00    -0.200 F 
ATOM     77  C   UNL     1      -9.098   4.415  17.881  1.00  0.00     0.200 A 
ATOM     78  F   UNL     1      -7.159   3.454  18.814  1.00  0.00    -0.200 F 
ATOM     79  F   UNL     1      -9.590   4.645  19.105  1.00  0.00    -0.200 F 
ENDBRANCH  55  69
BRANCH  56  80
ATOM     80  C   UNL     1      -0.998   8.741  16.133  1.00  0.00     0.064 A 
ATOM     81  C   UNL     1      -1.249  10.002  16.705  1.00  0.00     0.173 A 
ATOM     82  C   UNL     1      -0.158   7.879  16.860  1.00  0.00     0.173 A 
ATOM     83  F   UNL     1      -2.059  10.874  16.088  1.00  0.00    -0.203 F 
ATOM     84  C   UNL     1      -0.749  10.349  17.964  1.00  0.00     0.198 A 
ATOM     85  C   UNL     1       0.345   8.230  18.114  1.00  0.00     0.198 A 
ATOM     86  F   UNL     1       0.101   6.640  16.418  1.00  0.00    -0.203 F 
ATOM     87  F   UNL     1      -1.087  11.523  18.516  1.00  0.00    -0.200 F 
ATOM     88  C   UNL     1       0.030   9.454  18.677  1.00  0.00     0.200 A 
ATOM     89  F   UNL     1       1.072   7.344  18.810  1.00  0.00    -0.200 F 
ATOM     90  F   UNL     1       0.435   9.750  19.919  1.00  0.00    -0.200 F 
ENDBRANCH  56  80
BRANCH  68  91
ATOM     91  C   UNL     1      -5.215   9.099  11.422  1.00  0.00     0.064 A 
ATOM     92  C   UNL     1      -3.973   8.834  10.825  1.00  0.00     0.173 A 
ATOM     93  C   UNL     1      -6.076   9.990  10.769  1.00  0.00     0.173 A 
ATOM     94  F   UNL     1      -3.126   7.944  11.359  1.00  0.00    -0.203 F 
ATOM     95  C   UNL     1      -3.604   9.459   9.634  1.00  0.00     0.198 A 
ATOM     96  C   UNL     1      -5.719  10.587   9.566  1.00  0.00     0.198 A 
ATOM     97  F   UNL     1      -7.287  10.252  11.285  1.00  0.00    -0.203 F 
ATOM     98  F   UNL     1      -2.410   9.202   9.081  1.00  0.00    -0.200 F 
ATOM     99  C   UNL     1      -4.481  10.329   9.003  1.00  0.00     0.200 A 
ATOM    100  F   UNL     1      -6.586  11.396   8.943  1.00  0.00    -0.200 F 
ATOM    101  F   UNL     1      -4.141  10.902   7.840  1.00  0.00    -0.200 F 
ENDBRANCH  68  91
ENDBRANCH  42  43
ENDBRANCH  34  37
ENDBRANCH  32  33
ENDBRANCH  31  32
ENDBRANCH   1  31
TORSDOF 15
