REMARK SMILES O=C1[NH+]=C(Nc2ccc(C(=O)NCCCCNC(=O)c3ccc(-c4c5nc(c(-c6c(F)c(F)c(F)c(F)c6F)c6ccc([nH]6)c(-c6c(F)c(F)c(F)c(F)c6F)c6nc(c(-c7c(F)c(F)c(F)c(F)c7F)c7ccc4[nH]7)C=C6)C=C5)cc3)c(O)c2)S/C1=C\c1ccncc1
REMARK SMILES IDX 14 1 13 2 12 3 10 4 11 5 9 7 6 8 7 9 85 10 8 11 83 12 5 13
REMARK SMILES IDX 1 14 2 15 3 16 87 17 4 18 86 20 88 21 89 23 90 24 94 25
REMARK SMILES IDX 91 26 93 27 92 28 84 29 15 31 16 32 17 33 18 34 19 36 20 37
REMARK SMILES IDX 21 38 82 39 22 40 81 41 23 42 24 43 25 44 75 45 26 46 80 47
REMARK SMILES IDX 74 48 76 49 27 50 79 51 73 52 72 53 28 55 60 56 40 57 59 58
REMARK SMILES IDX 41 59 44 60 58 61 77 62 42 63 43 64 57 66 78 67 45 68 29 69
REMARK SMILES IDX 30 70 38 71 31 72 32 73 36 74 39 75 33 76 34 77 37 78 35 79
REMARK SMILES IDX 61 80 62 81 70 82 63 83 64 84 68 85 71 86 65 87 66 88 69 89
REMARK SMILES IDX 67 90 46 91 47 92 55 93 48 94 49 95 53 96 56 97 50 98 51 99
REMARK SMILES IDX 54 100 52 101
REMARK H PARENT 12 6 3 19 5 22 84 30 17 35 76 54 44 65
REMARK Flexibility Score: inf
ROOT
ATOM      1  C   UNL     1      -1.255   8.479  -3.632  1.00  0.00     0.023 C 
ENDROOT
BRANCH   1   2
ATOM      2  C   UNL     1      -0.330   8.061  -2.493  1.00  0.00     0.116 C 
BRANCH   2   3
ATOM      3  N   UNL     1      -0.778   8.450  -1.165  1.00  0.00    -0.352 N 
ATOM      4  C   UNL     1      -0.608   7.816   0.045  1.00  0.00     0.255 C 
ATOM      5  O   UNL     1      -1.073   8.335   1.057  1.00  0.00    -0.269 OA
ATOM      6  H   UNL     1      -1.280   9.297  -1.126  1.00  0.00     0.163 HD
BRANCH   4   7
ATOM      7  C   UNL     1       0.066   6.498   0.149  1.00  0.00     0.081 A 
ATOM      8  C   UNL     1       1.038   3.846   0.250  1.00  0.00     0.129 A 
ATOM      9  C   UNL     1      -0.077   4.228   1.002  1.00  0.00     0.053 A 
ATOM     10  C   UNL     1       1.706   4.829  -0.490  1.00  0.00     0.098 A 
ATOM     11  C   UNL     1      -0.557   5.540   0.958  1.00  0.00     0.022 A 
ATOM     12  C   UNL     1       1.250   6.148  -0.504  1.00  0.00     0.132 A 
BRANCH   8  13
ATOM     13  N   UNL     1       1.450   2.513   0.137  1.00  0.00    -0.234 N 
ATOM     14  O   UNL     1      -2.296  -0.271   0.081  1.00  0.00    -0.240 OA
ATOM     15  C   UNL     1      -1.113   0.045   0.104  1.00  0.00     0.346 C 
ATOM     16  N   UNL     1      -0.641   1.334   0.173  1.00  0.00    -0.199 N 
ATOM     17  C   UNL     1      -0.001  -0.947   0.061  1.00  0.00     0.110 C 
ATOM     18  C   UNL     1       0.647   1.412   0.136  1.00  0.00     0.322 C 
ATOM     19  H   UNL     1      -1.228   2.121   0.243  1.00  0.00     0.316 HD
ATOM     20  S   UNL     1       1.501  -0.113   0.024  1.00  0.00     0.006 SA
ATOM     21  C   UNL     1      -0.209  -2.271   0.057  1.00  0.00     0.032 C 
ATOM     22  H   UNL     1       2.418   2.354   0.049  1.00  0.00     0.313 HD
BRANCH  21  23
ATOM     23  C   UNL     1       0.851  -3.283   0.061  1.00  0.00    -0.021 A 
ATOM     24  C   UNL     1       1.744  -3.383   1.129  1.00  0.00     0.028 A 
ATOM     25  C   UNL     1       0.976  -4.166  -1.010  1.00  0.00     0.028 A 
ATOM     26  C   UNL     1       2.745  -4.336   1.064  1.00  0.00     0.111 A 
ATOM     27  C   UNL     1       2.008  -5.089  -0.979  1.00  0.00     0.111 A 
ATOM     28  N   UNL     1       2.898  -5.190   0.032  1.00  0.00    -0.265 NA
ENDBRANCH  21  23
ENDBRANCH   8  13
BRANCH  12  29
ATOM     29  O   UNL     1       2.047   7.039  -1.168  1.00  0.00    -0.507 OA
ATOM     30  H   UNL     1       1.801   7.942  -1.217  1.00  0.00     0.293 HD
ENDBRANCH  12  29
ENDBRANCH   4   7
ENDBRANCH   2   3
ENDBRANCH   1   2
BRANCH   1  31
ATOM     31  C   UNL     1      -1.546   9.972  -3.760  1.00  0.00     0.023 C 
BRANCH  31  32
ATOM     32  C   UNL     1      -0.340  10.902  -3.686  1.00  0.00     0.116 C 
BRANCH  32  33
ATOM     33  N   UNL     1       0.634  10.684  -4.745  1.00  0.00    -0.352 N 
ATOM     34  C   UNL     1       1.057  11.527  -5.748  1.00  0.00     0.251 C 
ATOM     35  H   UNL     1       1.057   9.795  -4.744  1.00  0.00     0.163 HD
ATOM     36  O   UNL     1       1.818  11.114  -6.619  1.00  0.00    -0.269 OA
BRANCH  34  37
ATOM     37  C   UNL     1       0.564  12.920  -5.807  1.00  0.00     0.039 A 
ATOM     38  C   UNL     1       0.110  13.426  -7.028  1.00  0.00     0.014 A 
ATOM     39  C   UNL     1       0.520  13.716  -4.662  1.00  0.00     0.014 A 
ATOM     40  C   UNL     1      -0.479  14.692  -7.077  1.00  0.00     0.010 A 
ATOM     41  C   UNL     1      -0.157  14.931  -4.691  1.00  0.00     0.010 A 
ATOM     42  C   UNL     1      -0.668  15.433  -5.898  1.00  0.00    -0.014 A 
BRANCH  42  43
ATOM     43  C   UNL     1      -1.405  16.725  -5.904  1.00  0.00     0.031 A 
ATOM     44  C   UNL     1      -0.722  17.989  -5.459  1.00  0.00     0.074 A 
ATOM     45  C   UNL     1      -2.711  16.749  -6.239  1.00  0.00     0.049 A 
ATOM     46  N   UNL     1      -1.216  19.194  -5.322  1.00  0.00    -0.248 NA
ATOM     47  C   UNL     1       0.697  17.878  -5.086  1.00  0.00     0.031 C 
ATOM     48  C   UNL     1      -3.504  15.584  -6.636  1.00  0.00     0.029 A 
ATOM     49  N   UNL     1      -3.606  17.789  -6.287  1.00  0.00    -0.354 N 
ATOM     50  C   UNL     1      -0.176  19.975  -4.836  1.00  0.00     0.074 A 
ATOM     51  C   UNL     1       0.957  19.097  -4.640  1.00  0.00     0.031 C 
ATOM     52  C   UNL     1      -4.757  15.977  -6.913  1.00  0.00     0.029 A 
ATOM     53  C   UNL     1      -4.872  17.412  -6.668  1.00  0.00     0.049 A 
ATOM     54  H   UNL     1      -3.364  18.718  -6.069  1.00  0.00     0.167 HD
ATOM     55  C   UNL     1      -0.158  21.309  -4.598  1.00  0.00     0.037 A 
ATOM     56  C   UNL     1      -6.000  18.136  -6.794  1.00  0.00     0.037 A 
ATOM     57  C   UNL     1      -1.282  22.183  -4.813  1.00  0.00     0.049 A 
ATOM     58  C   UNL     1      -5.959  19.614  -6.510  1.00  0.00     0.074 A 
ATOM     59  C   UNL     1      -1.346  23.557  -4.664  1.00  0.00     0.029 A 
ATOM     60  N   UNL     1      -2.543  21.765  -5.214  1.00  0.00    -0.354 N 
ATOM     61  N   UNL     1      -4.948  20.356  -6.126  1.00  0.00    -0.248 NA
ATOM     62  C   UNL     1      -7.214  20.358  -6.683  1.00  0.00     0.031 C 
ATOM     63  C   UNL     1      -2.661  23.962  -4.911  1.00  0.00     0.029 A 
ATOM     64  C   UNL     1      -3.400  22.852  -5.286  1.00  0.00     0.049 A 
ATOM     65  H   UNL     1      -2.792  20.834  -5.418  1.00  0.00     0.167 HD
ATOM     66  C   UNL     1      -5.435  21.654  -6.045  1.00  0.00     0.074 A 
ATOM     67  C   UNL     1      -6.828  21.601  -6.433  1.00  0.00     0.031 C 
ATOM     68  C   UNL     1      -4.785  22.788  -5.682  1.00  0.00     0.037 A 
BRANCH  55  69
ATOM     69  C   UNL     1       1.118  21.906  -4.074  1.00  0.00     0.064 A 
ATOM     70  C   UNL     1       2.282  21.971  -4.856  1.00  0.00     0.173 A 
ATOM     71  C   UNL     1       1.169  22.452  -2.782  1.00  0.00     0.173 A 
ATOM     72  F   UNL     1       2.293  21.455  -6.095  1.00  0.00    -0.203 F 
ATOM     73  C   UNL     1       3.456  22.525  -4.353  1.00  0.00     0.198 A 
ATOM     74  C   UNL     1       2.334  23.039  -2.295  1.00  0.00     0.198 A 
ATOM     75  F   UNL     1       0.085  22.424  -1.992  1.00  0.00    -0.203 F 
ATOM     76  F   UNL     1       4.570  22.521  -5.098  1.00  0.00    -0.200 F 
ATOM     77  C   UNL     1       3.479  23.066  -3.076  1.00  0.00     0.200 A 
ATOM     78  F   UNL     1       2.349  23.577  -1.068  1.00  0.00    -0.200 F 
ATOM     79  F   UNL     1       4.607  23.607  -2.597  1.00  0.00    -0.200 F 
ENDBRANCH  55  69
BRANCH  56  80
ATOM     80  C   UNL     1      -7.263  17.479  -7.226  1.00  0.00     0.064 A 
ATOM     81  C   UNL     1      -7.840  17.768  -8.470  1.00  0.00     0.173 A 
ATOM     82  C   UNL     1      -7.924  16.555  -6.402  1.00  0.00     0.173 A 
ATOM     83  F   UNL     1      -7.259  18.660  -9.286  1.00  0.00    -0.203 F 
ATOM     84  C   UNL     1      -9.040  17.179  -8.864  1.00  0.00     0.198 A 
ATOM     85  C   UNL     1      -9.106  15.940  -6.811  1.00  0.00     0.198 A 
ATOM     86  F   UNL     1      -7.413  16.237  -5.204  1.00  0.00    -0.203 F 
ATOM     87  F   UNL     1      -9.596  17.515 -10.036  1.00  0.00    -0.200 F 
ATOM     88  C   UNL     1      -9.669  16.261  -8.037  1.00  0.00     0.200 A 
ATOM     89  F   UNL     1      -9.700  15.040  -6.016  1.00  0.00    -0.200 F 
ATOM     90  F   UNL     1     -10.820  15.690  -8.418  1.00  0.00    -0.200 F 
ENDBRANCH  56  80
BRANCH  68  91
ATOM     91  C   UNL     1      -5.557  24.076  -5.731  1.00  0.00     0.064 A 
ATOM     92  C   UNL     1      -6.588  24.358  -4.823  1.00  0.00     0.173 A 
ATOM     93  C   UNL     1      -5.228  25.061  -6.676  1.00  0.00     0.173 A 
ATOM     94  F   UNL     1      -6.952  23.446  -3.909  1.00  0.00    -0.203 F 
ATOM     95  C   UNL     1      -7.280  25.566  -4.878  1.00  0.00     0.198 A 
ATOM     96  C   UNL     1      -5.896  26.282  -6.703  1.00  0.00     0.198 A 
ATOM     97  F   UNL     1      -4.245  24.847  -7.563  1.00  0.00    -0.203 F 
ATOM     98  F   UNL     1      -8.297  25.791  -4.035  1.00  0.00    -0.200 F 
ATOM     99  C   UNL     1      -6.927  26.530  -5.811  1.00  0.00     0.200 A 
ATOM    100  F   UNL     1      -5.541  27.218  -7.593  1.00  0.00    -0.200 F 
ATOM    101  F   UNL     1      -7.587  27.695  -5.854  1.00  0.00    -0.200 F 
ENDBRANCH  68  91
ENDBRANCH  42  43
ENDBRANCH  34  37
ENDBRANCH  32  33
ENDBRANCH  31  32
ENDBRANCH   1  31
TORSDOF 14
