REMARK SMILES C[C@H](C(=O)NCCCCNC(=O)c1ccc(-c2c3nc(c(-c4c(F)c(F)c(F)c(F)c4F)c4ccc([nH]4)c(-c4c(F)c(F)c(F)c(F)c4F)c4nc(c(-c5c(F)c(F)c(F)c(F)c5F)c5ccc2[nH]5)C=C4)C=C3)cc1)S(=O)(=O)NC1COC1
REMARK SMILES IDX 7 1 6 2 5 3 3 4 4 5 2 7 1 8 76 9 77 10 78 11 79 12 80 14
REMARK SMILES IDX 81 15 83 16 82 17 8 18 9 19 10 20 11 21 12 23 13 24 14 25
REMARK SMILES IDX 75 26 15 27 74 28 16 29 17 30 18 31 68 32 19 33 73 34 67 35
REMARK SMILES IDX 69 36 20 37 72 38 66 39 65 40 21 42 53 43 33 44 52 45 34 46
REMARK SMILES IDX 37 47 51 48 70 49 35 50 36 51 50 53 71 54 38 55 22 56 23 57
REMARK SMILES IDX 31 58 24 59 25 60 29 61 32 62 26 63 27 64 30 65 28 66 54 67
REMARK SMILES IDX 55 68 63 69 56 70 57 71 61 72 64 73 58 74 59 75 62 76 60 77
REMARK SMILES IDX 39 78 40 79 48 80 41 81 42 82 46 83 49 84 43 85 44 86 47 87
REMARK SMILES IDX 45 88
REMARK H PARENT 5 6 79 13 10 22 69 41 37 52
REMARK Flexibility Score: inf
ROOT
ATOM      1  C   UNL     1      -1.147   2.512   1.371  1.00  0.00     0.023 C 
ENDROOT
BRANCH   1   2
ATOM      2  C   UNL     1       0.093   2.406   0.480  1.00  0.00     0.116 C 
BRANCH   2   3
ATOM      3  N   UNL     1       0.774   1.132   0.631  1.00  0.00    -0.355 N 
ATOM      4  C   UNL     1       0.954   0.108  -0.248  1.00  0.00     0.239 C 
ATOM      5  O   UNL     1       1.629  -0.842   0.162  1.00  0.00    -0.274 OA
ATOM      6  H   UNL     1       1.174   0.984   1.519  1.00  0.00     0.163 HD
BRANCH   4   7
ATOM      7  C   UNL     1       0.431   0.154  -1.665  1.00  0.00     0.209 C 
ATOM      8  C   UNL     1       1.183  -0.839  -2.553  1.00  0.00     0.037 C 
BRANCH   7   9
ATOM      9  S   UNL     1      -1.336  -0.170  -1.738  1.00  0.00     0.223 S 
ATOM     10  O   UNL     1      -2.064   0.835  -0.994  1.00  0.00    -0.212 OA
ATOM     11  O   UNL     1      -1.698  -0.409  -3.117  1.00  0.00    -0.212 OA
BRANCH   9  12
ATOM     12  N   UNL     1      -1.597  -1.631  -0.969  1.00  0.00    -0.207 NA
ATOM     13  H   UNL     1      -0.948  -2.280  -1.414  1.00  0.00     0.141 HD
BRANCH  12  14
ATOM     14  C   UNL     1      -1.480  -1.916   0.501  1.00  0.00     0.121 C 
ATOM     15  C   UNL     1      -2.387  -1.191   1.504  1.00  0.00     0.182 C 
ATOM     16  C   UNL     1      -2.158  -3.181   1.045  1.00  0.00     0.182 C 
ATOM     17  O   UNL     1      -2.741  -2.442   2.146  1.00  0.00    -0.378 OA
ENDBRANCH  12  14
ENDBRANCH   9  12
ENDBRANCH   7   9
ENDBRANCH   4   7
ENDBRANCH   2   3
ENDBRANCH   1   2
BRANCH   1  18
ATOM     18  C   UNL     1      -0.889   2.436   2.875  1.00  0.00     0.023 C 
BRANCH  18  19
ATOM     19  C   UNL     1       0.024   3.520   3.429  1.00  0.00     0.116 C 
BRANCH  19  20
ATOM     20  N   UNL     1      -0.485   4.862   3.191  1.00  0.00    -0.352 N 
ATOM     21  C   UNL     1      -0.748   5.872   4.084  1.00  0.00     0.251 C 
ATOM     22  H   UNL     1      -0.670   5.079   2.248  1.00  0.00     0.163 HD
ATOM     23  O   UNL     1      -1.316   6.894   3.714  1.00  0.00    -0.269 OA
BRANCH  21  24
ATOM     24  C   UNL     1      -0.377   5.710   5.505  1.00  0.00     0.039 A 
ATOM     25  C   UNL     1      -1.324   6.010   6.487  1.00  0.00     0.014 A 
ATOM     26  C   UNL     1       0.885   5.231   5.866  1.00  0.00     0.014 A 
ATOM     27  C   UNL     1      -1.041   5.736   7.827  1.00  0.00     0.010 A 
ATOM     28  C   UNL     1       1.140   4.893   7.191  1.00  0.00     0.010 A 
ATOM     29  C   UNL     1       0.172   5.123   8.181  1.00  0.00    -0.014 A 
BRANCH  29  30
ATOM     30  C   UNL     1       0.426   4.655   9.567  1.00  0.00     0.031 A 
ATOM     31  C   UNL     1       1.546   5.246  10.374  1.00  0.00     0.074 A 
ATOM     32  C   UNL     1      -0.291   3.623  10.055  1.00  0.00     0.049 A 
ATOM     33  N   UNL     1       1.999   4.884  11.547  1.00  0.00    -0.248 NA
ATOM     34  C   UNL     1       2.272   6.377   9.773  1.00  0.00     0.031 C 
ATOM     35  C   UNL     1      -1.370   2.932   9.344  1.00  0.00     0.029 A 
ATOM     36  N   UNL     1      -0.205   2.957  11.252  1.00  0.00    -0.354 N 
ATOM     37  C   UNL     1       3.069   5.726  11.816  1.00  0.00     0.074 A 
ATOM     38  C   UNL     1       3.224   6.596  10.671  1.00  0.00     0.031 C 
ATOM     39  C   UNL     1      -1.845   1.943  10.117  1.00  0.00     0.029 A 
ATOM     40  C   UNL     1      -1.079   1.900  11.358  1.00  0.00     0.049 A 
ATOM     41  H   UNL     1       0.422   3.211  11.967  1.00  0.00     0.167 HD
ATOM     42  C   UNL     1       3.841   5.774  12.928  1.00  0.00     0.037 A 
ATOM     43  C   UNL     1      -1.227   0.984  12.334  1.00  0.00     0.037 A 
ATOM     44  C   UNL     1       3.658   4.931  14.080  1.00  0.00     0.049 A 
ATOM     45  C   UNL     1      -0.345   1.059  13.551  1.00  0.00     0.074 A 
ATOM     46  C   UNL     1       4.323   4.976  15.293  1.00  0.00     0.029 A 
ATOM     47  N   UNL     1       2.751   3.885  14.159  1.00  0.00    -0.354 N 
ATOM     48  N   UNL     1       0.602   1.921  13.834  1.00  0.00    -0.248 NA
ATOM     49  C   UNL     1      -0.549   0.034  14.584  1.00  0.00     0.031 C 
ATOM     50  C   UNL     1       3.857   3.924  16.086  1.00  0.00     0.029 A 
ATOM     51  C   UNL     1       2.868   3.253  15.386  1.00  0.00     0.049 A 
ATOM     52  H   UNL     1       2.119   3.631  13.449  1.00  0.00     0.167 HD
ATOM     53  C   UNL     1       1.092   1.553  15.079  1.00  0.00     0.074 A 
ATOM     54  C   UNL     1       0.322   0.405  15.510  1.00  0.00     0.031 C 
ATOM     55  C   UNL     1       2.095   2.111  15.799  1.00  0.00     0.037 A 
BRANCH  42  56
ATOM     56  C   UNL     1       4.956   6.775  12.970  1.00  0.00     0.064 A 
ATOM     57  C   UNL     1       4.708   8.146  13.130  1.00  0.00     0.173 A 
ATOM     58  C   UNL     1       6.292   6.347  12.942  1.00  0.00     0.173 A 
ATOM     59  F   UNL     1       3.449   8.606  13.154  1.00  0.00    -0.203 F 
ATOM     60  C   UNL     1       5.758   9.053  13.251  1.00  0.00     0.198 A 
ATOM     61  C   UNL     1       7.338   7.253  13.088  1.00  0.00     0.198 A 
ATOM     62  F   UNL     1       6.582   5.045  12.796  1.00  0.00    -0.203 F 
ATOM     63  F   UNL     1       5.499  10.361  13.379  1.00  0.00    -0.200 F 
ATOM     64  C   UNL     1       7.071   8.605  13.241  1.00  0.00     0.200 A 
ATOM     65  F   UNL     1       8.606   6.817  13.092  1.00  0.00    -0.200 F 
ATOM     66  F   UNL     1       8.079   9.477  13.379  1.00  0.00    -0.200 F 
ENDBRANCH  42  56
BRANCH  43  67
ATOM     67  C   UNL     1      -2.235  -0.101  12.197  1.00  0.00     0.064 A 
ATOM     68  C   UNL     1      -3.355  -0.155  13.039  1.00  0.00     0.173 A 
ATOM     69  C   UNL     1      -2.082  -1.123  11.249  1.00  0.00     0.173 A 
ATOM     70  F   UNL     1      -3.533   0.786  13.977  1.00  0.00    -0.203 F 
ATOM     71  C   UNL     1      -4.267  -1.206  12.957  1.00  0.00     0.198 A 
ATOM     72  C   UNL     1      -3.011  -2.157  11.148  1.00  0.00     0.198 A 
ATOM     73  F   UNL     1      -1.029  -1.117  10.418  1.00  0.00    -0.203 F 
ATOM     74  F   UNL     1      -5.295  -1.265  13.814  1.00  0.00    -0.200 F 
ATOM     75  C   UNL     1      -4.096  -2.204  12.009  1.00  0.00     0.200 A 
ATOM     76  F   UNL     1      -2.849  -3.112  10.222  1.00  0.00    -0.200 F 
ATOM     77  F   UNL     1      -4.970  -3.217  11.936  1.00  0.00    -0.200 F 
ENDBRANCH  43  67
BRANCH  55  78
ATOM     78  C   UNL     1       2.411   1.496  17.130  1.00  0.00     0.064 A 
ATOM     79  C   UNL     1       3.057   0.255  17.226  1.00  0.00     0.173 A 
ATOM     80  C   UNL     1       2.106   2.174  18.320  1.00  0.00     0.173 A 
ATOM     81  F   UNL     1       3.353  -0.439  16.116  1.00  0.00    -0.203 F 
ATOM     82  C   UNL     1       3.369  -0.294  18.466  1.00  0.00     0.198 A 
ATOM     83  C   UNL     1       2.447   1.636  19.557  1.00  0.00     0.198 A 
ATOM     84  F   UNL     1       1.494   3.367  18.281  1.00  0.00    -0.203 F 
ATOM     85  F   UNL     1       3.948  -1.501  18.535  1.00  0.00    -0.200 F 
ATOM     86  C   UNL     1       3.072   0.400  19.630  1.00  0.00     0.200 A 
ATOM     87  F   UNL     1       2.172   2.314  20.680  1.00  0.00    -0.200 F 
ATOM     88  F   UNL     1       3.384  -0.126  20.822  1.00  0.00    -0.200 F 
ENDBRANCH  55  78
ENDBRANCH  29  30
ENDBRANCH  21  24
ENDBRANCH  19  20
ENDBRANCH  18  19
ENDBRANCH   1  18
TORSDOF 14
