REMARK SMILES C[C@@H](C(=O)NCCCCNC(=O)c1ccc(-c2c3nc(c(-c4c(F)c(F)c(F)c(F)c4F)c4ccc([nH]4)c(-c4c(F)c(F)c(F)c(F)c4F)c4nc(c(-c5c(F)c(F)c(F)c(F)c5F)c5ccc2[nH]5)C=C4)C=C3)cc1)N1C(=O)/C(=C/c2ccc(-c3ccc([N+](=O)[O-])cc3Cl)o2)SC1=S
REMARK SMILES IDX 6 1 5 2 3 3 4 4 2 6 1 7 76 8 77 9 97 10 78 11 79 12 96 13
REMARK SMILES IDX 98 14 80 15 81 16 82 17 95 18 83 19 84 20 85 21 86 22 93 23
REMARK SMILES IDX 87 24 92 25 94 26 88 27 89 28 90 29 91 30 7 31 8 32 9 33
REMARK SMILES IDX 10 34 11 35 12 37 13 38 14 39 75 40 15 41 74 42 16 43 17 44
REMARK SMILES IDX 18 45 68 46 19 47 73 48 67 49 69 50 20 51 72 52 66 53 65 54
REMARK SMILES IDX 21 56 53 57 33 58 52 59 34 60 37 61 51 62 70 63 35 64 36 65
REMARK SMILES IDX 50 67 71 68 38 69 22 70 23 71 31 72 24 73 25 74 29 75 32 76
REMARK SMILES IDX 26 77 27 78 30 79 28 80 54 81 55 82 63 83 56 84 57 85 61 86
REMARK SMILES IDX 64 87 58 88 59 89 62 90 60 91 39 92 40 93 48 94 41 95 42 96
REMARK SMILES IDX 46 97 49 98 43 99 44 100 47 101 45 102
REMARK H PARENT 5 5 10 36 69 55 37 66
REMARK Flexibility Score: inf
ROOT
ATOM      1  C   UNL     1       3.364   0.574  -1.725  1.00  0.00     0.116 C 
ENDROOT
BRANCH   1   2
ATOM      2  N   UNL     1       2.286   0.034  -2.529  1.00  0.00    -0.354 N 
ATOM      3  C   UNL     1       0.939   0.050  -2.305  1.00  0.00     0.242 C 
ATOM      4  O   UNL     1       0.216  -0.364  -3.215  1.00  0.00    -0.273 OA
ATOM      5  H   UNL     1       2.566  -0.411  -3.361  1.00  0.00     0.163 HD
BRANCH   3   6
ATOM      6  C   UNL     1       0.370   0.629  -0.989  1.00  0.00     0.178 C 
ATOM      7  C   UNL     1       0.790  -0.118   0.276  1.00  0.00     0.042 C 
BRANCH   6   8
ATOM      8  N   UNL     1      -1.098   0.730  -1.120  1.00  0.00    -0.281 N 
ATOM      9  C   UNL     1      -1.870  -0.425  -1.064  1.00  0.00     0.267 C 
ATOM     10  C   UNL     1      -1.771   1.901  -1.399  1.00  0.00     0.149 C 
ATOM     11  O   UNL     1      -1.471  -1.559  -0.854  1.00  0.00    -0.268 OA
ATOM     12  C   UNL     1      -3.303  -0.101  -1.285  1.00  0.00     0.084 C 
ATOM     13  S   UNL     1      -3.490   1.583  -1.565  1.00  0.00    -0.054 SA
ATOM     14  S   UNL     1      -1.154   3.446  -1.545  1.00  0.00    -0.052 S 
ATOM     15  C   UNL     1      -4.246  -1.049  -1.206  1.00  0.00     0.068 C 
BRANCH  15  16
ATOM     16  C   UNL     1      -5.631  -0.790  -1.377  1.00  0.00     0.128 A 
ATOM     17  C   UNL     1      -6.300  -0.171  -2.426  1.00  0.00     0.051 A 
ATOM     18  O   UNL     1      -6.574  -1.164  -0.446  1.00  0.00    -0.457 OA
ATOM     19  C   UNL     1      -7.672  -0.119  -2.096  1.00  0.00     0.051 A 
ATOM     20  C   UNL     1      -7.788  -0.712  -0.860  1.00  0.00     0.136 A 
BRANCH  20  21
ATOM     21  C   UNL     1      -8.918  -0.950   0.023  1.00  0.00     0.036 A 
ATOM     22  C   UNL     1     -10.055  -1.581  -0.514  1.00  0.00     0.020 A 
ATOM     23  C   UNL     1      -8.957  -0.508   1.359  1.00  0.00     0.058 A 
ATOM     24  C   UNL     1     -11.213  -1.749   0.249  1.00  0.00     0.086 A 
ATOM     25  C   UNL     1     -10.115  -0.670   2.130  1.00  0.00     0.106 A 
ATOM     26  Cl  UNL     1      -7.630   0.317   2.105  1.00  0.00    -0.083 Cl
ATOM     27  C   UNL     1     -11.242  -1.279   1.566  1.00  0.00     0.270 A 
BRANCH  27  28
ATOM     28  N   UNL     1     -12.476  -1.397   2.351  1.00  0.00     0.062 N 
ATOM     29  O   UNL     1     -13.458  -1.919   1.804  1.00  0.00    -0.258 OA
ATOM     30  O   UNL     1     -12.466  -0.960   3.510  1.00  0.00    -0.258 OA
ENDBRANCH  27  28
ENDBRANCH  20  21
ENDBRANCH  15  16
ENDBRANCH   6   8
ENDBRANCH   3   6
ENDBRANCH   1   2
BRANCH   1  31
ATOM     31  C   UNL     1       4.190  -0.529  -1.066  1.00  0.00     0.023 C 
BRANCH  31  32
ATOM     32  C   UNL     1       4.986  -1.403  -2.039  1.00  0.00     0.023 C 
BRANCH  32  33
ATOM     33  C   UNL     1       5.952  -0.654  -2.951  1.00  0.00     0.116 C 
BRANCH  33  34
ATOM     34  N   UNL     1       6.958   0.103  -2.220  1.00  0.00    -0.352 N 
ATOM     35  C   UNL     1       8.321   0.131  -2.395  1.00  0.00     0.251 C 
ATOM     36  H   UNL     1       6.613   0.676  -1.498  1.00  0.00     0.163 HD
ATOM     37  O   UNL     1       9.037   0.732  -1.601  1.00  0.00    -0.269 OA
BRANCH  35  38
ATOM     38  C   UNL     1       8.925  -0.607  -3.523  1.00  0.00     0.039 A 
ATOM     39  C   UNL     1       9.984  -1.482  -3.267  1.00  0.00     0.014 A 
ATOM     40  C   UNL     1       8.416  -0.474  -4.818  1.00  0.00     0.014 A 
ATOM     41  C   UNL     1      10.464  -2.303  -4.290  1.00  0.00     0.010 A 
ATOM     42  C   UNL     1       8.851  -1.338  -5.819  1.00  0.00     0.010 A 
ATOM     43  C   UNL     1       9.861  -2.278  -5.558  1.00  0.00    -0.014 A 
BRANCH  43  44
ATOM     44  C   UNL     1      10.219  -3.270  -6.605  1.00  0.00     0.031 A 
ATOM     45  C   UNL     1      10.824  -2.820  -7.904  1.00  0.00     0.074 A 
ATOM     46  C   UNL     1       9.892  -4.566  -6.423  1.00  0.00     0.049 A 
ATOM     47  N   UNL     1      11.077  -3.517  -8.982  1.00  0.00    -0.248 NA
ATOM     48  C   UNL     1      11.171  -1.394  -8.015  1.00  0.00     0.031 C 
ATOM     49  C   UNL     1       9.258  -5.117  -5.224  1.00  0.00     0.029 A 
ATOM     50  N   UNL     1      10.021  -5.651  -7.256  1.00  0.00    -0.354 N 
ATOM     51  C   UNL     1      11.590  -2.615  -9.905  1.00  0.00     0.074 A 
ATOM     52  C   UNL     1      11.586  -1.314  -9.272  1.00  0.00     0.031 C 
ATOM     53  C   UNL     1       9.051  -6.432  -5.398  1.00  0.00     0.029 A 
ATOM     54  C   UNL     1       9.492  -6.809  -6.737  1.00  0.00     0.049 A 
ATOM     55  H   UNL     1      10.452  -5.604  -8.140  1.00  0.00     0.167 HD
ATOM     56  C   UNL     1      12.032  -2.859 -11.161  1.00  0.00     0.037 A 
ATOM     57  C   UNL     1       9.346  -8.030  -7.290  1.00  0.00     0.037 A 
ATOM     58  C   UNL     1      12.065  -4.162 -11.772  1.00  0.00     0.049 A 
ATOM     59  C   UNL     1       9.831  -8.261  -8.696  1.00  0.00     0.074 A 
ATOM     60  C   UNL     1      12.592  -4.522 -13.000  1.00  0.00     0.029 A 
ATOM     61  N   UNL     1      11.538  -5.314 -11.209  1.00  0.00    -0.354 N 
ATOM     62  N   UNL     1      10.406  -7.421  -9.522  1.00  0.00    -0.248 NA
ATOM     63  C   UNL     1       9.645  -9.610  -9.251  1.00  0.00     0.031 C 
ATOM     64  C   UNL     1      12.326  -5.878 -13.209  1.00  0.00     0.029 A 
ATOM     65  C   UNL     1      11.686  -6.376 -12.087  1.00  0.00     0.049 A 
ATOM     66  H   UNL     1      11.122  -5.370 -10.318  1.00  0.00     0.167 HD
ATOM     67  C   UNL     1      10.668  -8.142 -10.679  1.00  0.00     0.074 A 
ATOM     68  C   UNL     1      10.212  -9.494 -10.443  1.00  0.00     0.031 C 
ATOM     69  C   UNL     1      11.230  -7.719 -11.837  1.00  0.00     0.037 A 
BRANCH  56  70
ATOM     70  C   UNL     1      12.518  -1.699 -11.979  1.00  0.00     0.064 A 
ATOM     71  C   UNL     1      13.739  -1.065 -11.709  1.00  0.00     0.173 A 
ATOM     72  C   UNL     1      11.796  -1.283 -13.109  1.00  0.00     0.173 A 
ATOM     73  F   UNL     1      14.462  -1.421 -10.637  1.00  0.00    -0.203 F 
ATOM     74  C   UNL     1      14.215  -0.050 -12.535  1.00  0.00     0.198 A 
ATOM     75  C   UNL     1      12.289  -0.287 -13.948  1.00  0.00     0.198 A 
ATOM     76  F   UNL     1      10.626  -1.862 -13.415  1.00  0.00    -0.203 F 
ATOM     77  F   UNL     1      15.373   0.560 -12.244  1.00  0.00    -0.200 F 
ATOM     78  C   UNL     1      13.497   0.330 -13.659  1.00  0.00     0.200 A 
ATOM     79  F   UNL     1      11.601   0.067 -15.042  1.00  0.00    -0.200 F 
ATOM     80  F   UNL     1      13.969   1.290 -14.465  1.00  0.00    -0.200 F 
ENDBRANCH  56  70
BRANCH  57  81
ATOM     81  C   UNL     1       8.685  -9.125  -6.529  1.00  0.00     0.064 A 
ATOM     82  C   UNL     1       9.397 -10.268  -6.138  1.00  0.00     0.173 A 
ATOM     83  C   UNL     1       7.318  -9.072  -6.216  1.00  0.00     0.173 A 
ATOM     84  F   UNL     1      10.700 -10.377  -6.434  1.00  0.00    -0.203 F 
ATOM     85  C   UNL     1       8.761 -11.329  -5.497  1.00  0.00     0.198 A 
ATOM     86  C   UNL     1       6.691 -10.118  -5.543  1.00  0.00     0.198 A 
ATOM     87  F   UNL     1       6.589  -8.001  -6.564  1.00  0.00    -0.203 F 
ATOM     88  F   UNL     1       9.452 -12.436  -5.194  1.00  0.00    -0.200 F 
ATOM     89  C   UNL     1       7.409 -11.252  -5.196  1.00  0.00     0.200 A 
ATOM     90  F   UNL     1       5.388 -10.032  -5.241  1.00  0.00    -0.200 F 
ATOM     91  F   UNL     1       6.797 -12.274  -4.584  1.00  0.00    -0.200 F 
ENDBRANCH  57  81
BRANCH  69  92
ATOM     92  C   UNL     1      11.403  -8.730 -12.932  1.00  0.00     0.064 A 
ATOM     93  C   UNL     1      10.306  -9.222 -13.655  1.00  0.00     0.173 A 
ATOM     94  C   UNL     1      12.683  -9.171 -13.300  1.00  0.00     0.173 A 
ATOM     95  F   UNL     1       9.060  -8.844 -13.332  1.00  0.00    -0.203 F 
ATOM     96  C   UNL     1      10.484 -10.131 -14.694  1.00  0.00     0.198 A 
ATOM     97  C   UNL     1      12.860 -10.056 -14.360  1.00  0.00     0.198 A 
ATOM     98  F   UNL     1      13.766  -8.727 -12.644  1.00  0.00    -0.203 F 
ATOM     99  F   UNL     1       9.418 -10.620 -15.344  1.00  0.00    -0.200 F 
ATOM    100  C   UNL     1      11.760 -10.539 -15.053  1.00  0.00     0.200 A 
ATOM    101  F   UNL     1      14.095 -10.436 -14.715  1.00  0.00    -0.200 F 
ATOM    102  F   UNL     1      11.930 -11.403 -16.062  1.00  0.00    -0.200 F 
ENDBRANCH  69  92
ENDBRANCH  43  44
ENDBRANCH  35  38
ENDBRANCH  33  34
ENDBRANCH  32  33
ENDBRANCH  31  32
ENDBRANCH   1  31
TORSDOF 15
