REMARK SMILES Cc1nn(C)c2c1nc(SCC(=O)NCCCCNC(=O)c1ccc(-c3c4nc(c(-c5c(F)c(F)c(F)c(F)c5F)c5ccc([nH]5)c(-c5c(F)c(F)c(F)c(F)c5F)c5nc(c(-c6c(F)c(F)c(F)c(F)c6F)c6ccc3[nH]6)C=C5)C=C4)cc1)n2[C@H]1CC[N@@H+](C)C1
REMARK SMILES IDX 16 1 15 2 14 3 12 4 13 5 11 7 10 8 9 9 1 10 2 11 3 12 7 13
REMARK SMILES IDX 4 14 6 15 8 16 5 17 85 18 86 19 87 20 91 21 88 22 89 23
REMARK SMILES IDX 90 24 17 26 18 27 19 28 20 29 21 31 22 32 23 33 84 34 24 35
REMARK SMILES IDX 83 36 25 37 26 38 27 39 77 40 28 41 82 42 76 43 78 44 29 45
REMARK SMILES IDX 81 46 75 47 74 48 30 50 62 51 42 52 61 53 43 54 46 55 60 56
REMARK SMILES IDX 79 57 44 58 45 59 59 61 80 62 47 63 31 64 32 65 40 66 33 67
REMARK SMILES IDX 34 68 38 69 41 70 35 71 36 72 39 73 37 74 63 75 64 76 72 77
REMARK SMILES IDX 65 78 66 79 70 80 73 81 67 82 68 83 71 84 69 85 48 86 49 87
REMARK SMILES IDX 57 88 50 89 51 90 55 91 58 92 52 93 53 94 56 95 54 96
REMARK H PARENT 14 6 89 25 19 30 78 49 46 60
REMARK Flexibility Score: inf
ROOT
ATOM      1  C   UNL     1      -0.152   1.007  -1.205  1.00  0.00     0.023 C 
ENDROOT
BRANCH   1   2
ATOM      2  C   UNL     1      -1.279   1.732  -0.453  1.00  0.00     0.116 C 
BRANCH   2   3
ATOM      3  N   UNL     1      -1.055   3.163  -0.371  1.00  0.00    -0.355 N 
ATOM      4  C   UNL     1      -1.589   4.205  -1.075  1.00  0.00     0.230 C 
ATOM      5  O   UNL     1      -1.211   5.336  -0.751  1.00  0.00    -0.274 OA
ATOM      6  H   UNL     1      -0.402   3.432   0.315  1.00  0.00     0.163 HD
BRANCH   4   7
ATOM      7  C   UNL     1      -2.715   4.023  -2.072  1.00  0.00     0.178 C 
BRANCH   7   8
ATOM      8  S   UNL     1      -2.424   2.835  -3.380  1.00  0.00    -0.078 SA
BRANCH   8   9
ATOM      9  C   UNL     1      -1.194   3.514  -4.398  1.00  0.00     0.171 A 
ATOM     10  C   UNL     1       1.374   7.079  -5.564  1.00  0.00     0.071 C 
ATOM     11  C   UNL     1       1.104   5.664  -5.883  1.00  0.00     0.087 A 
ATOM     12  N   UNL     1       1.777   5.072  -6.887  1.00  0.00    -0.174 NA
ATOM     13  C   UNL     1       0.212   4.754  -5.317  1.00  0.00     0.132 A 
ATOM     14  N   UNL     1       1.300   3.801  -6.921  1.00  0.00    -0.250 N 
ATOM     15  C   UNL     1       0.302   3.595  -6.013  1.00  0.00     0.159 A 
ATOM     16  N   UNL     1      -0.693   4.730  -4.314  1.00  0.00    -0.219 NA
ATOM     17  C   UNL     1       1.939   2.901  -7.850  1.00  0.00     0.176 C 
ATOM     18  N   UNL     1      -0.662   2.785  -5.474  1.00  0.00    -0.295 N 
BRANCH  18  19
ATOM     19  C   UNL     1      -1.150   1.473  -5.883  1.00  0.00     0.152 C 
ATOM     20  C   UNL     1      -2.629   1.483  -6.329  1.00  0.00     0.093 C 
ATOM     21  C   UNL     1      -0.441   0.789  -7.049  1.00  0.00     0.288 C 
ATOM     22  C   UNL     1      -2.622   1.021  -7.772  1.00  0.00     0.264 C 
ATOM     23  N   UNL     1      -1.489   0.095  -7.805  1.00  0.00    -0.336 N 
ATOM     24  C   UNL     1      -1.064  -0.168  -9.179  1.00  0.00     0.332 C 
ATOM     25  H   UNL     1      -1.717  -0.817  -7.410  1.00  0.00     0.347 HD
ENDBRANCH  18  19
ENDBRANCH   8   9
ENDBRANCH   7   8
ENDBRANCH   4   7
ENDBRANCH   2   3
ENDBRANCH   1   2
BRANCH   1  26
ATOM     26  C   UNL     1       1.261   1.153  -0.616  1.00  0.00     0.023 C 
BRANCH  26  27
ATOM     27  C   UNL     1       1.428   0.564   0.773  1.00  0.00     0.116 C 
BRANCH  27  28
ATOM     28  N   UNL     1       1.304  -0.899   0.811  1.00  0.00    -0.352 N 
ATOM     29  C   UNL     1       1.419  -1.738   1.914  1.00  0.00     0.251 C 
ATOM     30  H   UNL     1       1.118  -1.339  -0.050  1.00  0.00     0.163 HD
ATOM     31  O   UNL     1       1.664  -2.924   1.796  1.00  0.00    -0.269 OA
BRANCH  29  32
ATOM     32  C   UNL     1       1.203  -1.146   3.248  1.00  0.00     0.039 A 
ATOM     33  C   UNL     1       1.965  -1.477   4.373  1.00  0.00     0.014 A 
ATOM     34  C   UNL     1       0.213  -0.178   3.320  1.00  0.00     0.014 A 
ATOM     35  C   UNL     1       1.748  -0.767   5.555  1.00  0.00     0.010 A 
ATOM     36  C   UNL     1       0.203   0.684   4.370  1.00  0.00     0.010 A 
ATOM     37  C   UNL     1       0.862   0.318   5.533  1.00  0.00    -0.014 A 
BRANCH  37  38
ATOM     38  C   UNL     1       0.597   1.169   6.683  1.00  0.00     0.031 A 
ATOM     39  C   UNL     1       1.774   1.937   7.165  1.00  0.00     0.074 A 
ATOM     40  C   UNL     1      -0.680   1.457   7.033  1.00  0.00     0.049 A 
ATOM     41  N   UNL     1       2.341   1.880   8.324  1.00  0.00    -0.248 NA
ATOM     42  C   UNL     1       2.500   2.774   6.193  1.00  0.00     0.031 C 
ATOM     43  C   UNL     1      -1.927   1.015   6.386  1.00  0.00     0.029 A 
ATOM     44  N   UNL     1      -1.140   2.322   7.975  1.00  0.00    -0.354 N 
ATOM     45  C   UNL     1       3.368   2.823   8.296  1.00  0.00     0.074 A 
ATOM     46  C   UNL     1       3.546   3.178   6.916  1.00  0.00     0.031 C 
ATOM     47  C   UNL     1      -2.958   1.787   6.793  1.00  0.00     0.029 A 
ATOM     48  C   UNL     1      -2.488   2.653   7.854  1.00  0.00     0.049 A 
ATOM     49  H   UNL     1      -0.566   2.685   8.688  1.00  0.00     0.167 HD
ATOM     50  C   UNL     1       3.792   3.423   9.444  1.00  0.00     0.037 A 
ATOM     51  C   UNL     1      -3.149   3.602   8.565  1.00  0.00     0.037 A 
ATOM     52  C   UNL     1       3.347   2.677  10.597  1.00  0.00     0.049 A 
ATOM     53  C   UNL     1      -2.320   3.892   9.763  1.00  0.00     0.074 A 
ATOM     54  C   UNL     1       3.560   1.397  11.069  1.00  0.00     0.029 A 
ATOM     55  N   UNL     1       2.232   3.134  11.257  1.00  0.00    -0.354 N 
ATOM     56  N   UNL     1      -2.099   3.025  10.713  1.00  0.00    -0.248 NA
ATOM     57  C   UNL     1      -1.343   4.963   9.650  1.00  0.00     0.031 C 
ATOM     58  C   UNL     1       2.300   0.985  11.597  1.00  0.00     0.029 A 
ATOM     59  C   UNL     1       1.416   2.059  11.495  1.00  0.00     0.049 A 
ATOM     60  H   UNL     1       2.052   4.067  11.514  1.00  0.00     0.167 HD
ATOM     61  C   UNL     1      -0.758   3.186  11.033  1.00  0.00     0.074 A 
ATOM     62  C   UNL     1      -0.362   4.439  10.391  1.00  0.00     0.031 C 
ATOM     63  C   UNL     1      -0.026   2.145  11.527  1.00  0.00     0.037 A 
BRANCH  50  64
ATOM     64  C   UNL     1       4.236   4.870   9.556  1.00  0.00     0.064 A 
ATOM     65  C   UNL     1       4.639   5.351  10.821  1.00  0.00     0.173 A 
ATOM     66  C   UNL     1       3.990   5.868   8.588  1.00  0.00     0.173 A 
ATOM     67  F   UNL     1       4.919   4.501  11.820  1.00  0.00    -0.203 F 
ATOM     68  C   UNL     1       4.662   6.715  11.124  1.00  0.00     0.198 A 
ATOM     69  C   UNL     1       4.064   7.229   8.880  1.00  0.00     0.198 A 
ATOM     70  F   UNL     1       3.569   5.588   7.351  1.00  0.00    -0.203 F 
ATOM     71  F   UNL     1       4.906   7.112  12.380  1.00  0.00    -0.200 F 
ATOM     72  C   UNL     1       4.358   7.653  10.157  1.00  0.00     0.200 A 
ATOM     73  F   UNL     1       3.760   8.123   7.928  1.00  0.00    -0.200 F 
ATOM     74  F   UNL     1       4.303   8.956  10.462  1.00  0.00    -0.200 F 
ENDBRANCH  50  64
BRANCH  51  75
ATOM     75  C   UNL     1      -4.238   4.502   8.114  1.00  0.00     0.064 A 
ATOM     76  C   UNL     1      -5.041   5.194   9.037  1.00  0.00     0.173 A 
ATOM     77  C   UNL     1      -4.326   4.923   6.772  1.00  0.00     0.173 A 
ATOM     78  F   UNL     1      -4.983   4.887  10.341  1.00  0.00    -0.203 F 
ATOM     79  C   UNL     1      -5.862   6.258   8.645  1.00  0.00     0.198 A 
ATOM     80  C   UNL     1      -5.147   5.983   6.382  1.00  0.00     0.198 A 
ATOM     81  F   UNL     1      -3.543   4.377   5.831  1.00  0.00    -0.203 F 
ATOM     82  F   UNL     1      -6.569   6.932   9.563  1.00  0.00    -0.200 F 
ATOM     83  C   UNL     1      -5.906   6.659   7.320  1.00  0.00     0.200 A 
ATOM     84  F   UNL     1      -5.150   6.386   5.103  1.00  0.00    -0.200 F 
ATOM     85  F   UNL     1      -6.642   7.718   6.954  1.00  0.00    -0.200 F 
ENDBRANCH  51  75
BRANCH  63  86
ATOM     86  C   UNL     1      -0.763   0.898  11.936  1.00  0.00     0.064 A 
ATOM     87  C   UNL     1      -1.451   0.058  11.043  1.00  0.00     0.173 A 
ATOM     88  C   UNL     1      -0.625   0.453  13.256  1.00  0.00     0.173 A 
ATOM     89  F   UNL     1      -1.547   0.362   9.744  1.00  0.00    -0.203 F 
ATOM     90  C   UNL     1      -2.001  -1.154  11.461  1.00  0.00     0.198 A 
ATOM     91  C   UNL     1      -1.145  -0.773  13.664  1.00  0.00     0.198 A 
ATOM     92  F   UNL     1       0.068   1.186  14.141  1.00  0.00    -0.203 F 
ATOM     93  F   UNL     1      -2.654  -1.935  10.587  1.00  0.00    -0.200 F 
ATOM     94  C   UNL     1      -1.839  -1.572  12.770  1.00  0.00     0.200 A 
ATOM     95  F   UNL     1      -0.941  -1.195  14.919  1.00  0.00    -0.200 F 
ATOM     96  F   UNL     1      -2.326  -2.757  13.164  1.00  0.00    -0.200 F 
ENDBRANCH  63  86
ENDBRANCH  37  38
ENDBRANCH  29  32
ENDBRANCH  27  28
ENDBRANCH  26  27
ENDBRANCH   1  26
TORSDOF 14
