REMARK SMILES CCN(c1cccc(C)c1)c1nc(OCC(=O)NCCCCNC(=O)c2ccc(-c3c4nc(c(-c5c(F)c(F)c(F)c(F)c5F)c5ccc([nH]5)c(-c5c(F)c(F)c(F)c(F)c5F)c5nc(c(-c6c(F)c(F)c(F)c(F)c6F)c6ccc3[nH]6)C=C5)C=C4)cc2)cc(-c2ccc(C)cc2)n1
REMARK SMILES IDX 19 1 18 2 16 3 17 4 15 6 14 7 13 8 11 9 12 10 98 11 90 12
REMARK SMILES IDX 89 13 3 14 2 15 1 16 4 17 5 18 10 19 6 20 8 21 7 22 9 23
REMARK SMILES IDX 91 24 92 25 97 26 93 27 96 28 94 29 95 30 20 31 21 32 22 33
REMARK SMILES IDX 23 34 24 35 25 37 26 38 27 39 88 40 28 41 87 42 29 43 30 44
REMARK SMILES IDX 31 45 81 46 32 47 86 48 80 49 82 50 33 51 85 52 79 53 78 54
REMARK SMILES IDX 34 56 66 57 46 58 65 59 47 60 50 61 64 62 83 63 48 64 49 65
REMARK SMILES IDX 63 67 84 68 51 69 35 70 36 71 44 72 37 73 38 74 42 75 45 76
REMARK SMILES IDX 39 77 40 78 43 79 41 80 67 81 68 82 76 83 69 84 70 85 74 86
REMARK SMILES IDX 77 87 71 88 72 89 75 90 73 91 52 92 53 93 61 94 54 95 55 96
REMARK SMILES IDX 59 97 62 98 56 99 57 100 60 101 58 102
REMARK H PARENT 18 5 23 36 82 55 50 66
REMARK Flexibility Score: inf
ROOT
ATOM      1  C   UNL     1       5.281   2.739   5.958  1.00  0.00     0.116 C 
ENDROOT
BRANCH   1   2
ATOM      2  N   UNL     1       6.386   2.463   5.058  1.00  0.00    -0.353 N 
ATOM      3  C   UNL     1       6.781   3.146   3.946  1.00  0.00     0.258 C 
ATOM      4  O   UNL     1       7.767   2.740   3.326  1.00  0.00    -0.271 OA
ATOM      5  H   UNL     1       6.927   1.671   5.281  1.00  0.00     0.163 HD
BRANCH   3   6
ATOM      6  C   UNL     1       6.020   4.399   3.496  1.00  0.00     0.331 C 
BRANCH   6   7
ATOM      7  O   UNL     1       4.639   4.256   3.224  1.00  0.00    -0.467 OA
BRANCH   7   8
ATOM      8  C   UNL     1       4.268   3.385   2.242  1.00  0.00     0.219 A 
ATOM      9  C   UNL     1       2.455   2.231   1.391  1.00  0.00     0.233 A 
ATOM     10  N   UNL     1       2.951   3.137   2.251  1.00  0.00    -0.177 NA
ATOM     11  N   UNL     1       3.234   1.566   0.525  1.00  0.00    -0.212 NA
ATOM     12  C   UNL     1       4.542   1.881   0.487  1.00  0.00     0.080 A 
ATOM     13  C   UNL     1       5.111   2.801   1.338  1.00  0.00     0.097 A 
BRANCH   9  14
ATOM     14  N   UNL     1       1.069   2.002   1.403  1.00  0.00    -0.311 N 
BRANCH  14  15
ATOM     15  C   UNL     1       0.645   0.606   1.251  1.00  0.00     0.122 C 
ATOM     16  C   UNL     1       0.730   0.101  -0.184  1.00  0.00     0.028 C 
ENDBRANCH  14  15
BRANCH  14  17
ATOM     17  C   UNL     1       0.100   3.007   1.587  1.00  0.00     0.044 A 
ATOM     18  C   UNL     1      -1.028   2.838   2.401  1.00  0.00     0.026 A 
ATOM     19  C   UNL     1       0.253   4.255   0.951  1.00  0.00     0.029 A 
ATOM     20  C   UNL     1      -1.970   3.862   2.560  1.00  0.00     0.002 A 
ATOM     21  C   UNL     1      -0.688   5.288   1.093  1.00  0.00    -0.049 A 
ATOM     22  C   UNL     1      -1.804   5.080   1.903  1.00  0.00     0.003 A 
ATOM     23  C   UNL     1      -0.486   6.583   0.364  1.00  0.00     0.044 C 
ENDBRANCH  14  17
ENDBRANCH   9  14
BRANCH  12  24
ATOM     24  C   UNL     1       5.348   1.239  -0.554  1.00  0.00     0.000 A 
ATOM     25  C   UNL     1       6.431   0.410  -0.223  1.00  0.00     0.010 A 
ATOM     26  C   UNL     1       5.117   1.523  -1.908  1.00  0.00     0.010 A 
ATOM     27  C   UNL     1       7.283  -0.087  -1.213  1.00  0.00     0.004 A 
ATOM     28  C   UNL     1       5.974   1.036  -2.898  1.00  0.00     0.004 A 
ATOM     29  C   UNL     1       7.070   0.237  -2.557  1.00  0.00    -0.051 A 
ATOM     30  C   UNL     1       8.022  -0.225  -3.620  1.00  0.00     0.044 C 
ENDBRANCH  12  24
ENDBRANCH   7   8
ENDBRANCH   6   7
ENDBRANCH   3   6
ENDBRANCH   1   2
BRANCH   1  31
ATOM     31  C   UNL     1       4.058   1.843   5.724  1.00  0.00     0.023 C 
BRANCH  31  32
ATOM     32  C   UNL     1       4.332   0.339   5.649  1.00  0.00     0.023 C 
BRANCH  32  33
ATOM     33  C   UNL     1       4.892  -0.275   6.925  1.00  0.00     0.116 C 
BRANCH  33  34
ATOM     34  N   UNL     1       3.892  -0.762   7.863  1.00  0.00    -0.352 N 
ATOM     35  C   UNL     1       4.045  -1.282   9.142  1.00  0.00     0.251 C 
ATOM     36  H   UNL     1       2.963  -0.716   7.541  1.00  0.00     0.163 HD
ATOM     37  O   UNL     1       3.086  -1.745   9.725  1.00  0.00    -0.269 OA
BRANCH  35  38
ATOM     38  C   UNL     1       5.347  -1.144   9.853  1.00  0.00     0.039 A 
ATOM     39  C   UNL     1       5.318  -0.805  11.214  1.00  0.00     0.014 A 
ATOM     40  C   UNL     1       6.561  -1.164   9.176  1.00  0.00     0.014 A 
ATOM     41  C   UNL     1       6.447  -0.245  11.810  1.00  0.00     0.010 A 
ATOM     42  C   UNL     1       7.645  -0.513   9.724  1.00  0.00     0.010 A 
ATOM     43  C   UNL     1       7.563   0.009  11.018  1.00  0.00    -0.014 A 
BRANCH  43  44
ATOM     44  C   UNL     1       8.641   0.912  11.396  1.00  0.00     0.031 A 
ATOM     45  C   UNL     1       9.975   0.388  11.751  1.00  0.00     0.074 A 
ATOM     46  C   UNL     1       8.440   2.240  11.245  1.00  0.00     0.049 A 
ATOM     47  N   UNL     1      10.877   1.060  12.382  1.00  0.00    -0.248 NA
ATOM     48  C   UNL     1      10.391  -0.973  11.436  1.00  0.00     0.031 C 
ATOM     49  C   UNL     1       9.445   3.299  11.222  1.00  0.00     0.029 A 
ATOM     50  N   UNL     1       7.213   2.927  11.258  1.00  0.00    -0.354 N 
ATOM     51  C   UNL     1      12.053   0.345  12.328  1.00  0.00     0.074 A 
ATOM     52  C   UNL     1      11.684  -0.935  11.771  1.00  0.00     0.031 C 
ATOM     53  C   UNL     1       8.851   4.466  11.519  1.00  0.00     0.029 A 
ATOM     54  C   UNL     1       7.481   4.161  11.895  1.00  0.00     0.049 A 
ATOM     55  H   UNL     1       6.350   2.615  10.900  1.00  0.00     0.167 HD
ATOM     56  C   UNL     1      13.224   0.971  12.648  1.00  0.00     0.037 A 
ATOM     57  C   UNL     1       6.920   4.468  13.100  1.00  0.00     0.037 A 
ATOM     58  C   UNL     1      12.977   2.334  13.110  1.00  0.00     0.049 A 
ATOM     59  C   UNL     1       7.927   4.710  14.200  1.00  0.00     0.074 A 
ATOM     60  C   UNL     1      13.015   3.562  12.469  1.00  0.00     0.029 A 
ATOM     61  N   UNL     1      12.306   2.537  14.310  1.00  0.00    -0.354 N 
ATOM     62  N   UNL     1       9.165   4.304  14.152  1.00  0.00    -0.248 NA
ATOM     63  C   UNL     1       7.613   5.395  15.451  1.00  0.00     0.031 C 
ATOM     64  C   UNL     1      12.298   4.493  13.261  1.00  0.00     0.029 A 
ATOM     65  C   UNL     1      11.851   3.838  14.395  1.00  0.00     0.049 A 
ATOM     66  H   UNL     1      12.174   1.849  15.002  1.00  0.00     0.167 HD
ATOM     67  C   UNL     1       9.800   4.633  15.319  1.00  0.00     0.074 A 
ATOM     68  C   UNL     1       8.793   5.331  16.095  1.00  0.00     0.031 C 
ATOM     69  C   UNL     1      11.100   4.289  15.555  1.00  0.00     0.037 A 
BRANCH  56  70
ATOM     70  C   UNL     1      14.596   0.452  12.272  1.00  0.00     0.064 A 
ATOM     71  C   UNL     1      15.656   1.343  11.990  1.00  0.00     0.173 A 
ATOM     72  C   UNL     1      14.920  -0.908  12.115  1.00  0.00     0.173 A 
ATOM     73  F   UNL     1      15.539   2.660  12.200  1.00  0.00    -0.203 F 
ATOM     74  C   UNL     1      16.884   0.916  11.475  1.00  0.00     0.198 A 
ATOM     75  C   UNL     1      16.126  -1.333  11.546  1.00  0.00     0.198 A 
ATOM     76  F   UNL     1      14.105  -1.872  12.562  1.00  0.00    -0.203 F 
ATOM     77  F   UNL     1      17.846   1.814  11.219  1.00  0.00    -0.200 F 
ATOM     78  C   UNL     1      17.104  -0.419  11.214  1.00  0.00     0.200 A 
ATOM     79  F   UNL     1      16.333  -2.640  11.326  1.00  0.00    -0.200 F 
ATOM     80  F   UNL     1      18.261  -0.825  10.673  1.00  0.00    -0.200 F 
ENDBRANCH  56  70
BRANCH  57  81
ATOM     81  C   UNL     1       5.576   3.856  13.286  1.00  0.00     0.064 A 
ATOM     82  C   UNL     1       4.545   4.238  12.405  1.00  0.00     0.173 A 
ATOM     83  C   UNL     1       5.403   2.668  14.007  1.00  0.00     0.173 A 
ATOM     84  F   UNL     1       4.663   5.367  11.688  1.00  0.00    -0.203 F 
ATOM     85  C   UNL     1       3.454   3.408  12.161  1.00  0.00     0.198 A 
ATOM     86  C   UNL     1       4.298   1.847  13.772  1.00  0.00     0.198 A 
ATOM     87  F   UNL     1       6.355   2.239  14.847  1.00  0.00    -0.203 F 
ATOM     88  F   UNL     1       2.554   3.744  11.226  1.00  0.00    -0.200 F 
ATOM     89  C   UNL     1       3.346   2.198  12.824  1.00  0.00     0.200 A 
ATOM     90  F   UNL     1       4.206   0.661  14.392  1.00  0.00    -0.200 F 
ATOM     91  F   UNL     1       2.352   1.352  12.521  1.00  0.00    -0.200 F 
ENDBRANCH  57  81
BRANCH  69  92
ATOM     92  C   UNL     1      11.817   4.407  16.874  1.00  0.00     0.064 A 
ATOM     93  C   UNL     1      11.187   4.249  18.118  1.00  0.00     0.173 A 
ATOM     94  C   UNL     1      13.228   4.520  16.909  1.00  0.00     0.173 A 
ATOM     95  F   UNL     1       9.868   4.027  18.206  1.00  0.00    -0.203 F 
ATOM     96  C   UNL     1      11.909   4.255  19.315  1.00  0.00     0.198 A 
ATOM     97  C   UNL     1      13.950   4.468  18.100  1.00  0.00     0.198 A 
ATOM     98  F   UNL     1      13.946   4.657  15.785  1.00  0.00    -0.203 F 
ATOM     99  F   UNL     1      11.259   4.135  20.481  1.00  0.00    -0.200 F 
ATOM    100  C   UNL     1      13.289   4.349  19.305  1.00  0.00     0.200 A 
ATOM    101  F   UNL     1      15.289   4.510  18.069  1.00  0.00    -0.200 F 
ATOM    102  F   UNL     1      13.980   4.302  20.451  1.00  0.00    -0.200 F 
ENDBRANCH  69  92
ENDBRANCH  43  44
ENDBRANCH  35  38
ENDBRANCH  33  34
ENDBRANCH  32  33
ENDBRANCH  31  32
ENDBRANCH   1  31
TORSDOF 17
