REMARK SMILES CC[C@H]1CCCC[C@@H]1C1(C(=O)NCCCCNC(=O)c2ccc(-c3c4nc(c(-c5c(F)c(F)c(F)c(F)c5F)c5ccc([nH]5)c(-c5c(F)c(F)c(F)c(F)c5F)c5nc(c(-c6c(F)c(F)c(F)c(F)c6F)c6ccc3[nH]6)C=C5)C=C4)cc2)CC1
REMARK SMILES IDX 14 1 13 2 12 3 10 4 11 5 9 7 83 8 84 9 8 10 3 11 4 12 5 13
REMARK SMILES IDX 7 14 6 15 2 16 1 17 15 18 16 19 17 20 18 21 19 23 20 24
REMARK SMILES IDX 21 25 82 26 22 27 81 28 23 29 24 30 25 31 75 32 26 33 80 34
REMARK SMILES IDX 74 35 76 36 27 37 79 38 73 39 72 40 28 42 60 43 40 44 59 45
REMARK SMILES IDX 41 46 44 47 58 48 77 49 42 50 43 51 57 53 78 54 45 55 29 56
REMARK SMILES IDX 30 57 38 58 31 59 32 60 36 61 39 62 33 63 34 64 37 65 35 66
REMARK SMILES IDX 61 67 62 68 70 69 63 70 64 71 68 72 71 73 65 74 66 75 69 76
REMARK SMILES IDX 67 77 46 78 47 79 55 80 48 81 49 82 53 83 56 84 50 85 51 86
REMARK SMILES IDX 54 87 52 88
REMARK H PARENT 12 6 17 22 76 41 44 52
REMARK Flexibility Score: inf
ROOT
ATOM      1  C   UNL     1      -1.854   6.279   4.869  1.00  0.00     0.023 C 
ENDROOT
BRANCH   1   2
ATOM      2  C   UNL     1      -2.529   4.994   4.394  1.00  0.00     0.116 C 
BRANCH   2   3
ATOM      3  N   UNL     1      -2.672   4.932   2.959  1.00  0.00    -0.356 N 
ATOM      4  C   UNL     1      -1.994   4.318   1.948  1.00  0.00     0.226 C 
ATOM      5  O   UNL     1      -2.552   4.352   0.849  1.00  0.00    -0.274 OA
ATOM      6  H   UNL     1      -3.439   5.456   2.634  1.00  0.00     0.163 HD
BRANCH   4   7
ATOM      7  C   UNL     1      -0.649   3.600   2.072  1.00  0.00     0.052 C 
ATOM      8  C   UNL     1      -0.733   2.300   2.888  1.00  0.00     0.018 C 
ATOM      9  C   UNL     1       0.115   3.428   3.376  1.00  0.00     0.018 C 
BRANCH   7  10
ATOM     10  C   UNL     1       0.206   3.686   0.752  1.00  0.00     0.008 C 
ATOM     11  C   UNL     1       1.106   2.486   0.357  1.00  0.00    -0.007 C 
ATOM     12  C   UNL     1       2.478   2.511   1.061  1.00  0.00     0.004 C 
ATOM     13  C   UNL     1       3.181   3.868   0.978  1.00  0.00     0.000 C 
ATOM     14  C   UNL     1       0.953   5.028   0.662  1.00  0.00     0.005 C 
ATOM     15  C   UNL     1       2.291   5.035   1.389  1.00  0.00     0.000 C 
BRANCH  11  16
ATOM     16  C   UNL     1       1.363   2.366  -1.178  1.00  0.00     0.000 C 
ATOM     17  C   UNL     1       0.172   2.620  -2.092  1.00  0.00     0.004 C 
ENDBRANCH  11  16
ENDBRANCH   7  10
ENDBRANCH   4   7
ENDBRANCH   2   3
ENDBRANCH   1   2
BRANCH   1  18
ATOM     18  C   UNL     1      -2.547   7.579   4.443  1.00  0.00     0.023 C 
BRANCH  18  19
ATOM     19  C   UNL     1      -4.064   7.618   4.597  1.00  0.00     0.116 C 
BRANCH  19  20
ATOM     20  N   UNL     1      -4.523   7.305   5.940  1.00  0.00    -0.352 N 
ATOM     21  C   UNL     1      -5.582   7.836   6.635  1.00  0.00     0.251 C 
ATOM     22  H   UNL     1      -4.004   6.618   6.417  1.00  0.00     0.163 HD
ATOM     23  O   UNL     1      -5.795   7.496   7.794  1.00  0.00    -0.269 OA
BRANCH  21  24
ATOM     24  C   UNL     1      -6.435   8.861   5.998  1.00  0.00     0.039 A 
ATOM     25  C   UNL     1      -6.684  10.044   6.697  1.00  0.00     0.014 A 
ATOM     26  C   UNL     1      -6.959   8.675   4.716  1.00  0.00     0.014 A 
ATOM     27  C   UNL     1      -7.399  11.073   6.083  1.00  0.00     0.010 A 
ATOM     28  C   UNL     1      -7.617   9.726   4.080  1.00  0.00     0.010 A 
ATOM     29  C   UNL     1      -7.837  10.937   4.755  1.00  0.00    -0.014 A 
BRANCH  29  30
ATOM     30  C   UNL     1      -8.510  12.061   4.057  1.00  0.00     0.031 A 
ATOM     31  C   UNL     1      -9.943  11.938   3.625  1.00  0.00     0.074 A 
ATOM     32  C   UNL     1      -7.808  13.174   3.765  1.00  0.00     0.049 A 
ATOM     33  N   UNL     1     -10.685  12.793   2.966  1.00  0.00    -0.248 NA
ATOM     34  C   UNL     1     -10.628  10.678   3.954  1.00  0.00     0.031 C 
ATOM     35  C   UNL     1      -6.396  13.391   4.086  1.00  0.00     0.029 A 
ATOM     36  N   UNL     1      -8.183  14.329   3.124  1.00  0.00    -0.354 N 
ATOM     37  C   UNL     1     -11.914  12.171   2.793  1.00  0.00     0.074 A 
ATOM     38  C   UNL     1     -11.806  10.849   3.371  1.00  0.00     0.031 C 
ATOM     39  C   UNL     1      -6.030  14.611   3.660  1.00  0.00     0.029 A 
ATOM     40  C   UNL     1      -7.168  15.247   3.005  1.00  0.00     0.049 A 
ATOM     41  H   UNL     1      -9.092  14.483   2.781  1.00  0.00     0.167 HD
ATOM     42  C   UNL     1     -13.038  12.668   2.224  1.00  0.00     0.037 A 
ATOM     43  C   UNL     1      -7.156  16.463   2.426  1.00  0.00     0.037 A 
ATOM     44  C   UNL     1     -13.150  13.994   1.673  1.00  0.00     0.049 A 
ATOM     45  C   UNL     1      -8.421  16.990   1.802  1.00  0.00     0.074 A 
ATOM     46  C   UNL     1     -14.264  14.613   1.133  1.00  0.00     0.029 A 
ATOM     47  N   UNL     1     -12.106  14.904   1.590  1.00  0.00    -0.354 N 
ATOM     48  N   UNL     1      -9.600  16.424   1.715  1.00  0.00    -0.248 NA
ATOM     49  C   UNL     1      -8.355  18.330   1.202  1.00  0.00     0.031 C 
ATOM     50  C   UNL     1     -13.883  15.880   0.680  1.00  0.00     0.029 A 
ATOM     51  C   UNL     1     -12.546  16.072   0.986  1.00  0.00     0.049 A 
ATOM     52  H   UNL     1     -11.190  14.745   1.911  1.00  0.00     0.167 HD
ATOM     53  C   UNL     1     -10.421  17.345   1.080  1.00  0.00     0.074 A 
ATOM     54  C   UNL     1      -9.610  18.516   0.818  1.00  0.00     0.031 C 
ATOM     55  C   UNL     1     -11.728  17.232   0.743  1.00  0.00     0.037 A 
BRANCH  42  56
ATOM     56  C   UNL     1     -14.247  11.779   2.174  1.00  0.00     0.064 A 
ATOM     57  C   UNL     1     -14.966  11.450   3.333  1.00  0.00     0.173 A 
ATOM     58  C   UNL     1     -14.724  11.294   0.947  1.00  0.00     0.173 A 
ATOM     59  F   UNL     1     -14.546  11.879   4.533  1.00  0.00    -0.203 F 
ATOM     60  C   UNL     1     -16.103  10.650   3.268  1.00  0.00     0.198 A 
ATOM     61  C   UNL     1     -15.879  10.519   0.882  1.00  0.00     0.198 A 
ATOM     62  F   UNL     1     -14.078  11.585  -0.193  1.00  0.00    -0.203 F 
ATOM     63  F   UNL     1     -16.749  10.314   4.393  1.00  0.00    -0.200 F 
ATOM     64  C   UNL     1     -16.564  10.193   2.043  1.00  0.00     0.200 A 
ATOM     65  F   UNL     1     -16.330  10.090  -0.304  1.00  0.00    -0.200 F 
ATOM     66  F   UNL     1     -17.666   9.433   1.981  1.00  0.00    -0.200 F 
ENDBRANCH  42  56
BRANCH  43  67
ATOM     67  C   UNL     1      -5.913  17.278   2.426  1.00  0.00     0.064 A 
ATOM     68  C   UNL     1      -5.824  18.457   3.178  1.00  0.00     0.173 A 
ATOM     69  C   UNL     1      -4.797  16.907   1.661  1.00  0.00     0.173 A 
ATOM     70  F   UNL     1      -6.871  18.866   3.909  1.00  0.00    -0.203 F 
ATOM     71  C   UNL     1      -4.677  19.248   3.146  1.00  0.00     0.198 A 
ATOM     72  C   UNL     1      -3.639  17.682   1.653  1.00  0.00     0.198 A 
ATOM     73  F   UNL     1      -4.828  15.785   0.928  1.00  0.00    -0.203 F 
ATOM     74  F   UNL     1      -4.639  20.398   3.833  1.00  0.00    -0.200 F 
ATOM     75  C   UNL     1      -3.584  18.858   2.387  1.00  0.00     0.200 A 
ATOM     76  F   UNL     1      -2.580  17.294   0.931  1.00  0.00    -0.200 F 
ATOM     77  F   UNL     1      -2.481  19.618   2.356  1.00  0.00    -0.200 F 
ENDBRANCH  43  67
BRANCH  55  78
ATOM     78  C   UNL     1     -12.376  18.418   0.089  1.00  0.00     0.064 A 
ATOM     79  C   UNL     1     -12.076  18.787  -1.231  1.00  0.00     0.173 A 
ATOM     80  C   UNL     1     -13.337  19.171   0.779  1.00  0.00     0.173 A 
ATOM     81  F   UNL     1     -11.152  18.108  -1.928  1.00  0.00    -0.203 F 
ATOM     82  C   UNL     1     -12.696  19.882  -1.826  1.00  0.00     0.198 A 
ATOM     83  C   UNL     1     -13.979  20.246   0.171  1.00  0.00     0.198 A 
ATOM     84  F   UNL     1     -13.665  18.856   2.042  1.00  0.00    -0.203 F 
ATOM     85  F   UNL     1     -12.359  20.245  -3.071  1.00  0.00    -0.200 F 
ATOM     86  C   UNL     1     -13.652  20.605  -1.128  1.00  0.00     0.200 A 
ATOM     87  F   UNL     1     -14.912  20.935   0.842  1.00  0.00    -0.200 F 
ATOM     88  F   UNL     1     -14.254  21.654  -1.706  1.00  0.00    -0.200 F 
ENDBRANCH  55  78
ENDBRANCH  29  30
ENDBRANCH  21  24
ENDBRANCH  19  20
ENDBRANCH  18  19
ENDBRANCH   1  18
TORSDOF 13
