REMARK SMILES O=C(NCCCCNC(=O)c1ccc(-c2c3nc(c(-c4c(F)c(F)c(F)c(F)c4F)c4ccc([nH]4)c(-c4c(F)c(F)c(F)c(F)c4F)c4nc(c(-c5c(F)c(F)c(F)c(F)c5F)c5ccc2[nH]5)C=C4)C=C3)cc1)c1ccc(CNC(=O)c2cccc(NC(=O)C3CC3)c2)cc1
REMARK SMILES IDX 4 1 3 2 1 3 2 4 74 6 75 7 95 8 76 9 94 10 77 11 78 12 79 13
REMARK SMILES IDX 80 14 81 16 82 17 83 18 93 19 84 20 86 21 85 22 87 23 88 24
REMARK SMILES IDX 89 26 90 27 91 28 92 29 5 30 6 31 7 32 8 33 9 34 10 36 11 37
REMARK SMILES IDX 12 38 73 39 13 40 72 41 14 42 15 43 16 44 66 45 17 46 71 47
REMARK SMILES IDX 65 48 67 49 18 50 70 51 64 52 63 53 19 55 51 56 31 57 50 58
REMARK SMILES IDX 32 59 35 60 49 61 68 62 33 63 34 64 48 66 69 67 36 68 20 69
REMARK SMILES IDX 21 70 29 71 22 72 23 73 27 74 30 75 24 76 25 77 28 78 26 79
REMARK SMILES IDX 52 80 53 81 61 82 54 83 55 84 59 85 62 86 56 87 57 88 60 89
REMARK SMILES IDX 58 90 37 91 38 92 46 93 39 94 40 95 44 96 47 97 41 98 42 99
REMARK SMILES IDX 45 100 43 101
REMARK H PARENT 3 5 79 15 87 25 8 35 67 54 35 65
REMARK Flexibility Score: inf
ROOT
ATOM      1  C   UNL     1       4.494  -0.103  -1.163  1.00  0.00     0.116 C 
ENDROOT
BRANCH   1   2
ATOM      2  N   UNL     1       3.057   0.094  -1.055  1.00  0.00    -0.352 N 
ATOM      3  O   UNL     1       1.047   0.117  -0.021  1.00  0.00    -0.269 OA
ATOM      4  C   UNL     1       2.269   0.077   0.070  1.00  0.00     0.251 C 
ATOM      5  H   UNL     1       2.585   0.262  -1.902  1.00  0.00     0.163 HD
BRANCH   4   6
ATOM      6  C   UNL     1       2.911  -0.025   1.395  1.00  0.00     0.039 A 
ATOM      7  C   UNL     1       3.906   0.879   1.776  1.00  0.00     0.014 A 
ATOM      8  C   UNL     1       2.528  -1.061   2.247  1.00  0.00     0.014 A 
ATOM      9  C   UNL     1       4.590   0.687   2.973  1.00  0.00     0.006 A 
ATOM     10  C   UNL     1       3.201  -1.240   3.456  1.00  0.00     0.006 A 
ATOM     11  C   UNL     1       4.251  -0.382   3.817  1.00  0.00    -0.029 A 
BRANCH  11  12
ATOM     12  C   UNL     1       4.984  -0.570   5.118  1.00  0.00     0.152 C 
BRANCH  12  13
ATOM     13  N   UNL     1       6.374  -0.918   4.903  1.00  0.00    -0.348 N 
ATOM     14  C   UNL     1       7.532  -0.233   5.154  1.00  0.00     0.251 C 
ATOM     15  H   UNL     1       6.511  -1.808   4.505  1.00  0.00     0.164 HD
ATOM     16  O   UNL     1       8.596  -0.690   4.741  1.00  0.00    -0.269 OA
BRANCH  14  17
ATOM     17  C   UNL     1       7.541   1.066   5.867  1.00  0.00     0.041 A 
ATOM     18  C   UNL     1       8.426   2.044   5.407  1.00  0.00     0.014 A 
ATOM     19  C   UNL     1       6.757   1.322   7.000  1.00  0.00     0.040 A 
ATOM     20  C   UNL     1       8.497   3.272   6.053  1.00  0.00     0.003 A 
ATOM     21  C   UNL     1       6.776   2.579   7.624  1.00  0.00     0.041 A 
ATOM     22  C   UNL     1       7.671   3.537   7.148  1.00  0.00     0.026 A 
BRANCH  21  23
ATOM     23  N   UNL     1       5.851   2.773   8.668  1.00  0.00    -0.326 N 
ATOM     24  C   UNL     1       5.558   3.828   9.495  1.00  0.00     0.227 C 
ATOM     25  H   UNL     1       5.293   1.981   8.841  1.00  0.00     0.169 HD
ATOM     26  O   UNL     1       4.613   3.728  10.278  1.00  0.00    -0.274 OA
BRANCH  24  27
ATOM     27  C   UNL     1       6.374   5.064   9.481  1.00  0.00     0.079 C 
ATOM     28  C   UNL     1       6.038   6.180   8.513  1.00  0.00     0.014 C 
ATOM     29  C   UNL     1       5.808   6.378   9.977  1.00  0.00     0.014 C 
ENDBRANCH  24  27
ENDBRANCH  21  23
ENDBRANCH  14  17
ENDBRANCH  12  13
ENDBRANCH  11  12
ENDBRANCH   4   6
ENDBRANCH   1   2
BRANCH   1  30
ATOM     30  C   UNL     1       4.857  -1.328  -1.995  1.00  0.00     0.023 C 
BRANCH  30  31
ATOM     31  C   UNL     1       4.403  -1.276  -3.451  1.00  0.00     0.023 C 
BRANCH  31  32
ATOM     32  C   UNL     1       4.810  -0.020  -4.211  1.00  0.00     0.116 C 
BRANCH  32  33
ATOM     33  N   UNL     1       6.251   0.169  -4.276  1.00  0.00    -0.352 N 
ATOM     34  C   UNL     1       7.052   0.387  -5.371  1.00  0.00     0.251 C 
ATOM     35  H   UNL     1       6.720   0.134  -3.411  1.00  0.00     0.163 HD
ATOM     36  O   UNL     1       8.273   0.393  -5.254  1.00  0.00    -0.269 OA
BRANCH  34  37
ATOM     37  C   UNL     1       6.438   0.580  -6.702  1.00  0.00     0.039 A 
ATOM     38  C   UNL     1       6.957  -0.122  -7.792  1.00  0.00     0.014 A 
ATOM     39  C   UNL     1       5.338   1.424  -6.869  1.00  0.00     0.014 A 
ATOM     40  C   UNL     1       6.324  -0.037  -9.033  1.00  0.00     0.010 A 
ATOM     41  C   UNL     1       4.656   1.438  -8.082  1.00  0.00     0.010 A 
ATOM     42  C   UNL     1       5.141   0.707  -9.177  1.00  0.00    -0.014 A 
BRANCH  42  43
ATOM     43  C   UNL     1       4.394   0.727 -10.461  1.00  0.00     0.031 A 
ATOM     44  C   UNL     1       4.209   2.017 -11.210  1.00  0.00     0.074 A 
ATOM     45  C   UNL     1       3.827  -0.406 -10.921  1.00  0.00     0.049 A 
ATOM     46  N   UNL     1       3.534   2.249 -12.308  1.00  0.00    -0.248 NA
ATOM     47  C   UNL     1       4.844   3.212 -10.634  1.00  0.00     0.031 C 
ATOM     48  C   UNL     1       3.894  -1.713 -10.264  1.00  0.00     0.029 A 
ATOM     49  N   UNL     1       3.073  -0.640 -12.045  1.00  0.00    -0.354 N 
ATOM     50  C   UNL     1       3.657   3.611 -12.546  1.00  0.00     0.074 A 
ATOM     51  C   UNL     1       4.416   4.166 -11.447  1.00  0.00     0.031 C 
ATOM     52  C   UNL     1       3.235  -2.614 -11.009  1.00  0.00     0.029 A 
ATOM     53  C   UNL     1       2.660  -1.944 -12.171  1.00  0.00     0.049 A 
ATOM     54  H   UNL     1       2.850   0.062 -12.699  1.00  0.00     0.167 HD
ATOM     55  C   UNL     1       3.201   4.331 -13.600  1.00  0.00     0.037 A 
ATOM     56  C   UNL     1       1.895  -2.531 -13.111  1.00  0.00     0.037 A 
ATOM     57  C   UNL     1       2.457   3.772 -14.699  1.00  0.00     0.049 A 
ATOM     58  C   UNL     1       1.376  -1.703 -14.257  1.00  0.00     0.074 A 
ATOM     59  C   UNL     1       1.994   4.408 -15.838  1.00  0.00     0.029 A 
ATOM     60  N   UNL     1       2.061   2.446 -14.793  1.00  0.00    -0.354 N 
ATOM     61  N   UNL     1       1.557  -0.429 -14.507  1.00  0.00    -0.248 NA
ATOM     62  C   UNL     1       0.550  -2.398 -15.254  1.00  0.00     0.031 C 
ATOM     63  C   UNL     1       1.268   3.480 -16.592  1.00  0.00     0.029 A 
ATOM     64  C   UNL     1       1.335   2.250 -15.957  1.00  0.00     0.049 A 
ATOM     65  H   UNL     1       2.266   1.747 -14.130  1.00  0.00     0.167 HD
ATOM     66  C   UNL     1       0.898  -0.177 -15.704  1.00  0.00     0.074 A 
ATOM     67  C   UNL     1       0.326  -1.435 -16.137  1.00  0.00     0.031 C 
ATOM     68  C   UNL     1       0.778   0.991 -16.382  1.00  0.00     0.037 A 
BRANCH  55  69
ATOM     69  C   UNL     1       3.494   5.804 -13.614  1.00  0.00     0.064 A 
ATOM     70  C   UNL     1       4.798   6.295 -13.778  1.00  0.00     0.173 A 
ATOM     71  C   UNL     1       2.454   6.739 -13.498  1.00  0.00     0.173 A 
ATOM     72  F   UNL     1       5.832   5.446 -13.883  1.00  0.00    -0.203 F 
ATOM     73  C   UNL     1       5.054   7.664 -13.792  1.00  0.00     0.198 A 
ATOM     74  C   UNL     1       2.709   8.107 -13.548  1.00  0.00     0.198 A 
ATOM     75  F   UNL     1       1.186   6.327 -13.345  1.00  0.00    -0.203 F 
ATOM     76  F   UNL     1       6.315   8.107 -13.894  1.00  0.00    -0.200 F 
ATOM     77  C   UNL     1       4.009   8.569 -13.686  1.00  0.00     0.200 A 
ATOM     78  F   UNL     1       1.695   8.980 -13.461  1.00  0.00    -0.200 F 
ATOM     79  F   UNL     1       4.256   9.886 -13.708  1.00  0.00    -0.200 F 
ENDBRANCH  55  69
BRANCH  56  80
ATOM     80  C   UNL     1       1.588  -3.983 -13.022  1.00  0.00     0.064 A 
ATOM     81  C   UNL     1       2.107  -4.888 -13.959  1.00  0.00     0.173 A 
ATOM     82  C   UNL     1       0.764  -4.497 -12.009  1.00  0.00     0.173 A 
ATOM     83  F   UNL     1       2.884  -4.444 -14.958  1.00  0.00    -0.203 F 
ATOM     84  C   UNL     1       1.795  -6.245 -13.901  1.00  0.00     0.198 A 
ATOM     85  C   UNL     1       0.478  -5.858 -11.933  1.00  0.00     0.198 A 
ATOM     86  F   UNL     1       0.244  -3.675 -11.085  1.00  0.00    -0.203 F 
ATOM     87  F   UNL     1       2.263  -7.078 -14.840  1.00  0.00    -0.200 F 
ATOM     88  C   UNL     1       0.986  -6.730 -12.885  1.00  0.00     0.200 A 
ATOM     89  F   UNL     1      -0.290  -6.325 -10.940  1.00  0.00    -0.200 F 
ATOM     90  F   UNL     1       0.689  -8.035 -12.827  1.00  0.00    -0.200 F 
ENDBRANCH  56  80
BRANCH  68  91
ATOM     91  C   UNL     1       0.036   0.958 -17.689  1.00  0.00     0.064 A 
ATOM     92  C   UNL     1      -1.352   0.765 -17.748  1.00  0.00     0.173 A 
ATOM     93  C   UNL     1       0.722   1.165 -18.896  1.00  0.00     0.173 A 
ATOM     94  F   UNL     1      -2.053   0.549 -16.625  1.00  0.00    -0.203 F 
ATOM     95  C   UNL     1      -2.021   0.750 -18.970  1.00  0.00     0.198 A 
ATOM     96  C   UNL     1       0.044   1.185 -20.112  1.00  0.00     0.198 A 
ATOM     97  F   UNL     1       2.049   1.362 -18.896  1.00  0.00    -0.203 F 
ATOM     98  F   UNL     1      -3.339   0.509 -19.006  1.00  0.00    -0.200 F 
ATOM     99  C   UNL     1      -1.324   0.969 -20.149  1.00  0.00     0.200 A 
ATOM    100  F   UNL     1       0.717   1.414 -21.248  1.00  0.00    -0.200 F 
ATOM    101  F   UNL     1      -1.972   0.964 -21.322  1.00  0.00    -0.200 F 
ENDBRANCH  68  91
ENDBRANCH  42  43
ENDBRANCH  34  37
ENDBRANCH  32  33
ENDBRANCH  31  32
ENDBRANCH  30  31
ENDBRANCH   1  30
TORSDOF 16
