REMARK SMILES [N-]=[N+]=NC[C@@H](Nc1ccccc1Br)C(=O)NCCCCNC(=O)c1ccc(-c2c3nc(c(-c4c(F)c(F)c(F)c(F)c4F)c4ccc([nH]4)c(-c4c(F)c(F)c(F)c(F)c4F)c4nc(c(-c5c(F)c(F)c(F)c(F)c5F)c5ccc2[nH]5)C=C4)C=C3)cc1
REMARK SMILES IDX 18 1 17 2 16 3 14 4 15 5 5 7 4 8 3 9 1 10 2 11 6 12 7 14
REMARK SMILES IDX 8 15 12 16 9 17 11 18 13 19 10 20 19 21 20 22 21 23 22 24
REMARK SMILES IDX 23 26 24 27 25 28 86 29 26 30 85 31 27 32 28 33 29 34 79 35
REMARK SMILES IDX 30 36 84 37 78 38 80 39 31 40 83 41 77 42 76 43 32 45 64 46
REMARK SMILES IDX 44 47 63 48 45 49 48 50 62 51 81 52 46 53 47 54 61 56 82 57
REMARK SMILES IDX 49 58 33 59 34 60 42 61 35 62 36 63 40 64 43 65 37 66 38 67
REMARK SMILES IDX 41 68 39 69 65 70 66 71 74 72 67 73 68 74 72 75 75 76 69 77
REMARK SMILES IDX 70 78 73 79 71 80 50 81 51 82 59 83 52 84 53 85 57 86 60 87
REMARK SMILES IDX 54 88 55 89 58 90 56 91
REMARK H PARENT 16 6 6 13 21 25 80 44 48 55
REMARK Flexibility Score: inf
ROOT
ATOM      1  C   UNL     1       4.311   4.614  -0.683  1.00  0.00     0.023 C 
ENDROOT
BRANCH   1   2
ATOM      2  C   UNL     1       3.614   3.789  -1.759  1.00  0.00     0.116 C 
BRANCH   2   3
ATOM      3  N   UNL     1       4.591   3.149  -2.616  1.00  0.00    -0.354 N 
ATOM      4  C   UNL     1       4.783   1.826  -2.886  1.00  0.00     0.242 C 
ATOM      5  O   UNL     1       5.809   1.528  -3.506  1.00  0.00    -0.273 OA
ATOM      6  H   UNL     1       5.211   3.763  -3.073  1.00  0.00     0.163 HD
BRANCH   4   7
ATOM      7  C   UNL     1       3.812   0.738  -2.382  1.00  0.00     0.174 C 
BRANCH   7   8
ATOM      8  C   UNL     1       4.091   0.543  -0.873  1.00  0.00     0.125 C 
BRANCH   8   9
ATOM      9  N   UNL     1       3.295  -0.563  -0.304  1.00  0.00    -0.091 NA
ATOM     10  N   UNL     1       1.215   0.082   0.665  1.00  0.00    -0.003 NA
ATOM     11  N   UNL     1       2.217  -0.237   0.222  1.00  0.00     0.001 N 
ENDBRANCH   8   9
ENDBRANCH   7   8
BRANCH   7  12
ATOM     12  N   UNL     1       2.378   1.011  -2.642  1.00  0.00    -0.373 N 
ATOM     13  H   UNL     1       1.735   0.590  -2.027  1.00  0.00     0.161 HD
BRANCH  12  14
ATOM     14  C   UNL     1       1.840   1.790  -3.654  1.00  0.00     0.049 A 
ATOM     15  C   UNL     1       0.782   2.642  -3.277  1.00  0.00     0.027 A 
ATOM     16  C   UNL     1       2.302   1.896  -4.977  1.00  0.00     0.041 A 
ATOM     17  C   UNL     1       0.284   3.628  -4.133  1.00  0.00     0.002 A 
ATOM     18  C   UNL     1       1.812   2.893  -5.835  1.00  0.00     0.018 A 
ATOM     19  Br  UNL     1       3.472   0.622  -5.771  1.00  0.00    -0.049 Br
ATOM     20  C   UNL     1       0.821   3.772  -5.405  1.00  0.00     0.001 A 
ENDBRANCH  12  14
ENDBRANCH   7  12
ENDBRANCH   4   7
ENDBRANCH   2   3
ENDBRANCH   1   2
BRANCH   1  21
ATOM     21  C   UNL     1       5.026   5.849  -1.230  1.00  0.00     0.023 C 
BRANCH  21  22
ATOM     22  C   UNL     1       4.121   6.815  -1.982  1.00  0.00     0.116 C 
BRANCH  22  23
ATOM     23  N   UNL     1       3.060   7.356  -1.144  1.00  0.00    -0.352 N 
ATOM     24  C   UNL     1       2.688   8.671  -0.993  1.00  0.00     0.251 C 
ATOM     25  H   UNL     1       2.545   6.699  -0.621  1.00  0.00     0.163 HD
ATOM     26  O   UNL     1       1.884   9.010  -0.134  1.00  0.00    -0.269 OA
BRANCH  24  27
ATOM     27  C   UNL     1       3.307   9.673  -1.879  1.00  0.00     0.039 A 
ATOM     28  C   UNL     1       3.945  10.782  -1.321  1.00  0.00     0.014 A 
ATOM     29  C   UNL     1       3.328   9.453  -3.259  1.00  0.00     0.014 A 
ATOM     30  C   UNL     1       4.670  11.641  -2.147  1.00  0.00     0.010 A 
ATOM     31  C   UNL     1       4.121  10.258  -4.064  1.00  0.00     0.010 A 
ATOM     32  C   UNL     1       4.796  11.362  -3.518  1.00  0.00    -0.014 A 
BRANCH  32  33
ATOM     33  C   UNL     1       5.604  12.216  -4.424  1.00  0.00     0.031 A 
ATOM     34  C   UNL     1       4.926  12.917  -5.568  1.00  0.00     0.074 A 
ATOM     35  C   UNL     1       6.942  12.284  -4.282  1.00  0.00     0.049 A 
ATOM     36  N   UNL     1       5.453  13.574  -6.569  1.00  0.00    -0.248 NA
ATOM     37  C   UNL     1       3.457  12.836  -5.610  1.00  0.00     0.031 C 
ATOM     38  C   UNL     1       7.718  11.629  -3.228  1.00  0.00     0.029 A 
ATOM     39  N   UNL     1       7.890  12.922  -5.044  1.00  0.00    -0.354 N 
ATOM     40  C   UNL     1       4.384  13.961  -7.366  1.00  0.00     0.074 A 
ATOM     41  C   UNL     1       3.186  13.417  -6.768  1.00  0.00     0.031 C 
ATOM     42  C   UNL     1       9.020  11.908  -3.403  1.00  0.00     0.029 A 
ATOM     43  C   UNL     1       9.177  12.716  -4.609  1.00  0.00     0.049 A 
ATOM     44  H   UNL     1       7.668  13.475  -5.828  1.00  0.00     0.167 HD
ATOM     45  C   UNL     1       4.400  14.723  -8.485  1.00  0.00     0.037 A 
ATOM     46  C   UNL     1      10.350  13.116  -5.138  1.00  0.00     0.037 A 
ATOM     47  C   UNL     1       5.594  15.280  -9.061  1.00  0.00     0.049 A 
ATOM     48  C   UNL     1      10.343  13.932  -6.405  1.00  0.00     0.074 A 
ATOM     49  C   UNL     1       5.713  16.105 -10.165  1.00  0.00     0.029 A 
ATOM     50  N   UNL     1       6.877  15.065  -8.579  1.00  0.00    -0.354 N 
ATOM     51  N   UNL     1       9.324  14.339  -7.122  1.00  0.00    -0.248 NA
ATOM     52  C   UNL     1      11.650  14.346  -6.937  1.00  0.00     0.031 C 
ATOM     53  C   UNL     1       7.072  16.341 -10.387  1.00  0.00     0.029 A 
ATOM     54  C   UNL     1       7.796  15.723  -9.379  1.00  0.00     0.049 A 
ATOM     55  H   UNL     1       7.100  14.526  -7.786  1.00  0.00     0.167 HD
ATOM     56  C   UNL     1       9.861  15.091  -8.159  1.00  0.00     0.074 A 
ATOM     57  C   UNL     1      11.297  15.085  -7.979  1.00  0.00     0.031 C 
ATOM     58  C   UNL     1       9.221  15.734  -9.166  1.00  0.00     0.037 A 
BRANCH  45  59
ATOM     59  C   UNL     1       3.087  14.995  -9.161  1.00  0.00     0.064 A 
ATOM     60  C   UNL     1       2.102  15.797  -8.566  1.00  0.00     0.173 A 
ATOM     61  C   UNL     1       2.825  14.476 -10.438  1.00  0.00     0.173 A 
ATOM     62  F   UNL     1       2.296  16.309  -7.341  1.00  0.00    -0.203 F 
ATOM     63  C   UNL     1       0.891  16.042  -9.208  1.00  0.00     0.198 A 
ATOM     64  C   UNL     1       1.628  14.753 -11.094  1.00  0.00     0.198 A 
ATOM     65  F   UNL     1       3.733  13.707 -11.057  1.00  0.00    -0.203 F 
ATOM     66  F   UNL     1      -0.057  16.763  -8.594  1.00  0.00    -0.200 F 
ATOM     67  C   UNL     1       0.659  15.527 -10.475  1.00  0.00     0.200 A 
ATOM     68  F   UNL     1       1.412  14.268 -12.324  1.00  0.00    -0.200 F 
ATOM     69  F   UNL     1      -0.503  15.772 -11.096  1.00  0.00    -0.200 F 
ENDBRANCH  45  59
BRANCH  46  70
ATOM     70  C   UNL     1      11.632  12.761  -4.471  1.00  0.00     0.064 A 
ATOM     71  C   UNL     1      12.440  13.750  -3.891  1.00  0.00     0.173 A 
ATOM     72  C   UNL     1      12.088  11.436  -4.416  1.00  0.00     0.173 A 
ATOM     73  F   UNL     1      12.058  15.035  -3.933  1.00  0.00    -0.203 F 
ATOM     74  C   UNL     1      13.665  13.432  -3.309  1.00  0.00     0.198 A 
ATOM     75  C   UNL     1      13.298  11.114  -3.804  1.00  0.00     0.198 A 
ATOM     76  F   UNL     1      11.353  10.449  -4.950  1.00  0.00    -0.203 F 
ATOM     77  F   UNL     1      14.442  14.405  -2.814  1.00  0.00    -0.200 F 
ATOM     78  C   UNL     1      14.091  12.114  -3.261  1.00  0.00     0.200 A 
ATOM     79  F   UNL     1      13.698   9.836  -3.745  1.00  0.00    -0.200 F 
ATOM     80  F   UNL     1      15.270  11.808  -2.701  1.00  0.00    -0.200 F 
ENDBRANCH  46  70
BRANCH  58  81
ATOM     81  C   UNL     1      10.049  16.548 -10.118  1.00  0.00     0.064 A 
ATOM     82  C   UNL     1      10.881  15.954 -11.076  1.00  0.00     0.173 A 
ATOM     83  C   UNL     1       9.934  17.948 -10.124  1.00  0.00     0.173 A 
ATOM     84  F   UNL     1      11.036  14.621 -11.104  1.00  0.00    -0.203 F 
ATOM     85  C   UNL     1      11.577  16.731 -11.998  1.00  0.00     0.198 A 
ATOM     86  C   UNL     1      10.605  18.719 -11.068  1.00  0.00     0.198 A 
ATOM     87  F   UNL     1       9.144  18.566  -9.232  1.00  0.00    -0.203 F 
ATOM     88  F   UNL     1      12.394  16.145 -12.884  1.00  0.00    -0.200 F 
ATOM     89  C   UNL     1      11.428  18.111 -12.002  1.00  0.00     0.200 A 
ATOM     90  F   UNL     1      10.443  20.049 -11.081  1.00  0.00    -0.200 F 
ATOM     91  F   UNL     1      12.081  18.854 -12.906  1.00  0.00    -0.200 F 
ENDBRANCH  58  81
ENDBRANCH  32  33
ENDBRANCH  24  27
ENDBRANCH  22  23
ENDBRANCH  21  22
ENDBRANCH   1  21
TORSDOF 15
