REMARK SMILES C[N@H+]1CCO[C@H](CNC(=O)c2ccc(/C=C/C(=O)NCCCCNC(=O)c3ccc(-c4c5nc(c(-c6c(F)c(F)c(F)c(F)c6F)c6ccc([nH]6)c(-c6c(F)c(F)c(F)c(F)c6F)c6nc(c(-c7c(F)c(F)c(F)c(F)c7F)c7ccc4[nH]7)C=C6)C=C5)cc3)s2)C1
REMARK SMILES IDX 20 1 19 2 17 3 18 4 16 6 15 7 14 8 11 9 12 10 90 11 13 12
REMARK SMILES IDX 9 13 8 14 10 16 7 17 6 18 1 19 2 20 3 21 91 22 4 24 5 25
REMARK SMILES IDX 21 26 22 27 23 28 24 29 25 30 26 32 27 33 28 34 89 35 29 36
REMARK SMILES IDX 88 37 30 38 31 39 32 40 82 41 33 42 87 43 81 44 83 45 34 46
REMARK SMILES IDX 86 47 80 48 79 49 35 51 67 52 47 53 66 54 48 55 51 56 65 57
REMARK SMILES IDX 84 58 49 59 50 60 64 62 85 63 52 64 36 65 37 66 45 67 38 68
REMARK SMILES IDX 39 69 43 70 46 71 40 72 41 73 44 74 42 75 68 76 69 77 77 78
REMARK SMILES IDX 70 79 71 80 75 81 78 82 72 83 73 84 76 85 74 86 53 87 54 88
REMARK SMILES IDX 62 89 55 90 56 91 60 92 63 93 57 94 58 95 61 96 59 97
REMARK H PARENT 19 5 8 15 2 23 24 31 83 50 51 61
REMARK Flexibility Score: inf
ROOT
ATOM      1  C   UNL     1       7.424   6.335   6.492  1.00  0.00     0.116 C 
ENDROOT
BRANCH   1   2
ATOM      2  N   UNL     1       6.561   7.315   7.127  1.00  0.00    -0.353 N 
ATOM      3  C   UNL     1       5.354   7.809   6.732  1.00  0.00     0.244 C 
ATOM      4  O   UNL     1       4.722   8.543   7.487  1.00  0.00    -0.270 OA
ATOM      5  H   UNL     1       6.901   7.679   7.976  1.00  0.00     0.163 HD
BRANCH   3   6
ATOM      6  C   UNL     1       4.760   7.399   5.439  1.00  0.00     0.072 C 
ATOM      7  C   UNL     1       5.430   7.480   4.281  1.00  0.00     0.024 C 
BRANCH   7   8
ATOM      8  C   UNL     1       4.898   7.062   3.028  1.00  0.00     0.028 A 
ATOM      9  C   UNL     1       3.482   6.584   1.038  1.00  0.00     0.092 A 
ATOM     10  C   UNL     1       4.797   6.211   0.848  1.00  0.00     0.026 A 
ATOM     11  S   UNL     1       3.256   7.300   2.574  1.00  0.00    -0.131 S 
ATOM     12  C   UNL     1       5.603   6.475   1.990  1.00  0.00     0.021 A 
BRANCH   9  13
ATOM     13  C   UNL     1       2.354   6.475   0.130  1.00  0.00     0.261 C 
ATOM     14  N   UNL     1       2.156   5.286  -0.538  1.00  0.00    -0.348 N 
ATOM     15  H   UNL     1       1.543   5.320  -1.308  1.00  0.00     0.163 HD
ATOM     16  O   UNL     1       1.571   7.396  -0.097  1.00  0.00    -0.268 OA
BRANCH  14  17
ATOM     17  C   UNL     1       2.741   3.984  -0.246  1.00  0.00     0.154 C 
BRANCH  17  18
ATOM     18  C   UNL     1       1.706   2.884   0.052  1.00  0.00     0.192 C 
ATOM     19  C   UNL     1       0.846  -0.068  -0.330  1.00  0.00     0.332 C 
ATOM     20  N   UNL     1       0.246   1.100  -0.974  1.00  0.00    -0.333 N 
ATOM     21  C   UNL     1      -0.852   1.666  -0.161  1.00  0.00     0.290 C 
ATOM     22  C   UNL     1       1.238   2.167  -1.231  1.00  0.00     0.296 C 
ATOM     23  H   UNL     1      -0.123   0.768  -1.865  1.00  0.00     0.348 HD
ATOM     24  C   UNL     1      -0.384   2.445   1.083  1.00  0.00     0.222 C 
ATOM     25  O   UNL     1       0.588   3.447   0.760  1.00  0.00    -0.365 OA
ENDBRANCH  17  18
ENDBRANCH  14  17
ENDBRANCH   9  13
ENDBRANCH   7   8
ENDBRANCH   3   6
ENDBRANCH   1   2
BRANCH   1  26
ATOM     26  C   UNL     1       8.652   6.994   5.861  1.00  0.00     0.023 C 
BRANCH  26  27
ATOM     27  C   UNL     1       9.742   7.409   6.854  1.00  0.00     0.023 C 
BRANCH  27  28
ATOM     28  C   UNL     1      10.375   6.265   7.640  1.00  0.00     0.116 C 
BRANCH  28  29
ATOM     29  N   UNL     1      10.964   5.242   6.793  1.00  0.00    -0.352 N 
ATOM     30  C   UNL     1      12.015   4.400   7.058  1.00  0.00     0.251 C 
ATOM     31  H   UNL     1      10.553   5.139   5.905  1.00  0.00     0.163 HD
ATOM     32  O   UNL     1      12.439   3.658   6.177  1.00  0.00    -0.269 OA
BRANCH  30  33
ATOM     33  C   UNL     1      12.664   4.407   8.388  1.00  0.00     0.039 A 
ATOM     34  C   UNL     1      14.060   4.356   8.446  1.00  0.00     0.014 A 
ATOM     35  C   UNL     1      11.916   4.436   9.568  1.00  0.00     0.014 A 
ATOM     36  C   UNL     1      14.706   4.372   9.683  1.00  0.00     0.010 A 
ATOM     37  C   UNL     1      12.561   4.519  10.799  1.00  0.00     0.010 A 
ATOM     38  C   UNL     1      13.961   4.471  10.869  1.00  0.00    -0.014 A 
BRANCH  38  39
ATOM     39  C   UNL     1      14.635   4.478  12.190  1.00  0.00     0.031 A 
ATOM     40  C   UNL     1      14.457   3.318  13.130  1.00  0.00     0.074 A 
ATOM     41  C   UNL     1      15.375   5.541  12.558  1.00  0.00     0.049 A 
ATOM     42  N   UNL     1      14.943   3.144  14.333  1.00  0.00    -0.248 NA
ATOM     43  C   UNL     1      13.595   2.220  12.667  1.00  0.00     0.031 C 
ATOM     44  C   UNL     1      15.579   6.748  11.756  1.00  0.00     0.029 A 
ATOM     45  N   UNL     1      16.091   5.776  13.704  1.00  0.00    -0.354 N 
ATOM     46  C   UNL     1      14.436   1.928  14.773  1.00  0.00     0.074 A 
ATOM     47  C   UNL     1      13.562   1.433  13.732  1.00  0.00     0.031 C 
ATOM     48  C   UNL     1      16.391   7.585  12.423  1.00  0.00     0.029 A 
ATOM     49  C   UNL     1      16.747   6.982  13.704  1.00  0.00     0.049 A 
ATOM     50  H   UNL     1      16.132   5.140  14.454  1.00  0.00     0.167 HD
ATOM     51  C   UNL     1      14.697   1.270  15.928  1.00  0.00     0.037 A 
ATOM     52  C   UNL     1      17.553   7.531  14.632  1.00  0.00     0.037 A 
ATOM     53  C   UNL     1      15.591   1.749  16.948  1.00  0.00     0.049 A 
ATOM     54  C   UNL     1      17.857   6.762  15.889  1.00  0.00     0.074 A 
ATOM     55  C   UNL     1      15.954   1.140  18.137  1.00  0.00     0.029 A 
ATOM     56  N   UNL     1      16.271   2.956  16.893  1.00  0.00    -0.354 N 
ATOM     57  N   UNL     1      17.419   5.586  16.267  1.00  0.00    -0.248 NA
ATOM     58  C   UNL     1      18.781   7.393  16.841  1.00  0.00     0.031 C 
ATOM     59  C   UNL     1      16.837   1.990  18.812  1.00  0.00     0.029 A 
ATOM     60  C   UNL     1      17.051   3.112  18.027  1.00  0.00     0.049 A 
ATOM     61  H   UNL     1      16.209   3.607  16.157  1.00  0.00     0.167 HD
ATOM     62  C   UNL     1      18.036   5.322  17.482  1.00  0.00     0.074 A 
ATOM     63  C   UNL     1      18.891   6.455  17.771  1.00  0.00     0.031 C 
ATOM     64  C   UNL     1      17.906   4.240  18.288  1.00  0.00     0.037 A 
BRANCH  51  65
ATOM     65  C   UNL     1      14.011  -0.048  16.137  1.00  0.00     0.064 A 
ATOM     66  C   UNL     1      14.368  -1.184  15.395  1.00  0.00     0.173 A 
ATOM     67  C   UNL     1      13.000  -0.183  17.100  1.00  0.00     0.173 A 
ATOM     68  F   UNL     1      15.318  -1.102  14.451  1.00  0.00    -0.203 F 
ATOM     69  C   UNL     1      13.715  -2.399  15.586  1.00  0.00     0.198 A 
ATOM     70  C   UNL     1      12.369  -1.407  17.308  1.00  0.00     0.198 A 
ATOM     71  F   UNL     1      12.623   0.871  17.839  1.00  0.00    -0.203 F 
ATOM     72  F   UNL     1      14.037  -3.456  14.828  1.00  0.00    -0.200 F 
ATOM     73  C   UNL     1      12.721  -2.511  16.546  1.00  0.00     0.200 A 
ATOM     74  F   UNL     1      11.414  -1.517  18.242  1.00  0.00    -0.200 F 
ATOM     75  F   UNL     1      12.095  -3.682  16.729  1.00  0.00    -0.200 F 
ENDBRANCH  51  65
BRANCH  52  76
ATOM     76  C   UNL     1      18.178   8.854  14.383  1.00  0.00     0.064 A 
ATOM     77  C   UNL     1      19.550   8.959  14.114  1.00  0.00     0.173 A 
ATOM     78  C   UNL     1      17.427  10.037  14.421  1.00  0.00     0.173 A 
ATOM     79  F   UNL     1      20.312   7.855  14.088  1.00  0.00    -0.203 F 
ATOM     80  C   UNL     1      20.153  10.199  13.916  1.00  0.00     0.198 A 
ATOM     81  C   UNL     1      18.026  11.275  14.199  1.00  0.00     0.198 A 
ATOM     82  F   UNL     1      16.110   9.989  14.669  1.00  0.00    -0.203 F 
ATOM     83  F   UNL     1      21.474  10.273  13.706  1.00  0.00    -0.200 F 
ATOM     84  C   UNL     1      19.390  11.356  13.955  1.00  0.00     0.200 A 
ATOM     85  F   UNL     1      17.285  12.391  14.226  1.00  0.00    -0.200 F 
ATOM     86  F   UNL     1      19.970  12.549  13.765  1.00  0.00    -0.200 F 
ENDBRANCH  52  76
BRANCH  64  87
ATOM     87  C   UNL     1      18.739   4.216  19.535  1.00  0.00     0.064 A 
ATOM     88  C   UNL     1      18.444   5.038  20.632  1.00  0.00     0.173 A 
ATOM     89  C   UNL     1      19.834   3.345  19.638  1.00  0.00     0.173 A 
ATOM     90  F   UNL     1      17.416   5.898  20.574  1.00  0.00    -0.203 F 
ATOM     91  C   UNL     1      19.235   5.011  21.777  1.00  0.00     0.198 A 
ATOM     92  C   UNL     1      20.606   3.302  20.795  1.00  0.00     0.198 A 
ATOM     93  F   UNL     1      20.152   2.535  18.618  1.00  0.00    -0.203 F 
ATOM     94  F   UNL     1      18.966   5.841  22.794  1.00  0.00    -0.200 F 
ATOM     95  C   UNL     1      20.312   4.140  21.860  1.00  0.00     0.200 A 
ATOM     96  F   UNL     1      21.641   2.454  20.877  1.00  0.00    -0.200 F 
ATOM     97  F   UNL     1      21.073   4.117  22.962  1.00  0.00    -0.200 F 
ENDBRANCH  64  87
ENDBRANCH  38  39
ENDBRANCH  30  33
ENDBRANCH  28  29
ENDBRANCH  27  28
ENDBRANCH  26  27
ENDBRANCH   1  26
TORSDOF 15
