REMARK SMILES CCO[C@H](CCn1nnc2c(cnn2C)c1=O)C(=O)NCCCCNC(=O)c1ccc(-c2c3nc(c(-c4c(F)c(F)c(F)c(F)c4F)c4ccc([nH]4)c(-c4c(F)c(F)c(F)c(F)c4F)c4nc(c(-c5c(F)c(F)c(F)c(F)c5F)c5ccc2[nH]5)C=C4)C=C3)cc1
REMARK SMILES IDX 22 1 21 2 20 3 18 4 19 5 4 7 3 8 2 9 1 10 5 11 6 12 7 13
REMARK SMILES IDX 8 14 16 15 9 16 11 17 17 18 10 19 12 20 14 21 13 22 15 23
REMARK SMILES IDX 23 24 24 25 25 26 26 27 27 29 28 30 29 31 90 32 30 33 89 34
REMARK SMILES IDX 31 35 32 36 33 37 83 38 34 39 88 40 82 41 84 42 35 43 87 44
REMARK SMILES IDX 81 45 80 46 36 48 68 49 48 50 67 51 49 52 52 53 66 54 85 55
REMARK SMILES IDX 50 56 51 57 65 59 86 60 53 61 37 62 38 63 46 64 39 65 40 66
REMARK SMILES IDX 44 67 47 68 41 69 42 70 45 71 43 72 69 73 70 74 78 75 71 76
REMARK SMILES IDX 72 77 76 78 79 79 73 80 74 81 77 82 75 83 54 84 55 85 63 86
REMARK SMILES IDX 56 87 57 88 61 89 64 90 58 91 59 92 62 93 60 94
REMARK H PARENT 20 6 25 28 84 47 52 58
REMARK Flexibility Score: inf
ROOT
ATOM      1  C   UNL     1      -0.175  -1.361   0.293  1.00  0.00     0.023 C 
ENDROOT
BRANCH   1   2
ATOM      2  C   UNL     1       1.046  -0.546   0.709  1.00  0.00     0.116 C 
BRANCH   2   3
ATOM      3  N   UNL     1       1.947  -0.269  -0.393  1.00  0.00    -0.354 N 
ATOM      4  C   UNL     1       2.642   0.859  -0.724  1.00  0.00     0.249 C 
ATOM      5  O   UNL     1       3.476   0.745  -1.629  1.00  0.00    -0.272 OA
ATOM      6  H   UNL     1       2.081  -1.024  -1.010  1.00  0.00     0.163 HD
BRANCH   4   7
ATOM      7  C   UNL     1       2.407   2.232  -0.029  1.00  0.00     0.208 C 
BRANCH   7   8
ATOM      8  O   UNL     1       3.005   2.569   1.213  1.00  0.00    -0.369 OA
BRANCH   8   9
ATOM      9  C   UNL     1       2.983   1.661   2.298  1.00  0.00     0.158 C 
ATOM     10  C   UNL     1       4.062   0.594   2.213  1.00  0.00     0.035 C 
ENDBRANCH   8   9
ENDBRANCH   7   8
BRANCH   7  11
ATOM     11  C   UNL     1       0.937   2.684  -0.181  1.00  0.00     0.066 C 
BRANCH  11  12
ATOM     12  C   UNL     1       0.460   3.761   0.787  1.00  0.00     0.153 C 
BRANCH  12  13
ATOM     13  N   UNL     1       0.988   5.096   0.583  1.00  0.00    -0.210 N 
ATOM     14  N   UNL     1       1.654   5.349  -0.619  1.00  0.00    -0.062 NA
ATOM     15  C   UNL     1       0.721   6.071   1.556  1.00  0.00     0.280 A 
ATOM     16  N   UNL     1       2.123   6.489  -0.873  1.00  0.00    -0.111 NA
ATOM     17  C   UNL     1       1.262   7.345   1.222  1.00  0.00     0.108 A 
ATOM     18  O   UNL     1       0.081   5.871   2.588  1.00  0.00    -0.267 OA
ATOM     19  C   UNL     1       1.930   7.460   0.038  1.00  0.00     0.187 A 
ATOM     20  C   UNL     1       1.304   8.614   1.805  1.00  0.00     0.151 A 
ATOM     21  N   UNL     1       2.361   8.750  -0.029  1.00  0.00    -0.249 N 
ATOM     22  N   UNL     1       1.977   9.489   1.043  1.00  0.00    -0.179 NA
ATOM     23  C   UNL     1       3.153   9.358  -1.068  1.00  0.00     0.176 C 
ENDBRANCH  12  13
ENDBRANCH  11  12
ENDBRANCH   7  11
ENDBRANCH   4   7
ENDBRANCH   2   3
ENDBRANCH   1   2
BRANCH   1  24
ATOM     24  C   UNL     1       0.109  -2.796  -0.167  1.00  0.00     0.023 C 
BRANCH  24  25
ATOM     25  C   UNL     1       0.858  -3.650   0.847  1.00  0.00     0.116 C 
BRANCH  25  26
ATOM     26  N   UNL     1       0.128  -3.815   2.100  1.00  0.00    -0.352 N 
ATOM     27  C   UNL     1       0.533  -4.508   3.223  1.00  0.00     0.251 C 
ATOM     28  H   UNL     1      -0.755  -3.383   2.150  1.00  0.00     0.163 HD
ATOM     29  O   UNL     1      -0.277  -4.891   4.058  1.00  0.00    -0.269 OA
BRANCH  27  30
ATOM     30  C   UNL     1       1.968  -4.782   3.401  1.00  0.00     0.039 A 
ATOM     31  C   UNL     1       2.413  -6.048   3.790  1.00  0.00     0.014 A 
ATOM     32  C   UNL     1       2.873  -3.753   3.143  1.00  0.00     0.014 A 
ATOM     33  C   UNL     1       3.782  -6.294   3.837  1.00  0.00     0.010 A 
ATOM     34  C   UNL     1       4.218  -4.028   3.078  1.00  0.00     0.010 A 
ATOM     35  C   UNL     1       4.682  -5.285   3.458  1.00  0.00    -0.014 A 
BRANCH  35  36
ATOM     36  C   UNL     1       6.109  -5.572   3.346  1.00  0.00     0.031 A 
ATOM     37  C   UNL     1       6.466  -6.702   2.441  1.00  0.00     0.074 A 
ATOM     38  C   UNL     1       7.062  -4.757   3.846  1.00  0.00     0.049 A 
ATOM     39  N   UNL     1       7.074  -7.800   2.751  1.00  0.00    -0.248 NA
ATOM     40  C   UNL     1       6.017  -6.646   1.042  1.00  0.00     0.031 C 
ATOM     41  C   UNL     1       6.894  -3.460   4.510  1.00  0.00     0.029 A 
ATOM     42  N   UNL     1       8.416  -4.882   3.767  1.00  0.00    -0.354 N 
ATOM     43  C   UNL     1       7.229  -8.513   1.563  1.00  0.00     0.074 A 
ATOM     44  C   UNL     1       6.441  -7.823   0.575  1.00  0.00     0.031 C 
ATOM     45  C   UNL     1       8.085  -2.826   4.572  1.00  0.00     0.029 A 
ATOM     46  C   UNL     1       9.119  -3.734   4.109  1.00  0.00     0.049 A 
ATOM     47  H   UNL     1       8.860  -5.716   3.491  1.00  0.00     0.167 HD
ATOM     48  C   UNL     1       8.158  -9.503   1.449  1.00  0.00     0.037 A 
ATOM     49  C   UNL     1      10.455  -3.535   4.010  1.00  0.00     0.037 A 
ATOM     50  C   UNL     1       8.613  -9.937   2.745  1.00  0.00     0.049 A 
ATOM     51  C   UNL     1      11.093  -4.871   3.945  1.00  0.00     0.074 A 
ATOM     52  C   UNL     1       8.001 -10.506   3.845  1.00  0.00     0.029 A 
ATOM     53  N   UNL     1       9.823  -9.469   3.193  1.00  0.00    -0.354 N 
ATOM     54  N   UNL     1      11.138  -5.700   4.950  1.00  0.00    -0.248 NA
ATOM     55  C   UNL     1      11.302  -5.465   2.633  1.00  0.00     0.031 C 
ATOM     56  C   UNL     1       8.645  -9.913   4.970  1.00  0.00     0.029 A 
ATOM     57  C   UNL     1       9.649  -9.072   4.492  1.00  0.00     0.049 A 
ATOM     58  H   UNL     1      10.661  -9.427   2.677  1.00  0.00     0.167 HD
ATOM     59  C   UNL     1      10.937  -6.947   4.380  1.00  0.00     0.074 A 
ATOM     60  C   UNL     1      11.156  -6.755   2.950  1.00  0.00     0.031 C 
ATOM     61  C   UNL     1      10.333  -7.948   5.085  1.00  0.00     0.037 A 
BRANCH  48  62
ATOM     62  C   UNL     1       8.914  -9.850   0.188  1.00  0.00     0.064 A 
ATOM     63  C   UNL     1       9.768 -10.974   0.183  1.00  0.00     0.173 A 
ATOM     64  C   UNL     1       9.073  -8.966  -0.900  1.00  0.00     0.173 A 
ATOM     65  F   UNL     1       9.716 -11.877   1.174  1.00  0.00    -0.203 F 
ATOM     66  C   UNL     1      10.761 -11.146  -0.785  1.00  0.00     0.198 A 
ATOM     67  C   UNL     1      10.029  -9.171  -1.894  1.00  0.00     0.198 A 
ATOM     68  F   UNL     1       8.395  -7.816  -0.987  1.00  0.00    -0.203 F 
ATOM     69  F   UNL     1      11.634 -12.156  -0.670  1.00  0.00    -0.200 F 
ATOM     70  C   UNL     1      10.896 -10.240  -1.819  1.00  0.00     0.200 A 
ATOM     71  F   UNL     1      10.155  -8.271  -2.880  1.00  0.00    -0.200 F 
ATOM     72  F   UNL     1      11.887 -10.366  -2.711  1.00  0.00    -0.200 F 
ENDBRANCH  48  62
BRANCH  49  73
ATOM     73  C   UNL     1      11.209  -2.282   3.785  1.00  0.00     0.064 A 
ATOM     74  C   UNL     1      12.579  -2.193   4.079  1.00  0.00     0.173 A 
ATOM     75  C   UNL     1      10.661  -1.232   3.023  1.00  0.00     0.173 A 
ATOM     76  F   UNL     1      13.186  -3.170   4.768  1.00  0.00    -0.203 F 
ATOM     77  C   UNL     1      13.362  -1.133   3.612  1.00  0.00     0.198 A 
ATOM     78  C   UNL     1      11.442  -0.171   2.562  1.00  0.00     0.198 A 
ATOM     79  F   UNL     1       9.379  -1.265   2.632  1.00  0.00    -0.203 F 
ATOM     80  F   UNL     1      14.679  -1.116   3.859  1.00  0.00    -0.200 F 
ATOM     81  C   UNL     1      12.795  -0.130   2.844  1.00  0.00     0.200 A 
ATOM     82  F   UNL     1      10.889   0.776   1.791  1.00  0.00    -0.200 F 
ATOM     83  F   UNL     1      13.557   0.852   2.342  1.00  0.00    -0.200 F 
ENDBRANCH  49  73
BRANCH  61  84
ATOM     84  C   UNL     1      10.138  -7.749   6.562  1.00  0.00     0.064 A 
ATOM     85  C   UNL     1       9.312  -6.757   7.118  1.00  0.00     0.173 A 
ATOM     86  C   UNL     1      10.672  -8.706   7.434  1.00  0.00     0.173 A 
ATOM     87  F   UNL     1       8.688  -5.863   6.343  1.00  0.00    -0.203 F 
ATOM     88  C   UNL     1       9.060  -6.710   8.488  1.00  0.00     0.198 A 
ATOM     89  C   UNL     1      10.388  -8.679   8.797  1.00  0.00     0.198 A 
ATOM     90  F   UNL     1      11.424  -9.708   6.953  1.00  0.00    -0.203 F 
ATOM     91  F   UNL     1       8.269  -5.750   8.993  1.00  0.00    -0.200 F 
ATOM     92  C   UNL     1       9.589  -7.678   9.324  1.00  0.00     0.200 A 
ATOM     93  F   UNL     1      10.862  -9.646   9.594  1.00  0.00    -0.200 F 
ATOM     94  F   UNL     1       9.305  -7.664  10.634  1.00  0.00    -0.200 F 
ENDBRANCH  61  84
ENDBRANCH  35  36
ENDBRANCH  27  30
ENDBRANCH  25  26
ENDBRANCH  24  25
ENDBRANCH   1  24
TORSDOF 16
