REMARK SMILES Cc1ccc(C(=O)NCCCCNC(=O)c2ccc(-c3c4nc(c(-c5c(F)c(F)c(F)c(F)c5F)c5ccc([nH]5)c(-c5c(F)c(F)c(F)c(F)c5F)c5nc(c(-c6c(F)c(F)c(F)c(F)c6F)c6ccc3[nH]6)C=C5)C=C4)cc2)cc1NC(=O)c1nn(C)c(=O)c2ccccc12
REMARK SMILES IDX 10 1 9 2 8 3 6 4 7 5 5 7 1 8 2 9 3 10 80 11 4 12 79 13 81 14
REMARK SMILES IDX 82 15 83 17 84 18 85 19 95 20 86 21 90 22 94 23 87 24 88 25
REMARK SMILES IDX 91 26 93 27 89 28 92 29 11 30 12 31 13 32 14 33 15 35 16 36
REMARK SMILES IDX 17 37 78 38 18 39 77 40 19 41 20 42 21 43 71 44 22 45 76 46
REMARK SMILES IDX 70 47 72 48 23 49 75 50 69 51 68 52 24 54 56 55 36 56 55 57
REMARK SMILES IDX 37 58 40 59 54 60 73 61 38 62 39 63 53 65 74 66 41 67 25 68
REMARK SMILES IDX 26 69 34 70 27 71 28 72 32 73 35 74 29 75 30 76 33 77 31 78
REMARK SMILES IDX 57 79 58 80 66 81 59 82 60 83 64 84 67 85 61 86 62 87 65 88
REMARK SMILES IDX 63 89 42 90 43 91 51 92 44 93 45 94 49 95 52 96 46 97 47 98
REMARK SMILES IDX 50 99 48 100
REMARK H PARENT 8 6 81 16 13 34 72 53 40 64
REMARK Flexibility Score: inf
ROOT
ATOM      1  C   UNL     1      -3.799   3.354  -3.329  1.00  0.00     0.023 C 
ENDROOT
BRANCH   1   2
ATOM      2  C   UNL     1      -3.470   1.768  -3.243  1.00  0.00     0.116 C 
BRANCH   2   3
ATOM      3  N   UNL     1      -4.138   0.850  -2.275  1.00  0.00    -0.352 N 
ATOM      4  C   UNL     1      -3.691   0.041  -1.213  1.00  0.00     0.251 C 
ATOM      5  O   UNL     1      -4.504  -0.707  -0.668  1.00  0.00    -0.269 OA
ATOM      6  H   UNL     1      -5.112   0.798  -2.409  1.00  0.00     0.163 HD
BRANCH   4   7
ATOM      7  C   UNL     1      -2.321   0.112  -0.600  1.00  0.00     0.041 A 
ATOM      8  C   UNL     1       1.659   0.798   0.924  1.00  0.00     0.046 C 
ATOM      9  C   UNL     1       0.246   0.457   0.528  1.00  0.00    -0.027 A 
ATOM     10  C   UNL     1       0.035  -0.388  -0.585  1.00  0.00     0.006 A 
ATOM     11  C   UNL     1      -0.863   1.006   1.189  1.00  0.00     0.045 A 
ATOM     12  C   UNL     1      -1.236  -0.544  -1.161  1.00  0.00     0.014 A 
ATOM     13  C   UNL     1      -2.139   0.740   0.657  1.00  0.00     0.040 A 
BRANCH  11  14
ATOM     14  N   UNL     1      -0.658   1.788   2.362  1.00  0.00    -0.320 N 
ATOM     15  C   UNL     1      -1.408   2.827   2.900  1.00  0.00     0.276 C 
ATOM     16  H   UNL     1       0.148   1.555   2.876  1.00  0.00     0.170 HD
ATOM     17  O   UNL     1      -1.205   3.317   3.994  1.00  0.00    -0.267 OA
BRANCH  15  18
ATOM     18  C   UNL     1      -2.406   3.494   2.003  1.00  0.00     0.157 A 
ATOM     19  N   UNL     1      -1.993   3.741   0.780  1.00  0.00    -0.164 NA
ATOM     20  C   UNL     1      -3.833   3.756   2.422  1.00  0.00     0.020 A 
ATOM     21  N   UNL     1      -3.031   4.140  -0.035  1.00  0.00    -0.232 N 
ATOM     22  C   UNL     1      -4.549   4.635   1.577  1.00  0.00     0.051 A 
ATOM     23  C   UNL     1      -4.541   2.923   3.275  1.00  0.00     0.011 A 
ATOM     24  C   UNL     1      -3.825   3.014  -0.473  1.00  0.00     0.178 C 
ATOM     25  C   UNL     1      -3.697   5.202   0.520  1.00  0.00     0.274 A 
ATOM     26  C   UNL     1      -5.934   4.574   1.458  1.00  0.00     0.014 A 
ATOM     27  C   UNL     1      -5.946   2.916   3.207  1.00  0.00     0.001 A 
ATOM     28  O   UNL     1      -3.273   6.344   0.525  1.00  0.00    -0.267 OA
ATOM     29  C   UNL     1      -6.638   3.715   2.289  1.00  0.00     0.001 A 
ENDBRANCH  15  18
ENDBRANCH  11  14
ENDBRANCH   4   7
ENDBRANCH   2   3
ENDBRANCH   1   2
BRANCH   1  30
ATOM     30  C   UNL     1      -5.257   3.944  -3.421  1.00  0.00     0.023 C 
BRANCH  30  31
ATOM     31  C   UNL     1      -5.890   5.036  -2.421  1.00  0.00     0.116 C 
BRANCH  31  32
ATOM     32  N   UNL     1      -5.357   6.411  -2.349  1.00  0.00    -0.352 N 
ATOM     33  C   UNL     1      -6.023   7.530  -1.790  1.00  0.00     0.251 C 
ATOM     34  H   UNL     1      -4.460   6.564  -2.724  1.00  0.00     0.163 HD
ATOM     35  O   UNL     1      -6.279   8.495  -2.508  1.00  0.00    -0.269 OA
BRANCH  33  36
ATOM     36  C   UNL     1      -6.314   7.662  -0.322  1.00  0.00     0.039 A 
ATOM     37  C   UNL     1      -7.590   7.674   0.235  1.00  0.00     0.014 A 
ATOM     38  C   UNL     1      -5.300   8.010   0.556  1.00  0.00     0.014 A 
ATOM     39  C   UNL     1      -7.764   7.628   1.651  1.00  0.00     0.010 A 
ATOM     40  C   UNL     1      -5.468   7.872   1.956  1.00  0.00     0.010 A 
ATOM     41  C   UNL     1      -6.684   7.474   2.533  1.00  0.00    -0.014 A 
BRANCH  41  42
ATOM     42  C   UNL     1      -6.766   6.699   3.857  1.00  0.00     0.031 A 
ATOM     43  C   UNL     1      -8.042   6.174   4.513  1.00  0.00     0.074 A 
ATOM     44  C   UNL     1      -5.650   6.222   4.492  1.00  0.00     0.049 A 
ATOM     45  N   UNL     1      -8.161   5.923   5.795  1.00  0.00    -0.248 NA
ATOM     46  C   UNL     1      -9.289   5.873   3.809  1.00  0.00     0.031 C 
ATOM     47  C   UNL     1      -5.574   5.147   5.504  1.00  0.00     0.029 A 
ATOM     48  N   UNL     1      -4.314   6.638   4.408  1.00  0.00    -0.354 N 
ATOM     49  C   UNL     1      -9.317   5.187   5.997  1.00  0.00     0.074 A 
ATOM     50  C   UNL     1     -10.065   5.393   4.788  1.00  0.00     0.031 C 
ATOM     51  C   UNL     1      -4.381   5.172   6.114  1.00  0.00     0.029 A 
ATOM     52  C   UNL     1      -3.712   6.364   5.653  1.00  0.00     0.049 A 
ATOM     53  H   UNL     1      -3.878   7.046   3.625  1.00  0.00     0.167 HD
ATOM     54  C   UNL     1      -9.470   4.351   7.073  1.00  0.00     0.037 A 
ATOM     55  C   UNL     1      -3.215   7.357   6.442  1.00  0.00     0.037 A 
ATOM     56  C   UNL     1      -8.328   4.392   7.985  1.00  0.00     0.049 A 
ATOM     57  C   UNL     1      -3.742   7.360   7.848  1.00  0.00     0.074 A 
ATOM     58  C   UNL     1      -7.373   3.450   8.333  1.00  0.00     0.029 A 
ATOM     59  N   UNL     1      -7.987   5.569   8.640  1.00  0.00    -0.354 N 
ATOM     60  N   UNL     1      -4.791   6.686   8.218  1.00  0.00    -0.248 NA
ATOM     61  C   UNL     1      -3.186   8.166   8.931  1.00  0.00     0.031 C 
ATOM     62  C   UNL     1      -6.438   4.076   9.192  1.00  0.00     0.029 A 
ATOM     63  C   UNL     1      -6.831   5.392   9.373  1.00  0.00     0.049 A 
ATOM     64  H   UNL     1      -8.498   6.409   8.590  1.00  0.00     0.167 HD
ATOM     65  C   UNL     1      -5.097   6.995   9.511  1.00  0.00     0.074 A 
ATOM     66  C   UNL     1      -4.045   7.899   9.930  1.00  0.00     0.031 C 
ATOM     67  C   UNL     1      -6.219   6.493  10.099  1.00  0.00     0.037 A 
BRANCH  54  68
ATOM     68  C   UNL     1     -10.566   3.292   7.306  1.00  0.00     0.064 A 
ATOM     69  C   UNL     1     -10.628   2.591   8.543  1.00  0.00     0.173 A 
ATOM     70  C   UNL     1     -11.517   2.850   6.364  1.00  0.00     0.173 A 
ATOM     71  F   UNL     1      -9.816   2.900   9.564  1.00  0.00    -0.203 F 
ATOM     72  C   UNL     1     -11.523   1.539   8.789  1.00  0.00     0.198 A 
ATOM     73  C   UNL     1     -12.457   1.843   6.635  1.00  0.00     0.198 A 
ATOM     74  F   UNL     1     -11.558   3.319   5.116  1.00  0.00    -0.203 F 
ATOM     75  F   UNL     1     -11.474   0.877   9.954  1.00  0.00    -0.200 F 
ATOM     76  C   UNL     1     -12.448   1.174   7.838  1.00  0.00     0.200 A 
ATOM     77  F   UNL     1     -13.355   1.510   5.697  1.00  0.00    -0.200 F 
ATOM     78  F   UNL     1     -13.315   0.179   8.070  1.00  0.00    -0.200 F 
ENDBRANCH  54  68
BRANCH  55  79
ATOM     79  C   UNL     1      -2.885   8.574   5.657  1.00  0.00     0.064 A 
ATOM     80  C   UNL     1      -1.815   8.503   4.747  1.00  0.00     0.173 A 
ATOM     81  C   UNL     1      -3.862   9.559   5.450  1.00  0.00     0.173 A 
ATOM     82  F   UNL     1      -0.880   7.550   4.888  1.00  0.00    -0.203 F 
ATOM     83  C   UNL     1      -1.783   9.312   3.614  1.00  0.00     0.198 A 
ATOM     84  C   UNL     1      -3.824  10.368   4.315  1.00  0.00     0.198 A 
ATOM     85  F   UNL     1      -4.921   9.644   6.269  1.00  0.00    -0.203 F 
ATOM     86  F   UNL     1      -0.814   9.147   2.703  1.00  0.00    -0.200 F 
ATOM     87  C   UNL     1      -2.801  10.225   3.386  1.00  0.00     0.200 A 
ATOM     88  F   UNL     1      -4.827  11.225   4.073  1.00  0.00    -0.200 F 
ATOM     89  F   UNL     1      -2.825  10.931   2.247  1.00  0.00    -0.200 F 
ENDBRANCH  55  79
BRANCH  67  90
ATOM     90  C   UNL     1      -6.762   6.929  11.430  1.00  0.00     0.064 A 
ATOM     91  C   UNL     1      -6.637   8.241  11.921  1.00  0.00     0.173 A 
ATOM     92  C   UNL     1      -7.541   6.052  12.216  1.00  0.00     0.173 A 
ATOM     93  F   UNL     1      -6.032   9.196  11.201  1.00  0.00    -0.203 F 
ATOM     94  C   UNL     1      -7.178   8.625  13.149  1.00  0.00     0.198 A 
ATOM     95  C   UNL     1      -8.120   6.452  13.421  1.00  0.00     0.198 A 
ATOM     96  F   UNL     1      -7.771   4.789  11.828  1.00  0.00    -0.203 F 
ATOM     97  F   UNL     1      -6.990   9.876  13.595  1.00  0.00    -0.200 F 
ATOM     98  C   UNL     1      -7.921   7.733  13.898  1.00  0.00     0.200 A 
ATOM     99  F   UNL     1      -8.880   5.592  14.114  1.00  0.00    -0.200 F 
ATOM    100  F   UNL     1      -8.462   8.113  15.063  1.00  0.00    -0.200 F 
ENDBRANCH  67  90
ENDBRANCH  41  42
ENDBRANCH  33  36
ENDBRANCH  31  32
ENDBRANCH  30  31
ENDBRANCH   1  30
TORSDOF 13
