REMARK SMILES CC1([C@@]2(C)C[C@@H]2C(=O)NCCCCNC(=O)c2ccc(-c3c4nc(c(-c5c(F)c(F)c(F)c(F)c5F)c5ccc([nH]5)c(-c5c(F)c(F)c(F)c(F)c5F)c5nc(c(-c6c(F)c(F)c(F)c(F)c6F)c6ccc3[nH]6)C=C5)C=C4)cc2)CC1
REMARK SMILES IDX 12 1 11 2 10 3 9 4 7 5 8 6 6 8 3 9 4 10 5 11 2 12 1 13 80 14
REMARK SMILES IDX 81 15 13 16 14 17 15 18 16 20 17 21 18 22 79 23 19 24 78 25
REMARK SMILES IDX 20 26 21 27 22 28 72 29 23 30 77 31 71 32 73 33 24 34 76 35
REMARK SMILES IDX 70 36 69 37 25 39 57 40 37 41 56 42 38 43 41 44 55 45 74 46
REMARK SMILES IDX 39 47 40 48 54 50 75 51 42 52 26 53 27 54 35 55 28 56 29 57
REMARK SMILES IDX 33 58 36 59 30 60 31 61 34 62 32 63 58 64 59 65 67 66 60 67
REMARK SMILES IDX 61 68 65 69 68 70 62 71 63 72 66 73 64 74 43 75 44 76 52 77
REMARK SMILES IDX 45 78 46 79 50 80 53 81 47 82 48 83 51 84 49 85
REMARK H PARENT 9 7 14 19 73 38 41 49
REMARK Flexibility Score: inf
ROOT
ATOM      1  C   UNL     1      -0.715  -5.035  -5.533  1.00  0.00     0.023 C 
ENDROOT
BRANCH   1   2
ATOM      2  C   UNL     1      -0.160  -3.611  -5.444  1.00  0.00     0.023 C 
BRANCH   2   3
ATOM      3  C   UNL     1      -1.014  -2.625  -4.646  1.00  0.00     0.116 C 
BRANCH   3   4
ATOM      4  N   UNL     1      -1.199  -3.049  -3.273  1.00  0.00    -0.356 N 
ATOM      5  C   UNL     1      -0.869  -2.380  -2.127  1.00  0.00     0.223 C 
ATOM      6  O   UNL     1      -1.034  -2.906  -1.033  1.00  0.00    -0.275 OA
ATOM      7  H   UNL     1      -1.616  -3.933  -3.149  1.00  0.00     0.163 HD
BRANCH   5   8
ATOM      8  C   UNL     1      -0.273  -1.030  -2.256  1.00  0.00     0.085 C 
ATOM      9  C   UNL     1      -0.569   0.099  -1.254  1.00  0.00    -0.015 C 
ATOM     10  C   UNL     1      -1.623  -0.110  -0.185  1.00  0.00     0.013 C 
ATOM     11  C   UNL     1      -1.101   0.155  -2.672  1.00  0.00     0.022 C 
BRANCH   9  12
ATOM     12  C   UNL     1       0.650   0.947  -0.767  1.00  0.00    -0.026 C 
ATOM     13  C   UNL     1       1.588   0.192   0.153  1.00  0.00     0.012 C 
ATOM     14  C   UNL     1       0.459   2.421  -0.446  1.00  0.00     0.008 C 
ATOM     15  C   UNL     1       1.279   2.030  -1.633  1.00  0.00     0.008 C 
ENDBRANCH   9  12
ENDBRANCH   5   8
ENDBRANCH   3   4
ENDBRANCH   2   3
ENDBRANCH   1   2
BRANCH   1  16
ATOM     16  C   UNL     1      -2.138  -5.158  -6.068  1.00  0.00     0.116 C 
BRANCH  16  17
ATOM     17  N   UNL     1      -2.275  -4.685  -7.436  1.00  0.00    -0.352 N 
ATOM     18  C   UNL     1      -2.862  -5.293  -8.520  1.00  0.00     0.251 C 
ATOM     19  H   UNL     1      -1.890  -3.796  -7.612  1.00  0.00     0.163 HD
ATOM     20  O   UNL     1      -2.766  -4.784  -9.633  1.00  0.00    -0.269 OA
BRANCH  18  21
ATOM     21  C   UNL     1      -3.578  -6.580  -8.363  1.00  0.00     0.039 A 
ATOM     22  C   UNL     1      -3.350  -7.592  -9.301  1.00  0.00     0.014 A 
ATOM     23  C   UNL     1      -4.468  -6.795  -7.308  1.00  0.00     0.014 A 
ATOM     24  C   UNL     1      -3.951  -8.843  -9.136  1.00  0.00     0.010 A 
ATOM     25  C   UNL     1      -5.013  -8.063  -7.107  1.00  0.00     0.010 A 
ATOM     26  C   UNL     1      -4.753  -9.103  -8.013  1.00  0.00    -0.014 A 
BRANCH  26  27
ATOM     27  C   UNL     1      -5.303 -10.460  -7.756  1.00  0.00     0.031 A 
ATOM     28  C   UNL     1      -6.788 -10.693  -7.753  1.00  0.00     0.074 A 
ATOM     29  C   UNL     1      -4.465 -11.471  -7.456  1.00  0.00     0.049 A 
ATOM     30  N   UNL     1      -7.455 -11.784  -7.468  1.00  0.00    -0.248 NA
ATOM     31  C   UNL     1      -7.639  -9.543  -8.093  1.00  0.00     0.031 C 
ATOM     32  C   UNL     1      -3.006 -11.367  -7.384  1.00  0.00     0.029 A 
ATOM     33  N   UNL     1      -4.718 -12.783  -7.139  1.00  0.00    -0.354 N 
ATOM     34  C   UNL     1      -8.797 -11.449  -7.582  1.00  0.00     0.074 A 
ATOM     35  C   UNL     1      -8.854 -10.042  -7.916  1.00  0.00     0.031 C 
ATOM     36  C   UNL     1      -2.494 -12.565  -7.061  1.00  0.00     0.029 A 
ATOM     37  C   UNL     1      -3.587 -13.513  -6.864  1.00  0.00     0.049 A 
ATOM     38  H   UNL     1      -5.625 -13.165  -7.112  1.00  0.00     0.167 HD
ATOM     39  C   UNL     1      -9.883 -12.247  -7.441  1.00  0.00     0.037 A 
ATOM     40  C   UNL     1      -3.446 -14.796  -6.481  1.00  0.00     0.037 A 
ATOM     41  C   UNL     1      -9.826 -13.652  -7.131  1.00  0.00     0.049 A 
ATOM     42  C   UNL     1      -4.670 -15.655  -6.316  1.00  0.00     0.074 A 
ATOM     43  C   UNL     1     -10.870 -14.555  -7.025  1.00  0.00     0.029 A 
ATOM     44  N   UNL     1      -8.661 -14.358  -6.872  1.00  0.00    -0.354 N 
ATOM     45  N   UNL     1      -5.931 -15.342  -6.492  1.00  0.00    -0.248 NA
ATOM     46  C   UNL     1      -4.451 -17.049  -5.903  1.00  0.00     0.031 C 
ATOM     47  C   UNL     1     -10.341 -15.797  -6.658  1.00  0.00     0.029 A 
ATOM     48  C   UNL     1      -8.962 -15.680  -6.585  1.00  0.00     0.049 A 
ATOM     49  H   UNL     1      -7.753 -13.976  -6.891  1.00  0.00     0.167 HD
ATOM     50  C   UNL     1      -6.651 -16.502  -6.239  1.00  0.00     0.074 A 
ATOM     51  C   UNL     1      -5.685 -17.531  -5.913  1.00  0.00     0.031 C 
ATOM     52  C   UNL     1      -7.991 -16.697  -6.272  1.00  0.00     0.037 A 
BRANCH  39  53
ATOM     53  C   UNL     1     -11.236 -11.622  -7.629  1.00  0.00     0.064 A 
ATOM     54  C   UNL     1     -11.688 -11.218  -8.894  1.00  0.00     0.173 A 
ATOM     55  C   UNL     1     -12.111 -11.477  -6.543  1.00  0.00     0.173 A 
ATOM     56  F   UNL     1     -10.886 -11.327  -9.964  1.00  0.00    -0.203 F 
ATOM     57  C   UNL     1     -12.956 -10.668  -9.060  1.00  0.00     0.198 A 
ATOM     58  C   UNL     1     -13.390 -10.954  -6.717  1.00  0.00     0.198 A 
ATOM     59  F   UNL     1     -11.732 -11.855  -5.312  1.00  0.00    -0.203 F 
ATOM     60  F   UNL     1     -13.350 -10.250 -10.271  1.00  0.00    -0.200 F 
ATOM     61  C   UNL     1     -13.809 -10.545  -7.974  1.00  0.00     0.200 A 
ATOM     62  F   UNL     1     -14.218 -10.848  -5.669  1.00  0.00    -0.200 F 
ATOM     63  F   UNL     1     -15.034 -10.026  -8.138  1.00  0.00    -0.200 F 
ENDBRANCH  39  53
BRANCH  40  64
ATOM     64  C   UNL     1      -2.090 -15.357  -6.239  1.00  0.00     0.064 A 
ATOM     65  C   UNL     1      -1.549 -16.326  -7.095  1.00  0.00     0.173 A 
ATOM     66  C   UNL     1      -1.317 -14.951  -5.141  1.00  0.00     0.173 A 
ATOM     67  F   UNL     1      -2.260 -16.762  -8.145  1.00  0.00    -0.203 F 
ATOM     68  C   UNL     1      -0.297 -16.885  -6.849  1.00  0.00     0.198 A 
ATOM     69  C   UNL     1      -0.052 -15.489  -4.913  1.00  0.00     0.198 A 
ATOM     70  F   UNL     1      -1.788 -14.024  -4.294  1.00  0.00    -0.203 F 
ATOM     71  F   UNL     1       0.174 -17.846  -7.655  1.00  0.00    -0.200 F 
ATOM     72  C   UNL     1       0.453 -16.463  -5.762  1.00  0.00     0.200 A 
ATOM     73  F   UNL     1       0.674 -15.069  -3.869  1.00  0.00    -0.200 F 
ATOM     74  F   UNL     1       1.657 -17.000  -5.527  1.00  0.00    -0.200 F 
ENDBRANCH  40  64
BRANCH  52  75
ATOM     75  C   UNL     1      -8.495 -18.081  -5.983  1.00  0.00     0.064 A 
ATOM     76  C   UNL     1      -8.462 -18.621  -4.689  1.00  0.00     0.173 A 
ATOM     77  C   UNL     1      -9.052 -18.862  -7.007  1.00  0.00     0.173 A 
ATOM     78  F   UNL     1      -7.925 -17.921  -3.679  1.00  0.00    -0.203 F 
ATOM     79  C   UNL     1      -8.947 -19.902  -4.436  1.00  0.00     0.198 A 
ATOM     80  C   UNL     1      -9.563 -20.129  -6.745  1.00  0.00     0.198 A 
ATOM     81  F   UNL     1      -9.112 -18.389  -8.261  1.00  0.00    -0.203 F 
ATOM     82  F   UNL     1      -8.863 -20.416  -3.201  1.00  0.00    -0.200 F 
ATOM     83  C   UNL     1      -9.504 -20.651  -5.462  1.00  0.00     0.200 A 
ATOM     84  F   UNL     1     -10.113 -20.847  -7.735  1.00  0.00    -0.200 F 
ATOM     85  F   UNL     1      -9.977 -21.880  -5.215  1.00  0.00    -0.200 F 
ENDBRANCH  52  75
ENDBRANCH  26  27
ENDBRANCH  18  21
ENDBRANCH  16  17
ENDBRANCH   1  16
TORSDOF 12
