REMARK SMILES C[C@@H](C(=O)NCCCCNC(=O)c1ccc(-c2c3nc(c(-c4c(F)c(F)c(F)c(F)c4F)c4ccc([nH]4)c(-c4c(F)c(F)c(F)c(F)c4F)c4nc(c(-c5c(F)c(F)c(F)c(F)c5F)c5ccc2[nH]5)C=C4)C=C3)cc1)c1ccc(N[C@H]2CCC[C@@H]2O)cc1F
REMARK SMILES IDX 6 1 5 2 3 3 4 4 2 6 1 7 76 8 77 9 88 10 78 11 87 12 89 13
REMARK SMILES IDX 79 14 80 15 81 17 82 18 85 19 83 20 84 21 86 22 7 24 8 25
REMARK SMILES IDX 9 26 10 27 11 28 12 30 13 31 14 32 75 33 15 34 74 35 16 36
REMARK SMILES IDX 17 37 18 38 68 39 19 40 73 41 67 42 69 43 20 44 72 45 66 46
REMARK SMILES IDX 65 47 21 49 53 50 33 51 52 52 34 53 37 54 51 55 70 56 35 57
REMARK SMILES IDX 36 58 50 60 71 61 38 62 22 63 23 64 31 65 24 66 25 67 29 68
REMARK SMILES IDX 32 69 26 70 27 71 30 72 28 73 54 74 55 75 63 76 56 77 57 78
REMARK SMILES IDX 61 79 64 80 58 81 59 82 62 83 60 84 39 85 40 86 48 87 41 88
REMARK SMILES IDX 42 89 46 90 49 91 43 92 44 93 47 94 45 95
REMARK H PARENT 5 5 80 16 86 23 10 29 69 48 37 59
REMARK Flexibility Score: inf
ROOT
ATOM      1  C   UNL     1       3.369   1.497   0.798  1.00  0.00     0.116 C 
ENDROOT
BRANCH   1   2
ATOM      2  N   UNL     1       2.337   2.409   0.347  1.00  0.00    -0.356 N 
ATOM      3  C   UNL     1       1.018   2.167   0.081  1.00  0.00     0.227 C 
ATOM      4  O   UNL     1       0.431   3.023  -0.584  1.00  0.00    -0.274 OA
ATOM      5  H   UNL     1       2.628   3.339   0.213  1.00  0.00     0.163 HD
BRANCH   3   6
ATOM      6  C   UNL     1       0.353   0.879   0.603  1.00  0.00     0.108 C 
ATOM      7  C   UNL     1       0.692  -0.239  -0.394  1.00  0.00     0.023 C 
BRANCH   6   8
ATOM      8  C   UNL     1      -1.150   0.996   0.868  1.00  0.00     0.000 A 
ATOM      9  C   UNL     1      -1.766   2.225   1.135  1.00  0.00     0.009 A 
ATOM     10  C   UNL     1      -1.983  -0.126   0.900  1.00  0.00     0.129 A 
ATOM     11  C   UNL     1      -3.159   2.331   1.272  1.00  0.00     0.026 A 
ATOM     12  C   UNL     1      -3.368  -0.020   1.038  1.00  0.00     0.065 A 
ATOM     13  F   UNL     1      -1.474  -1.362   0.798  1.00  0.00    -0.207 F 
ATOM     14  C   UNL     1      -3.994   1.221   1.167  1.00  0.00     0.037 A 
BRANCH  14  15
ATOM     15  N   UNL     1      -5.372   1.260   1.229  1.00  0.00    -0.380 N 
ATOM     16  H   UNL     1      -5.819   0.386   1.294  1.00  0.00     0.160 HD
BRANCH  15  17
ATOM     17  C   UNL     1      -6.256   2.419   1.210  1.00  0.00     0.107 C 
ATOM     18  C   UNL     1      -6.140   3.313   2.449  1.00  0.00     0.027 C 
ATOM     19  C   UNL     1      -6.103   3.344  -0.015  1.00  0.00     0.136 C 
ATOM     20  C   UNL     1      -6.087   4.748   1.924  1.00  0.00     0.005 C 
ATOM     21  C   UNL     1      -6.625   4.679   0.503  1.00  0.00     0.034 C 
BRANCH  19  22
ATOM     22  O   UNL     1      -6.853   2.909  -1.144  1.00  0.00    -0.391 OA
ATOM     23  H   UNL     1      -7.792   2.853  -0.907  1.00  0.00     0.211 HD
ENDBRANCH  19  22
ENDBRANCH  15  17
ENDBRANCH  14  15
ENDBRANCH   6   8
ENDBRANCH   3   6
ENDBRANCH   1   2
BRANCH   1  24
ATOM     24  C   UNL     1       4.230   1.018  -0.376  1.00  0.00     0.023 C 
BRANCH  24  25
ATOM     25  C   UNL     1       4.986   2.124  -1.114  1.00  0.00     0.023 C 
BRANCH  25  26
ATOM     26  C   UNL     1       5.947   2.923  -0.249  1.00  0.00     0.116 C 
BRANCH  26  27
ATOM     27  N   UNL     1       6.982   2.096   0.352  1.00  0.00    -0.352 N 
ATOM     28  C   UNL     1       8.326   2.356   0.463  1.00  0.00     0.251 C 
ATOM     29  H   UNL     1       6.680   1.238   0.728  1.00  0.00     0.163 HD
ATOM     30  O   UNL     1       9.099   1.500   0.878  1.00  0.00    -0.269 OA
BRANCH  28  31
ATOM     31  C   UNL     1       8.835   3.677   0.046  1.00  0.00     0.039 A 
ATOM     32  C   UNL     1       9.926   3.741  -0.824  1.00  0.00     0.014 A 
ATOM     33  C   UNL     1       8.204   4.843   0.485  1.00  0.00     0.014 A 
ATOM     34  C   UNL     1      10.347   4.980  -1.308  1.00  0.00     0.010 A 
ATOM     35  C   UNL     1       8.579   6.067  -0.052  1.00  0.00     0.010 A 
ATOM     36  C   UNL     1       9.655   6.148  -0.951  1.00  0.00    -0.014 A 
BRANCH  36  37
ATOM     37  C   UNL     1      10.043   7.480  -1.472  1.00  0.00     0.031 A 
ATOM     38  C   UNL     1      10.527   8.532  -0.517  1.00  0.00     0.074 A 
ATOM     39  C   UNL     1       9.858   7.775  -2.773  1.00  0.00     0.049 A 
ATOM     40  N   UNL     1      10.749   9.804  -0.724  1.00  0.00    -0.248 NA
ATOM     41  C   UNL     1      10.755   8.098   0.871  1.00  0.00     0.031 C 
ATOM     42  C   UNL     1       9.359   6.848  -3.789  1.00  0.00     0.029 A 
ATOM     43  N   UNL     1      10.044   8.951  -3.455  1.00  0.00    -0.354 N 
ATOM     44  C   UNL     1      11.106  10.327   0.511  1.00  0.00     0.074 A 
ATOM     45  C   UNL     1      11.031   9.246   1.469  1.00  0.00     0.031 C 
ATOM     46  C   UNL     1       9.283   7.489  -4.967  1.00  0.00     0.029 A 
ATOM     47  C   UNL     1       9.688   8.880  -4.779  1.00  0.00     0.049 A 
ATOM     48  H   UNL     1      10.400   9.767  -3.035  1.00  0.00     0.167 HD
ATOM     49  C   UNL     1      11.479  11.594   0.814  1.00  0.00     0.037 A 
ATOM     50  C   UNL     1       9.673   9.835  -5.728  1.00  0.00     0.037 A 
ATOM     51  C   UNL     1      11.589  12.653  -0.152  1.00  0.00     0.049 A 
ATOM     52  C   UNL     1      10.109  11.230  -5.373  1.00  0.00     0.074 A 
ATOM     53  C   UNL     1      12.019  13.954   0.038  1.00  0.00     0.029 A 
ATOM     54  N   UNL     1      11.268  12.529  -1.497  1.00  0.00    -0.354 N 
ATOM     55  N   UNL     1      10.492  11.706  -4.213  1.00  0.00    -0.248 NA
ATOM     56  C   UNL     1      10.114  12.220  -6.459  1.00  0.00     0.031 C 
ATOM     57  C   UNL     1      11.924  14.628  -1.184  1.00  0.00     0.029 A 
ATOM     58  C   UNL     1      11.479  13.734  -2.146  1.00  0.00     0.049 A 
ATOM     59  H   UNL     1      10.940  11.706  -1.926  1.00  0.00     0.167 HD
ATOM     60  C   UNL     1      10.814  13.038  -4.434  1.00  0.00     0.074 A 
ATOM     61  C   UNL     1      10.585  13.295  -5.841  1.00  0.00     0.031 C 
ATOM     62  C   UNL     1      11.263  13.964  -3.552  1.00  0.00     0.037 A 
BRANCH  49  63
ATOM     63  C   UNL     1      11.787  11.896   2.251  1.00  0.00     0.064 A 
ATOM     64  C   UNL     1      12.924  11.374   2.887  1.00  0.00     0.173 A 
ATOM     65  C   UNL     1      10.938  12.724   3.001  1.00  0.00     0.173 A 
ATOM     66  F   UNL     1      13.760  10.566   2.219  1.00  0.00    -0.203 F 
ATOM     67  C   UNL     1      13.178  11.639   4.230  1.00  0.00     0.198 A 
ATOM     68  C   UNL     1      11.213  13.012   4.335  1.00  0.00     0.198 A 
ATOM     69  F   UNL     1       9.839  13.252   2.440  1.00  0.00    -0.203 F 
ATOM     70  F   UNL     1      14.237  11.080   4.832  1.00  0.00    -0.200 F 
ATOM     71  C   UNL     1      12.326  12.461   4.951  1.00  0.00     0.200 A 
ATOM     72  F   UNL     1      10.394  13.816   5.027  1.00  0.00    -0.200 F 
ATOM     73  F   UNL     1      12.572  12.715   6.244  1.00  0.00    -0.200 F 
ENDBRANCH  49  63
BRANCH  50  74
ATOM     74  C   UNL     1       9.253   9.492  -7.110  1.00  0.00     0.064 A 
ATOM     75  C   UNL     1      10.193   9.421  -8.147  1.00  0.00     0.173 A 
ATOM     76  C   UNL     1       7.915   9.209  -7.420  1.00  0.00     0.173 A 
ATOM     77  F   UNL     1      11.481   9.703  -7.902  1.00  0.00    -0.203 F 
ATOM     78  C   UNL     1       9.809   9.093  -9.445  1.00  0.00     0.198 A 
ATOM     79  C   UNL     1       7.536   8.856  -8.714  1.00  0.00     0.198 A 
ATOM     80  F   UNL     1       6.979   9.257  -6.461  1.00  0.00    -0.203 F 
ATOM     81  F   UNL     1      10.723   9.065 -10.425  1.00  0.00    -0.200 F 
ATOM     82  C   UNL     1       8.482   8.804  -9.726  1.00  0.00     0.200 A 
ATOM     83  F   UNL     1       6.255   8.565  -8.979  1.00  0.00    -0.200 F 
ATOM     84  F   UNL     1       8.115   8.479 -10.973  1.00  0.00    -0.200 F 
ENDBRANCH  50  74
BRANCH  62  85
ATOM     85  C   UNL     1      11.587  15.327  -4.085  1.00  0.00     0.064 A 
ATOM     86  C   UNL     1      10.582  16.239  -4.436  1.00  0.00     0.173 A 
ATOM     87  C   UNL     1      12.922  15.747  -4.184  1.00  0.00     0.173 A 
ATOM     88  F   UNL     1       9.291  15.879  -4.372  1.00  0.00    -0.203 F 
ATOM     89  C   UNL     1      10.903  17.518  -4.882  1.00  0.00     0.198 A 
ATOM     90  C   UNL     1      13.239  17.035  -4.605  1.00  0.00     0.198 A 
ATOM     91  F   UNL     1      13.919  14.912  -3.853  1.00  0.00    -0.203 F 
ATOM     92  F   UNL     1       9.929  18.364  -5.245  1.00  0.00    -0.200 F 
ATOM     93  C   UNL     1      12.230  17.918  -4.957  1.00  0.00     0.200 A 
ATOM     94  F   UNL     1      14.520  17.422  -4.665  1.00  0.00    -0.200 F 
ATOM     95  F   UNL     1      12.536  19.154  -5.374  1.00  0.00    -0.200 F 
ENDBRANCH  62  85
ENDBRANCH  36  37
ENDBRANCH  28  31
ENDBRANCH  26  27
ENDBRANCH  25  26
ENDBRANCH  24  25
ENDBRANCH   1  24
TORSDOF 15
