REMARK SMILES O=C(NCCCCNC(=O)[C@H]1Cc2[nH]cnc2CN1C(=O)NCc1nc[nH]n1)c1ccc(-c2c3nc(c(-c4c(F)c(F)c(F)c(F)c4F)c4ccc([nH]4)c(-c4c(F)c(F)c(F)c(F)c4F)c4nc(c(-c5c(F)c(F)c(F)c(F)c5F)c5ccc2[nH]5)C=C4)C=C3)cc1
REMARK SMILES IDX 6 1 5 2 4 3 3 4 1 5 2 6 29 8 30 9 91 10 31 11 90 12 32 13
REMARK SMILES IDX 33 14 34 15 84 16 35 17 89 18 83 19 85 20 36 21 88 22 82 23
REMARK SMILES IDX 81 24 37 26 69 27 49 28 68 29 50 30 53 31 67 32 86 33 51 34
REMARK SMILES IDX 52 35 66 37 87 38 54 39 38 40 39 41 47 42 40 43 41 44 45 45
REMARK SMILES IDX 48 46 42 47 43 48 46 49 44 50 70 51 71 52 79 53 72 54 73 55
REMARK SMILES IDX 77 56 80 57 74 58 75 59 78 60 76 61 55 62 56 63 64 64 57 65
REMARK SMILES IDX 58 66 62 67 65 68 59 69 60 70 63 71 61 72 7 73 8 74 9 75
REMARK SMILES IDX 10 77 11 78 12 79 19 80 13 81 18 82 14 83 17 84 15 85 16 87
REMARK SMILES IDX 20 88 21 89 22 90 23 92 24 93 25 94 28 95 26 96 27 97
REMARK H PARENT 3 7 85 25 53 36 8 76 14 86 22 91 27 98
REMARK Flexibility Score: inf
ROOT
ATOM      1  C   UNL     1       4.092   3.121  -2.060  1.00  0.00     0.023 C 
ENDROOT
BRANCH   1   2
ATOM      2  C   UNL     1       4.568   1.679  -1.842  1.00  0.00     0.023 C 
BRANCH   2   3
ATOM      3  C   UNL     1       4.441   1.116  -0.432  1.00  0.00     0.116 C 
BRANCH   3   4
ATOM      4  N   UNL     1       3.083   1.025   0.050  1.00  0.00    -0.352 N 
ATOM      5  O   UNL     1       1.081   0.345   0.647  1.00  0.00    -0.269 OA
ATOM      6  C   UNL     1       2.082   0.093  -0.012  1.00  0.00     0.251 C 
ATOM      7  H   UNL     1       2.810   1.831   0.545  1.00  0.00     0.163 HD
BRANCH   6   8
ATOM      8  C   UNL     1       2.103  -1.159  -0.826  1.00  0.00     0.039 A 
ATOM      9  C   UNL     1       3.211  -1.736  -1.447  1.00  0.00     0.014 A 
ATOM     10  C   UNL     1       0.858  -1.810  -0.953  1.00  0.00     0.014 A 
ATOM     11  C   UNL     1       3.072  -2.904  -2.206  1.00  0.00     0.010 A 
ATOM     12  C   UNL     1       0.717  -2.975  -1.702  1.00  0.00     0.010 A 
ATOM     13  C   UNL     1       1.822  -3.514  -2.353  1.00  0.00    -0.014 A 
BRANCH  13  14
ATOM     14  C   UNL     1       1.727  -4.764  -3.112  1.00  0.00     0.031 A 
ATOM     15  C   UNL     1       2.447  -5.946  -2.543  1.00  0.00     0.074 A 
ATOM     16  C   UNL     1       0.906  -4.936  -4.169  1.00  0.00     0.049 A 
ATOM     17  N   UNL     1       3.332  -6.705  -3.110  1.00  0.00    -0.248 NA
ATOM     18  C   UNL     1       2.162  -6.311  -1.147  1.00  0.00     0.031 C 
ATOM     19  C   UNL     1      -0.112  -4.017  -4.683  1.00  0.00     0.029 A 
ATOM     20  N   UNL     1       0.747  -6.043  -4.955  1.00  0.00    -0.354 N 
ATOM     21  C   UNL     1       3.622  -7.723  -2.200  1.00  0.00     0.074 A 
ATOM     22  C   UNL     1       2.936  -7.384  -0.980  1.00  0.00     0.031 C 
ATOM     23  C   UNL     1      -0.915  -4.677  -5.548  1.00  0.00     0.029 A 
ATOM     24  C   UNL     1      -0.388  -6.015  -5.753  1.00  0.00     0.049 A 
ATOM     25  H   UNL     1       1.382  -6.795  -4.955  1.00  0.00     0.167 HD
ATOM     26  C   UNL     1       4.286  -8.858  -2.560  1.00  0.00     0.037 A 
ATOM     27  C   UNL     1      -0.891  -7.037  -6.487  1.00  0.00     0.037 A 
ATOM     28  C   UNL     1       4.998  -8.692  -3.795  1.00  0.00     0.049 A 
ATOM     29  C   UNL     1       0.191  -8.026  -6.698  1.00  0.00     0.074 A 
ATOM     30  C   UNL     1       6.033  -7.885  -4.224  1.00  0.00     0.029 A 
ATOM     31  N   UNL     1       4.473  -9.247  -4.934  1.00  0.00    -0.354 N 
ATOM     32  N   UNL     1       1.238  -7.825  -7.447  1.00  0.00    -0.248 NA
ATOM     33  C   UNL     1       0.294  -9.133  -5.760  1.00  0.00     0.031 C 
ATOM     34  C   UNL     1       5.746  -7.613  -5.593  1.00  0.00     0.029 A 
ATOM     35  C   UNL     1       4.574  -8.298  -5.915  1.00  0.00     0.049 A 
ATOM     36  H   UNL     1       4.097 -10.152  -5.027  1.00  0.00     0.167 HD
ATOM     37  C   UNL     1       2.265  -8.489  -6.797  1.00  0.00     0.074 A 
ATOM     38  C   UNL     1       1.606  -9.364  -5.834  1.00  0.00     0.031 C 
ATOM     39  C   UNL     1       3.556  -8.066  -6.909  1.00  0.00     0.037 A 
BRANCH  26  40
ATOM     40  C   UNL     1       4.070 -10.225  -1.954  1.00  0.00     0.064 A 
ATOM     41  C   UNL     1       4.943 -11.282  -2.292  1.00  0.00     0.173 A 
ATOM     42  C   UNL     1       2.874 -10.607  -1.313  1.00  0.00     0.173 A 
ATOM     43  F   UNL     1       6.105 -11.038  -2.917  1.00  0.00    -0.203 F 
ATOM     44  C   UNL     1       4.603 -12.621  -2.081  1.00  0.00     0.198 A 
ATOM     45  C   UNL     1       2.561 -11.943  -1.057  1.00  0.00     0.198 A 
ATOM     46  F   UNL     1       1.919  -9.719  -1.013  1.00  0.00    -0.203 F 
ATOM     47  F   UNL     1       5.406 -13.593  -2.535  1.00  0.00    -0.200 F 
ATOM     48  C   UNL     1       3.407 -12.951  -1.471  1.00  0.00     0.200 A 
ATOM     49  F   UNL     1       1.390 -12.245  -0.478  1.00  0.00    -0.200 F 
ATOM     50  F   UNL     1       3.048 -14.233  -1.325  1.00  0.00    -0.200 F 
ENDBRANCH  26  40
BRANCH  27  51
ATOM     51  C   UNL     1      -2.309  -7.350  -6.777  1.00  0.00     0.064 A 
ATOM     52  C   UNL     1      -2.668  -8.206  -7.831  1.00  0.00     0.173 A 
ATOM     53  C   UNL     1      -3.322  -7.038  -5.850  1.00  0.00     0.173 A 
ATOM     54  F   UNL     1      -1.750  -8.592  -8.729  1.00  0.00    -0.203 F 
ATOM     55  C   UNL     1      -3.958  -8.735  -7.938  1.00  0.00     0.198 A 
ATOM     56  C   UNL     1      -4.611  -7.560  -5.961  1.00  0.00     0.198 A 
ATOM     57  F   UNL     1      -3.054  -6.299  -4.763  1.00  0.00    -0.203 F 
ATOM     58  F   UNL     1      -4.248  -9.600  -8.921  1.00  0.00    -0.200 F 
ATOM     59  C   UNL     1      -4.926  -8.419  -6.997  1.00  0.00     0.200 A 
ATOM     60  F   UNL     1      -5.525  -7.277  -5.023  1.00  0.00    -0.200 F 
ATOM     61  F   UNL     1      -6.143  -8.975  -7.064  1.00  0.00    -0.200 F 
ENDBRANCH  27  51
BRANCH  39  62
ATOM     62  C   UNL     1       3.880  -7.061  -7.975  1.00  0.00     0.064 A 
ATOM     63  C   UNL     1       3.373  -5.750  -7.989  1.00  0.00     0.173 A 
ATOM     64  C   UNL     1       4.869  -7.384  -8.913  1.00  0.00     0.173 A 
ATOM     65  F   UNL     1       2.500  -5.338  -7.061  1.00  0.00    -0.203 F 
ATOM     66  C   UNL     1       3.814  -4.818  -8.926  1.00  0.00     0.198 A 
ATOM     67  C   UNL     1       5.335  -6.440  -9.823  1.00  0.00     0.198 A 
ATOM     68  F   UNL     1       5.429  -8.604  -8.905  1.00  0.00    -0.203 F 
ATOM     69  F   UNL     1       3.316  -3.573  -8.922  1.00  0.00    -0.200 F 
ATOM     70  C   UNL     1       4.802  -5.161  -9.835  1.00  0.00     0.200 A 
ATOM     71  F   UNL     1       6.326  -6.761 -10.666  1.00  0.00    -0.200 F 
ATOM     72  F   UNL     1       5.265  -4.249 -10.701  1.00  0.00    -0.200 F 
ENDBRANCH  39  62
ENDBRANCH  13  14
ENDBRANCH   6   8
ENDBRANCH   3   4
ENDBRANCH   2   3
ENDBRANCH   1   2
BRANCH   1  73
ATOM     73  C   UNL     1       4.402   4.159  -0.981  1.00  0.00     0.116 C 
BRANCH  73  74
ATOM     74  N   UNL     1       5.787   4.247  -0.564  1.00  0.00    -0.354 N 
ATOM     75  C   UNL     1       6.634   5.317  -0.602  1.00  0.00     0.243 C 
ATOM     76  H   UNL     1       6.173   3.416  -0.203  1.00  0.00     0.163 HD
ATOM     77  O   UNL     1       7.542   5.373   0.232  1.00  0.00    -0.273 OA
BRANCH  75  78
ATOM     78  C   UNL     1       6.376   6.477  -1.557  1.00  0.00     0.182 C 
ATOM     79  C   UNL     1       7.431   7.618  -1.482  1.00  0.00     0.091 C 
ATOM     80  N   UNL     1       5.977   6.230  -2.972  1.00  0.00    -0.306 N 
ATOM     81  C   UNL     1       6.825   8.770  -2.208  1.00  0.00     0.042 A 
ATOM     82  C   UNL     1       5.188   7.353  -3.559  1.00  0.00     0.180 C 
ATOM     83  N   UNL     1       7.039  10.105  -2.043  1.00  0.00    -0.348 N 
ATOM     84  C   UNL     1       5.809   8.659  -3.136  1.00  0.00     0.081 A 
ATOM     85  C   UNL     1       6.129  10.748  -2.844  1.00  0.00     0.197 A 
ATOM     86  H   UNL     1       7.714  10.526  -1.463  1.00  0.00     0.167 HD
ATOM     87  N   UNL     1       5.375   9.901  -3.515  1.00  0.00    -0.240 NA
BRANCH  80  88
ATOM     88  C   UNL     1       6.363   5.262  -3.844  1.00  0.00     0.318 C 
ATOM     89  O   UNL     1       5.808   5.150  -4.944  1.00  0.00    -0.249 OA
ATOM     90  N   UNL     1       7.284   4.324  -3.608  1.00  0.00    -0.331 N 
ATOM     91  H   UNL     1       7.153   3.551  -4.203  1.00  0.00     0.165 HD
BRANCH  90  92
ATOM     92  C   UNL     1       8.425   4.107  -2.731  1.00  0.00     0.197 C 
BRANCH  92  93
ATOM     93  C   UNL     1       8.347   2.740  -2.109  1.00  0.00     0.169 A 
ATOM     94  N   UNL     1       8.378   1.587  -2.866  1.00  0.00    -0.218 NA
ATOM     95  N   UNL     1       8.235   2.515  -0.790  1.00  0.00    -0.157 NA
ATOM     96  C   UNL     1       8.311   0.630  -1.970  1.00  0.00     0.216 A 
ATOM     97  N   UNL     1       8.237   1.177  -0.730  1.00  0.00    -0.266 N 
ATOM     98  H   UNL     1       8.191   0.657   0.105  1.00  0.00     0.191 HD
ENDBRANCH  92  93
ENDBRANCH  90  92
ENDBRANCH  80  88
ENDBRANCH  75  78
ENDBRANCH  73  74
ENDBRANCH   1  73
TORSDOF 14
