REMARK SMILES CC[C@H](C)[C@H](NC(=O)CN1C(=O)/C(=C/c2ccc(C)cc2)SC1=S)C(=O)NCCCCNC(=O)c1ccc(-c2c3nc(c(-c4c(F)c(F)c(F)c(F)c4F)c4ccc([nH]4)c(-c4c(F)c(F)c(F)c(F)c4F)c4nc(c(-c5c(F)c(F)c(F)c(F)c5F)c5ccc2[nH]5)C=C4)C=C3)cc1
REMARK SMILES IDX 28 1 27 2 25 3 26 4 5 6 3 7 4 8 2 9 1 10 6 11 7 12 8 14 9 15
REMARK SMILES IDX 10 16 11 17 23 18 12 19 13 20 22 21 24 22 14 23 15 24 16 25
REMARK SMILES IDX 21 26 17 27 20 28 18 29 19 30 29 31 30 32 31 33 32 34 33 35
REMARK SMILES IDX 34 37 35 38 36 39 97 40 37 41 96 42 38 43 39 44 40 45 90 46
REMARK SMILES IDX 41 47 95 48 89 49 91 50 42 51 94 52 88 53 87 54 43 56 75 57
REMARK SMILES IDX 55 58 74 59 56 60 59 61 73 62 92 63 57 64 58 65 72 67 93 68
REMARK SMILES IDX 60 69 44 70 45 71 53 72 46 73 47 74 51 75 54 76 48 77 49 78
REMARK SMILES IDX 52 79 50 80 76 81 77 82 85 83 78 84 79 85 83 86 86 87 80 88
REMARK SMILES IDX 81 89 84 90 82 91 61 92 62 93 70 94 63 95 64 96 68 97 71 98
REMARK SMILES IDX 65 99 66 100 69 101 67 102
REMARK H PARENT 27 5 6 13 32 36 91 55 59 66
REMARK Flexibility Score: inf
ROOT
ATOM      1  C   UNL     1       4.226   0.039   3.765  1.00  0.00     0.116 C 
ENDROOT
BRANCH   1   2
ATOM      2  N   UNL     1       3.373   0.560   4.816  1.00  0.00    -0.354 N 
ATOM      3  C   UNL     1       2.042   0.443   5.064  1.00  0.00     0.242 C 
ATOM      4  O   UNL     1       1.650   0.733   6.201  1.00  0.00    -0.273 OA
ATOM      5  H   UNL     1       3.853   1.106   5.480  1.00  0.00     0.163 HD
BRANCH   3   6
ATOM      6  C   UNL     1       1.014  -0.041   4.037  1.00  0.00     0.174 C 
BRANCH   6   7
ATOM      7  C   UNL     1       0.759  -1.586   4.043  1.00  0.00     0.018 C 
ATOM      8  C   UNL     1       1.894  -2.449   3.483  1.00  0.00     0.010 C 
BRANCH   7   9
ATOM      9  C   UNL     1       0.237  -2.169   5.380  1.00  0.00     0.002 C 
ATOM     10  C   UNL     1       1.250  -2.409   6.494  1.00  0.00     0.004 C 
ENDBRANCH   7   9
ENDBRANCH   6   7
BRANCH   6  11
ATOM     11  N   UNL     1       1.233   0.462   2.675  1.00  0.00    -0.342 N 
ATOM     12  C   UNL     1       1.254   1.730   2.175  1.00  0.00     0.240 C 
ATOM     13  H   UNL     1       1.392  -0.241   2.004  1.00  0.00     0.164 HD
ATOM     14  O   UNL     1       1.081   1.824   0.954  1.00  0.00    -0.273 OA
BRANCH  12  15
ATOM     15  C   UNL     1       1.720   2.964   2.967  1.00  0.00     0.227 C 
BRANCH  15  16
ATOM     16  N   UNL     1       0.976   3.446   4.118  1.00  0.00    -0.283 N 
ATOM     17  C   UNL     1       1.585   3.495   5.366  1.00  0.00     0.266 C 
ATOM     18  C   UNL     1      -0.199   4.158   4.003  1.00  0.00     0.148 C 
ATOM     19  O   UNL     1       2.771   3.317   5.613  1.00  0.00    -0.268 OA
ATOM     20  C   UNL     1       0.597   3.930   6.379  1.00  0.00     0.081 C 
ATOM     21  S   UNL     1      -0.690   4.750   5.578  1.00  0.00    -0.054 SA
ATOM     22  S   UNL     1      -1.083   4.477   2.628  1.00  0.00    -0.052 S 
ATOM     23  C   UNL     1       0.702   3.642   7.685  1.00  0.00     0.029 C 
BRANCH  23  24
ATOM     24  C   UNL     1      -0.322   4.047   8.653  1.00  0.00    -0.024 A 
ATOM     25  C   UNL     1      -1.628   3.553   8.544  1.00  0.00     0.008 A 
ATOM     26  C   UNL     1      -0.040   5.056   9.575  1.00  0.00     0.008 A 
ATOM     27  C   UNL     1      -2.669   4.168   9.236  1.00  0.00     0.004 A 
ATOM     28  C   UNL     1      -1.081   5.656  10.285  1.00  0.00     0.004 A 
ATOM     29  C   UNL     1      -2.407   5.255  10.075  1.00  0.00    -0.051 A 
ATOM     30  C   UNL     1      -3.531   6.028  10.696  1.00  0.00     0.044 C 
ENDBRANCH  23  24
ENDBRANCH  15  16
ENDBRANCH  12  15
ENDBRANCH   6  11
ENDBRANCH   3   6
ENDBRANCH   1   2
BRANCH   1  31
ATOM     31  C   UNL     1       4.838   1.057   2.796  1.00  0.00     0.023 C 
BRANCH  31  32
ATOM     32  C   UNL     1       5.409   2.348   3.377  1.00  0.00     0.023 C 
BRANCH  32  33
ATOM     33  C   UNL     1       6.512   2.168   4.395  1.00  0.00     0.116 C 
BRANCH  33  34
ATOM     34  N   UNL     1       7.843   2.042   3.828  1.00  0.00    -0.352 N 
ATOM     35  C   UNL     1       9.046   1.799   4.473  1.00  0.00     0.251 C 
ATOM     36  H   UNL     1       7.899   2.144   2.850  1.00  0.00     0.163 HD
ATOM     37  O   UNL     1      10.096   1.852   3.859  1.00  0.00    -0.269 OA
BRANCH  35  38
ATOM     38  C   UNL     1       9.024   1.302   5.874  1.00  0.00     0.039 A 
ATOM     39  C   UNL     1       9.793   0.168   6.158  1.00  0.00     0.014 A 
ATOM     40  C   UNL     1       8.072   1.749   6.783  1.00  0.00     0.014 A 
ATOM     41  C   UNL     1       9.411  -0.669   7.201  1.00  0.00     0.010 A 
ATOM     42  C   UNL     1       7.606   0.861   7.727  1.00  0.00     0.010 A 
ATOM     43  C   UNL     1       8.236  -0.377   7.886  1.00  0.00    -0.014 A 
BRANCH  43  44
ATOM     44  C   UNL     1       7.564  -1.306   8.777  1.00  0.00     0.031 A 
ATOM     45  C   UNL     1       7.661  -1.098  10.232  1.00  0.00     0.074 A 
ATOM     46  C   UNL     1       6.785  -2.294   8.284  1.00  0.00     0.049 A 
ATOM     47  N   UNL     1       7.410  -2.013  11.102  1.00  0.00    -0.248 NA
ATOM     48  C   UNL     1       8.139   0.142  10.827  1.00  0.00     0.031 C 
ATOM     49  C   UNL     1       5.806  -3.092   9.019  1.00  0.00     0.029 A 
ATOM     50  N   UNL     1       6.873  -2.921   7.030  1.00  0.00    -0.354 N 
ATOM     51  C   UNL     1       7.407  -1.427  12.345  1.00  0.00     0.074 A 
ATOM     52  C   UNL     1       7.996  -0.129  12.127  1.00  0.00     0.031 C 
ATOM     53  C   UNL     1       5.607  -4.245   8.365  1.00  0.00     0.029 A 
ATOM     54  C   UNL     1       6.562  -4.283   7.275  1.00  0.00     0.049 A 
ATOM     55  H   UNL     1       7.101  -2.506   6.167  1.00  0.00     0.167 HD
ATOM     56  C   UNL     1       6.784  -2.087  13.363  1.00  0.00     0.037 A 
ATOM     57  C   UNL     1       7.476  -5.276   7.073  1.00  0.00     0.037 A 
ATOM     58  C   UNL     1       6.401  -3.443  12.944  1.00  0.00     0.049 A 
ATOM     59  C   UNL     1       7.775  -6.130   8.286  1.00  0.00     0.074 A 
ATOM     60  C   UNL     1       5.201  -4.063  12.631  1.00  0.00     0.029 A 
ATOM     61  N   UNL     1       7.396  -4.326  12.545  1.00  0.00    -0.354 N 
ATOM     62  N   UNL     1       7.403  -5.846   9.503  1.00  0.00    -0.248 NA
ATOM     63  C   UNL     1       8.600  -7.330   8.229  1.00  0.00     0.031 C 
ATOM     64  C   UNL     1       5.489  -5.354  12.104  1.00  0.00     0.029 A 
ATOM     65  C   UNL     1       6.862  -5.520  12.102  1.00  0.00     0.049 A 
ATOM     66  H   UNL     1       8.360  -4.126  12.574  1.00  0.00     0.167 HD
ATOM     67  C   UNL     1       7.954  -6.747  10.388  1.00  0.00     0.074 A 
ATOM     68  C   UNL     1       8.704  -7.648   9.531  1.00  0.00     0.031 C 
ATOM     69  C   UNL     1       7.759  -6.614  11.741  1.00  0.00     0.037 A 
BRANCH  56  70
ATOM     70  C   UNL     1       6.317  -1.479  14.680  1.00  0.00     0.064 A 
ATOM     71  C   UNL     1       5.455  -2.211  15.532  1.00  0.00     0.173 A 
ATOM     72  C   UNL     1       6.590  -0.174  15.137  1.00  0.00     0.173 A 
ATOM     73  F   UNL     1       5.157  -3.495  15.293  1.00  0.00    -0.203 F 
ATOM     74  C   UNL     1       4.856  -1.655  16.669  1.00  0.00     0.198 A 
ATOM     75  C   UNL     1       5.991   0.383  16.271  1.00  0.00     0.198 A 
ATOM     76  F   UNL     1       7.461   0.633  14.534  1.00  0.00    -0.203 F 
ATOM     77  F   UNL     1       4.016  -2.395  17.406  1.00  0.00    -0.200 F 
ATOM     78  C   UNL     1       5.109  -0.350  17.028  1.00  0.00     0.200 A 
ATOM     79  F   UNL     1       6.279   1.648  16.614  1.00  0.00    -0.200 F 
ATOM     80  F   UNL     1       4.521   0.194  18.102  1.00  0.00    -0.200 F 
ENDBRANCH  56  70
BRANCH  57  81
ATOM     81  C   UNL     1       8.448  -4.946   5.997  1.00  0.00     0.064 A 
ATOM     82  C   UNL     1       7.961  -4.796   4.684  1.00  0.00     0.173 A 
ATOM     83  C   UNL     1       9.692  -4.380   6.298  1.00  0.00     0.173 A 
ATOM     84  F   UNL     1       6.771  -5.318   4.348  1.00  0.00    -0.203 F 
ATOM     85  C   UNL     1       8.626  -4.000   3.755  1.00  0.00     0.198 A 
ATOM     86  C   UNL     1      10.363  -3.596   5.357  1.00  0.00     0.198 A 
ATOM     87  F   UNL     1      10.199  -4.475   7.536  1.00  0.00    -0.203 F 
ATOM     88  F   UNL     1       8.073  -3.772   2.555  1.00  0.00    -0.200 F 
ATOM     89  C   UNL     1       9.811  -3.375   4.103  1.00  0.00     0.200 A 
ATOM     90  F   UNL     1      11.498  -2.970   5.701  1.00  0.00    -0.200 F 
ATOM     91  F   UNL     1      10.398  -2.525   3.249  1.00  0.00    -0.200 F 
ENDBRANCH  57  81
BRANCH  69  92
ATOM     92  C   UNL     1       8.383  -7.420  12.882  1.00  0.00     0.064 A 
ATOM     93  C   UNL     1       8.973  -8.687  12.762  1.00  0.00     0.173 A 
ATOM     94  C   UNL     1       8.374  -6.913  14.214  1.00  0.00     0.173 A 
ATOM     95  F   UNL     1       8.914  -9.383  11.624  1.00  0.00    -0.203 F 
ATOM     96  C   UNL     1       9.604  -9.329  13.840  1.00  0.00     0.198 A 
ATOM     97  C   UNL     1       8.975  -7.566  15.291  1.00  0.00     0.198 A 
ATOM     98  F   UNL     1       7.781  -5.758  14.539  1.00  0.00    -0.203 F 
ATOM     99  F   UNL     1      10.196 -10.516  13.646  1.00  0.00    -0.200 F 
ATOM    100  C   UNL     1       9.614  -8.765  15.100  1.00  0.00     0.200 A 
ATOM    101  F   UNL     1       8.931  -7.010  16.512  1.00  0.00    -0.200 F 
ATOM    102  F   UNL     1      10.215  -9.383  16.125  1.00  0.00    -0.200 F 
ENDBRANCH  69  92
ENDBRANCH  43  44
ENDBRANCH  35  38
ENDBRANCH  33  34
ENDBRANCH  32  33
ENDBRANCH  31  32
ENDBRANCH   1  31
TORSDOF 17
