REMARK SMILES CC(=O)Nc1ccc2sc(C(=O)NCCCCNC(=O)c3ccc(-c4c5nc(c(-c6c(F)c(F)c(F)c(F)c6F)c6ccc([nH]6)c(-c6c(F)c(F)c(F)c(F)c6F)c6nc(c(-c7c(F)c(F)c(F)c(F)c7F)c7ccc4[nH]7)C=C6)C=C5)cc3)cc2c1
REMARK SMILES IDX 16 1 15 2 14 3 13 4 11 5 12 6 10 8 5 9 6 10 86 11 7 12 85 13
REMARK SMILES IDX 8 14 84 15 9 16 4 17 1 18 2 19 3 20 17 22 18 23 19 24 20 26
REMARK SMILES IDX 21 27 22 28 83 29 23 30 82 31 24 32 25 33 26 34 76 35 27 36
REMARK SMILES IDX 81 37 75 38 77 39 28 40 80 41 74 42 73 43 29 45 61 46 41 47
REMARK SMILES IDX 60 48 42 49 45 50 59 51 78 52 43 53 44 54 58 56 79 57 46 58
REMARK SMILES IDX 30 59 31 60 39 61 32 62 33 63 37 64 40 65 34 66 35 67 38 68
REMARK SMILES IDX 36 69 62 70 63 71 71 72 64 73 65 74 69 75 72 76 66 77 67 78
REMARK SMILES IDX 70 79 68 80 47 81 48 82 56 83 49 84 50 85 54 86 57 87 51 88
REMARK SMILES IDX 52 89 55 90 53 91
REMARK H PARENT 13 7 4 21 18 25 77 44 45 55
REMARK Flexibility Score: inf
ROOT
ATOM      1  C   UNL     1       7.437   8.470   4.157  1.00  0.00     0.023 C 
ENDROOT
BRANCH   1   2
ATOM      2  C   UNL     1       6.793   7.208   3.575  1.00  0.00     0.023 C 
BRANCH   2   3
ATOM      3  C   UNL     1       5.462   6.841   4.230  1.00  0.00     0.116 C 
BRANCH   3   4
ATOM      4  N   UNL     1       4.385   7.665   3.720  1.00  0.00    -0.351 N 
ATOM      5  C   UNL     1       3.432   7.469   2.749  1.00  0.00     0.261 C 
ATOM      6  O   UNL     1       2.640   8.408   2.614  1.00  0.00    -0.268 OA
ATOM      7  H   UNL     1       4.323   8.545   4.159  1.00  0.00     0.163 HD
BRANCH   5   8
ATOM      8  C   UNL     1       3.299   6.252   1.956  1.00  0.00     0.093 A 
ATOM      9  C   UNL     1       1.559   2.592  -0.569  1.00  0.00     0.041 A 
ATOM     10  C   UNL     1       2.751   1.980  -0.198  1.00  0.00     0.027 A 
ATOM     11  C   UNL     1       1.329   3.932  -0.227  1.00  0.00     0.035 A 
ATOM     12  C   UNL     1       3.715   2.672   0.536  1.00  0.00     0.022 A 
ATOM     13  C   UNL     1       2.261   4.636   0.575  1.00  0.00    -0.005 A 
ATOM     14  C   UNL     1       3.449   3.997   0.916  1.00  0.00     0.035 A 
ATOM     15  C   UNL     1       2.202   5.942   1.166  1.00  0.00     0.034 A 
ATOM     16  S   UNL     1       4.482   5.041   1.790  1.00  0.00    -0.130 S 
BRANCH   9  17
ATOM     17  N   UNL     1       0.579   1.938  -1.331  1.00  0.00    -0.326 N 
ATOM     18  C   UNL     1       0.683  -0.309  -0.274  1.00  0.00     0.114 C 
ATOM     19  C   UNL     1       0.243   0.613  -1.382  1.00  0.00     0.221 C 
ATOM     20  O   UNL     1      -0.485   0.209  -2.290  1.00  0.00    -0.275 OA
ATOM     21  H   UNL     1       0.051   2.524  -1.920  1.00  0.00     0.169 HD
ENDBRANCH   9  17
ENDBRANCH   5   8
ENDBRANCH   3   4
ENDBRANCH   2   3
ENDBRANCH   1   2
BRANCH   1  22
ATOM     22  C   UNL     1       7.704   8.422   5.658  1.00  0.00     0.116 C 
BRANCH  22  23
ATOM     23  N   UNL     1       8.492   7.269   6.065  1.00  0.00    -0.352 N 
ATOM     24  C   UNL     1       9.458   7.189   7.035  1.00  0.00     0.251 C 
ATOM     25  H   UNL     1       8.307   6.434   5.578  1.00  0.00     0.163 HD
ATOM     26  O   UNL     1      10.120   6.163   7.169  1.00  0.00    -0.269 OA
BRANCH  24  27
ATOM     27  C   UNL     1       9.722   8.357   7.898  1.00  0.00     0.039 A 
ATOM     28  C   UNL     1      11.045   8.742   8.120  1.00  0.00     0.014 A 
ATOM     29  C   UNL     1       8.670   9.078   8.470  1.00  0.00     0.014 A 
ATOM     30  C   UNL     1      11.311   9.881   8.880  1.00  0.00     0.010 A 
ATOM     31  C   UNL     1       8.933  10.261   9.151  1.00  0.00     0.010 A 
ATOM     32  C   UNL     1      10.256  10.665   9.379  1.00  0.00    -0.014 A 
BRANCH  32  33
ATOM     33  C   UNL     1      10.533  11.898  10.155  1.00  0.00     0.031 A 
ATOM     34  C   UNL     1      10.114  11.998  11.595  1.00  0.00     0.074 A 
ATOM     35  C   UNL     1      11.129  12.943   9.551  1.00  0.00     0.049 A 
ATOM     36  N   UNL     1      10.284  12.984  12.441  1.00  0.00    -0.248 NA
ATOM     37  C   UNL     1       9.378  10.853  12.151  1.00  0.00     0.031 C 
ATOM     38  C   UNL     1      11.516  12.994   8.140  1.00  0.00     0.029 A 
ATOM     39  N   UNL     1      11.512  14.164  10.046  1.00  0.00    -0.354 N 
ATOM     40  C   UNL     1       9.668  12.581  13.618  1.00  0.00     0.074 A 
ATOM     41  C   UNL     1       9.059  11.295  13.357  1.00  0.00     0.031 C 
ATOM     42  C   UNL     1      12.113  14.170   7.892  1.00  0.00     0.029 A 
ATOM     43  C   UNL     1      12.123  14.966   9.115  1.00  0.00     0.049 A 
ATOM     44  H   UNL     1      11.363  14.437  10.980  1.00  0.00     0.167 HD
ATOM     45  C   UNL     1       9.637  13.211  14.817  1.00  0.00     0.037 A 
ATOM     46  C   UNL     1      12.638  16.204   9.237  1.00  0.00     0.037 A 
ATOM     47  C   UNL     1      10.258  14.486  15.072  1.00  0.00     0.049 A 
ATOM     48  C   UNL     1      12.614  16.877  10.582  1.00  0.00     0.074 A 
ATOM     49  C   UNL     1      10.344  15.182  16.265  1.00  0.00     0.029 A 
ATOM     50  N   UNL     1      10.890  15.262  14.111  1.00  0.00    -0.354 N 
ATOM     51  N   UNL     1      12.111  16.448  11.714  1.00  0.00    -0.248 NA
ATOM     52  C   UNL     1      13.249  18.198  10.668  1.00  0.00     0.031 C 
ATOM     53  C   UNL     1      10.974  16.406  16.012  1.00  0.00     0.029 A 
ATOM     54  C   UNL     1      11.345  16.443  14.677  1.00  0.00     0.049 A 
ATOM     55  H   UNL     1      11.000  15.011  13.165  1.00  0.00     0.167 HD
ATOM     56  C   UNL     1      12.390  17.433  12.654  1.00  0.00     0.074 A 
ATOM     57  C   UNL     1      13.126  18.470  11.959  1.00  0.00     0.031 C 
ATOM     58  C   UNL     1      12.068  17.473  13.971  1.00  0.00     0.037 A 
BRANCH  45  59
ATOM     59  C   UNL     1       8.896  12.530  15.934  1.00  0.00     0.064 A 
ATOM     60  C   UNL     1       9.338  11.318  16.488  1.00  0.00     0.173 A 
ATOM     61  C   UNL     1       7.722  13.095  16.457  1.00  0.00     0.173 A 
ATOM     62  F   UNL     1      10.448  10.726  16.020  1.00  0.00    -0.203 F 
ATOM     63  C   UNL     1       8.609  10.673  17.485  1.00  0.00     0.198 A 
ATOM     64  C   UNL     1       7.017  12.467  17.481  1.00  0.00     0.198 A 
ATOM     65  F   UNL     1       7.255  14.255  15.972  1.00  0.00    -0.203 F 
ATOM     66  F   UNL     1       9.012   9.480  17.943  1.00  0.00    -0.200 F 
ATOM     67  C   UNL     1       7.452  11.251  17.984  1.00  0.00     0.200 A 
ATOM     68  F   UNL     1       5.906  13.035  17.972  1.00  0.00    -0.200 F 
ATOM     69  F   UNL     1       6.750  10.629  18.941  1.00  0.00    -0.200 F 
ENDBRANCH  45  59
BRANCH  46  70
ATOM     70  C   UNL     1      13.258  16.859   8.057  1.00  0.00     0.064 A 
ATOM     71  C   UNL     1      14.645  17.051   7.981  1.00  0.00     0.173 A 
ATOM     72  C   UNL     1      12.481  17.284   6.970  1.00  0.00     0.173 A 
ATOM     73  F   UNL     1      15.429  16.677   9.003  1.00  0.00    -0.203 F 
ATOM     74  C   UNL     1      15.228  17.657   6.870  1.00  0.00     0.198 A 
ATOM     75  C   UNL     1      13.068  17.862   5.847  1.00  0.00     0.198 A 
ATOM     76  F   UNL     1      11.150  17.115   6.989  1.00  0.00    -0.203 F 
ATOM     77  F   UNL     1      16.552  17.864   6.841  1.00  0.00    -0.200 F 
ATOM     78  C   UNL     1      14.441  18.055   5.801  1.00  0.00     0.200 A 
ATOM     79  F   UNL     1      12.305  18.228   4.808  1.00  0.00    -0.200 F 
ATOM     80  F   UNL     1      15.003  18.625   4.727  1.00  0.00    -0.200 F 
ENDBRANCH  46  70
BRANCH  58  81
ATOM     81  C   UNL     1      12.541  18.666  14.754  1.00  0.00     0.064 A 
ATOM     82  C   UNL     1      12.021  19.952  14.536  1.00  0.00     0.173 A 
ATOM     83  C   UNL     1      13.526  18.519  15.743  1.00  0.00     0.173 A 
ATOM     84  F   UNL     1      11.086  20.151  13.594  1.00  0.00    -0.203 F 
ATOM     85  C   UNL     1      12.503  21.050  15.244  1.00  0.00     0.198 A 
ATOM     86  C   UNL     1      13.978  19.613  16.476  1.00  0.00     0.198 A 
ATOM     87  F   UNL     1      14.051  17.312  16.002  1.00  0.00    -0.203 F 
ATOM     88  F   UNL     1      12.043  22.277  14.967  1.00  0.00    -0.200 F 
ATOM     89  C   UNL     1      13.477  20.879  16.216  1.00  0.00     0.200 A 
ATOM     90  F   UNL     1      14.906  19.442  17.428  1.00  0.00    -0.200 F 
ATOM     91  F   UNL     1      13.941  21.937  16.895  1.00  0.00    -0.200 F 
ENDBRANCH  58  81
ENDBRANCH  32  33
ENDBRANCH  24  27
ENDBRANCH  22  23
ENDBRANCH   1  22
TORSDOF 12
