REMARK SMILES C[C@H]1SCCC[C@@]1(C(=O)NCCCCNC(=O)c1ccc(-c2c3nc(c(-c4c(F)c(F)c(F)c(F)c4F)c4ccc([nH]4)c(-c4c(F)c(F)c(F)c(F)c4F)c4nc(c(-c5c(F)c(F)c(F)c(F)c5F)c5ccc2[nH]5)C=C4)C=C3)cc1)[NH+]1CCCC1
REMARK SMILES IDX 13 1 12 2 11 3 10 4 8 5 9 6 7 8 1 9 2 10 3 11 4 12 6 13 5 14
REMARK SMILES IDX 81 15 82 16 85 17 83 19 84 20 14 21 15 22 16 23 17 25 18 26
REMARK SMILES IDX 19 27 80 28 20 29 79 30 21 31 22 32 23 33 73 34 24 35 78 36
REMARK SMILES IDX 72 37 74 38 25 39 77 40 71 41 70 42 26 44 58 45 38 46 57 47
REMARK SMILES IDX 39 48 42 49 56 50 75 51 40 52 41 53 55 55 76 56 43 57 27 58
REMARK SMILES IDX 28 59 36 60 29 61 30 62 34 63 37 64 31 65 32 66 35 67 33 68
REMARK SMILES IDX 59 69 60 70 68 71 61 72 62 73 66 74 69 75 63 76 64 77 67 78
REMARK SMILES IDX 65 79 44 80 45 81 53 82 46 83 47 84 51 85 54 86 48 87 49 88
REMARK SMILES IDX 52 89 50 90
REMARK H PARENT 10 7 81 18 15 24 74 43 42 54
REMARK Flexibility Score: inf
ROOT
ATOM      1  C   UNL     1       3.006   5.998   3.555  1.00  0.00     0.023 C 
ENDROOT
BRANCH   1   2
ATOM      2  C   UNL     1       1.587   5.479   3.352  1.00  0.00     0.023 C 
BRANCH   2   3
ATOM      3  C   UNL     1       1.277   4.928   1.948  1.00  0.00     0.116 C 
BRANCH   3   4
ATOM      4  N   UNL     1       1.933   3.651   1.750  1.00  0.00    -0.351 N 
ATOM      5  C   UNL     1       1.615   2.333   1.809  1.00  0.00     0.282 C 
ATOM      6  O   UNL     1       2.643   1.645   1.678  1.00  0.00    -0.268 OA
ATOM      7  H   UNL     1       2.878   3.774   1.503  1.00  0.00     0.163 HD
BRANCH   5   8
ATOM      8  C   UNL     1       0.150   1.642   1.906  1.00  0.00     0.188 C 
ATOM      9  C   UNL     1       1.199  -0.664   2.652  1.00  0.00     0.027 C 
ATOM     10  C   UNL     1       0.489   0.118   1.528  1.00  0.00     0.115 C 
ATOM     11  S   UNL     1      -0.872  -0.971   0.930  1.00  0.00    -0.152 SA
ATOM     12  C   UNL     1      -1.581   0.118  -0.316  1.00  0.00     0.070 C 
ATOM     13  C   UNL     1      -0.730   2.278   0.793  1.00  0.00     0.081 C 
ATOM     14  C   UNL     1      -1.923   1.481   0.256  1.00  0.00     0.018 C 
BRANCH   8  15
ATOM     15  N   UNL     1      -0.425   1.707   3.297  1.00  0.00    -0.321 N 
ATOM     16  C   UNL     1      -1.701   1.054   3.597  1.00  0.00     0.263 C 
ATOM     17  C   UNL     1      -0.501   2.983   3.982  1.00  0.00     0.263 C 
ATOM     18  H   UNL     1       0.352   1.147   3.649  1.00  0.00     0.349 HD
ATOM     19  C   UNL     1      -2.733   2.160   3.742  1.00  0.00     0.067 C 
ATOM     20  C   UNL     1      -1.948   3.322   4.290  1.00  0.00     0.067 C 
ENDBRANCH   8  15
ENDBRANCH   5   8
ENDBRANCH   3   4
ENDBRANCH   2   3
ENDBRANCH   1   2
BRANCH   1  21
ATOM     21  C   UNL     1       3.368   7.200   2.707  1.00  0.00     0.116 C 
BRANCH  21  22
ATOM     22  N   UNL     1       2.466   8.327   2.896  1.00  0.00    -0.352 N 
ATOM     23  C   UNL     1       2.768   9.658   3.047  1.00  0.00     0.251 C 
ATOM     24  H   UNL     1       1.507   8.104   2.919  1.00  0.00     0.163 HD
ATOM     25  O   UNL     1       1.889  10.469   3.319  1.00  0.00    -0.269 OA
BRANCH  23  26
ATOM     26  C   UNL     1       4.171  10.096   2.916  1.00  0.00     0.039 A 
ATOM     27  C   UNL     1       4.703  10.957   3.878  1.00  0.00     0.014 A 
ATOM     28  C   UNL     1       4.970   9.615   1.876  1.00  0.00     0.014 A 
ATOM     29  C   UNL     1       6.060  11.278   3.835  1.00  0.00     0.010 A 
ATOM     30  C   UNL     1       6.336   9.857   1.891  1.00  0.00     0.010 A 
ATOM     31  C   UNL     1       6.893  10.698   2.864  1.00  0.00    -0.014 A 
BRANCH  31  32
ATOM     32  C   UNL     1       8.350  10.974   2.834  1.00  0.00     0.031 A 
ATOM     33  C   UNL     1       8.953  11.664   1.643  1.00  0.00     0.074 A 
ATOM     34  C   UNL     1       9.132  10.546   3.844  1.00  0.00     0.049 A 
ATOM     35  N   UNL     1      10.208  11.935   1.390  1.00  0.00    -0.248 NA
ATOM     36  C   UNL     1       8.025  12.075   0.576  1.00  0.00     0.031 C 
ATOM     37  C   UNL     1       8.668   9.817   5.025  1.00  0.00     0.029 A 
ATOM     38  N   UNL     1      10.486  10.658   4.033  1.00  0.00    -0.354 N 
ATOM     39  C   UNL     1      10.218  12.532   0.137  1.00  0.00     0.074 A 
ATOM     40  C   UNL     1       8.857  12.524  -0.350  1.00  0.00     0.031 C 
ATOM     41  C   UNL     1       9.714   9.574   5.831  1.00  0.00     0.029 A 
ATOM     42  C   UNL     1      10.926  10.096   5.207  1.00  0.00     0.049 A 
ATOM     43  H   UNL     1      11.086  11.099   3.389  1.00  0.00     0.167 HD
ATOM     44  C   UNL     1      11.265  13.069  -0.533  1.00  0.00     0.037 A 
ATOM     45  C   UNL     1      12.169  10.013   5.718  1.00  0.00     0.037 A 
ATOM     46  C   UNL     1      12.612  13.101  -0.031  1.00  0.00     0.049 A 
ATOM     47  C   UNL     1      13.315  10.616   4.950  1.00  0.00     0.074 A 
ATOM     48  C   UNL     1      13.735  13.666  -0.606  1.00  0.00     0.029 A 
ATOM     49  N   UNL     1      13.016  12.541   1.173  1.00  0.00    -0.354 N 
ATOM     50  N   UNL     1      13.303  11.241   3.798  1.00  0.00    -0.248 NA
ATOM     51  C   UNL     1      14.647  10.509   5.560  1.00  0.00     0.031 C 
ATOM     52  C   UNL     1      14.828  13.414   0.230  1.00  0.00     0.029 A 
ATOM     53  C   UNL     1      14.376  12.734   1.350  1.00  0.00     0.049 A 
ATOM     54  H   UNL     1      12.423  12.076   1.807  1.00  0.00     0.167 HD
ATOM     55  C   UNL     1      14.614  11.629   3.560  1.00  0.00     0.074 A 
ATOM     56  C   UNL     1      15.393  11.182   4.696  1.00  0.00     0.031 C 
ATOM     57  C   UNL     1      15.129  12.293   2.496  1.00  0.00     0.037 A 
BRANCH  44  58
ATOM     58  C   UNL     1      10.986  13.679  -1.877  1.00  0.00     0.064 A 
ATOM     59  C   UNL     1      10.243  14.863  -2.006  1.00  0.00     0.173 A 
ATOM     60  C   UNL     1      11.487  13.089  -3.046  1.00  0.00     0.173 A 
ATOM     61  F   UNL     1       9.728  15.459  -0.919  1.00  0.00    -0.203 F 
ATOM     62  C   UNL     1       9.986  15.416  -3.257  1.00  0.00     0.198 A 
ATOM     63  C   UNL     1      11.255  13.663  -4.294  1.00  0.00     0.198 A 
ATOM     64  F   UNL     1      12.205  11.958  -2.980  1.00  0.00    -0.203 F 
ATOM     65  F   UNL     1       9.229  16.517  -3.358  1.00  0.00    -0.200 F 
ATOM     66  C   UNL     1      10.499  14.820  -4.399  1.00  0.00     0.200 A 
ATOM     67  F   UNL     1      11.761  13.092  -5.396  1.00  0.00    -0.200 F 
ATOM     68  F   UNL     1      10.256  15.357  -5.603  1.00  0.00    -0.200 F 
ENDBRANCH  44  58
BRANCH  45  69
ATOM     69  C   UNL     1      12.393   9.367   7.037  1.00  0.00     0.064 A 
ATOM     70  C   UNL     1      12.775  10.127   8.152  1.00  0.00     0.173 A 
ATOM     71  C   UNL     1      12.244   7.984   7.211  1.00  0.00     0.173 A 
ATOM     72  F   UNL     1      12.948  11.451   8.031  1.00  0.00    -0.203 F 
ATOM     73  C   UNL     1      13.025   9.524   9.383  1.00  0.00     0.198 A 
ATOM     74  C   UNL     1      12.467   7.386   8.450  1.00  0.00     0.198 A 
ATOM     75  F   UNL     1      11.875   7.212   6.178  1.00  0.00    -0.203 F 
ATOM     76  F   UNL     1      13.438  10.268  10.419  1.00  0.00    -0.200 F 
ATOM     77  C   UNL     1      12.866   8.155   9.533  1.00  0.00     0.200 A 
ATOM     78  F   UNL     1      12.299   6.064   8.594  1.00  0.00    -0.200 F 
ATOM     79  F   UNL     1      13.107   7.576  10.717  1.00  0.00    -0.200 F 
ENDBRANCH  45  69
BRANCH  57  80
ATOM     80  C   UNL     1      16.594  12.615   2.532  1.00  0.00     0.064 A 
ATOM     81  C   UNL     1      17.571  11.621   2.371  1.00  0.00     0.173 A 
ATOM     82  C   UNL     1      17.024  13.941   2.690  1.00  0.00     0.173 A 
ATOM     83  F   UNL     1      17.210  10.336   2.231  1.00  0.00    -0.203 F 
ATOM     84  C   UNL     1      18.925  11.941   2.395  1.00  0.00     0.198 A 
ATOM     85  C   UNL     1      18.378  14.261   2.682  1.00  0.00     0.198 A 
ATOM     86  F   UNL     1      16.129  14.929   2.840  1.00  0.00    -0.203 F 
ATOM     87  F   UNL     1      19.843  10.969   2.289  1.00  0.00    -0.200 F 
ATOM     88  C   UNL     1      19.328  13.260   2.543  1.00  0.00     0.200 A 
ATOM     89  F   UNL     1      18.765  15.537   2.811  1.00  0.00    -0.200 F 
ATOM     90  F   UNL     1      20.632  13.566   2.558  1.00  0.00    -0.200 F 
ENDBRANCH  57  80
ENDBRANCH  31  32
ENDBRANCH  23  26
ENDBRANCH  21  22
ENDBRANCH   1  21
TORSDOF 12
