REMARK SMILES C[C@H]1CN(C(=O)C[N@H+]2CCO[C@H](CC(=O)NCCCCNC(=O)c3ccc(-c4c5nc(c(-c6c(F)c(F)c(F)c(F)c6F)c6ccc([nH]6)c(-c6c(F)c(F)c(F)c(F)c6F)c6nc(c(-c7c(F)c(F)c(F)c(F)c7F)c7ccc4[nH]7)C=C6)C=C5)cc3)C2)CCO1
REMARK SMILES IDX 17 1 16 2 14 3 15 4 13 6 12 7 8 8 9 9 87 10 10 12 11 13 7 14
REMARK SMILES IDX 5 15 6 16 4 17 1 18 2 19 3 20 90 21 89 22 88 23 18 24 19 25
REMARK SMILES IDX 20 26 21 27 22 28 23 30 24 31 25 32 86 33 26 34 85 35 27 36
REMARK SMILES IDX 28 37 29 38 79 39 30 40 84 41 78 42 80 43 31 44 83 45 77 46
REMARK SMILES IDX 76 47 32 49 64 50 44 51 63 52 45 53 48 54 62 55 81 56 46 57
REMARK SMILES IDX 47 58 61 60 82 61 49 62 33 63 34 64 42 65 35 66 36 67 40 68
REMARK SMILES IDX 43 69 37 70 38 71 41 72 39 73 65 74 66 75 74 76 67 77 68 78
REMARK SMILES IDX 72 79 75 80 69 81 70 82 73 83 71 84 50 85 51 86 59 87 52 88
REMARK SMILES IDX 53 89 57 90 60 91 54 92 55 93 58 94 56 95
REMARK H PARENT 16 5 8 11 21 29 80 48 48 59
REMARK Flexibility Score: inf
ROOT
ATOM      1  C   UNL     1      -1.440   4.927   4.979  1.00  0.00     0.116 C 
ENDROOT
BRANCH   1   2
ATOM      2  N   UNL     1      -0.547   4.694   6.098  1.00  0.00    -0.356 N 
ATOM      3  C   UNL     1       0.714   4.181   6.103  1.00  0.00     0.222 C 
ATOM      4  O   UNL     1       1.260   3.991   7.191  1.00  0.00    -0.275 OA
ATOM      5  H   UNL     1      -0.904   4.945   6.980  1.00  0.00     0.163 HD
BRANCH   3   6
ATOM      6  C   UNL     1       1.438   3.883   4.809  1.00  0.00     0.138 C 
BRANCH   6   7
ATOM      7  C   UNL     1       0.855   2.677   4.068  1.00  0.00     0.182 C 
ATOM      8  N   UNL     1       1.496   0.649   2.656  1.00  0.00    -0.323 N 
ATOM      9  C   UNL     1       0.752   1.331   1.579  1.00  0.00     0.291 C 
ATOM     10  C   UNL     1       1.976   1.721   3.571  1.00  0.00     0.295 C 
ATOM     11  H   UNL     1       2.268   0.117   2.256  1.00  0.00     0.348 HD
ATOM     12  C   UNL     1      -0.401   2.194   2.097  1.00  0.00     0.222 C 
ATOM     13  O   UNL     1       0.105   3.211   2.955  1.00  0.00    -0.366 OA
BRANCH   8  14
ATOM     14  C   UNL     1       0.693  -0.367   3.384  1.00  0.00     0.363 C 
BRANCH  14  15
ATOM     15  C   UNL     1       1.170  -1.798   3.078  1.00  0.00     0.277 C 
ATOM     16  O   UNL     1       2.079  -2.297   3.752  1.00  0.00    -0.268 OA
BRANCH  15  17
ATOM     17  N   UNL     1       0.528  -2.530   2.086  1.00  0.00    -0.333 N 
ATOM     18  C   UNL     1       0.038  -1.311  -1.474  1.00  0.00     0.040 C 
ATOM     19  C   UNL     1       0.714  -1.909  -0.250  1.00  0.00     0.134 C 
ATOM     20  C   UNL     1      -0.230  -1.968   0.970  1.00  0.00     0.151 C 
ATOM     21  O   UNL     1       1.147  -3.247  -0.584  1.00  0.00    -0.375 OA
ATOM     22  C   UNL     1       1.856  -3.855   0.518  1.00  0.00     0.182 C 
ATOM     23  C   UNL     1       0.995  -3.885   1.789  1.00  0.00     0.148 C 
ENDBRANCH  15  17
ENDBRANCH  14  15
ENDBRANCH   8  14
ENDBRANCH   6   7
ENDBRANCH   3   6
ENDBRANCH   1   2
BRANCH   1  24
ATOM     24  C   UNL     1      -2.489   3.817   4.874  1.00  0.00     0.023 C 
BRANCH  24  25
ATOM     25  C   UNL     1      -3.536   3.836   5.992  1.00  0.00     0.023 C 
BRANCH  25  26
ATOM     26  C   UNL     1      -4.352   5.120   6.085  1.00  0.00     0.116 C 
BRANCH  26  27
ATOM     27  N   UNL     1      -5.096   5.408   4.870  1.00  0.00    -0.352 N 
ATOM     28  C   UNL     1      -6.368   5.911   4.735  1.00  0.00     0.251 C 
ATOM     29  H   UNL     1      -4.624   5.216   4.027  1.00  0.00     0.163 HD
ATOM     30  O   UNL     1      -6.898   5.963   3.634  1.00  0.00    -0.269 OA
BRANCH  28  31
ATOM     31  C   UNL     1      -7.108   6.356   5.937  1.00  0.00     0.039 A 
ATOM     32  C   UNL     1      -8.440   5.962   6.087  1.00  0.00     0.014 A 
ATOM     33  C   UNL     1      -6.492   7.141   6.915  1.00  0.00     0.014 A 
ATOM     34  C   UNL     1      -9.133   6.302   7.250  1.00  0.00     0.010 A 
ATOM     35  C   UNL     1      -7.159   7.412   8.107  1.00  0.00     0.010 A 
ATOM     36  C   UNL     1      -8.487   6.997   8.286  1.00  0.00    -0.014 A 
BRANCH  36  37
ATOM     37  C   UNL     1      -9.187   7.287   9.563  1.00  0.00     0.031 A 
ATOM     38  C   UNL     1      -9.447   8.706   9.985  1.00  0.00     0.074 A 
ATOM     39  C   UNL     1      -9.548   6.268  10.367  1.00  0.00     0.049 A 
ATOM     40  N   UNL     1     -10.020   9.155  11.074  1.00  0.00    -0.248 NA
ATOM     41  C   UNL     1      -8.979   9.764   9.076  1.00  0.00     0.031 C 
ATOM     42  C   UNL     1      -9.305   4.850  10.095  1.00  0.00     0.029 A 
ATOM     43  N   UNL     1     -10.193   6.266  11.579  1.00  0.00    -0.354 N 
ATOM     44  C   UNL     1      -9.976  10.540  10.982  1.00  0.00     0.074 A 
ATOM     45  C   UNL     1      -9.265  10.859   9.764  1.00  0.00     0.031 C 
ATOM     46  C   UNL     1      -9.822   4.115  11.092  1.00  0.00     0.029 A 
ATOM     47  C   UNL     1     -10.397   5.009  12.093  1.00  0.00     0.049 A 
ATOM     48  H   UNL     1     -10.482   7.089  12.037  1.00  0.00     0.167 HD
ATOM     49  C   UNL     1     -10.506  11.461  11.822  1.00  0.00     0.037 A 
ATOM     50  C   UNL     1     -10.980   4.621  13.243  1.00  0.00     0.037 A 
ATOM     51  C   UNL     1     -11.224  11.138  13.028  1.00  0.00     0.049 A 
ATOM     52  C   UNL     1     -11.543   5.666  14.168  1.00  0.00     0.074 A 
ATOM     53  C   UNL     1     -11.842  11.996  13.921  1.00  0.00     0.029 A 
ATOM     54  N   UNL     1     -11.414   9.852  13.515  1.00  0.00    -0.354 N 
ATOM     55  N   UNL     1     -11.563   6.969  14.033  1.00  0.00    -0.248 NA
ATOM     56  C   UNL     1     -12.174   5.182  15.404  1.00  0.00     0.031 C 
ATOM     57  C   UNL     1     -12.357  11.236  14.975  1.00  0.00     0.029 A 
ATOM     58  C   UNL     1     -12.117   9.897  14.709  1.00  0.00     0.049 A 
ATOM     59  H   UNL     1     -11.096   9.030  13.077  1.00  0.00     0.167 HD
ATOM     60  C   UNL     1     -12.232   7.459  15.147  1.00  0.00     0.074 A 
ATOM     61  C   UNL     1     -12.620   6.310  15.938  1.00  0.00     0.031 C 
ATOM     62  C   UNL     1     -12.501   8.745  15.485  1.00  0.00     0.037 A 
BRANCH  49  63
ATOM     63  C   UNL     1     -10.329  12.910  11.465  1.00  0.00     0.064 A 
ATOM     64  C   UNL     1     -10.977  13.479  10.357  1.00  0.00     0.173 A 
ATOM     65  C   UNL     1      -9.535  13.749  12.260  1.00  0.00     0.173 A 
ATOM     66  F   UNL     1     -11.740  12.719   9.557  1.00  0.00    -0.203 F 
ATOM     67  C   UNL     1     -10.809  14.825  10.040  1.00  0.00     0.198 A 
ATOM     68  C   UNL     1      -9.397  15.102  11.960  1.00  0.00     0.198 A 
ATOM     69  F   UNL     1      -8.898  13.261  13.335  1.00  0.00    -0.203 F 
ATOM     70  F   UNL     1     -11.393  15.331   8.946  1.00  0.00    -0.200 F 
ATOM     71  C   UNL     1     -10.026  15.637  10.846  1.00  0.00     0.200 A 
ATOM     72  F   UNL     1      -8.652  15.889  12.749  1.00  0.00    -0.200 F 
ATOM     73  F   UNL     1      -9.872  16.933  10.545  1.00  0.00    -0.200 F 
ENDBRANCH  49  63
BRANCH  50  74
ATOM     74  C   UNL     1     -11.086   3.175  13.574  1.00  0.00     0.064 A 
ATOM     75  C   UNL     1     -12.332   2.532  13.606  1.00  0.00     0.173 A 
ATOM     76  C   UNL     1      -9.951   2.409  13.877  1.00  0.00     0.173 A 
ATOM     77  F   UNL     1     -13.450   3.226  13.343  1.00  0.00    -0.203 F 
ATOM     78  C   UNL     1     -12.441   1.187  13.953  1.00  0.00     0.198 A 
ATOM     79  C   UNL     1     -10.058   1.056  14.192  1.00  0.00     0.198 A 
ATOM     80  F   UNL     1      -8.734   2.973  13.855  1.00  0.00    -0.203 F 
ATOM     81  F   UNL     1     -13.649   0.613  14.028  1.00  0.00    -0.200 F 
ATOM     82  C   UNL     1     -11.303   0.449  14.241  1.00  0.00     0.200 A 
ATOM     83  F   UNL     1      -8.954   0.342  14.453  1.00  0.00    -0.200 F 
ATOM     84  F   UNL     1     -11.408  -0.845  14.572  1.00  0.00    -0.200 F 
ENDBRANCH  50  74
BRANCH  62  85
ATOM     85  C   UNL     1     -13.285   8.975  16.746  1.00  0.00     0.064 A 
ATOM     86  C   UNL     1     -12.737   8.728  18.014  1.00  0.00     0.173 A 
ATOM     87  C   UNL     1     -14.596   9.473  16.685  1.00  0.00     0.173 A 
ATOM     88  F   UNL     1     -11.493   8.237  18.128  1.00  0.00    -0.203 F 
ATOM     89  C   UNL     1     -13.484   8.937  19.170  1.00  0.00     0.198 A 
ATOM     90  C   UNL     1     -15.326   9.716  17.844  1.00  0.00     0.198 A 
ATOM     91  F   UNL     1     -15.166   9.735  15.499  1.00  0.00    -0.203 F 
ATOM     92  F   UNL     1     -12.961   8.637  20.367  1.00  0.00    -0.200 F 
ATOM     93  C   UNL     1     -14.775   9.438  19.085  1.00  0.00     0.200 A 
ATOM     94  F   UNL     1     -16.567  10.216  17.760  1.00  0.00    -0.200 F 
ATOM     95  F   UNL     1     -15.490   9.643  20.199  1.00  0.00    -0.200 F 
ENDBRANCH  62  85
ENDBRANCH  36  37
ENDBRANCH  28  31
ENDBRANCH  26  27
ENDBRANCH  25  26
ENDBRANCH  24  25
ENDBRANCH   1  24
TORSDOF 15
