REMARK SMILES O=C(NCCCCNC(=O)[C@@H]1C[C@H]1c1cccc(F)c1F)c1ccc(-c2c3nc(c(-c4c(F)c(F)c(F)c(F)c4F)c4ccc([nH]4)c(-c4c(F)c(F)c(F)c(F)c4F)c4nc(c(-c5c(F)c(F)c(F)c(F)c5F)c5ccc2[nH]5)C=C4)C=C3)cc1
REMARK SMILES IDX 5 1 4 2 3 3 1 4 2 5 22 7 23 8 84 9 24 10 83 11 25 12 26 13
REMARK SMILES IDX 27 14 77 15 28 16 82 17 76 18 78 19 29 20 81 21 75 22 74 23
REMARK SMILES IDX 30 25 62 26 42 27 61 28 43 29 46 30 60 31 79 32 44 33 45 34
REMARK SMILES IDX 59 36 80 37 47 38 31 39 32 40 40 41 33 42 34 43 38 44 41 45
REMARK SMILES IDX 35 46 36 47 39 48 37 49 63 50 64 51 72 52 65 53 66 54 70 55
REMARK SMILES IDX 73 56 67 57 68 58 71 59 69 60 48 61 49 62 57 63 50 64 51 65
REMARK SMILES IDX 55 66 58 67 52 68 53 69 56 70 54 71 6 72 7 73 8 74 9 75
REMARK SMILES IDX 10 77 11 78 12 79 13 80 14 81 15 82 20 83 16 84 18 85 21 86
REMARK SMILES IDX 17 87 19 88
REMARK H PARENT 3 6 78 24 46 35 8 76
REMARK Flexibility Score: inf
ROOT
ATOM      1  C   UNL     1       4.941  -1.327  -2.339  1.00  0.00     0.023 C 
ENDROOT
BRANCH   1   2
ATOM      2  C   UNL     1       4.607  -0.198  -1.375  1.00  0.00     0.116 C 
BRANCH   2   3
ATOM      3  N   UNL     1       3.175   0.001  -1.207  1.00  0.00    -0.352 N 
ATOM      4  O   UNL     1       1.206   0.049  -0.101  1.00  0.00    -0.269 OA
ATOM      5  C   UNL     1       2.431   0.009  -0.051  1.00  0.00     0.251 C 
ATOM      6  H   UNL     1       2.668   0.151  -2.038  1.00  0.00     0.163 HD
BRANCH   5   7
ATOM      7  C   UNL     1       3.116  -0.061   1.256  1.00  0.00     0.039 A 
ATOM      8  C   UNL     1       4.242   0.726   1.506  1.00  0.00     0.014 A 
ATOM      9  C   UNL     1       2.638  -0.936   2.235  1.00  0.00     0.014 A 
ATOM     10  C   UNL     1       4.980   0.522   2.664  1.00  0.00     0.010 A 
ATOM     11  C   UNL     1       3.325  -1.064   3.445  1.00  0.00     0.010 A 
ATOM     12  C   UNL     1       4.519  -0.358   3.657  1.00  0.00    -0.014 A 
BRANCH  12  13
ATOM     13  C   UNL     1       5.262  -0.453   4.939  1.00  0.00     0.031 A 
ATOM     14  C   UNL     1       5.908  -1.735   5.379  1.00  0.00     0.074 A 
ATOM     15  C   UNL     1       5.367   0.655   5.698  1.00  0.00     0.049 A 
ATOM     16  N   UNL     1       6.599  -1.976   6.466  1.00  0.00    -0.248 NA
ATOM     17  C   UNL     1       5.758  -2.901   4.496  1.00  0.00     0.031 C 
ATOM     18  C   UNL     1       4.771   1.952   5.371  1.00  0.00     0.029 A 
ATOM     19  N   UNL     1       6.020   0.879   6.883  1.00  0.00    -0.354 N 
ATOM     20  C   UNL     1       6.952  -3.317   6.405  1.00  0.00     0.074 A 
ATOM     21  C   UNL     1       6.375  -3.849   5.189  1.00  0.00     0.031 C 
ATOM     22  C   UNL     1       5.127   2.847   6.301  1.00  0.00     0.029 A 
ATOM     23  C   UNL     1       5.910   2.173   7.330  1.00  0.00     0.049 A 
ATOM     24  H   UNL     1       6.519   0.181   7.366  1.00  0.00     0.167 HD
ATOM     25  C   UNL     1       7.698  -4.030   7.284  1.00  0.00     0.037 A 
ATOM     26  C   UNL     1       6.367   2.753   8.456  1.00  0.00     0.037 A 
ATOM     27  C   UNL     1       8.279  -3.482   8.484  1.00  0.00     0.049 A 
ATOM     28  C   UNL     1       7.157   1.929   9.429  1.00  0.00     0.074 A 
ATOM     29  C   UNL     1       9.086  -4.114   9.414  1.00  0.00     0.029 A 
ATOM     30  N   UNL     1       8.109  -2.177   8.926  1.00  0.00    -0.354 N 
ATOM     31  N   UNL     1       7.515   0.672   9.342  1.00  0.00    -0.248 NA
ATOM     32  C   UNL     1       7.603   2.599  10.656  1.00  0.00     0.031 C 
ATOM     33  C   UNL     1       9.350  -3.214  10.450  1.00  0.00     0.029 A 
ATOM     34  C   UNL     1       8.768  -1.997  10.133  1.00  0.00     0.049 A 
ATOM     35  H   UNL     1       7.598  -1.482   8.452  1.00  0.00     0.167 HD
ATOM     36  C   UNL     1       8.240   0.401  10.493  1.00  0.00     0.074 A 
ATOM     37  C   UNL     1       8.289   1.633  11.254  1.00  0.00     0.031 C 
ATOM     38  C   UNL     1       8.808  -0.766  10.883  1.00  0.00     0.037 A 
BRANCH  25  39
ATOM     39  C   UNL     1       7.930  -5.488   7.001  1.00  0.00     0.064 A 
ATOM     40  C   UNL     1       7.384  -6.470   7.844  1.00  0.00     0.173 A 
ATOM     41  C   UNL     1       8.766  -5.914   5.958  1.00  0.00     0.173 A 
ATOM     42  F   UNL     1       6.585  -6.118   8.862  1.00  0.00    -0.203 F 
ATOM     43  C   UNL     1       7.682  -7.818   7.665  1.00  0.00     0.198 A 
ATOM     44  C   UNL     1       9.037  -7.267   5.763  1.00  0.00     0.198 A 
ATOM     45  F   UNL     1       9.308  -5.020   5.118  1.00  0.00    -0.203 F 
ATOM     46  F   UNL     1       7.182  -8.731   8.509  1.00  0.00    -0.200 F 
ATOM     47  C   UNL     1       8.505  -8.216   6.623  1.00  0.00     0.200 A 
ATOM     48  F   UNL     1       9.814  -7.653   4.742  1.00  0.00    -0.200 F 
ATOM     49  F   UNL     1       8.786  -9.515   6.448  1.00  0.00    -0.200 F 
ENDBRANCH  25  39
BRANCH  26  50
ATOM     50  C   UNL     1       6.078   4.190   8.698  1.00  0.00     0.064 A 
ATOM     51  C   UNL     1       4.767   4.642   8.915  1.00  0.00     0.173 A 
ATOM     52  C   UNL     1       7.098   5.148   8.649  1.00  0.00     0.173 A 
ATOM     53  F   UNL     1       3.753   3.766   8.960  1.00  0.00    -0.203 F 
ATOM     54  C   UNL     1       4.484   6.000   9.039  1.00  0.00     0.198 A 
ATOM     55  C   UNL     1       6.819   6.504   8.807  1.00  0.00     0.198 A 
ATOM     56  F   UNL     1       8.369   4.764   8.460  1.00  0.00    -0.203 F 
ATOM     57  F   UNL     1       3.216   6.407   9.188  1.00  0.00    -0.200 F 
ATOM     58  C   UNL     1       5.511   6.930   8.988  1.00  0.00     0.200 A 
ATOM     59  F   UNL     1       7.816   7.399   8.779  1.00  0.00    -0.200 F 
ATOM     60  F   UNL     1       5.240   8.236   9.112  1.00  0.00    -0.200 F 
ENDBRANCH  26  50
BRANCH  38  61
ATOM     61  C   UNL     1       9.549  -0.775  12.189  1.00  0.00     0.064 A 
ATOM     62  C   UNL     1      10.943  -0.942  12.214  1.00  0.00     0.173 A 
ATOM     63  C   UNL     1       8.875  -0.704  13.416  1.00  0.00     0.173 A 
ATOM     64  F   UNL     1      11.635  -1.022  11.068  1.00  0.00    -0.203 F 
ATOM     65  C   UNL     1      11.630  -1.059  13.419  1.00  0.00     0.198 A 
ATOM     66  C   UNL     1       9.569  -0.788  14.620  1.00  0.00     0.198 A 
ATOM     67  F   UNL     1       7.545  -0.531  13.447  1.00  0.00    -0.203 F 
ATOM     68  F   UNL     1      12.954  -1.262  13.416  1.00  0.00    -0.200 F 
ATOM     69  C   UNL     1      10.943  -0.978  14.621  1.00  0.00     0.200 A 
ATOM     70  F   UNL     1       8.908  -0.683  15.781  1.00  0.00    -0.200 F 
ATOM     71  F   UNL     1      11.606  -1.083  15.780  1.00  0.00    -0.200 F 
ENDBRANCH  38  61
ENDBRANCH  12  13
ENDBRANCH   5   7
ENDBRANCH   2   3
ENDBRANCH   1   2
BRANCH   1  72
ATOM     72  C   UNL     1       4.461  -1.113  -3.773  1.00  0.00     0.023 C 
BRANCH  72  73
ATOM     73  C   UNL     1       4.944   0.183  -4.421  1.00  0.00     0.116 C 
BRANCH  73  74
ATOM     74  N   UNL     1       6.390   0.217  -4.530  1.00  0.00    -0.356 N 
ATOM     75  C   UNL     1       7.187   0.331  -5.633  1.00  0.00     0.223 C 
ATOM     76  H   UNL     1       6.873   0.146  -3.675  1.00  0.00     0.163 HD
ATOM     77  O   UNL     1       8.407   0.268  -5.500  1.00  0.00    -0.275 OA
BRANCH  75  78
ATOM     78  C   UNL     1       6.574   0.564  -6.964  1.00  0.00     0.086 C 
ATOM     79  C   UNL     1       7.095  -0.114  -8.201  1.00  0.00     0.023 C 
ATOM     80  C   UNL     1       7.374   1.353  -7.992  1.00  0.00     0.035 C 
BRANCH  80  81
ATOM     81  C   UNL     1       6.662   2.440  -8.759  1.00  0.00    -0.005 A 
ATOM     82  C   UNL     1       6.110   3.546  -8.080  1.00  0.00     0.007 A 
ATOM     83  C   UNL     1       6.560   2.435 -10.158  1.00  0.00     0.162 A 
ATOM     84  C   UNL     1       5.489   4.595  -8.766  1.00  0.00     0.004 A 
ATOM     85  C   UNL     1       5.943   3.479 -10.842  1.00  0.00     0.159 A 
ATOM     86  F   UNL     1       7.071   1.408 -10.855  1.00  0.00    -0.203 F 
ATOM     87  C   UNL     1       5.409   4.562 -10.155  1.00  0.00     0.042 A 
ATOM     88  F   UNL     1       5.866   3.452 -12.180  1.00  0.00    -0.204 F 
ENDBRANCH  80  81
ENDBRANCH  75  78
ENDBRANCH  73  74
ENDBRANCH  72  73
ENDBRANCH   1  72
TORSDOF 12
