REMARK SMILES O=C(NCCCCNC(=O)c1ccccc1C[N@H+]1CCCC[C@@H]1CCn1cccn1)c1ccc(-c2c3nc(c(-c4c(F)c(F)c(F)c(F)c4F)c4ccc([nH]4)c(-c4c(F)c(F)c(F)c(F)c4F)c4nc(c(-c5c(F)c(F)c(F)c(F)c5F)c5ccc2[nH]5)C=C4)C=C3)cc1
REMARK SMILES IDX 7 1 6 2 5 3 4 4 3 5 1 6 2 7 31 9 32 10 93 11 33 12 92 13
REMARK SMILES IDX 34 14 35 15 36 16 86 17 37 18 91 19 85 20 87 21 38 22 90 23
REMARK SMILES IDX 84 24 83 25 39 27 71 28 51 29 70 30 52 31 55 32 69 33 88 34
REMARK SMILES IDX 53 35 54 36 68 38 89 39 56 40 40 41 41 42 49 43 42 44 43 45
REMARK SMILES IDX 47 46 50 47 44 48 45 49 48 50 46 51 72 52 73 53 81 54 74 55
REMARK SMILES IDX 75 56 79 57 82 58 76 59 77 60 80 61 78 62 57 63 58 64 66 65
REMARK SMILES IDX 59 66 60 67 64 68 67 69 61 70 62 71 65 72 63 73 8 74 9 75
REMARK SMILES IDX 10 77 11 78 12 79 16 80 13 81 15 82 14 83 17 84 18 85 19 86
REMARK SMILES IDX 23 87 20 89 22 90 21 91 24 92 25 93 26 94 27 95 30 96 28 97
REMARK SMILES IDX 29 98
REMARK H PARENT 3 8 87 26 55 37 8 76 18 88
REMARK Flexibility Score: inf
ROOT
ATOM      1  C   UNL     1       4.930   3.025  -2.861  1.00  0.00     0.116 C 
ENDROOT
BRANCH   1   2
ATOM      2  C   UNL     1       4.505   1.602  -3.187  1.00  0.00     0.023 C 
BRANCH   2   3
ATOM      3  C   UNL     1       4.947   0.539  -2.180  1.00  0.00     0.023 C 
BRANCH   3   4
ATOM      4  C   UNL     1       4.636   0.836  -0.711  1.00  0.00     0.116 C 
BRANCH   4   5
ATOM      5  N   UNL     1       3.234   1.024  -0.404  1.00  0.00    -0.352 N 
ATOM      6  O   UNL     1       1.188   0.696   0.371  1.00  0.00    -0.269 OA
ATOM      7  C   UNL     1       2.209   0.176  -0.084  1.00  0.00     0.251 C 
ATOM      8  H   UNL     1       2.957   1.968  -0.431  1.00  0.00     0.163 HD
BRANCH   7   9
ATOM      9  C   UNL     1       2.210  -1.291  -0.334  1.00  0.00     0.039 A 
ATOM     10  C   UNL     1       3.310  -2.047  -0.738  1.00  0.00     0.014 A 
ATOM     11  C   UNL     1       0.960  -1.929  -0.225  1.00  0.00     0.014 A 
ATOM     12  C   UNL     1       3.143  -3.357  -1.170  1.00  0.00     0.010 A 
ATOM     13  C   UNL     1       0.791  -3.248  -0.623  1.00  0.00     0.010 A 
ATOM     14  C   UNL     1       1.875  -3.939  -1.150  1.00  0.00    -0.014 A 
BRANCH  14  15
ATOM     15  C   UNL     1       1.760  -5.338  -1.546  1.00  0.00     0.031 A 
ATOM     16  C   UNL     1       2.495  -6.283  -0.654  1.00  0.00     0.074 A 
ATOM     17  C   UNL     1       0.953  -5.753  -2.543  1.00  0.00     0.049 A 
ATOM     18  N   UNL     1       3.421  -7.131  -0.967  1.00  0.00    -0.248 NA
ATOM     19  C   UNL     1       2.248  -6.182   0.796  1.00  0.00     0.031 C 
ATOM     20  C   UNL     1      -0.019  -4.968  -3.307  1.00  0.00     0.029 A 
ATOM     21  N   UNL     1       0.767  -7.013  -3.027  1.00  0.00    -0.354 N 
ATOM     22  C   UNL     1       3.759  -7.790   0.216  1.00  0.00     0.074 A 
ATOM     23  C   UNL     1       3.112  -7.073   1.281  1.00  0.00     0.031 C 
ATOM     24  C   UNL     1      -0.843  -5.805  -3.979  1.00  0.00     0.029 A 
ATOM     25  C   UNL     1      -0.378  -7.169  -3.800  1.00  0.00     0.049 A 
ATOM     26  H   UNL     1       1.391  -7.752  -2.845  1.00  0.00     0.167 HD
ATOM     27  C   UNL     1       4.369  -9.007   0.199  1.00  0.00     0.037 A 
ATOM     28  C   UNL     1      -0.933  -8.343  -4.197  1.00  0.00     0.037 A 
ATOM     29  C   UNL     1       5.038  -9.232  -1.055  1.00  0.00     0.049 A 
ATOM     30  C   UNL     1       0.109  -9.393  -4.075  1.00  0.00     0.074 A 
ATOM     31  C   UNL     1       6.076  -8.615  -1.728  1.00  0.00     0.029 A 
ATOM     32  N   UNL     1       4.424 -10.031  -1.985  1.00  0.00    -0.354 N 
ATOM     33  N   UNL     1       1.173  -9.448  -4.825  1.00  0.00    -0.248 NA
ATOM     34  C   UNL     1       0.195 -10.106  -2.809  1.00  0.00     0.031 C 
ATOM     35  C   UNL     1       5.712  -8.683  -3.105  1.00  0.00     0.029 A 
ATOM     36  C   UNL     1       4.513  -9.389  -3.191  1.00  0.00     0.049 A 
ATOM     37  H   UNL     1       3.998 -10.903  -1.817  1.00  0.00     0.167 HD
ATOM     38  C   UNL     1       2.192  -9.819  -3.961  1.00  0.00     0.074 A 
ATOM     39  C   UNL     1       1.517 -10.278  -2.748  1.00  0.00     0.031 C 
ATOM     40  C   UNL     1       3.484  -9.451  -4.198  1.00  0.00     0.037 A 
BRANCH  27  41
ATOM     41  C   UNL     1       4.023 -10.143   1.140  1.00  0.00     0.064 A 
ATOM     42  C   UNL     1       4.715 -11.367   1.009  1.00  0.00     0.173 A 
ATOM     43  C   UNL     1       2.843 -10.199   1.913  1.00  0.00     0.173 A 
ATOM     44  F   UNL     1       5.857 -11.437   0.308  1.00  0.00    -0.203 F 
ATOM     45  C   UNL     1       4.196 -12.568   1.500  1.00  0.00     0.198 A 
ATOM     46  C   UNL     1       2.353 -11.393   2.442  1.00  0.00     0.198 A 
ATOM     47  F   UNL     1       2.056  -9.136   2.103  1.00  0.00    -0.203 F 
ATOM     48  F   UNL     1       4.814 -13.723   1.219  1.00  0.00    -0.200 F 
ATOM     49  C   UNL     1       3.005 -12.582   2.200  1.00  0.00     0.200 A 
ATOM     50  F   UNL     1       1.192 -11.386   3.113  1.00  0.00    -0.200 F 
ATOM     51  F   UNL     1       2.463 -13.739   2.601  1.00  0.00    -0.200 F 
ENDBRANCH  27  41
BRANCH  28  52
ATOM     52  C   UNL     1      -2.374  -8.676  -4.319  1.00  0.00     0.064 A 
ATOM     53  C   UNL     1      -2.806  -9.811  -5.028  1.00  0.00     0.173 A 
ATOM     54  C   UNL     1      -3.337  -8.047  -3.504  1.00  0.00     0.173 A 
ATOM     55  F   UNL     1      -1.941 -10.503  -5.783  1.00  0.00    -0.203 F 
ATOM     56  C   UNL     1      -4.116 -10.293  -4.915  1.00  0.00     0.198 A 
ATOM     57  C   UNL     1      -4.643  -8.526  -3.397  1.00  0.00     0.198 A 
ATOM     58  F   UNL     1      -3.001  -7.014  -2.719  1.00  0.00    -0.203 F 
ATOM     59  F   UNL     1      -4.476 -11.412  -5.560  1.00  0.00    -0.200 F 
ATOM     60  C   UNL     1      -5.030  -9.655  -4.093  1.00  0.00     0.200 A 
ATOM     61  F   UNL     1      -5.505  -7.924  -2.565  1.00  0.00    -0.200 F 
ATOM     62  F   UNL     1      -6.266 -10.151  -3.937  1.00  0.00    -0.200 F 
ENDBRANCH  28  52
BRANCH  40  63
ATOM     63  C   UNL     1       3.809  -8.845  -5.532  1.00  0.00     0.064 A 
ATOM     64  C   UNL     1       3.296  -7.614  -5.980  1.00  0.00     0.173 A 
ATOM     65  C   UNL     1       4.800  -9.454  -6.312  1.00  0.00     0.173 A 
ATOM     66  F   UNL     1       2.420  -6.922  -5.242  1.00  0.00    -0.203 F 
ATOM     67  C   UNL     1       3.732  -7.043  -7.174  1.00  0.00     0.198 A 
ATOM     68  C   UNL     1       5.260  -8.863  -7.485  1.00  0.00     0.198 A 
ATOM     69  F   UNL     1       5.365 -10.601  -5.903  1.00  0.00    -0.203 F 
ATOM     70  F   UNL     1       3.226  -5.869  -7.583  1.00  0.00    -0.200 F 
ATOM     71  C   UNL     1       4.721  -7.663  -7.920  1.00  0.00     0.200 A 
ATOM     72  F   UNL     1       6.252  -9.441  -8.175  1.00  0.00    -0.200 F 
ATOM     73  F   UNL     1       5.176  -7.090  -9.043  1.00  0.00    -0.200 F 
ENDBRANCH  40  63
ENDBRANCH  14  15
ENDBRANCH   7   9
ENDBRANCH   4   5
ENDBRANCH   3   4
ENDBRANCH   2   3
ENDBRANCH   1   2
BRANCH   1  74
ATOM     74  N   UNL     1       6.363   3.182  -2.686  1.00  0.00    -0.352 N 
ATOM     75  C   UNL     1       7.187   4.215  -3.075  1.00  0.00     0.251 C 
ATOM     76  H   UNL     1       6.813   2.440  -2.220  1.00  0.00     0.163 HD
ATOM     77  O   UNL     1       8.382   4.166  -2.832  1.00  0.00    -0.269 OA
BRANCH  75  78
ATOM     78  C   UNL     1       6.640   5.351  -3.855  1.00  0.00     0.048 A 
ATOM     79  C   UNL     1       7.241   5.560  -5.110  1.00  0.00     0.014 A 
ATOM     80  C   UNL     1       5.587   6.174  -3.411  1.00  0.00     0.019 A 
ATOM     81  C   UNL     1       6.757   6.538  -5.974  1.00  0.00     0.001 A 
ATOM     82  C   UNL     1       5.071   7.085  -4.345  1.00  0.00     0.010 A 
ATOM     83  C   UNL     1       5.652   7.284  -5.599  1.00  0.00     0.001 A 
BRANCH  80  84
ATOM     84  C   UNL     1       4.977   6.057  -2.024  1.00  0.00     0.300 C 
BRANCH  84  85
ATOM     85  N   UNL     1       4.939   7.250  -1.153  1.00  0.00    -0.329 N 
ATOM     86  C   UNL     1       6.308   7.706  -0.863  1.00  0.00     0.262 C 
ATOM     87  C   UNL     1       4.013   8.342  -1.528  1.00  0.00     0.186 C 
ATOM     88  H   UNL     1       4.499   6.929  -0.291  1.00  0.00     0.348 HD
ATOM     89  C   UNL     1       6.337   8.774   0.223  1.00  0.00     0.062 C 
ATOM     90  C   UNL     1       4.025   9.431  -0.430  1.00  0.00     0.065 C 
ATOM     91  C   UNL     1       5.435   9.937  -0.149  1.00  0.00     0.012 C 
BRANCH  87  92
ATOM     92  C   UNL     1       2.557   7.840  -1.744  1.00  0.00     0.088 C 
BRANCH  92  93
ATOM     93  C   UNL     1       1.576   8.872  -2.318  1.00  0.00     0.150 C 
BRANCH  93  94
ATOM     94  N   UNL     1       1.909   9.312  -3.661  1.00  0.00    -0.273 N 
ATOM     95  C   UNL     1       2.324  10.556  -4.040  1.00  0.00     0.108 A 
ATOM     96  N   UNL     1       1.829   8.446  -4.691  1.00  0.00    -0.182 NA
ATOM     97  C   UNL     1       2.577  10.479  -5.389  1.00  0.00     0.042 A 
ATOM     98  C   UNL     1       2.254   9.156  -5.739  1.00  0.00     0.135 A 
ENDBRANCH  93  94
ENDBRANCH  92  93
ENDBRANCH  87  92
ENDBRANCH  84  85
ENDBRANCH  80  84
ENDBRANCH  75  78
ENDBRANCH   1  74
TORSDOF 16
