REMARK SMILES O=C1O[C@@H](c2ccc(O)c(O)c2)[C@H](C(=O)NCCCCNC(=O)c2ccc(-c3c4nc(c(-c5c(F)c(F)c(F)c(F)c5F)c5ccc([nH]5)c(-c5c(F)c(F)c(F)c(F)c5F)c5nc(c(-c6c(F)c(F)c(F)c(F)c6F)c6ccc3[nH]6)C=C5)C=C4)cc2)/C1=C\c1ccc(O)c(O)c1
REMARK SMILES IDX 18 1 17 2 16 3 14 4 15 5 13 7 1 8 2 9 3 10 87 11 4 12 88 13
REMARK SMILES IDX 5 14 6 15 12 16 7 17 10 18 8 19 11 20 9 22 89 24 90 25 96 26
REMARK SMILES IDX 91 27 94 28 92 29 95 30 93 32 19 34 20 35 21 36 22 37 23 39
REMARK SMILES IDX 24 40 25 41 86 42 26 43 85 44 27 45 28 46 29 47 79 48 30 49
REMARK SMILES IDX 84 50 78 51 80 52 31 53 83 54 77 55 76 56 32 58 64 59 44 60
REMARK SMILES IDX 63 61 45 62 48 63 62 64 81 65 46 66 47 67 61 69 82 70 49 71
REMARK SMILES IDX 33 72 34 73 42 74 35 75 36 76 40 77 43 78 37 79 38 80 41 81
REMARK SMILES IDX 39 82 65 83 66 84 74 85 67 86 68 87 72 88 75 89 69 90 70 91
REMARK SMILES IDX 73 92 71 93 50 94 51 95 59 96 52 97 53 98 57 99 60 100
REMARK SMILES IDX 54 101 55 102 58 103 56 104
REMARK H PARENT 16 6 11 21 9 23 95 31 93 33 21 38 80 57 48 68
REMARK Flexibility Score: inf
ROOT
ATOM      1  C   UNL     1       5.202   1.636   1.346  1.00  0.00     0.023 C 
ENDROOT
BRANCH   1   2
ATOM      2  C   UNL     1       4.083   0.608   1.420  1.00  0.00     0.116 C 
BRANCH   2   3
ATOM      3  N   UNL     1       2.888   1.082   2.089  1.00  0.00    -0.355 N 
ATOM      4  C   UNL     1       1.588   1.135   1.665  1.00  0.00     0.231 C 
ATOM      5  O   UNL     1       0.746   1.422   2.518  1.00  0.00    -0.274 OA
ATOM      6  H   UNL     1       3.037   1.423   3.000  1.00  0.00     0.163 HD
BRANCH   4   7
ATOM      7  C   UNL     1       1.237   0.953   0.183  1.00  0.00     0.161 C 
ATOM      8  O   UNL     1      -1.867  -0.804  -0.086  1.00  0.00    -0.247 OA
ATOM      9  C   UNL     1      -0.711  -0.420  -0.120  1.00  0.00     0.335 C 
ATOM     10  O   UNL     1       0.373  -1.218  -0.267  1.00  0.00    -0.453 OA
ATOM     11  C   UNL     1      -0.239   0.972  -0.037  1.00  0.00     0.054 C 
ATOM     12  C   UNL     1       1.577  -0.437  -0.348  1.00  0.00     0.224 C 
ATOM     13  C   UNL     1      -1.111   1.979  -0.198  1.00  0.00     0.020 C 
BRANCH  12  14
ATOM     14  C   UNL     1       2.174  -0.452  -1.760  1.00  0.00    -0.002 A 
ATOM     15  C   UNL     1       3.213   0.433  -2.131  1.00  0.00     0.012 A 
ATOM     16  C   UNL     1       1.772  -1.414  -2.699  1.00  0.00     0.057 A 
ATOM     17  C   UNL     1       3.847   0.351  -3.375  1.00  0.00     0.050 A 
ATOM     18  C   UNL     1       2.390  -1.474  -3.944  1.00  0.00     0.157 A 
ATOM     19  C   UNL     1       3.427  -0.610  -4.278  1.00  0.00     0.157 A 
BRANCH  18  20
ATOM     20  O   UNL     1       1.973  -2.410  -4.846  1.00  0.00    -0.504 OA
ATOM     21  H   UNL     1       2.380  -2.462  -5.689  1.00  0.00     0.293 HD
ENDBRANCH  18  20
BRANCH  19  22
ATOM     22  O   UNL     1       4.008  -0.748  -5.506  1.00  0.00    -0.504 OA
ATOM     23  H   UNL     1       4.710  -0.180  -5.759  1.00  0.00     0.293 HD
ENDBRANCH  19  22
ENDBRANCH  12  14
BRANCH  13  24
ATOM     24  C   UNL     1      -0.756   3.396  -0.162  1.00  0.00    -0.021 A 
ATOM     25  C   UNL     1       0.101   3.955  -1.122  1.00  0.00     0.012 A 
ATOM     26  C   UNL     1      -1.319   4.212   0.825  1.00  0.00     0.058 A 
ATOM     27  C   UNL     1       0.423   5.315  -1.082  1.00  0.00     0.051 A 
ATOM     28  C   UNL     1      -1.001   5.562   0.852  1.00  0.00     0.157 A 
ATOM     29  C   UNL     1      -0.132   6.111  -0.088  1.00  0.00     0.157 A 
BRANCH  28  30
ATOM     30  O   UNL     1      -1.556   6.358   1.813  1.00  0.00    -0.504 OA
ATOM     31  H   UNL     1      -1.349   7.272   1.842  1.00  0.00     0.293 HD
ENDBRANCH  28  30
BRANCH  29  32
ATOM     32  O   UNL     1       0.142   7.447   0.004  1.00  0.00    -0.504 OA
ATOM     33  H   UNL     1       0.722   7.850  -0.612  1.00  0.00     0.293 HD
ENDBRANCH  29  32
ENDBRANCH  13  24
ENDBRANCH   4   7
ENDBRANCH   2   3
ENDBRANCH   1   2
BRANCH   1  34
ATOM     34  C   UNL     1       5.846   1.968   2.686  1.00  0.00     0.023 C 
BRANCH  34  35
ATOM     35  C   UNL     1       6.313   0.761   3.488  1.00  0.00     0.116 C 
BRANCH  35  36
ATOM     36  N   UNL     1       7.310  -0.047   2.796  1.00  0.00    -0.352 N 
ATOM     37  C   UNL     1       8.490  -0.545   3.301  1.00  0.00     0.251 C 
ATOM     38  H   UNL     1       7.116  -0.263   1.856  1.00  0.00     0.163 HD
ATOM     39  O   UNL     1       9.300  -1.115   2.579  1.00  0.00    -0.269 OA
BRANCH  37  40
ATOM     40  C   UNL     1       8.776  -0.339   4.734  1.00  0.00     0.039 A 
ATOM     41  C   UNL     1       9.959   0.299   5.111  1.00  0.00     0.014 A 
ATOM     42  C   UNL     1       7.807  -0.673   5.683  1.00  0.00     0.014 A 
ATOM     43  C   UNL     1      10.133   0.682   6.443  1.00  0.00     0.010 A 
ATOM     44  C   UNL     1       7.943  -0.208   6.983  1.00  0.00     0.010 A 
ATOM     45  C   UNL     1       9.107   0.473   7.378  1.00  0.00    -0.014 A 
BRANCH  45  46
ATOM     46  C   UNL     1       9.218   0.922   8.788  1.00  0.00     0.031 A 
ATOM     47  C   UNL     1       9.158  -0.102   9.888  1.00  0.00     0.074 A 
ATOM     48  C   UNL     1       9.271   2.235   9.085  1.00  0.00     0.049 A 
ATOM     49  N   UNL     1       9.060   0.071  11.181  1.00  0.00    -0.248 NA
ATOM     50  C   UNL     1       9.173  -1.513   9.469  1.00  0.00     0.031 C 
ATOM     51  C   UNL     1       9.309   3.327   8.112  1.00  0.00     0.029 A 
ATOM     52  N   UNL     1       9.278   2.876  10.301  1.00  0.00    -0.354 N 
ATOM     53  C   UNL     1       8.978  -1.204  11.723  1.00  0.00     0.074 A 
ATOM     54  C   UNL     1       8.973  -2.138  10.619  1.00  0.00     0.031 C 
ATOM     55  C   UNL     1       9.351   4.499   8.767  1.00  0.00     0.029 A 
ATOM     56  C   UNL     1       9.290   4.246  10.203  1.00  0.00     0.049 A 
ATOM     57  H   UNL     1       9.275   2.397  11.161  1.00  0.00     0.167 HD
ATOM     58  C   UNL     1       8.937  -1.567  13.026  1.00  0.00     0.037 A 
ATOM     59  C   UNL     1       9.236   5.189  11.165  1.00  0.00     0.037 A 
ATOM     60  C   UNL     1       8.966  -0.634  14.121  1.00  0.00     0.049 A 
ATOM     61  C   UNL     1       9.151   4.760  12.608  1.00  0.00     0.074 A 
ATOM     62  C   UNL     1       8.967  -0.899  15.478  1.00  0.00     0.029 A 
ATOM     63  N   UNL     1       9.001   0.745  13.980  1.00  0.00    -0.354 N 
ATOM     64  N   UNL     1       9.121   3.551  13.113  1.00  0.00    -0.248 NA
ATOM     65  C   UNL     1       9.097   5.830  13.616  1.00  0.00     0.031 C 
ATOM     66  C   UNL     1       8.949   0.322  16.160  1.00  0.00     0.029 A 
ATOM     67  C   UNL     1       9.007   1.346  15.228  1.00  0.00     0.049 A 
ATOM     68  H   UNL     1       9.019   1.226  13.121  1.00  0.00     0.167 HD
ATOM     69  C   UNL     1       9.093   3.713  14.492  1.00  0.00     0.074 A 
ATOM     70  C   UNL     1       9.111   5.138  14.746  1.00  0.00     0.031 C 
ATOM     71  C   UNL     1       9.062   2.766  15.462  1.00  0.00     0.037 A 
BRANCH  58  72
ATOM     72  C   UNL     1       8.860  -3.034  13.337  1.00  0.00     0.064 A 
ATOM     73  C   UNL     1       9.931  -3.901  13.069  1.00  0.00     0.173 A 
ATOM     74  C   UNL     1       7.713  -3.576  13.934  1.00  0.00     0.173 A 
ATOM     75  F   UNL     1      11.046  -3.436  12.485  1.00  0.00    -0.203 F 
ATOM     76  C   UNL     1       9.843  -5.260  13.355  1.00  0.00     0.198 A 
ATOM     77  C   UNL     1       7.642  -4.929  14.254  1.00  0.00     0.198 A 
ATOM     78  F   UNL     1       6.661  -2.792  14.217  1.00  0.00    -0.203 F 
ATOM     79  F   UNL     1      10.855  -6.077  13.035  1.00  0.00    -0.200 F 
ATOM     80  C   UNL     1       8.702  -5.772  13.955  1.00  0.00     0.200 A 
ATOM     81  F   UNL     1       6.546  -5.419  14.849  1.00  0.00    -0.200 F 
ATOM     82  F   UNL     1       8.622  -7.079  14.239  1.00  0.00    -0.200 F 
ENDBRANCH  58  72
BRANCH  59  83
ATOM     83  C   UNL     1       9.274   6.633  10.806  1.00  0.00     0.064 A 
ATOM     84  C   UNL     1      10.371   7.432  11.162  1.00  0.00     0.173 A 
ATOM     85  C   UNL     1       8.213   7.251  10.130  1.00  0.00     0.173 A 
ATOM     86  F   UNL     1      11.403   6.892  11.827  1.00  0.00    -0.203 F 
ATOM     87  C   UNL     1      10.390   8.797  10.884  1.00  0.00     0.198 A 
ATOM     88  C   UNL     1       8.248   8.611   9.823  1.00  0.00     0.198 A 
ATOM     89  F   UNL     1       7.141   6.534   9.760  1.00  0.00    -0.203 F 
ATOM     90  F   UNL     1      11.425   9.546  11.289  1.00  0.00    -0.200 F 
ATOM     91  C   UNL     1       9.331   9.385  10.211  1.00  0.00     0.200 A 
ATOM     92  F   UNL     1       7.229   9.171   9.157  1.00  0.00    -0.200 F 
ATOM     93  F   UNL     1       9.349  10.698   9.944  1.00  0.00    -0.200 F 
ENDBRANCH  59  83
BRANCH  71  94
ATOM     94  C   UNL     1       9.126   3.225  16.890  1.00  0.00     0.064 A 
ATOM     95  C   UNL     1       8.048   3.863  17.518  1.00  0.00     0.173 A 
ATOM     96  C   UNL     1      10.267   2.951  17.662  1.00  0.00     0.173 A 
ATOM     97  F   UNL     1       6.940   4.160  16.821  1.00  0.00    -0.203 F 
ATOM     98  C   UNL     1       8.115   4.225  18.861  1.00  0.00     0.198 A 
ATOM     99  C   UNL     1      10.318   3.283  19.012  1.00  0.00     0.198 A 
ATOM    100  F   UNL     1      11.324   2.335  17.111  1.00  0.00    -0.203 F 
ATOM    101  F   UNL     1       7.088   4.871  19.430  1.00  0.00    -0.200 F 
ATOM    102  C   UNL     1       9.244   3.925  19.609  1.00  0.00     0.200 A 
ATOM    103  F   UNL     1      11.402   2.975  19.737  1.00  0.00    -0.200 F 
ATOM    104  F   UNL     1       9.298   4.258  20.906  1.00  0.00    -0.200 F 
ENDBRANCH  71  94
ENDBRANCH  45  46
ENDBRANCH  37  40
ENDBRANCH  35  36
ENDBRANCH  34  35
ENDBRANCH   1  34
TORSDOF 17
