REMARK SMILES C[N@@H+]1CC[C@H]2CN(C(=O)c3csc(-c4ccncc4)n3)C[C@@]2(C(=O)NCCCCNC(=O)c2ccc(-c3c4nc(c(-c5c(F)c(F)c(F)c(F)c5F)c5ccc([nH]5)c(-c5c(F)c(F)c(F)c(F)c5F)c5nc(c(-c6c(F)c(F)c(F)c(F)c6F)c6ccc3[nH]6)C=C5)C=C4)cc2)C1
REMARK SMILES IDX 27 1 26 2 25 3 23 4 24 5 22 7 1 8 2 9 3 10 96 11 4 13 5 14
REMARK SMILES IDX 21 15 6 16 7 17 8 18 9 19 10 20 11 21 20 22 12 23 13 24
REMARK SMILES IDX 14 25 15 26 19 27 16 28 18 29 17 30 28 31 29 32 30 33 31 34
REMARK SMILES IDX 32 36 33 37 34 38 95 39 35 40 94 41 36 42 37 43 38 44 88 45
REMARK SMILES IDX 39 46 93 47 87 48 89 49 40 50 92 51 86 52 85 53 41 55 73 56
REMARK SMILES IDX 53 57 72 58 54 59 57 60 71 61 90 62 55 63 56 64 70 66 91 67
REMARK SMILES IDX 58 68 42 69 43 70 51 71 44 72 45 73 49 74 52 75 46 76 47 77
REMARK SMILES IDX 50 78 48 79 74 80 75 81 83 82 76 83 77 84 81 85 84 86 78 87
REMARK SMILES IDX 79 88 82 89 80 90 59 91 60 92 68 93 61 94 62 95 66 96 69 97
REMARK SMILES IDX 63 98 64 99 67 100 65 101
REMARK H PARENT 25 6 2 12 30 35 89 54 57 65
REMARK Flexibility Score: inf
ROOT
ATOM      1  C   UNL     1       1.985   3.906   3.779  1.00  0.00     0.023 C 
ENDROOT
BRANCH   1   2
ATOM      2  C   UNL     1       3.098   4.064   2.737  1.00  0.00     0.116 C 
BRANCH   2   3
ATOM      3  N   UNL     1       3.163   3.096   1.626  1.00  0.00    -0.355 N 
ATOM      4  C   UNL     1       2.553   2.977   0.387  1.00  0.00     0.234 C 
ATOM      5  O   UNL     1       3.150   2.295  -0.452  1.00  0.00    -0.274 OA
ATOM      6  H   UNL     1       3.788   2.358   1.808  1.00  0.00     0.163 HD
BRANCH   4   7
ATOM      7  C   UNL     1       1.124   3.498   0.118  1.00  0.00     0.120 C 
ATOM      8  C   UNL     1       0.503   0.044   0.437  1.00  0.00     0.332 C 
ATOM      9  N   UNL     1      -0.257   1.268   0.186  1.00  0.00    -0.336 N 
ATOM     10  C   UNL     1      -0.487   1.396  -1.252  1.00  0.00     0.262 C 
ATOM     11  C   UNL     1       0.222   2.486   0.894  1.00  0.00     0.281 C 
ATOM     12  H   UNL     1      -1.169   1.176   0.634  1.00  0.00     0.347 HD
ATOM     13  C   UNL     1      -0.675   2.833  -1.651  1.00  0.00     0.068 C 
ATOM     14  C   UNL     1       0.612   3.612  -1.370  1.00  0.00     0.037 C 
ATOM     15  C   UNL     1       1.144   4.980   0.540  1.00  0.00     0.143 C 
ATOM     16  C   UNL     1       0.283   5.081  -1.646  1.00  0.00     0.125 C 
ATOM     17  N   UNL     1       1.018   5.785  -0.656  1.00  0.00    -0.336 N 
BRANCH  17  18
ATOM     18  C   UNL     1       1.475   7.074  -0.880  1.00  0.00     0.273 C 
ATOM     19  O   UNL     1       0.953   7.807  -1.719  1.00  0.00    -0.267 OA
BRANCH  18  20
ATOM     20  C   UNL     1       2.645   7.526  -0.112  1.00  0.00     0.139 A 
ATOM     21  C   UNL     1       2.739   8.776   0.471  1.00  0.00     0.101 A 
ATOM     22  N   UNL     1       3.817   6.761  -0.018  1.00  0.00    -0.231 NA
ATOM     23  S   UNL     1       4.287   8.995   1.169  1.00  0.00    -0.122 S 
ATOM     24  C   UNL     1       4.767   7.449   0.584  1.00  0.00     0.124 A 
BRANCH  24  25
ATOM     25  C   UNL     1       6.162   7.024   0.723  1.00  0.00     0.013 A 
ATOM     26  C   UNL     1       6.948   6.830  -0.417  1.00  0.00     0.031 A 
ATOM     27  C   UNL     1       6.740   6.815   1.978  1.00  0.00     0.031 A 
ATOM     28  C   UNL     1       8.272   6.457  -0.254  1.00  0.00     0.111 A 
ATOM     29  C   UNL     1       8.071   6.434   2.037  1.00  0.00     0.111 A 
ATOM     30  N   UNL     1       8.849   6.253   0.949  1.00  0.00    -0.265 NA
ENDBRANCH  24  25
ENDBRANCH  18  20
ENDBRANCH  17  18
ENDBRANCH   4   7
ENDBRANCH   2   3
ENDBRANCH   1   2
BRANCH   1  31
ATOM     31  C   UNL     1       2.325   3.021   4.984  1.00  0.00     0.023 C 
BRANCH  31  32
ATOM     32  C   UNL     1       3.711   3.223   5.590  1.00  0.00     0.116 C 
BRANCH  32  33
ATOM     33  N   UNL     1       4.041   4.609   5.889  1.00  0.00    -0.352 N 
ATOM     34  C   UNL     1       4.944   5.098   6.802  1.00  0.00     0.251 C 
ATOM     35  H   UNL     1       3.552   5.286   5.368  1.00  0.00     0.163 HD
ATOM     36  O   UNL     1       5.080   6.311   6.945  1.00  0.00    -0.269 OA
BRANCH  34  37
ATOM     37  C   UNL     1       5.711   4.162   7.651  1.00  0.00     0.039 A 
ATOM     38  C   UNL     1       5.764   4.403   9.026  1.00  0.00     0.014 A 
ATOM     39  C   UNL     1       6.335   3.035   7.111  1.00  0.00     0.014 A 
ATOM     40  C   UNL     1       6.379   3.474   9.865  1.00  0.00     0.010 A 
ATOM     41  C   UNL     1       6.873   2.068   7.957  1.00  0.00     0.010 A 
ATOM     42  C   UNL     1       6.899   2.277   9.342  1.00  0.00    -0.014 A 
BRANCH  42  43
ATOM     43  C   UNL     1       7.444   1.236  10.250  1.00  0.00     0.031 A 
ATOM     44  C   UNL     1       8.896   0.853  10.196  1.00  0.00     0.074 A 
ATOM     45  C   UNL     1       6.612   0.615  11.109  1.00  0.00     0.049 A 
ATOM     46  N   UNL     1       9.555   0.006  10.947  1.00  0.00    -0.248 NA
ATOM     47  C   UNL     1       9.712   1.483   9.147  1.00  0.00     0.031 C 
ATOM     48  C   UNL     1       5.169   0.845  11.200  1.00  0.00     0.029 A 
ATOM     49  N   UNL     1       6.859  -0.329  12.074  1.00  0.00    -0.354 N 
ATOM     50  C   UNL     1      10.856   0.003  10.462  1.00  0.00     0.074 A 
ATOM     51  C   UNL     1      10.880   0.880   9.312  1.00  0.00     0.031 C 
ATOM     52  C   UNL     1       4.667   0.100  12.197  1.00  0.00     0.029 A 
ATOM     53  C   UNL     1       5.744  -0.682  12.795  1.00  0.00     0.049 A 
ATOM     54  H   UNL     1       7.750  -0.715  12.235  1.00  0.00     0.167 HD
ATOM     55  C   UNL     1      11.939  -0.648  10.951  1.00  0.00     0.037 A 
ATOM     56  C   UNL     1       5.609  -1.532  13.829  1.00  0.00     0.037 A 
ATOM     57  C   UNL     1      11.910  -1.513  12.102  1.00  0.00     0.049 A 
ATOM     58  C   UNL     1       6.831  -2.230  14.362  1.00  0.00     0.074 A 
ATOM     59  C   UNL     1      12.961  -2.177  12.712  1.00  0.00     0.029 A 
ATOM     60  N   UNL     1      10.765  -1.841  12.814  1.00  0.00    -0.354 N 
ATOM     61  N   UNL     1       8.075  -2.153  13.954  1.00  0.00    -0.248 NA
ATOM     62  C   UNL     1       6.630  -3.122  15.511  1.00  0.00     0.031 C 
ATOM     63  C   UNL     1      12.444  -2.948  13.759  1.00  0.00     0.029 A 
ATOM     64  C   UNL     1      11.080  -2.717  13.842  1.00  0.00     0.049 A 
ATOM     65  H   UNL     1       9.862  -1.502  12.618  1.00  0.00     0.167 HD
ATOM     66  C   UNL     1       8.808  -2.965  14.808  1.00  0.00     0.074 A 
ATOM     67  C   UNL     1       7.872  -3.500  15.776  1.00  0.00     0.031 C 
ATOM     68  C   UNL     1      10.134  -3.249  14.791  1.00  0.00     0.037 A 
BRANCH  55  69
ATOM     69  C   UNL     1      13.249  -0.445  10.243  1.00  0.00     0.064 A 
ATOM     70  C   UNL     1      13.918   0.790  10.271  1.00  0.00     0.173 A 
ATOM     71  C   UNL     1      13.863  -1.504   9.557  1.00  0.00     0.173 A 
ATOM     72  F   UNL     1      13.371   1.840  10.901  1.00  0.00    -0.203 F 
ATOM     73  C   UNL     1      15.134   0.964   9.615  1.00  0.00     0.198 A 
ATOM     74  C   UNL     1      15.095  -1.336   8.930  1.00  0.00     0.198 A 
ATOM     75  F   UNL     1      13.271  -2.707   9.501  1.00  0.00    -0.203 F 
ATOM     76  F   UNL     1      15.726   2.166   9.612  1.00  0.00    -0.200 F 
ATOM     77  C   UNL     1      15.726  -0.101   8.952  1.00  0.00     0.200 A 
ATOM     78  F   UNL     1      15.672  -2.369   8.302  1.00  0.00    -0.200 F 
ATOM     79  F   UNL     1      16.900   0.065   8.329  1.00  0.00    -0.200 F 
ENDBRANCH  55  69
BRANCH  56  80
ATOM     80  C   UNL     1       4.277  -1.738  14.457  1.00  0.00     0.064 A 
ATOM     81  C   UNL     1       4.015  -1.289  15.760  1.00  0.00     0.173 A 
ATOM     82  C   UNL     1       3.242  -2.392  13.773  1.00  0.00     0.173 A 
ATOM     83  F   UNL     1       4.977  -0.673  16.462  1.00  0.00    -0.203 F 
ATOM     84  C   UNL     1       2.779  -1.512  16.364  1.00  0.00     0.198 A 
ATOM     85  C   UNL     1       1.996  -2.585  14.366  1.00  0.00     0.198 A 
ATOM     86  F   UNL     1       3.437  -2.833  12.522  1.00  0.00    -0.203 F 
ATOM     87  F   UNL     1       2.574  -1.119  17.629  1.00  0.00    -0.200 F 
ATOM     88  C   UNL     1       1.769  -2.154  15.665  1.00  0.00     0.200 A 
ATOM     89  F   UNL     1       1.017  -3.190  13.681  1.00  0.00    -0.200 F 
ATOM     90  F   UNL     1       0.579  -2.364  16.244  1.00  0.00    -0.200 F 
ENDBRANCH  56  80
BRANCH  68  91
ATOM     91  C   UNL     1      10.647  -4.161  15.870  1.00  0.00     0.064 A 
ATOM     92  C   UNL     1      10.298  -5.520  15.915  1.00  0.00     0.173 A 
ATOM     93  C   UNL     1      11.492  -3.668  16.876  1.00  0.00     0.173 A 
ATOM     94  F   UNL     1       9.483  -6.039  14.985  1.00  0.00    -0.203 F 
ATOM     95  C   UNL     1      10.734  -6.338  16.954  1.00  0.00     0.198 A 
ATOM     96  C   UNL     1      11.957  -4.498  17.892  1.00  0.00     0.198 A 
ATOM     97  F   UNL     1      11.865  -2.380  16.876  1.00  0.00    -0.203 F 
ATOM     98  F   UNL     1      10.325  -7.612  17.017  1.00  0.00    -0.200 F 
ATOM     99  C   UNL     1      11.566  -5.827  17.939  1.00  0.00     0.200 A 
ATOM    100  F   UNL     1      12.774  -4.007  18.835  1.00  0.00    -0.200 F 
ATOM    101  F   UNL     1      11.980  -6.614  18.942  1.00  0.00    -0.200 F 
ENDBRANCH  68  91
ENDBRANCH  42  43
ENDBRANCH  34  37
ENDBRANCH  32  33
ENDBRANCH  31  32
ENDBRANCH   1  31
TORSDOF 14
