REMARK SMILES CC[C@H]1CC[C@@](C(=O)NCCCCNC(=O)c2ccc(-c3c4nc(c(-c5c(F)c(F)c(F)c(F)c5F)c5ccc([nH]5)c(-c5c(F)c(F)c(F)c(F)c5F)c5nc(c(-c6c(F)c(F)c(F)c(F)c6F)c6ccc3[nH]6)C=C5)C=C4)cc2)(C2CCCC2)C1
REMARK SMILES IDX 12 1 11 2 10 3 9 4 7 5 8 6 6 8 3 9 4 10 85 11 5 12 2 13 1 14
REMARK SMILES IDX 80 15 81 16 84 17 82 18 83 19 13 20 14 21 15 22 16 24 17 25
REMARK SMILES IDX 18 26 79 27 19 28 78 29 20 30 21 31 22 32 72 33 23 34 77 35
REMARK SMILES IDX 71 36 73 37 24 38 76 39 70 40 69 41 25 43 57 44 37 45 56 46
REMARK SMILES IDX 38 47 41 48 55 49 74 50 39 51 40 52 54 54 75 55 42 56 26 57
REMARK SMILES IDX 27 58 35 59 28 60 29 61 33 62 36 63 30 64 31 65 34 66 32 67
REMARK SMILES IDX 58 68 59 69 67 70 60 71 61 72 65 73 68 74 62 75 63 76 66 77
REMARK SMILES IDX 64 78 43 79 44 80 52 81 45 82 46 83 50 84 53 85 47 86 48 87
REMARK SMILES IDX 51 88 49 89
REMARK H PARENT 9 7 14 23 73 42 41 53
REMARK Flexibility Score: inf
ROOT
ATOM      1  C   UNL     1      -3.940   6.318   0.465  1.00  0.00     0.023 C 
ENDROOT
BRANCH   1   2
ATOM      2  C   UNL     1      -2.666   5.557   0.837  1.00  0.00     0.023 C 
BRANCH   2   3
ATOM      3  C   UNL     1      -2.258   4.468  -0.152  1.00  0.00     0.116 C 
BRANCH   3   4
ATOM      4  N   UNL     1      -1.874   5.010  -1.436  1.00  0.00    -0.356 N 
ATOM      5  C   UNL     1      -0.696   5.059  -2.108  1.00  0.00     0.226 C 
ATOM      6  O   UNL     1      -0.784   5.545  -3.241  1.00  0.00    -0.274 OA
ATOM      7  H   UNL     1      -2.620   5.430  -1.922  1.00  0.00     0.163 HD
BRANCH   5   8
ATOM      8  C   UNL     1       0.654   4.500  -1.560  1.00  0.00     0.052 C 
ATOM      9  C   UNL     1       0.799   2.549   0.017  1.00  0.00    -0.010 C 
ATOM     10  C   UNL     1       1.131   3.822   0.791  1.00  0.00     0.005 C 
ATOM     11  C   UNL     1       0.553   2.954  -1.443  1.00  0.00     0.020 C 
ATOM     12  C   UNL     1       0.993   5.012  -0.149  1.00  0.00     0.017 C 
BRANCH   9  13
ATOM     13  C   UNL     1       1.785   1.396   0.300  1.00  0.00     0.000 C 
ATOM     14  C   UNL     1       2.989   1.258  -0.616  1.00  0.00     0.004 C 
ENDBRANCH   9  13
BRANCH   8  15
ATOM     15  C   UNL     1       1.770   4.909  -2.597  1.00  0.00     0.004 C 
ATOM     16  C   UNL     1       2.062   6.418  -2.694  1.00  0.00     0.005 C 
ATOM     17  C   UNL     1       3.172   4.333  -2.361  1.00  0.00     0.005 C 
ATOM     18  C   UNL     1       3.353   6.491  -3.497  1.00  0.00     0.000 C 
ATOM     19  C   UNL     1       4.133   5.234  -3.135  1.00  0.00     0.000 C 
ENDBRANCH   8  15
ENDBRANCH   5   8
ENDBRANCH   3   4
ENDBRANCH   2   3
ENDBRANCH   1   2
BRANCH   1  20
ATOM     20  C   UNL     1      -5.180   5.456   0.246  1.00  0.00     0.116 C 
BRANCH  20  21
ATOM     21  N   UNL     1      -5.521   4.640   1.401  1.00  0.00    -0.352 N 
ATOM     22  C   UNL     1      -6.742   4.448   2.004  1.00  0.00     0.251 C 
ATOM     23  H   UNL     1      -4.769   4.155   1.811  1.00  0.00     0.163 HD
ATOM     24  O   UNL     1      -6.824   3.814   3.047  1.00  0.00    -0.269 OA
BRANCH  22  25
ATOM     25  C   UNL     1      -7.956   5.046   1.406  1.00  0.00     0.039 A 
ATOM     26  C   UNL     1      -8.828   5.760   2.232  1.00  0.00     0.014 A 
ATOM     27  C   UNL     1      -8.219   4.926   0.040  1.00  0.00     0.014 A 
ATOM     28  C   UNL     1      -9.919   6.427   1.671  1.00  0.00     0.010 A 
ATOM     29  C   UNL     1      -9.267   5.646  -0.527  1.00  0.00     0.010 A 
ATOM     30  C   UNL     1     -10.120   6.414   0.281  1.00  0.00    -0.014 A 
BRANCH  30  31
ATOM     31  C   UNL     1     -11.190   7.228  -0.349  1.00  0.00     0.031 A 
ATOM     32  C   UNL     1     -12.316   6.564  -1.089  1.00  0.00     0.074 A 
ATOM     33  C   UNL     1     -11.097   8.572  -0.327  1.00  0.00     0.049 A 
ATOM     34  N   UNL     1     -13.290   7.108  -1.774  1.00  0.00    -0.248 NA
ATOM     35  C   UNL     1     -12.335   5.093  -1.082  1.00  0.00     0.031 C 
ATOM     36  C   UNL     1     -10.020   9.335   0.307  1.00  0.00     0.029 A 
ATOM     37  N   UNL     1     -11.909   9.537  -0.870  1.00  0.00    -0.354 N 
ATOM     38  C   UNL     1     -14.024   6.050  -2.293  1.00  0.00     0.074 A 
ATOM     39  C   UNL     1     -13.360   4.832  -1.880  1.00  0.00     0.031 C 
ATOM     40  C   UNL     1     -10.243  10.646   0.128  1.00  0.00     0.029 A 
ATOM     41  C   UNL     1     -11.456  10.818  -0.666  1.00  0.00     0.049 A 
ATOM     42  H   UNL     1     -12.738   9.331  -1.359  1.00  0.00     0.167 HD
ATOM     43  C   UNL     1     -15.159   6.092  -3.031  1.00  0.00     0.037 A 
ATOM     44  C   UNL     1     -11.952  11.998  -1.085  1.00  0.00     0.037 A 
ATOM     45  C   UNL     1     -15.834   7.306  -3.411  1.00  0.00     0.049 A 
ATOM     46  C   UNL     1     -13.217  12.015  -1.899  1.00  0.00     0.074 A 
ATOM     47  C   UNL     1     -17.038   7.449  -4.077  1.00  0.00     0.029 A 
ATOM     48  N   UNL     1     -15.358   8.585  -3.165  1.00  0.00    -0.354 N 
ATOM     49  N   UNL     1     -13.953  11.009  -2.306  1.00  0.00    -0.248 NA
ATOM     50  C   UNL     1     -13.724  13.332  -2.310  1.00  0.00     0.031 C 
ATOM     51  C   UNL     1     -17.266   8.814  -4.280  1.00  0.00     0.029 A 
ATOM     52  C   UNL     1     -16.230   9.523  -3.696  1.00  0.00     0.049 A 
ATOM     53  H   UNL     1     -14.525   8.796  -2.684  1.00  0.00     0.167 HD
ATOM     54  C   UNL     1     -15.016  11.570  -3.000  1.00  0.00     0.074 A 
ATOM     55  C   UNL     1     -14.842  13.006  -2.942  1.00  0.00     0.031 C 
ATOM     56  C   UNL     1     -16.043  10.950  -3.631  1.00  0.00     0.037 A 
BRANCH  43  57
ATOM     57  C   UNL     1     -15.751   4.788  -3.478  1.00  0.00     0.064 A 
ATOM     58  C   UNL     1     -16.368   3.910  -2.573  1.00  0.00     0.173 A 
ATOM     59  C   UNL     1     -15.751   4.436  -4.836  1.00  0.00     0.173 A 
ATOM     60  F   UNL     1     -16.387   4.195  -1.262  1.00  0.00    -0.203 F 
ATOM     61  C   UNL     1     -16.941   2.719  -3.009  1.00  0.00     0.198 A 
ATOM     62  C   UNL     1     -16.351   3.258  -5.272  1.00  0.00     0.198 A 
ATOM     63  F   UNL     1     -15.180   5.243  -5.744  1.00  0.00    -0.203 F 
ATOM     64  F   UNL     1     -17.488   1.876  -2.122  1.00  0.00    -0.200 F 
ATOM     65  C   UNL     1     -16.939   2.397  -4.358  1.00  0.00     0.200 A 
ATOM     66  F   UNL     1     -16.360   2.956  -6.578  1.00  0.00    -0.200 F 
ATOM     67  F   UNL     1     -17.502   1.256  -4.777  1.00  0.00    -0.200 F 
ENDBRANCH  43  57
BRANCH  44  68
ATOM     68  C   UNL     1     -11.254  13.263  -0.739  1.00  0.00     0.064 A 
ATOM     69  C   UNL     1     -11.823  14.178   0.158  1.00  0.00     0.173 A 
ATOM     70  C   UNL     1     -10.011  13.589  -1.302  1.00  0.00     0.173 A 
ATOM     71  F   UNL     1     -13.019  13.922   0.707  1.00  0.00    -0.203 F 
ATOM     72  C   UNL     1     -11.187  15.381   0.460  1.00  0.00     0.198 A 
ATOM     73  C   UNL     1      -9.362  14.778  -0.977  1.00  0.00     0.198 A 
ATOM     74  F   UNL     1      -9.422  12.745  -2.162  1.00  0.00    -0.203 F 
ATOM     75  F   UNL     1     -11.776  16.259   1.283  1.00  0.00    -0.200 F 
ATOM     76  C   UNL     1      -9.955  15.677  -0.103  1.00  0.00     0.200 A 
ATOM     77  F   UNL     1      -8.165  15.054  -1.512  1.00  0.00    -0.200 F 
ATOM     78  F   UNL     1      -9.342  16.832   0.190  1.00  0.00    -0.200 F 
ENDBRANCH  44  68
BRANCH  56  79
ATOM     79  C   UNL     1     -17.069  11.821  -4.295  1.00  0.00     0.064 A 
ATOM     80  C   UNL     1     -16.783  12.520  -5.476  1.00  0.00     0.173 A 
ATOM     81  C   UNL     1     -18.364  11.924  -3.767  1.00  0.00     0.173 A 
ATOM     82  F   UNL     1     -15.554  12.468  -6.011  1.00  0.00    -0.203 F 
ATOM     83  C   UNL     1     -17.751  13.308  -6.093  1.00  0.00     0.198 A 
ATOM     84  C   UNL     1     -19.338  12.688  -4.402  1.00  0.00     0.198 A 
ATOM     85  F   UNL     1     -18.690  11.270  -2.641  1.00  0.00    -0.203 F 
ATOM     86  F   UNL     1     -17.443  14.004  -7.196  1.00  0.00    -0.200 F 
ATOM     87  C   UNL     1     -19.029  13.385  -5.560  1.00  0.00     0.200 A 
ATOM     88  F   UNL     1     -20.577  12.751  -3.893  1.00  0.00    -0.200 F 
ATOM     89  F   UNL     1     -19.962  14.137  -6.160  1.00  0.00    -0.200 F 
ENDBRANCH  56  79
ENDBRANCH  30  31
ENDBRANCH  22  25
ENDBRANCH  20  21
ENDBRANCH   1  20
TORSDOF 13
