REMARK SMILES O=C(/C=C/c1cccs1)NCC(=O)NCCCCNC(=O)c1ccc(-c2c3nc(c(-c4c(F)c(F)c(F)c(F)c4F)c4ccc([nH]4)c(-c4c(F)c(F)c(F)c(F)c4F)c4nc(c(-c5c(F)c(F)c(F)c(F)c5F)c5ccc2[nH]5)C=C4)C=C3)cc1
REMARK SMILES IDX 16 1 15 2 14 3 12 4 13 5 11 7 10 8 1 9 2 10 3 12 4 13 5 14
REMARK SMILES IDX 6 15 9 16 7 17 8 18 17 19 18 20 19 21 20 22 21 24 22 25
REMARK SMILES IDX 23 26 84 27 24 28 83 29 25 30 26 31 27 32 77 33 28 34 82 35
REMARK SMILES IDX 76 36 78 37 29 38 81 39 75 40 74 41 30 43 62 44 42 45 61 46
REMARK SMILES IDX 43 47 46 48 60 49 79 50 44 51 45 52 59 54 80 55 47 56 31 57
REMARK SMILES IDX 32 58 40 59 33 60 34 61 38 62 41 63 35 64 36 65 39 66 37 67
REMARK SMILES IDX 63 68 64 69 72 70 65 71 66 72 70 73 73 74 67 75 68 76 71 77
REMARK SMILES IDX 69 78 48 79 49 80 57 81 50 82 51 83 55 84 58 85 52 86 53 87
REMARK SMILES IDX 56 88 54 89
REMARK H PARENT 14 6 10 11 19 23 78 42 46 53
REMARK Flexibility Score: inf
ROOT
ATOM      1  C   UNL     1       2.541  -0.613   3.343  1.00  0.00     0.023 C 
ENDROOT
BRANCH   1   2
ATOM      2  C   UNL     1       1.555   0.533   3.116  1.00  0.00     0.116 C 
BRANCH   2   3
ATOM      3  N   UNL     1       2.205   1.822   3.246  1.00  0.00    -0.355 N 
ATOM      4  C   UNL     1       2.572   2.693   2.260  1.00  0.00     0.239 C 
ATOM      5  O   UNL     1       3.125   3.745   2.584  1.00  0.00    -0.273 OA
ATOM      6  H   UNL     1       2.409   2.107   4.165  1.00  0.00     0.163 HD
BRANCH   4   7
ATOM      7  C   UNL     1       2.254   2.377   0.797  1.00  0.00     0.216 C 
BRANCH   7   8
ATOM      8  N   UNL     1       2.966   1.202   0.321  1.00  0.00    -0.343 N 
ATOM      9  O   UNL     1       1.097   0.117  -0.426  1.00  0.00    -0.270 OA
ATOM     10  C   UNL     1       2.312   0.149  -0.254  1.00  0.00     0.244 C 
ATOM     11  H   UNL     1       3.946   1.163   0.415  1.00  0.00     0.164 HD
BRANCH  10  12
ATOM     12  C   UNL     1       3.122  -1.019  -0.674  1.00  0.00     0.072 C 
ATOM     13  C   UNL     1       4.426  -1.228  -0.440  1.00  0.00     0.024 C 
BRANCH  13  14
ATOM     14  C   UNL     1       5.067  -2.423  -0.883  1.00  0.00     0.027 A 
ATOM     15  C   UNL     1       4.780  -3.253  -1.956  1.00  0.00     0.020 A 
ATOM     16  S   UNL     1       6.440  -3.013  -0.023  1.00  0.00    -0.144 S 
ATOM     17  C   UNL     1       5.662  -4.368  -2.054  1.00  0.00     0.012 A 
ATOM     18  C   UNL     1       6.605  -4.364  -1.053  1.00  0.00     0.065 A 
ENDBRANCH  13  14
ENDBRANCH  10  12
ENDBRANCH   7   8
ENDBRANCH   4   7
ENDBRANCH   2   3
ENDBRANCH   1   2
BRANCH   1  19
ATOM     19  C   UNL     1       3.031  -0.744   4.788  1.00  0.00     0.023 C 
BRANCH  19  20
ATOM     20  C   UNL     1       1.935  -0.933   5.832  1.00  0.00     0.116 C 
BRANCH  20  21
ATOM     21  N   UNL     1       1.128  -2.120   5.601  1.00  0.00    -0.352 N 
ATOM     22  C   UNL     1       0.656  -3.035   6.510  1.00  0.00     0.251 C 
ATOM     23  H   UNL     1       0.886  -2.292   4.663  1.00  0.00     0.163 HD
ATOM     24  O   UNL     1       0.099  -4.059   6.123  1.00  0.00    -0.269 OA
BRANCH  22  25
ATOM     25  C   UNL     1       0.848  -2.805   7.958  1.00  0.00     0.039 A 
ATOM     26  C   UNL     1       1.272  -3.870   8.756  1.00  0.00     0.014 A 
ATOM     27  C   UNL     1       0.614  -1.551   8.530  1.00  0.00     0.014 A 
ATOM     28  C   UNL     1       1.515  -3.664  10.115  1.00  0.00     0.010 A 
ATOM     29  C   UNL     1       0.933  -1.327   9.866  1.00  0.00     0.010 A 
ATOM     30  C   UNL     1       1.379  -2.383  10.676  1.00  0.00    -0.014 A 
BRANCH  30  31
ATOM     31  C   UNL     1       1.694  -2.139  12.107  1.00  0.00     0.031 A 
ATOM     32  C   UNL     1       0.616  -1.693  13.057  1.00  0.00     0.074 A 
ATOM     33  C   UNL     1       2.961  -2.276  12.543  1.00  0.00     0.049 A 
ATOM     34  N   UNL     1       0.701  -1.406  14.332  1.00  0.00    -0.248 NA
ATOM     35  C   UNL     1      -0.733  -1.520  12.494  1.00  0.00     0.031 C 
ATOM     36  C   UNL     1       4.105  -2.651  11.711  1.00  0.00     0.029 A 
ATOM     37  N   UNL     1       3.501  -2.112  13.795  1.00  0.00    -0.354 N 
ATOM     38  C   UNL     1      -0.574  -1.013  14.718  1.00  0.00     0.074 A 
ATOM     39  C   UNL     1      -1.400  -1.036  13.531  1.00  0.00     0.031 C 
ATOM     40  C   UNL     1       5.204  -2.719  12.479  1.00  0.00     0.029 A 
ATOM     41  C   UNL     1       4.852  -2.356  13.848  1.00  0.00     0.049 A 
ATOM     42  H   UNL     1       2.971  -1.845  14.580  1.00  0.00     0.167 HD
ATOM     43  C   UNL     1      -1.022  -0.690  15.955  1.00  0.00     0.037 A 
ATOM     44  C   UNL     1       5.710  -2.290  14.884  1.00  0.00     0.037 A 
ATOM     45  C   UNL     1      -0.200  -0.686  17.137  1.00  0.00     0.049 A 
ATOM     46  C   UNL     1       5.188  -1.918  16.246  1.00  0.00     0.074 A 
ATOM     47  C   UNL     1      -0.571  -0.427  18.445  1.00  0.00     0.029 A 
ATOM     48  N   UNL     1       1.162  -0.948  17.154  1.00  0.00    -0.354 N 
ATOM     49  N   UNL     1       3.965  -1.624  16.614  1.00  0.00    -0.248 NA
ATOM     50  C   UNL     1       6.168  -1.880  17.341  1.00  0.00     0.031 C 
ATOM     51  C   UNL     1       0.576  -0.477  19.244  1.00  0.00     0.029 A 
ATOM     52  C   UNL     1       1.651  -0.831  18.446  1.00  0.00     0.049 A 
ATOM     53  H   UNL     1       1.702  -1.182  16.364  1.00  0.00     0.167 HD
ATOM     54  C   UNL     1       4.021  -1.398  17.983  1.00  0.00     0.074 A 
ATOM     55  C   UNL     1       5.396  -1.608  18.383  1.00  0.00     0.031 C 
ATOM     56  C   UNL     1       3.022  -1.049  18.832  1.00  0.00     0.037 A 
BRANCH  43  57
ATOM     57  C   UNL     1      -2.470  -0.314  16.093  1.00  0.00     0.064 A 
ATOM     58  C   UNL     1      -3.497  -1.255  15.914  1.00  0.00     0.173 A 
ATOM     59  C   UNL     1      -2.837   0.994  16.443  1.00  0.00     0.173 A 
ATOM     60  F   UNL     1      -3.203  -2.518  15.569  1.00  0.00    -0.203 F 
ATOM     61  C   UNL     1      -4.835  -0.893  16.047  1.00  0.00     0.198 A 
ATOM     62  C   UNL     1      -4.175   1.345  16.609  1.00  0.00     0.198 A 
ATOM     63  F   UNL     1      -1.898   1.933  16.632  1.00  0.00    -0.203 F 
ATOM     64  F   UNL     1      -5.798  -1.796  15.817  1.00  0.00    -0.200 F 
ATOM     65  C   UNL     1      -5.172   0.404  16.402  1.00  0.00     0.200 A 
ATOM     66  F   UNL     1      -4.499   2.595  16.968  1.00  0.00    -0.200 F 
ATOM     67  F   UNL     1      -6.460   0.750  16.538  1.00  0.00    -0.200 F 
ENDBRANCH  43  57
BRANCH  44  68
ATOM     68  C   UNL     1       7.148  -2.611  14.681  1.00  0.00     0.064 A 
ATOM     69  C   UNL     1       7.720  -3.756  15.254  1.00  0.00     0.173 A 
ATOM     70  C   UNL     1       7.983  -1.776  13.925  1.00  0.00     0.173 A 
ATOM     71  F   UNL     1       6.968  -4.576  16.003  1.00  0.00    -0.203 F 
ATOM     72  C   UNL     1       9.075  -4.039  15.100  1.00  0.00     0.198 A 
ATOM     73  C   UNL     1       9.331  -2.077  13.744  1.00  0.00     0.198 A 
ATOM     74  F   UNL     1       7.486  -0.671  13.350  1.00  0.00    -0.203 F 
ATOM     75  F   UNL     1       9.606  -5.112  15.703  1.00  0.00    -0.200 F 
ATOM     76  C   UNL     1       9.879  -3.203  14.340  1.00  0.00     0.200 A 
ATOM     77  F   UNL     1      10.100  -1.275  12.995  1.00  0.00    -0.200 F 
ATOM     78  F   UNL     1      11.182  -3.477  14.190  1.00  0.00    -0.200 F 
ENDBRANCH  44  68
BRANCH  56  79
ATOM     79  C   UNL     1       3.372  -0.913  20.287  1.00  0.00     0.064 A 
ATOM     80  C   UNL     1       4.173   0.137  20.761  1.00  0.00     0.173 A 
ATOM     81  C   UNL     1       2.873  -1.831  21.224  1.00  0.00     0.173 A 
ATOM     82  F   UNL     1       4.687   1.034  19.906  1.00  0.00    -0.203 F 
ATOM     83  C   UNL     1       4.490   0.242  22.113  1.00  0.00     0.198 A 
ATOM     84  C   UNL     1       3.162  -1.702  22.580  1.00  0.00     0.198 A 
ATOM     85  F   UNL     1       2.095  -2.849  20.826  1.00  0.00    -0.203 F 
ATOM     86  F   UNL     1       5.305   1.218  22.534  1.00  0.00    -0.200 F 
ATOM     87  C   UNL     1       3.978  -0.673  23.022  1.00  0.00     0.200 A 
ATOM     88  F   UNL     1       2.652  -2.577  23.458  1.00  0.00    -0.200 F 
ATOM     89  F   UNL     1       4.280  -0.567  24.323  1.00  0.00    -0.200 F 
ENDBRANCH  56  79
ENDBRANCH  30  31
ENDBRANCH  22  25
ENDBRANCH  20  21
ENDBRANCH  19  20
ENDBRANCH   1  19
TORSDOF 14
