REMARK SMILES CCC[NH2+][C@]1(C(=O)NCCCCNC(=O)c2ccc(-c3c4nc(c(-c5c(F)c(F)c(F)c(F)c5F)c5ccc([nH]5)c(-c5c(F)c(F)c(F)c(F)c5F)c5nc(c(-c6c(F)c(F)c(F)c(F)c6F)c6ccc3[nH]6)C=C5)C=C4)cc2)CCC[C@@H]([N@@H+](C)[C@@H](C)C2CC2)C1
REMARK SMILES IDX 10 1 9 2 8 3 6 4 7 5 5 7 79 8 90 9 80 10 82 11 81 12 4 13
REMARK SMILES IDX 3 16 2 17 1 18 83 19 84 20 85 22 86 23 87 24 88 25 89 26
REMARK SMILES IDX 11 27 12 28 13 29 14 30 15 32 16 33 17 34 78 35 18 36 77 37
REMARK SMILES IDX 19 38 20 39 21 40 71 41 22 42 76 43 70 44 72 45 23 46 75 47
REMARK SMILES IDX 69 48 68 49 24 51 56 52 36 53 55 54 37 55 40 56 54 57 73 58
REMARK SMILES IDX 38 59 39 60 53 62 74 63 41 64 25 65 26 66 34 67 27 68 28 69
REMARK SMILES IDX 32 70 35 71 29 72 30 73 33 74 31 75 57 76 58 77 66 78 59 79
REMARK SMILES IDX 60 80 64 81 67 82 61 83 62 84 65 85 63 86 42 87 43 88 51 89
REMARK SMILES IDX 44 90 45 91 49 92 52 93 46 94 47 95 50 96 48 97
REMARK H PARENT 8 6 4 14 4 15 83 21 13 31 72 50 40 61
REMARK Flexibility Score: inf
ROOT
ATOM      1  C   UNL     1       3.304  -1.344  -1.221  1.00  0.00     0.023 C 
ENDROOT
BRANCH   1   2
ATOM      2  C   UNL     1       2.962  -1.555   0.255  1.00  0.00     0.116 C 
BRANCH   2   3
ATOM      3  N   UNL     1       1.543  -1.762   0.417  1.00  0.00    -0.351 N 
ATOM      4  C   UNL     1       0.809  -2.905   0.372  1.00  0.00     0.281 C 
ATOM      5  O   UNL     1      -0.414  -2.724   0.298  1.00  0.00    -0.268 OA
ATOM      6  H   UNL     1       1.023  -0.943   0.588  1.00  0.00     0.163 HD
BRANCH   4   7
ATOM      7  C   UNL     1       1.412  -4.346   0.559  1.00  0.00     0.181 C 
ATOM      8  C   UNL     1       1.550  -4.578   2.086  1.00  0.00     0.079 C 
ATOM      9  C   UNL     1       0.357  -5.340   0.025  1.00  0.00     0.144 C 
ATOM     10  C   UNL     1       1.832  -6.040   2.456  1.00  0.00     0.013 C 
ATOM     11  C   UNL     1       0.597  -6.808   0.356  1.00  0.00     0.190 C 
ATOM     12  C   UNL     1       0.791  -7.002   1.871  1.00  0.00     0.065 C 
BRANCH   7  13
ATOM     13  N   UNL     1       2.758  -4.500  -0.054  1.00  0.00    -0.333 N 
ATOM     14  H   UNL     1       3.253  -3.617   0.072  1.00  0.00     0.347 HD
ATOM     15  H   UNL     1       3.170  -5.303   0.422  1.00  0.00     0.347 HD
BRANCH  13  16
ATOM     16  C   UNL     1       2.820  -4.837  -1.473  1.00  0.00     0.261 C 
BRANCH  16  17
ATOM     17  C   UNL     1       4.271  -4.799  -1.975  1.00  0.00     0.058 C 
ATOM     18  C   UNL     1       5.209  -5.739  -1.226  1.00  0.00     0.010 C 
ENDBRANCH  16  17
ENDBRANCH  13  16
ENDBRANCH   7  13
BRANCH  11  19
ATOM     19  N   UNL     1      -0.355  -7.682  -0.379  1.00  0.00    -0.332 N 
ATOM     20  C   UNL     1       0.257  -9.008  -0.579  1.00  0.00     0.333 C 
ATOM     21  H   UNL     1      -0.484  -7.118  -1.219  1.00  0.00     0.348 HD
BRANCH  19  22
ATOM     22  C   UNL     1      -1.781  -7.831   0.001  1.00  0.00     0.184 C 
ATOM     23  C   UNL     1      -2.108  -8.120   1.470  1.00  0.00     0.075 C 
BRANCH  22  24
ATOM     24  C   UNL     1      -2.838  -6.918  -0.602  1.00  0.00     0.047 C 
ATOM     25  C   UNL     1      -3.197  -5.575  -0.002  1.00  0.00     0.010 C 
ATOM     26  C   UNL     1      -2.646  -5.651  -1.399  1.00  0.00     0.010 C 
ENDBRANCH  22  24
ENDBRANCH  19  22
ENDBRANCH  11  19
ENDBRANCH   4   7
ENDBRANCH   2   3
ENDBRANCH   1   2
BRANCH   1  27
ATOM     27  C   UNL     1       2.850  -0.005  -1.804  1.00  0.00     0.023 C 
BRANCH  27  28
ATOM     28  C   UNL     1       3.394   1.217  -1.082  1.00  0.00     0.116 C 
BRANCH  28  29
ATOM     29  N   UNL     1       4.842   1.202  -0.943  1.00  0.00    -0.352 N 
ATOM     30  C   UNL     1       5.719   2.257  -0.979  1.00  0.00     0.251 C 
ATOM     31  H   UNL     1       5.247   0.315  -0.805  1.00  0.00     0.163 HD
ATOM     32  O   UNL     1       6.926   2.071  -0.953  1.00  0.00    -0.269 OA
BRANCH  30  33
ATOM     33  C   UNL     1       5.178   3.625  -1.093  1.00  0.00     0.039 A 
ATOM     34  C   UNL     1       5.694   4.471  -2.076  1.00  0.00     0.014 A 
ATOM     35  C   UNL     1       4.136   4.048  -0.263  1.00  0.00     0.014 A 
ATOM     36  C   UNL     1       5.118   5.725  -2.271  1.00  0.00     0.010 A 
ATOM     37  C   UNL     1       3.516   5.266  -0.507  1.00  0.00     0.010 A 
ATOM     38  C   UNL     1       4.003   6.116  -1.512  1.00  0.00    -0.014 A 
BRANCH  38  39
ATOM     39  C   UNL     1       3.332   7.415  -1.748  1.00  0.00     0.031 A 
ATOM     40  C   UNL     1       3.339   8.466  -0.675  1.00  0.00     0.074 A 
ATOM     41  C   UNL     1       2.657   7.616  -2.896  1.00  0.00     0.049 A 
ATOM     42  N   UNL     1       2.747   9.632  -0.656  1.00  0.00    -0.248 NA
ATOM     43  C   UNL     1       4.086   8.149   0.552  1.00  0.00     0.031 C 
ATOM     44  C   UNL     1       2.534   6.646  -3.986  1.00  0.00     0.029 A 
ATOM     45  N   UNL     1       1.937   8.698  -3.331  1.00  0.00    -0.354 N 
ATOM     46  C   UNL     1       3.035  10.178   0.588  1.00  0.00     0.074 A 
ATOM     47  C   UNL     1       3.808   9.196   1.315  1.00  0.00     0.031 C 
ATOM     48  C   UNL     1       1.801   7.186  -4.973  1.00  0.00     0.029 A 
ATOM     49  C   UNL     1       1.375   8.523  -4.572  1.00  0.00     0.049 A 
ATOM     50  H   UNL     1       1.832   9.523  -2.804  1.00  0.00     0.167 HD
ATOM     51  C   UNL     1       2.704  11.400   1.068  1.00  0.00     0.037 A 
ATOM     52  C   UNL     1       0.601   9.350  -5.299  1.00  0.00     0.037 A 
ATOM     53  C   UNL     1       1.962  12.384   0.327  1.00  0.00     0.049 A 
ATOM     54  C   UNL     1       0.258  10.706  -4.747  1.00  0.00     0.074 A 
ATOM     55  C   UNL     1       1.631  13.675   0.697  1.00  0.00     0.029 A 
ATOM     56  N   UNL     1       1.435  12.183  -0.941  1.00  0.00    -0.354 N 
ATOM     57  N   UNL     1       0.596  11.241  -3.599  1.00  0.00    -0.248 NA
ATOM     58  C   UNL     1      -0.567  11.577  -5.595  1.00  0.00     0.031 C 
ATOM     59  C   UNL     1       0.871  14.243  -0.331  1.00  0.00     0.029 A 
ATOM     60  C   UNL     1       0.766  13.321  -1.361  1.00  0.00     0.049 A 
ATOM     61  H   UNL     1       1.523  11.354  -1.464  1.00  0.00     0.167 HD
ATOM     62  C   UNL     1       0.049  12.517  -3.597  1.00  0.00     0.074 A 
ATOM     63  C   UNL     1      -0.631  12.681  -4.865  1.00  0.00     0.031 C 
ATOM     64  C   UNL     1       0.104  13.467  -2.631  1.00  0.00     0.037 A 
BRANCH  51  65
ATOM     65  C   UNL     1       3.151  11.740   2.459  1.00  0.00     0.064 A 
ATOM     66  C   UNL     1       4.503  11.963   2.763  1.00  0.00     0.173 A 
ATOM     67  C   UNL     1       2.215  11.871   3.496  1.00  0.00     0.173 A 
ATOM     68  F   UNL     1       5.438  11.836   1.810  1.00  0.00    -0.203 F 
ATOM     69  C   UNL     1       4.904  12.277   4.058  1.00  0.00     0.198 A 
ATOM     70  C   UNL     1       2.617  12.215   4.785  1.00  0.00     0.198 A 
ATOM     71  F   UNL     1       0.910  11.672   3.260  1.00  0.00    -0.203 F 
ATOM     72  F   UNL     1       6.206  12.436   4.334  1.00  0.00    -0.200 F 
ATOM     73  C   UNL     1       3.961  12.409   5.066  1.00  0.00     0.200 A 
ATOM     74  F   UNL     1       1.704  12.353   5.755  1.00  0.00    -0.200 F 
ATOM     75  F   UNL     1       4.348  12.717   6.312  1.00  0.00    -0.200 F 
ENDBRANCH  51  65
BRANCH  52  76
ATOM     76  C   UNL     1       0.124   8.929  -6.642  1.00  0.00     0.064 A 
ATOM     77  C   UNL     1       0.634   9.526  -7.803  1.00  0.00     0.173 A 
ATOM     78  C   UNL     1      -0.845   7.928  -6.794  1.00  0.00     0.173 A 
ATOM     79  F   UNL     1       1.549  10.502  -7.707  1.00  0.00    -0.203 F 
ATOM     80  C   UNL     1       0.178   9.152  -9.065  1.00  0.00     0.198 A 
ATOM     81  C   UNL     1      -1.282   7.536  -8.057  1.00  0.00     0.198 A 
ATOM     82  F   UNL     1      -1.360   7.322  -5.714  1.00  0.00    -0.203 F 
ATOM     83  F   UNL     1       0.651   9.769 -10.156  1.00  0.00    -0.200 F 
ATOM     84  C   UNL     1      -0.776   8.153  -9.191  1.00  0.00     0.200 A 
ATOM     85  F   UNL     1      -2.194   6.562  -8.177  1.00  0.00    -0.200 F 
ATOM     86  F   UNL     1      -1.212   7.792 -10.405  1.00  0.00    -0.200 F 
ENDBRANCH  52  76
BRANCH  64  87
ATOM     87  C   UNL     1      -0.559  14.780  -2.923  1.00  0.00     0.064 A 
ATOM     88  C   UNL     1      -1.955  14.912  -2.933  1.00  0.00     0.173 A 
ATOM     89  C   UNL     1       0.213  15.928  -3.153  1.00  0.00     0.173 A 
ATOM     90  F   UNL     1      -2.736  13.839  -2.734  1.00  0.00    -0.203 F 
ATOM     91  C   UNL     1      -2.554  16.143  -3.185  1.00  0.00     0.198 A 
ATOM     92  C   UNL     1      -0.389  17.163  -3.376  1.00  0.00     0.198 A 
ATOM     93  F   UNL     1       1.553  15.855  -3.147  1.00  0.00    -0.203 F 
ATOM     94  F   UNL     1      -3.890  16.238  -3.234  1.00  0.00    -0.200 F 
ATOM     95  C   UNL     1      -1.771  17.268  -3.399  1.00  0.00     0.200 A 
ATOM     96  F   UNL     1       0.369  18.251  -3.570  1.00  0.00    -0.200 F 
ATOM     97  F   UNL     1      -2.350  18.453  -3.634  1.00  0.00    -0.200 F 
ENDBRANCH  64  87
ENDBRANCH  38  39
ENDBRANCH  30  33
ENDBRANCH  28  29
ENDBRANCH  27  28
ENDBRANCH   1  27
TORSDOF 17
