REMARK SMILES O=C(NCCCCNC(=O)[C@H]1[C@H]2CC[C@H](C2)[C@@H]1C(=O)Nc1sc2c(c1C(=O)NC1CCCCC1)CCCC2)c1ccc(-c2c3nc(c(-c4c(F)c(F)c(F)c(F)c4F)c4ccc([nH]4)c(-c4c(F)c(F)c(F)c(F)c4F)c4nc(c(-c5c(F)c(F)c(F)c(F)c5F)c5ccc2[nH]5)C=C4)C=C3)cc1
REMARK SMILES IDX 6 1 5 2 4 3 3 4 1 5 2 6 39 8 40 9 101 10 41 11 100 12 42 13
REMARK SMILES IDX 43 14 44 15 94 16 45 17 99 18 93 19 95 20 46 21 98 22 92 23
REMARK SMILES IDX 91 24 47 26 79 27 59 28 78 29 60 30 63 31 77 32 96 33 61 34
REMARK SMILES IDX 62 35 76 37 97 38 64 39 48 40 49 41 57 42 50 43 51 44 55 45
REMARK SMILES IDX 58 46 52 47 53 48 56 49 54 50 80 51 81 52 89 53 82 54 83 55
REMARK SMILES IDX 87 56 90 57 84 58 85 59 88 60 86 61 65 62 66 63 74 64 67 65
REMARK SMILES IDX 68 66 72 67 75 68 69 69 70 70 73 71 71 72 7 73 8 74 9 75
REMARK SMILES IDX 10 77 11 78 12 79 17 80 13 81 16 82 15 83 14 84 18 85 19 86
REMARK SMILES IDX 20 87 21 89 22 90 25 91 23 92 24 93 38 94 35 95 37 96 36 97
REMARK SMILES IDX 26 98 27 99 28 100 29 102 30 103 34 104 31 105 33 106 32 107
REMARK H PARENT 3 7 95 25 63 36 8 76 20 88 28 101
REMARK Flexibility Score: inf
ROOT
ATOM      1  C   UNL     1       7.339  -1.505   6.118  1.00  0.00     0.023 C 
ENDROOT
BRANCH   1   2
ATOM      2  C   UNL     1       8.179  -1.256   7.377  1.00  0.00     0.023 C 
BRANCH   2   3
ATOM      3  C   UNL     1       9.678  -1.128   7.134  1.00  0.00     0.116 C 
BRANCH   3   4
ATOM      4  N   UNL     1      10.002   0.011   6.292  1.00  0.00    -0.352 N 
ATOM      5  O   UNL     1      10.801   2.064   5.806  1.00  0.00    -0.269 OA
ATOM      6  C   UNL     1      10.780   1.103   6.573  1.00  0.00     0.251 C 
ATOM      7  H   UNL     1       9.605  -0.004   5.391  1.00  0.00     0.163 HD
BRANCH   6   8
ATOM      8  C   UNL     1      11.583   1.137   7.811  1.00  0.00     0.039 A 
ATOM      9  C   UNL     1      12.370   0.044   8.188  1.00  0.00     0.014 A 
ATOM     10  C   UNL     1      11.560   2.292   8.596  1.00  0.00     0.014 A 
ATOM     11  C   UNL     1      13.043   0.061   9.406  1.00  0.00     0.010 A 
ATOM     12  C   UNL     1      12.294   2.336   9.781  1.00  0.00     0.010 A 
ATOM     13  C   UNL     1      13.022   1.212  10.207  1.00  0.00    -0.014 A 
BRANCH  13  14
ATOM     14  C   UNL     1      13.801   1.266  11.469  1.00  0.00     0.031 A 
ATOM     15  C   UNL     1      13.106   1.417  12.790  1.00  0.00     0.074 A 
ATOM     16  C   UNL     1      15.145   1.231  11.412  1.00  0.00     0.049 A 
ATOM     17  N   UNL     1      13.619   1.600  13.981  1.00  0.00    -0.248 NA
ATOM     18  C   UNL     1      11.637   1.368  12.769  1.00  0.00     0.031 C 
ATOM     19  C   UNL     1      15.930   1.086  10.186  1.00  0.00     0.029 A 
ATOM     20  N   UNL     1      16.087   1.335  12.403  1.00  0.00    -0.354 N 
ATOM     21  C   UNL     1      12.539   1.713  14.846  1.00  0.00     0.074 A 
ATOM     22  C   UNL     1      11.342   1.605  14.039  1.00  0.00     0.031 C 
ATOM     23  C   UNL     1      17.234   1.111  10.495  1.00  0.00     0.029 A 
ATOM     24  C   UNL     1      17.375   1.340  11.930  1.00  0.00     0.049 A 
ATOM     25  H   UNL     1      15.862   1.400  13.359  1.00  0.00     0.167 HD
ATOM     26  C   UNL     1      12.551   1.889  16.190  1.00  0.00     0.037 A 
ATOM     27  C   UNL     1      18.541   1.548  12.569  1.00  0.00     0.037 A 
ATOM     28  C   UNL     1      13.752   1.996  16.979  1.00  0.00     0.049 A 
ATOM     29  C   UNL     1      18.532   1.792  14.051  1.00  0.00     0.074 A 
ATOM     30  C   UNL     1      13.875   2.134  18.351  1.00  0.00     0.029 A 
ATOM     31  N   UNL     1      15.041   1.995  16.462  1.00  0.00    -0.354 N 
ATOM     32  N   UNL     1      17.509   1.861  14.869  1.00  0.00    -0.248 NA
ATOM     33  C   UNL     1      19.834   1.987  14.701  1.00  0.00     0.031 C 
ATOM     34  C   UNL     1      15.231   2.286  18.656  1.00  0.00     0.029 A 
ATOM     35  C   UNL     1      15.962   2.164  17.485  1.00  0.00     0.049 A 
ATOM     36  H   UNL     1      15.268   1.890  15.510  1.00  0.00     0.167 HD
ATOM     37  C   UNL     1      18.043   2.073  16.132  1.00  0.00     0.074 A 
ATOM     38  C   UNL     1      19.482   2.124  15.973  1.00  0.00     0.031 C 
ATOM     39  C   UNL     1      17.395   2.202  17.316  1.00  0.00     0.037 A 
BRANCH  26  40
ATOM     40  C   UNL     1      11.223   2.020  16.884  1.00  0.00     0.064 A 
ATOM     41  C   UNL     1      10.321   0.949  16.976  1.00  0.00     0.173 A 
ATOM     42  C   UNL     1      10.851   3.238  17.474  1.00  0.00     0.173 A 
ATOM     43  F   UNL     1      10.623  -0.237  16.426  1.00  0.00    -0.203 F 
ATOM     44  C   UNL     1       9.079   1.106  17.588  1.00  0.00     0.198 A 
ATOM     45  C   UNL     1       9.624   3.381  18.118  1.00  0.00     0.198 A 
ATOM     46  F   UNL     1      11.678   4.294  17.429  1.00  0.00    -0.203 F 
ATOM     47  F   UNL     1       8.208   0.088  17.602  1.00  0.00    -0.200 F 
ATOM     48  C   UNL     1       8.734   2.320  18.161  1.00  0.00     0.200 A 
ATOM     49  F   UNL     1       9.301   4.550  18.688  1.00  0.00    -0.200 F 
ATOM     50  F   UNL     1       7.538   2.471  18.747  1.00  0.00    -0.200 F 
ENDBRANCH  26  40
BRANCH  27  51
ATOM     51  C   UNL     1      19.804   1.541  11.789  1.00  0.00     0.064 A 
ATOM     52  C   UNL     1      20.723   0.491  11.911  1.00  0.00     0.173 A 
ATOM     53  C   UNL     1      20.089   2.555  10.861  1.00  0.00     0.173 A 
ATOM     54  F   UNL     1      20.501  -0.493  12.794  1.00  0.00    -0.203 F 
ATOM     55  C   UNL     1      21.881   0.457  11.137  1.00  0.00     0.198 A 
ATOM     56  C   UNL     1      21.232   2.505  10.068  1.00  0.00     0.198 A 
ATOM     57  F   UNL     1      19.235   3.577  10.701  1.00  0.00    -0.203 F 
ATOM     58  F   UNL     1      22.756  -0.546  11.290  1.00  0.00    -0.200 F 
ATOM     59  C   UNL     1      22.129   1.458  10.209  1.00  0.00     0.200 A 
ATOM     60  F   UNL     1      21.456   3.462   9.157  1.00  0.00    -0.200 F 
ATOM     61  F   UNL     1      23.232   1.412   9.450  1.00  0.00    -0.200 F 
ENDBRANCH  27  51
BRANCH  39  62
ATOM     62  C   UNL     1      18.230   2.354  18.554  1.00  0.00     0.064 A 
ATOM     63  C   UNL     1      18.914   3.542  18.849  1.00  0.00     0.173 A 
ATOM     64  C   UNL     1      18.277   1.317  19.500  1.00  0.00     0.173 A 
ATOM     65  F   UNL     1      18.916   4.556  17.971  1.00  0.00    -0.203 F 
ATOM     66  C   UNL     1      19.620   3.683  20.041  1.00  0.00     0.198 A 
ATOM     67  C   UNL     1      18.957   1.473  20.703  1.00  0.00     0.198 A 
ATOM     68  F   UNL     1      17.637   0.161  19.267  1.00  0.00    -0.203 F 
ATOM     69  F   UNL     1      20.294   4.815  20.289  1.00  0.00    -0.200 F 
ATOM     70  C   UNL     1      19.631   2.655  20.972  1.00  0.00     0.200 A 
ATOM     71  F   UNL     1      18.953   0.484  21.608  1.00  0.00    -0.200 F 
ATOM     72  F   UNL     1      20.292   2.802  22.128  1.00  0.00    -0.200 F 
ENDBRANCH  39  62
ENDBRANCH  13  14
ENDBRANCH   6   8
ENDBRANCH   3   4
ENDBRANCH   2   3
ENDBRANCH   1   2
BRANCH   1  73
ATOM     73  C   UNL     1       7.804  -2.686   5.269  1.00  0.00     0.116 C 
BRANCH  73  74
ATOM     74  N   UNL     1       7.829  -3.901   6.053  1.00  0.00    -0.356 N 
ATOM     75  C   UNL     1       7.239  -5.103   5.856  1.00  0.00     0.224 C 
ATOM     76  H   UNL     1       8.370  -3.844   6.873  1.00  0.00     0.163 HD
ATOM     77  O   UNL     1       7.448  -5.955   6.719  1.00  0.00    -0.275 OA
BRANCH  75  78
ATOM     78  C   UNL     1       6.440  -5.370   4.590  1.00  0.00     0.094 C 
ATOM     79  C   UNL     1       6.277  -6.905   4.354  1.00  0.00     0.002 C 
ATOM     80  C   UNL     1       4.974  -4.870   4.583  1.00  0.00     0.094 C 
ATOM     81  C   UNL     1       5.450  -7.651   5.421  1.00  0.00     0.005 C 
ATOM     82  C   UNL     1       5.255  -6.876   3.237  1.00  0.00     0.009 C 
ATOM     83  C   UNL     1       4.211  -6.108   4.067  1.00  0.00     0.002 C 
ATOM     84  C   UNL     1       4.035  -7.086   5.244  1.00  0.00     0.005 C 
BRANCH  80  85
ATOM     85  C   UNL     1       4.706  -3.501   3.917  1.00  0.00     0.229 C 
ATOM     86  O   UNL     1       4.431  -2.553   4.672  1.00  0.00    -0.274 OA
ATOM     87  N   UNL     1       4.904  -3.162   2.614  1.00  0.00    -0.317 N 
ATOM     88  H   UNL     1       4.941  -2.192   2.450  1.00  0.00     0.170 HD
BRANCH  87  89
ATOM     89  C   UNL     1       5.060  -3.930   1.487  1.00  0.00     0.108 A 
ATOM     90  S   UNL     1       3.795  -4.986   1.073  1.00  0.00    -0.122 S 
ATOM     91  C   UNL     1       5.970  -3.769   0.436  1.00  0.00     0.078 A 
ATOM     92  C   UNL     1       4.823  -5.753  -0.029  1.00  0.00     0.011 A 
ATOM     93  C   UNL     1       5.801  -4.886  -0.496  1.00  0.00    -0.019 A 
ATOM     94  C   UNL     1       4.638  -7.181  -0.431  1.00  0.00     0.047 C 
ATOM     95  C   UNL     1       6.563  -5.256  -1.738  1.00  0.00     0.037 C 
ATOM     96  C   UNL     1       5.912  -7.654  -1.140  1.00  0.00     0.006 C 
ATOM     97  C   UNL     1       6.253  -6.673  -2.266  1.00  0.00     0.005 C 
BRANCH  91  98
ATOM     98  C   UNL     1       6.875  -2.611   0.494  1.00  0.00     0.254 C 
ATOM     99  O   UNL     1       6.449  -1.525   0.902  1.00  0.00    -0.269 OA
ATOM    100  N   UNL     1       8.224  -2.642   0.251  1.00  0.00    -0.349 N 
ATOM    101  H   UNL     1       8.674  -1.808   0.518  1.00  0.00     0.164 HD
BRANCH 100 102
ATOM    102  C   UNL     1       9.144  -3.617  -0.309  1.00  0.00     0.082 C 
ATOM    103  C   UNL     1      10.580  -3.057  -0.366  1.00  0.00     0.025 C 
ATOM    104  C   UNL     1       9.195  -4.947   0.451  1.00  0.00     0.025 C 
ATOM    105  C   UNL     1      11.538  -4.034  -1.057  1.00  0.00     0.002 C 
ATOM    106  C   UNL     1      10.027  -5.948  -0.352  1.00  0.00     0.002 C 
ATOM    107  C   UNL     1      11.461  -5.458  -0.502  1.00  0.00     0.000 C 
ENDBRANCH 100 102
ENDBRANCH  91  98
ENDBRANCH  87  89
ENDBRANCH  80  85
ENDBRANCH  75  78
ENDBRANCH  73  74
ENDBRANCH   1  73
TORSDOF 15
