REMARK SMILES Cc1ccc(NC(=O)CN2C(=O)S/C(=C\c3cc(Cl)c(OCC(=O)NCCCCNC(=O)c4ccc(-c5c6nc(c(-c7c(F)c(F)c(F)c(F)c7F)c7ccc([nH]7)c(-c7c(F)c(F)c(F)c(F)c7F)c7nc(c(-c8c(F)c(F)c(F)c(F)c8F)c8ccc5[nH]8)C=C7)C=C6)cc4)c(Cl)c3)C2=O)cc1
REMARK SMILES IDX 23 1 24 2 25 3 22 5 21 6 20 7 16 8 17 9 98 10 18 11 96 12
REMARK SMILES IDX 19 13 97 14 15 15 10 16 11 17 99 18 12 19 13 20 14 21 100 22
REMARK SMILES IDX 9 23 7 24 6 25 8 27 5 28 1 29 2 30 3 31 102 32 4 33 101 34
REMARK SMILES IDX 26 35 27 36 28 37 29 38 30 39 31 40 32 42 33 43 34 44 95 45
REMARK SMILES IDX 35 46 94 47 36 48 37 49 38 50 88 51 39 52 93 53 87 54 89 55
REMARK SMILES IDX 40 56 92 57 86 58 85 59 41 61 73 62 53 63 72 64 54 65 57 66
REMARK SMILES IDX 71 67 90 68 55 69 56 70 70 72 91 73 58 74 42 75 43 76 51 77
REMARK SMILES IDX 44 78 45 79 49 80 52 81 46 82 47 83 50 84 48 85 74 86 75 87
REMARK SMILES IDX 83 88 76 89 77 90 81 91 84 92 78 93 79 94 82 95 80 96 59 97
REMARK SMILES IDX 60 98 68 99 61 100 62 101 66 102 69 103 63 104 64 105 67 106
REMARK SMILES IDX 65 107
REMARK H PARENT 25 4 6 26 30 41 89 60 57 71
REMARK Flexibility Score: inf
ROOT
ATOM      1  C   UNL     1      -7.441  -3.256 -10.771  1.00  0.00     0.257 C 
ATOM      2  O   UNL     1      -8.381  -3.279  -9.975  1.00  0.00    -0.271 OA
ATOM      3  N   UNL     1      -7.227  -4.379 -11.516  1.00  0.00    -0.353 N 
ATOM      4  H   UNL     1      -7.764  -5.164 -11.262  1.00  0.00     0.163 HD
ENDROOT
BRANCH   1   5
ATOM      5  C   UNL     1      -6.567  -2.009 -10.985  1.00  0.00     0.329 C 
BRANCH   5   6
ATOM      6  O   UNL     1      -5.173  -2.120 -10.767  1.00  0.00    -0.481 OA
BRANCH   6   7
ATOM      7  C   UNL     1      -4.616  -2.290  -9.528  1.00  0.00     0.157 A 
ATOM      8  C   UNL     1      -3.115  -2.755  -7.133  1.00  0.00    -0.021 A 
ATOM      9  C   UNL     1      -2.485  -2.815  -8.368  1.00  0.00     0.032 A 
ATOM     10  C   UNL     1      -4.491  -2.497  -7.115  1.00  0.00     0.032 A 
ATOM     11  C   UNL     1      -3.228  -2.588  -9.543  1.00  0.00     0.085 A 
ATOM     12  C   UNL     1      -5.223  -2.200  -8.274  1.00  0.00     0.085 A 
ATOM     13  Cl  UNL     1      -2.349  -2.669 -11.041  1.00  0.00    -0.080 Cl
ATOM     14  Cl  UNL     1      -6.817  -1.631  -7.941  1.00  0.00    -0.080 Cl
BRANCH   8  15
ATOM     15  C   UNL     1      -2.415  -3.007  -5.856  1.00  0.00     0.029 C 
ATOM     16  N   UNL     1      -3.110  -2.065  -2.496  1.00  0.00    -0.259 N 
ATOM     17  C   UNL     1      -3.926  -1.114  -3.054  1.00  0.00     0.294 C 
ATOM     18  C   UNL     1      -2.304  -2.754  -3.381  1.00  0.00     0.268 C 
ATOM     19  O   UNL     1      -4.955  -0.648  -2.598  1.00  0.00    -0.261 OA
ATOM     20  S   UNL     1      -3.343  -0.710  -4.649  1.00  0.00    -0.022 SA
ATOM     21  C   UNL     1      -2.540  -2.231  -4.764  1.00  0.00     0.083 C 
ATOM     22  O   UNL     1      -1.631  -3.744  -3.131  1.00  0.00    -0.268 OA
BRANCH  16  23
ATOM     23  C   UNL     1      -3.441  -2.617  -1.191  1.00  0.00     0.230 C 
BRANCH  23  24
ATOM     24  C   UNL     1      -3.794  -1.546  -0.155  1.00  0.00     0.244 C 
ATOM     25  N   UNL     1      -2.979  -0.472   0.059  1.00  0.00    -0.325 N 
ATOM     26  H   UNL     1      -3.449   0.345   0.343  1.00  0.00     0.169 HD
ATOM     27  O   UNL     1      -4.846  -1.625   0.487  1.00  0.00    -0.273 OA
BRANCH  25  28
ATOM     28  C   UNL     1      -1.590  -0.332  -0.055  1.00  0.00     0.041 A 
ATOM     29  C   UNL     1       2.677   0.315  -0.036  1.00  0.00     0.044 C 
ATOM     30  C   UNL     1       1.192   0.106  -0.053  1.00  0.00    -0.051 A 
ATOM     31  C   UNL     1       0.673  -1.191   0.009  1.00  0.00     0.005 A 
ATOM     32  C   UNL     1       0.307   1.185  -0.114  1.00  0.00     0.005 A 
ATOM     33  C   UNL     1      -0.708  -1.408   0.009  1.00  0.00     0.026 A 
ATOM     34  C   UNL     1      -1.074   0.967  -0.100  1.00  0.00     0.026 A 
ENDBRANCH  25  28
ENDBRANCH  23  24
ENDBRANCH  16  23
ENDBRANCH   8  15
ENDBRANCH   6   7
ENDBRANCH   5   6
ENDBRANCH   1   5
BRANCH   3  35
ATOM     35  C   UNL     1      -6.322  -4.577 -12.629  1.00  0.00     0.116 C 
BRANCH  35  36
ATOM     36  C   UNL     1      -5.027  -5.292 -12.243  1.00  0.00     0.023 C 
BRANCH  36  37
ATOM     37  C   UNL     1      -5.191  -6.609 -11.490  1.00  0.00     0.023 C 
BRANCH  37  38
ATOM     38  C   UNL     1      -5.910  -7.710 -12.252  1.00  0.00     0.116 C 
BRANCH  38  39
ATOM     39  N   UNL     1      -5.071  -8.470 -13.173  1.00  0.00    -0.352 N 
ATOM     40  C   UNL     1      -5.377  -9.579 -13.947  1.00  0.00     0.251 C 
ATOM     41  H   UNL     1      -4.145  -8.145 -13.258  1.00  0.00     0.163 HD
ATOM     42  O   UNL     1      -4.496 -10.135 -14.595  1.00  0.00    -0.269 OA
BRANCH  40  43
ATOM     43  C   UNL     1      -6.793  -9.985 -14.136  1.00  0.00     0.039 A 
ATOM     44  C   UNL     1      -7.218 -10.269 -15.442  1.00  0.00     0.014 A 
ATOM     45  C   UNL     1      -7.727  -9.777 -13.133  1.00  0.00     0.014 A 
ATOM     46  C   UNL     1      -8.539 -10.018 -15.795  1.00  0.00     0.010 A 
ATOM     47  C   UNL     1      -8.982  -9.366 -13.504  1.00  0.00     0.010 A 
ATOM     48  C   UNL     1      -9.360  -9.423 -14.848  1.00  0.00    -0.014 A 
BRANCH  48  49
ATOM     49  C   UNL     1     -10.629  -8.785 -15.139  1.00  0.00     0.031 A 
ATOM     50  C   UNL     1     -11.869  -9.463 -14.728  1.00  0.00     0.074 A 
ATOM     51  C   UNL     1     -10.625  -7.500 -15.558  1.00  0.00     0.049 A 
ATOM     52  N   UNL     1     -13.041  -9.134 -15.137  1.00  0.00    -0.248 NA
ATOM     53  C   UNL     1     -11.879 -10.614 -13.833  1.00  0.00     0.031 C 
ATOM     54  C   UNL     1     -11.728  -6.545 -15.508  1.00  0.00     0.029 A 
ATOM     55  N   UNL     1      -9.625  -6.832 -16.284  1.00  0.00    -0.354 N 
ATOM     56  C   UNL     1     -13.961  -9.798 -14.356  1.00  0.00     0.074 A 
ATOM     57  C   UNL     1     -13.189 -10.773 -13.627  1.00  0.00     0.031 C 
ATOM     58  C   UNL     1     -11.495  -5.562 -16.393  1.00  0.00     0.029 A 
ATOM     59  C   UNL     1     -10.318  -5.949 -17.148  1.00  0.00     0.049 A 
ATOM     60  H   UNL     1      -8.650  -6.952 -16.208  1.00  0.00     0.167 HD
ATOM     61  C   UNL     1     -15.241  -9.327 -14.334  1.00  0.00     0.037 A 
ATOM     62  C   UNL     1     -10.287  -6.115 -18.503  1.00  0.00     0.037 A 
ATOM     63  C   UNL     1     -15.385  -8.226 -15.288  1.00  0.00     0.049 A 
ATOM     64  C   UNL     1     -11.654  -6.335 -19.107  1.00  0.00     0.074 A 
ATOM     65  C   UNL     1     -15.372  -6.848 -15.138  1.00  0.00     0.029 A 
ATOM     66  N   UNL     1     -15.227  -8.478 -16.646  1.00  0.00    -0.354 N 
ATOM     67  N   UNL     1     -12.669  -6.820 -18.446  1.00  0.00    -0.248 NA
ATOM     68  C   UNL     1     -11.992  -6.007 -20.487  1.00  0.00     0.031 C 
ATOM     69  C   UNL     1     -15.184  -6.271 -16.419  1.00  0.00     0.029 A 
ATOM     70  C   UNL     1     -15.102  -7.296 -17.346  1.00  0.00     0.049 A 
ATOM     71  H   UNL     1     -15.207  -9.375 -17.051  1.00  0.00     0.167 HD
ATOM     72  C   UNL     1     -13.776  -6.852 -19.258  1.00  0.00     0.074 A 
ATOM     73  C   UNL     1     -13.297  -6.332 -20.525  1.00  0.00     0.031 C 
ATOM     74  C   UNL     1     -14.986  -7.296 -18.798  1.00  0.00     0.037 A 
BRANCH  61  75
ATOM     75  C   UNL     1     -16.291  -9.646 -13.288  1.00  0.00     0.064 A 
ATOM     76  C   UNL     1     -17.381  -8.766 -13.084  1.00  0.00     0.173 A 
ATOM     77  C   UNL     1     -16.273 -10.751 -12.417  1.00  0.00     0.173 A 
ATOM     78  F   UNL     1     -17.600  -7.720 -13.891  1.00  0.00    -0.203 F 
ATOM     79  C   UNL     1     -18.299  -8.925 -12.042  1.00  0.00     0.198 A 
ATOM     80  C   UNL     1     -17.169 -10.892 -11.351  1.00  0.00     0.198 A 
ATOM     81  F   UNL     1     -15.432 -11.773 -12.591  1.00  0.00    -0.203 F 
ATOM     82  F   UNL     1     -19.299  -8.044 -11.898  1.00  0.00    -0.200 F 
ATOM     83  C   UNL     1     -18.176  -9.972 -11.156  1.00  0.00     0.200 A 
ATOM     84  F   UNL     1     -17.048 -11.936 -10.519  1.00  0.00    -0.200 F 
ATOM     85  F   UNL     1     -19.038 -10.112 -10.141  1.00  0.00    -0.200 F 
ENDBRANCH  61  75
BRANCH  62  86
ATOM     86  C   UNL     1      -9.015  -6.737 -18.965  1.00  0.00     0.064 A 
ATOM     87  C   UNL     1      -7.823  -6.020 -18.728  1.00  0.00     0.173 A 
ATOM     88  C   UNL     1      -8.911  -8.120 -19.158  1.00  0.00     0.173 A 
ATOM     89  F   UNL     1      -7.869  -4.690 -18.546  1.00  0.00    -0.203 F 
ATOM     90  C   UNL     1      -6.614  -6.678 -18.517  1.00  0.00     0.198 A 
ATOM     91  C   UNL     1      -7.688  -8.771 -18.975  1.00  0.00     0.198 A 
ATOM     92  F   UNL     1     -10.006  -8.858 -19.385  1.00  0.00    -0.203 F 
ATOM     93  F   UNL     1      -5.534  -5.982 -18.134  1.00  0.00    -0.200 F 
ATOM     94  C   UNL     1      -6.556  -8.057 -18.605  1.00  0.00     0.200 A 
ATOM     95  F   UNL     1      -7.630 -10.109 -19.045  1.00  0.00    -0.200 F 
ATOM     96  F   UNL     1      -5.426  -8.704 -18.286  1.00  0.00    -0.200 F 
ENDBRANCH  62  86
BRANCH  74  97
ATOM     97  C   UNL     1     -16.216  -7.675 -19.608  1.00  0.00     0.064 A 
ATOM     98  C   UNL     1     -16.220  -7.927 -20.988  1.00  0.00     0.173 A 
ATOM     99  C   UNL     1     -17.451  -7.947 -18.954  1.00  0.00     0.173 A 
ATOM    100  F   UNL     1     -15.107  -7.835 -21.724  1.00  0.00    -0.203 F 
ATOM    101  C   UNL     1     -17.368  -8.355 -21.666  1.00  0.00     0.198 A 
ATOM    102  C   UNL     1     -18.571  -8.441 -19.621  1.00  0.00     0.198 A 
ATOM    103  F   UNL     1     -17.612  -7.776 -17.634  1.00  0.00    -0.203 F 
ATOM    104  F   UNL     1     -17.322  -8.535 -22.994  1.00  0.00    -0.200 F 
ATOM    105  C   UNL     1     -18.537  -8.627 -20.982  1.00  0.00     0.200 A 
ATOM    106  F   UNL     1     -19.674  -8.755 -18.925  1.00  0.00    -0.200 F 
ATOM    107  F   UNL     1     -19.614  -9.090 -21.629  1.00  0.00    -0.200 F 
ENDBRANCH  74  97
ENDBRANCH  48  49
ENDBRANCH  40  43
ENDBRANCH  38  39
ENDBRANCH  37  38
ENDBRANCH  36  37
ENDBRANCH  35  36
ENDBRANCH   3  35
TORSDOF 17
