REMARK SMILES CCOC(=O)c1c(NC(=O)[C@@H]2[C@@H](C(=O)NCCCCNC(=O)c3ccc(-c4c5nc(c(-c6c(F)c(F)c(F)c(F)c6F)c6ccc([nH]6)c(-c6c(F)c(F)c(F)c(F)c6F)c6nc(c(-c7c(F)c(F)c(F)c(F)c7F)c7ccc4[nH]7)C=C6)C=C5)cc3)[C@@H]3C=C[C@H]2CC3)sc2c1CCC2
REMARK SMILES IDX 16 1 15 2 13 3 14 4 12 6 11 7 89 8 86 9 88 10 90 11 87 12
REMARK SMILES IDX 91 13 9 14 8 15 10 17 7 18 6 19 94 20 92 21 93 22 95 23
REMARK SMILES IDX 97 24 96 25 4 26 5 27 3 28 2 29 1 30 17 31 18 32 19 33 20 34
REMARK SMILES IDX 21 35 22 37 23 38 24 39 85 40 25 41 84 42 26 43 27 44 28 45
REMARK SMILES IDX 78 46 29 47 83 48 77 49 79 50 30 51 82 52 76 53 75 54 31 56
REMARK SMILES IDX 63 57 43 58 62 59 44 60 47 61 61 62 80 63 45 64 46 65 60 67
REMARK SMILES IDX 81 68 48 69 32 70 33 71 41 72 34 73 35 74 39 75 42 76 36 77
REMARK SMILES IDX 37 78 40 79 38 80 64 81 65 82 73 83 66 84 67 85 71 86 74 87
REMARK SMILES IDX 68 88 69 89 72 90 70 91 49 92 50 93 58 94 51 95 52 96 56 97
REMARK SMILES IDX 59 98 53 99 54 100 57 101 55 102
REMARK H PARENT 15 5 8 16 20 36 79 55 47 66
REMARK Flexibility Score: inf
ROOT
ATOM      1  C   UNL     1       7.819   0.466   4.775  1.00  0.00     0.116 C 
ENDROOT
BRANCH   1   2
ATOM      2  N   UNL     1       7.877   1.083   6.094  1.00  0.00    -0.356 N 
ATOM      3  C   UNL     1       7.133   2.070   6.683  1.00  0.00     0.224 C 
ATOM      4  O   UNL     1       7.400   2.347   7.852  1.00  0.00    -0.275 OA
ATOM      5  H   UNL     1       8.587   0.721   6.672  1.00  0.00     0.163 HD
BRANCH   3   6
ATOM      6  C   UNL     1       5.949   2.692   5.951  1.00  0.00     0.098 C 
ATOM      7  C   UNL     1       6.232   3.359   4.613  1.00  0.00     0.099 C 
ATOM      8  C   UNL     1       5.713   4.833   4.701  1.00  0.00     0.025 C 
ATOM      9  C   UNL     1       4.964   3.531   6.809  1.00  0.00     0.025 C 
ATOM     10  C   UNL     1       4.210   4.736   4.848  1.00  0.00    -0.027 C 
ATOM     11  C   UNL     1       6.258   5.502   6.005  1.00  0.00     0.009 C 
ATOM     12  C   UNL     1       3.819   4.009   5.909  1.00  0.00    -0.027 C 
ATOM     13  C   UNL     1       5.671   4.813   7.258  1.00  0.00     0.009 C 
BRANCH   7  14
ATOM     14  C   UNL     1       5.696   2.647   3.323  1.00  0.00     0.229 C 
ATOM     15  N   UNL     1       4.721   1.697   3.139  1.00  0.00    -0.317 N 
ATOM     16  H   UNL     1       4.613   1.476   2.186  1.00  0.00     0.170 HD
ATOM     17  O   UNL     1       6.201   3.050   2.255  1.00  0.00    -0.274 OA
BRANCH  15  18
ATOM     18  C   UNL     1       3.844   0.960   3.929  1.00  0.00     0.110 A 
ATOM     19  C   UNL     1       2.591   0.404   3.615  1.00  0.00     0.098 A 
ATOM     20  C   UNL     1       1.900   0.204   4.855  1.00  0.00    -0.017 A 
ATOM     21  S   UNL     1       4.311   0.023   5.319  1.00  0.00    -0.122 S 
ATOM     22  C   UNL     1       2.771   0.306   5.908  1.00  0.00     0.011 A 
ATOM     23  C   UNL     1       0.573  -0.216   5.367  1.00  0.00     0.038 C 
ATOM     24  C   UNL     1       2.184   0.235   7.254  1.00  0.00     0.047 C 
ATOM     25  C   UNL     1       0.672   0.121   6.898  1.00  0.00     0.010 C 
BRANCH  19  26
ATOM     26  C   UNL     1       2.183   0.120   2.251  1.00  0.00     0.341 C 
ATOM     27  O   UNL     1       3.000   0.011   1.354  1.00  0.00    -0.246 OA
BRANCH  26  28
ATOM     28  O   UNL     1       0.846  -0.112   2.125  1.00  0.00    -0.462 OA
BRANCH  28  29
ATOM     29  C   UNL     1       0.432  -0.750   0.906  1.00  0.00     0.230 C 
ATOM     30  C   UNL     1       0.671   0.078  -0.347  1.00  0.00     0.049 C 
ENDBRANCH  28  29
ENDBRANCH  26  28
ENDBRANCH  19  26
ENDBRANCH  15  18
ENDBRANCH   7  14
ENDBRANCH   3   6
ENDBRANCH   1   2
BRANCH   1  31
ATOM     31  C   UNL     1       9.068   0.752   3.940  1.00  0.00     0.023 C 
BRANCH  31  32
ATOM     32  C   UNL     1      10.356   0.121   4.484  1.00  0.00     0.023 C 
BRANCH  32  33
ATOM     33  C   UNL     1      10.374  -1.401   4.429  1.00  0.00     0.116 C 
BRANCH  33  34
ATOM     34  N   UNL     1      10.492  -1.923   3.069  1.00  0.00    -0.352 N 
ATOM     35  C   UNL     1      10.571  -3.250   2.694  1.00  0.00     0.251 C 
ATOM     36  H   UNL     1      10.517  -1.258   2.344  1.00  0.00     0.163 HD
ATOM     37  O   UNL     1      11.058  -3.589   1.623  1.00  0.00    -0.269 OA
BRANCH  35  38
ATOM     38  C   UNL     1      10.033  -4.261   3.617  1.00  0.00     0.039 A 
ATOM     39  C   UNL     1      10.752  -5.417   3.935  1.00  0.00     0.014 A 
ATOM     40  C   UNL     1       8.796  -3.997   4.200  1.00  0.00     0.014 A 
ATOM     41  C   UNL     1      10.253  -6.270   4.916  1.00  0.00     0.010 A 
ATOM     42  C   UNL     1       8.367  -4.770   5.249  1.00  0.00     0.010 A 
ATOM     43  C   UNL     1       9.069  -5.927   5.586  1.00  0.00    -0.014 A 
BRANCH  43  44
ATOM     44  C   UNL     1       8.637  -6.666   6.773  1.00  0.00     0.031 A 
ATOM     45  C   UNL     1       9.644  -6.676   7.876  1.00  0.00     0.074 A 
ATOM     46  C   UNL     1       7.346  -7.037   6.941  1.00  0.00     0.049 A 
ATOM     47  N   UNL     1      10.191  -7.696   8.450  1.00  0.00    -0.248 NA
ATOM     48  C   UNL     1      10.216  -5.385   8.309  1.00  0.00     0.031 C 
ATOM     49  C   UNL     1       6.227  -6.775   6.024  1.00  0.00     0.029 A 
ATOM     50  N   UNL     1       6.717  -7.593   8.016  1.00  0.00    -0.354 N 
ATOM     51  C   UNL     1      11.009  -7.179   9.457  1.00  0.00     0.074 A 
ATOM     52  C   UNL     1      11.136  -5.774   9.193  1.00  0.00     0.031 C 
ATOM     53  C   UNL     1       5.056  -6.924   6.678  1.00  0.00     0.029 A 
ATOM     54  C   UNL     1       5.330  -7.452   8.000  1.00  0.00     0.049 A 
ATOM     55  H   UNL     1       7.201  -8.053   8.739  1.00  0.00     0.167 HD
ATOM     56  C   UNL     1      11.246  -7.901  10.589  1.00  0.00     0.037 A 
ATOM     57  C   UNL     1       4.468  -7.715   9.013  1.00  0.00     0.037 A 
ATOM     58  C   UNL     1      10.923  -9.289  10.372  1.00  0.00     0.049 A 
ATOM     59  C   UNL     1       5.179  -8.592   9.968  1.00  0.00     0.074 A 
ATOM     60  C   UNL     1      11.398 -10.316   9.585  1.00  0.00     0.029 A 
ATOM     61  N   UNL     1       9.674  -9.658  10.791  1.00  0.00    -0.354 N 
ATOM     62  N   UNL     1       5.537  -9.816   9.702  1.00  0.00    -0.248 NA
ATOM     63  C   UNL     1       5.849  -7.976  11.103  1.00  0.00     0.031 C 
ATOM     64  C   UNL     1      10.257 -11.120   9.281  1.00  0.00     0.029 A 
ATOM     65  C   UNL     1       9.149 -10.591   9.946  1.00  0.00     0.049 A 
ATOM     66  H   UNL     1       9.219  -9.302  11.589  1.00  0.00     0.167 HD
ATOM     67  C   UNL     1       6.764  -9.960  10.326  1.00  0.00     0.074 A 
ATOM     68  C   UNL     1       6.823  -8.868  11.294  1.00  0.00     0.031 C 
ATOM     69  C   UNL     1       7.724 -10.758   9.771  1.00  0.00     0.037 A 
BRANCH  56  70
ATOM     70  C   UNL     1      11.235  -7.316  11.999  1.00  0.00     0.064 A 
ATOM     71  C   UNL     1      11.432  -8.194  13.090  1.00  0.00     0.173 A 
ATOM     72  C   UNL     1      10.694  -6.057  12.341  1.00  0.00     0.173 A 
ATOM     73  F   UNL     1      11.941  -9.421  12.896  1.00  0.00    -0.203 F 
ATOM     74  C   UNL     1      11.004  -7.883  14.385  1.00  0.00     0.198 A 
ATOM     75  C   UNL     1      10.312  -5.732  13.644  1.00  0.00     0.198 A 
ATOM     76  F   UNL     1      10.403  -5.124  11.429  1.00  0.00    -0.203 F 
ATOM     77  F   UNL     1      11.074  -8.809  15.351  1.00  0.00    -0.200 F 
ATOM     78  C   UNL     1      10.430  -6.657  14.657  1.00  0.00     0.200 A 
ATOM     79  F   UNL     1       9.742  -4.542  13.883  1.00  0.00    -0.200 F 
ATOM     80  F   UNL     1       9.947  -6.383  15.876  1.00  0.00    -0.200 F 
ENDBRANCH  56  70
BRANCH  57  81
ATOM     81  C   UNL     1       3.184  -7.054   9.354  1.00  0.00     0.064 A 
ATOM     82  C   UNL     1       2.266  -7.656  10.232  1.00  0.00     0.173 A 
ATOM     83  C   UNL     1       2.959  -5.696   9.053  1.00  0.00     0.173 A 
ATOM     84  F   UNL     1       2.429  -8.934  10.605  1.00  0.00    -0.203 F 
ATOM     85  C   UNL     1       1.208  -6.936  10.799  1.00  0.00     0.198 A 
ATOM     86  C   UNL     1       1.899  -4.980   9.614  1.00  0.00     0.198 A 
ATOM     87  F   UNL     1       3.819  -5.012   8.286  1.00  0.00    -0.203 F 
ATOM     88  F   UNL     1       0.393  -7.528  11.683  1.00  0.00    -0.200 F 
ATOM     89  C   UNL     1       1.033  -5.596  10.498  1.00  0.00     0.200 A 
ATOM     90  F   UNL     1       1.762  -3.674   9.342  1.00  0.00    -0.200 F 
ATOM     91  F   UNL     1       0.059  -4.888  11.089  1.00  0.00    -0.200 F 
ENDBRANCH  57  81
BRANCH  69  92
ATOM     92  C   UNL     1       7.277 -11.775   8.761  1.00  0.00     0.064 A 
ATOM     93  C   UNL     1       6.727 -11.471   7.505  1.00  0.00     0.173 A 
ATOM     94  C   UNL     1       7.524 -13.124   9.049  1.00  0.00     0.173 A 
ATOM     95  F   UNL     1       6.541 -10.202   7.120  1.00  0.00    -0.203 F 
ATOM     96  C   UNL     1       6.401 -12.478   6.599  1.00  0.00     0.198 A 
ATOM     97  C   UNL     1       7.236 -14.124   8.127  1.00  0.00     0.198 A 
ATOM     98  F   UNL     1       8.091 -13.468  10.216  1.00  0.00    -0.203 F 
ATOM     99  F   UNL     1       5.858 -12.166   5.412  1.00  0.00    -0.200 F 
ATOM    100  C   UNL     1       6.663 -13.803   6.907  1.00  0.00     0.200 A 
ATOM    101  F   UNL     1       7.535 -15.398   8.414  1.00  0.00    -0.200 F 
ATOM    102  F   UNL     1       6.386 -14.769   6.021  1.00  0.00    -0.200 F 
ENDBRANCH  69  92
ENDBRANCH  43  44
ENDBRANCH  35  38
ENDBRANCH  33  34
ENDBRANCH  32  33
ENDBRANCH  31  32
ENDBRANCH   1  31
TORSDOF 16
