REMARK SMILES O=C(NCCCCNC(=O)[C@@H]1CCCN(C(=O)Nc2ccccc2)C1)c1ccc(-c2c3nc(c(-c4c(F)c(F)c(F)c(F)c4F)c4ccc([nH]4)c(-c4c(F)c(F)c(F)c(F)c4F)c4nc(c(-c5c(F)c(F)c(F)c(F)c5F)c5ccc2[nH]5)C=C4)C=C3)cc1
REMARK SMILES IDX 5 1 4 2 3 3 1 4 2 5 26 7 27 8 88 9 28 10 87 11 29 12 30 13
REMARK SMILES IDX 31 14 81 15 32 16 86 17 80 18 82 19 33 20 85 21 79 22 78 23
REMARK SMILES IDX 34 25 66 26 46 27 65 28 47 29 50 30 64 31 83 32 48 33 49 34
REMARK SMILES IDX 63 36 84 37 51 38 35 39 36 40 44 41 37 42 38 43 42 44 45 45
REMARK SMILES IDX 39 46 40 47 43 48 41 49 67 50 68 51 76 52 69 53 70 54 74 55
REMARK SMILES IDX 77 56 71 57 72 58 75 59 73 60 52 61 53 62 61 63 54 64 55 65
REMARK SMILES IDX 59 66 62 67 56 68 57 69 60 70 58 71 6 72 7 73 8 74 9 75
REMARK SMILES IDX 10 77 11 78 12 79 25 80 13 81 15 82 14 83 16 84 17 85 18 86
REMARK SMILES IDX 19 88 20 89 24 90 21 91 23 92 22 93
REMARK H PARENT 3 6 82 24 50 35 8 76 18 87
REMARK Flexibility Score: inf
ROOT
ATOM      1  C   UNL     1       4.829   2.659  -0.322  1.00  0.00     0.023 C 
ENDROOT
BRANCH   1   2
ATOM      2  C   UNL     1       4.482   1.262   0.168  1.00  0.00     0.116 C 
BRANCH   2   3
ATOM      3  N   UNL     1       3.049   1.040   0.281  1.00  0.00    -0.352 N 
ATOM      4  O   UNL     1       1.094  -0.027  -0.092  1.00  0.00    -0.269 OA
ATOM      5  C   UNL     1       2.313  -0.042  -0.143  1.00  0.00     0.251 C 
ATOM      6  H   UNL     1       2.539   1.758   0.721  1.00  0.00     0.163 HD
BRANCH   5   7
ATOM      7  C   UNL     1       3.024  -1.217  -0.689  1.00  0.00     0.039 A 
ATOM      8  C   UNL     1       4.126  -1.748  -0.015  1.00  0.00     0.014 A 
ATOM      9  C   UNL     1       2.587  -1.780  -1.890  1.00  0.00     0.014 A 
ATOM     10  C   UNL     1       4.866  -2.765  -0.602  1.00  0.00     0.010 A 
ATOM     11  C   UNL     1       3.283  -2.861  -2.437  1.00  0.00     0.010 A 
ATOM     12  C   UNL     1       4.435  -3.350  -1.804  1.00  0.00    -0.014 A 
BRANCH  12  13
ATOM     13  C   UNL     1       5.141  -4.551  -2.309  1.00  0.00     0.031 A 
ATOM     14  C   UNL     1       5.901  -4.530  -3.602  1.00  0.00     0.074 A 
ATOM     15  C   UNL     1       5.088  -5.671  -1.561  1.00  0.00     0.049 A 
ATOM     16  N   UNL     1       6.565  -5.501  -4.178  1.00  0.00    -0.248 NA
ATOM     17  C   UNL     1       5.915  -3.266  -4.353  1.00  0.00     0.031 C 
ATOM     18  C   UNL     1       4.358  -5.802  -0.297  1.00  0.00     0.029 A 
ATOM     19  N   UNL     1       5.660  -6.903  -1.742  1.00  0.00    -0.354 N 
ATOM     20  C   UNL     1       7.059  -4.974  -5.363  1.00  0.00     0.074 A 
ATOM     21  C   UNL     1       6.608  -3.600  -5.435  1.00  0.00     0.031 C 
ATOM     22  C   UNL     1       4.553  -7.031   0.200  1.00  0.00     0.029 A 
ATOM     23  C   UNL     1       5.364  -7.794  -0.740  1.00  0.00     0.049 A 
ATOM     24  H   UNL     1       6.226  -7.128  -2.515  1.00  0.00     0.167 HD
ATOM     25  C   UNL     1       7.822  -5.589  -6.298  1.00  0.00     0.037 A 
ATOM     26  C   UNL     1       5.686  -9.092  -0.605  1.00  0.00     0.037 A 
ATOM     27  C   UNL     1       8.286  -6.950  -6.201  1.00  0.00     0.049 A 
ATOM     28  C   UNL     1       6.517  -9.745  -1.671  1.00  0.00     0.074 A 
ATOM     29  C   UNL     1       9.121  -7.640  -7.062  1.00  0.00     0.029 A 
ATOM     30  N   UNL     1       7.946  -7.831  -5.184  1.00  0.00    -0.354 N 
ATOM     31  N   UNL     1       7.025  -9.219  -2.759  1.00  0.00    -0.248 NA
ATOM     32  C   UNL     1       6.813 -11.172  -1.495  1.00  0.00     0.031 C 
ATOM     33  C   UNL     1       9.245  -8.953  -6.596  1.00  0.00     0.029 A 
ATOM     34  C   UNL     1       8.526  -9.068  -5.418  1.00  0.00     0.049 A 
ATOM     35  H   UNL     1       7.377  -7.610  -4.412  1.00  0.00     0.167 HD
ATOM     36  C   UNL     1       7.706 -10.245  -3.393  1.00  0.00     0.074 A 
ATOM     37  C   UNL     1       7.574 -11.418  -2.552  1.00  0.00     0.031 C 
ATOM     38  C   UNL     1       8.374 -10.224  -4.572  1.00  0.00     0.037 A 
BRANCH  25  39
ATOM     39  C   UNL     1       8.206  -4.814  -7.525  1.00  0.00     0.064 A 
ATOM     40  C   UNL     1       9.188  -3.814  -7.488  1.00  0.00     0.173 A 
ATOM     41  C   UNL     1       7.655  -5.149  -8.772  1.00  0.00     0.173 A 
ATOM     42  F   UNL     1       9.740  -3.452  -6.320  1.00  0.00    -0.203 F 
ATOM     43  C   UNL     1       9.603  -3.175  -8.655  1.00  0.00     0.198 A 
ATOM     44  C   UNL     1       8.088  -4.524  -9.938  1.00  0.00     0.198 A 
ATOM     45  F   UNL     1       6.717  -6.103  -8.861  1.00  0.00    -0.203 F 
ATOM     46  F   UNL     1      10.531  -2.210  -8.595  1.00  0.00    -0.200 F 
ATOM     47  C   UNL     1       9.060  -3.538  -9.879  1.00  0.00     0.200 A 
ATOM     48  F   UNL     1       7.572  -4.885 -11.122  1.00  0.00    -0.200 F 
ATOM     49  F   UNL     1       9.476  -2.937 -11.003  1.00  0.00    -0.200 F 
ENDBRANCH  25  39
BRANCH  26  50
ATOM     50  C   UNL     1       5.191  -9.861   0.565  1.00  0.00     0.064 A 
ATOM     51  C   UNL     1       6.072 -10.344   1.541  1.00  0.00     0.173 A 
ATOM     52  C   UNL     1       3.823 -10.133   0.727  1.00  0.00     0.173 A 
ATOM     53  F   UNL     1       7.390 -10.125   1.420  1.00  0.00    -0.203 F 
ATOM     54  C   UNL     1       5.607 -11.088   2.623  1.00  0.00     0.198 A 
ATOM     55  C   UNL     1       3.357 -10.848   1.827  1.00  0.00     0.198 A 
ATOM     56  F   UNL     1       2.938  -9.687  -0.176  1.00  0.00    -0.203 F 
ATOM     57  F   UNL     1       6.477 -11.582   3.515  1.00  0.00    -0.200 F 
ATOM     58  C   UNL     1       4.250 -11.335   2.768  1.00  0.00     0.200 A 
ATOM     59  F   UNL     1       2.043 -11.067   1.972  1.00  0.00    -0.200 F 
ATOM     60  F   UNL     1       3.804 -12.048   3.810  1.00  0.00    -0.200 F 
ENDBRANCH  26  50
BRANCH  38  61
ATOM     61  C   UNL     1       9.014 -11.507  -5.010  1.00  0.00     0.064 A 
ATOM     62  C   UNL     1       8.245 -12.585  -5.471  1.00  0.00     0.173 A 
ATOM     63  C   UNL     1      10.409 -11.653  -4.985  1.00  0.00     0.173 A 
ATOM     64  F   UNL     1       6.906 -12.498  -5.494  1.00  0.00    -0.203 F 
ATOM     65  C   UNL     1       8.848 -13.775  -5.865  1.00  0.00     0.198 A 
ATOM     66  C   UNL     1      11.010 -12.835  -5.408  1.00  0.00     0.198 A 
ATOM     67  F   UNL     1      11.187 -10.649  -4.556  1.00  0.00    -0.203 F 
ATOM     68  F   UNL     1       8.092 -14.811  -6.253  1.00  0.00    -0.200 F 
ATOM     69  C   UNL     1      10.230 -13.897  -5.840  1.00  0.00     0.200 A 
ATOM     70  F   UNL     1      12.345 -12.947  -5.394  1.00  0.00    -0.200 F 
ATOM     71  F   UNL     1      10.809 -15.043  -6.223  1.00  0.00    -0.200 F 
ENDBRANCH  38  61
ENDBRANCH  12  13
ENDBRANCH   5   7
ENDBRANCH   2   3
ENDBRANCH   1   2
BRANCH   1  72
ATOM     72  C   UNL     1       4.302   3.795   0.552  1.00  0.00     0.023 C 
BRANCH  72  73
ATOM     73  C   UNL     1       4.656   3.682   2.035  1.00  0.00     0.116 C 
BRANCH  73  74
ATOM     74  N   UNL     1       6.087   3.748   2.261  1.00  0.00    -0.356 N 
ATOM     75  C   UNL     1       6.815   4.673   2.954  1.00  0.00     0.224 C 
ATOM     76  H   UNL     1       6.610   3.019   1.855  1.00  0.00     0.163 HD
ATOM     77  O   UNL     1       8.028   4.492   3.042  1.00  0.00    -0.275 OA
BRANCH  75  78
ATOM     78  C   UNL     1       6.096   5.884   3.546  1.00  0.00     0.098 C 
ATOM     79  C   UNL     1       5.662   6.854   2.448  1.00  0.00     0.017 C 
ATOM     80  C   UNL     1       6.934   6.600   4.615  1.00  0.00     0.134 C 
ATOM     81  C   UNL     1       6.869   7.556   1.858  1.00  0.00     0.022 C 
ATOM     82  N   UNL     1       7.986   7.488   4.105  1.00  0.00    -0.324 N 
ATOM     83  C   UNL     1       7.643   8.297   2.933  1.00  0.00     0.121 C 
BRANCH  82  84
ATOM     84  C   UNL     1       9.177   7.519   4.814  1.00  0.00     0.321 C 
ATOM     85  O   UNL     1       9.408   6.741   5.745  1.00  0.00    -0.248 OA
ATOM     86  N   UNL     1      10.200   8.333   4.438  1.00  0.00    -0.308 N 
ATOM     87  H   UNL     1      11.094   7.966   4.630  1.00  0.00     0.171 HD
BRANCH  86  88
ATOM     88  C   UNL     1      10.222   9.592   3.832  1.00  0.00     0.042 A 
ATOM     89  C   UNL     1      11.232   9.842   2.900  1.00  0.00     0.026 A 
ATOM     90  C   UNL     1       9.251  10.564   4.086  1.00  0.00     0.026 A 
ATOM     91  C   UNL     1      11.188  11.001   2.126  1.00  0.00     0.002 A 
ATOM     92  C   UNL     1       9.222  11.733   3.324  1.00  0.00     0.002 A 
ATOM     93  C   UNL     1      10.174  11.938   2.326  1.00  0.00     0.000 A 
ENDBRANCH  86  88
ENDBRANCH  82  84
ENDBRANCH  75  78
ENDBRANCH  73  74
ENDBRANCH  72  73
ENDBRANCH   1  72
TORSDOF 13
