REMARK SMILES O=C(NCCCCNC(=O)c1cc(-c2cncnc2)cc(S(=O)(=O)N2CCCC2)c1)c1ccc(-c2c3nc(c(-c4c(F)c(F)c(F)c(F)c4F)c4ccc([nH]4)c(-c4c(F)c(F)c(F)c(F)c4F)c4nc(c(-c5c(F)c(F)c(F)c(F)c5F)c5ccc2[nH]5)C=C4)C=C3)cc1
REMARK SMILES IDX 5 1 4 2 3 3 1 4 2 5 31 7 32 8 93 9 33 10 92 11 34 12 35 13
REMARK SMILES IDX 36 14 86 15 37 16 91 17 85 18 87 19 38 20 90 21 84 22 83 23
REMARK SMILES IDX 39 25 71 26 51 27 70 28 52 29 55 30 69 31 88 32 53 33 54 34
REMARK SMILES IDX 68 36 89 37 56 38 40 39 41 40 49 41 42 42 43 43 47 44 50 45
REMARK SMILES IDX 44 46 45 47 48 48 46 49 72 50 73 51 81 52 74 53 75 54 79 55
REMARK SMILES IDX 82 56 76 57 77 58 80 59 78 60 57 61 58 62 66 63 59 64 60 65
REMARK SMILES IDX 64 66 67 67 61 68 62 69 65 70 63 71 6 72 7 73 8 74 9 75
REMARK SMILES IDX 10 77 11 78 12 79 30 80 13 81 21 82 20 83 14 84 15 85 19 86
REMARK SMILES IDX 16 87 18 88 17 89 22 90 23 91 24 92 25 93 26 94 29 95 27 96
REMARK SMILES IDX 28 97
REMARK H PARENT 3 6 87 24 55 35 8 76
REMARK Flexibility Score: inf
ROOT
ATOM      1  C   UNL     1       4.909  -0.124  -2.778  1.00  0.00     0.023 C 
ENDROOT
BRANCH   1   2
ATOM      2  C   UNL     1       4.582   0.476  -1.419  1.00  0.00     0.116 C 
BRANCH   2   3
ATOM      3  N   UNL     1       3.152   0.560  -1.151  1.00  0.00    -0.352 N 
ATOM      4  O   UNL     1       1.194   0.068  -0.135  1.00  0.00    -0.269 OA
ATOM      5  C   UNL     1       2.416  -0.022  -0.143  1.00  0.00     0.251 C 
ATOM      6  H   UNL     1       2.638   1.114  -1.782  1.00  0.00     0.163 HD
BRANCH   5   7
ATOM      7  C   UNL     1       3.111  -0.790   0.912  1.00  0.00     0.039 A 
ATOM      8  C   UNL     1       4.250  -0.266   1.519  1.00  0.00     0.014 A 
ATOM      9  C   UNL     1       2.651  -2.064   1.258  1.00  0.00     0.014 A 
ATOM     10  C   UNL     1       5.040  -1.087   2.310  1.00  0.00     0.010 A 
ATOM     11  C   UNL     1       3.389  -2.849   2.150  1.00  0.00     0.010 A 
ATOM     12  C   UNL     1       4.615  -2.385   2.647  1.00  0.00    -0.014 A 
BRANCH  12  13
ATOM     13  C   UNL     1       5.466  -3.189   3.564  1.00  0.00     0.031 A 
ATOM     14  C   UNL     1       6.112  -4.474   3.122  1.00  0.00     0.074 A 
ATOM     15  C   UNL     1       5.720  -2.692   4.790  1.00  0.00     0.049 A 
ATOM     16  N   UNL     1       6.952  -5.238   3.777  1.00  0.00    -0.248 NA
ATOM     17  C   UNL     1       5.771  -4.975   1.783  1.00  0.00     0.031 C 
ATOM     18  C   UNL     1       5.129  -1.466   5.335  1.00  0.00     0.029 A 
ATOM     19  N   UNL     1       6.564  -3.120   5.781  1.00  0.00    -0.354 N 
ATOM     20  C   UNL     1       7.230  -6.310   2.938  1.00  0.00     0.074 A 
ATOM     21  C   UNL     1       6.446  -6.117   1.737  1.00  0.00     0.031 C 
ATOM     22  C   UNL     1       5.680  -1.203   6.527  1.00  0.00     0.029 A 
ATOM     23  C   UNL     1       6.609  -2.275   6.862  1.00  0.00     0.049 A 
ATOM     24  H   UNL     1       7.087  -3.953   5.723  1.00  0.00     0.167 HD
ATOM     25  C   UNL     1       8.069  -7.353   3.151  1.00  0.00     0.037 A 
ATOM     26  C   UNL     1       7.312  -2.356   8.006  1.00  0.00     0.037 A 
ATOM     27  C   UNL     1       8.855  -7.535   4.346  1.00  0.00     0.049 A 
ATOM     28  C   UNL     1       8.239  -3.518   8.207  1.00  0.00     0.074 A 
ATOM     29  C   UNL     1       9.739  -8.556   4.653  1.00  0.00     0.029 A 
ATOM     30  N   UNL     1       8.855  -6.671   5.432  1.00  0.00    -0.354 N 
ATOM     31  N   UNL     1       8.501  -4.514   7.397  1.00  0.00    -0.248 NA
ATOM     32  C   UNL     1       8.968  -3.567   9.480  1.00  0.00     0.031 C 
ATOM     33  C   UNL     1      10.245  -8.330   5.938  1.00  0.00     0.029 A 
ATOM     34  C   UNL     1       9.713  -7.143   6.414  1.00  0.00     0.049 A 
ATOM     35  H   UNL     1       8.323  -5.845   5.496  1.00  0.00     0.167 HD
ATOM     36  C   UNL     1       9.421  -5.311   8.061  1.00  0.00     0.074 A 
ATOM     37  C   UNL     1       9.705  -4.657   9.322  1.00  0.00     0.031 C 
ATOM     38  C   UNL     1       9.972  -6.485   7.669  1.00  0.00     0.037 A 
BRANCH  25  39
ATOM     39  C   UNL     1       8.186  -8.392   2.071  1.00  0.00     0.064 A 
ATOM     40  C   UNL     1       8.863  -8.130   0.870  1.00  0.00     0.173 A 
ATOM     41  C   UNL     1       7.677  -9.685   2.267  1.00  0.00     0.173 A 
ATOM     42  F   UNL     1       9.359  -6.907   0.628  1.00  0.00    -0.203 F 
ATOM     43  C   UNL     1       9.013  -9.119  -0.099  1.00  0.00     0.198 A 
ATOM     44  C   UNL     1       7.851 -10.679   1.306  1.00  0.00     0.198 A 
ATOM     45  F   UNL     1       7.027  -9.991   3.399  1.00  0.00    -0.203 F 
ATOM     46  F   UNL     1       9.636  -8.836  -1.252  1.00  0.00    -0.200 F 
ATOM     47  C   UNL     1       8.515 -10.394   0.123  1.00  0.00     0.200 A 
ATOM     48  F   UNL     1       7.380 -11.914   1.528  1.00  0.00    -0.200 F 
ATOM     49  F   UNL     1       8.673 -11.348  -0.805  1.00  0.00    -0.200 F 
ENDBRANCH  25  39
BRANCH  26  50
ATOM     50  C   UNL     1       7.146  -1.309   9.047  1.00  0.00     0.064 A 
ATOM     51  C   UNL     1       8.187  -0.427   9.365  1.00  0.00     0.173 A 
ATOM     52  C   UNL     1       5.932  -1.161   9.734  1.00  0.00     0.173 A 
ATOM     53  F   UNL     1       9.372  -0.539   8.746  1.00  0.00    -0.203 F 
ATOM     54  C   UNL     1       8.026   0.550  10.344  1.00  0.00     0.198 A 
ATOM     55  C   UNL     1       5.760  -0.161  10.687  1.00  0.00     0.198 A 
ATOM     56  F   UNL     1       4.901  -1.974   9.459  1.00  0.00    -0.203 F 
ATOM     57  F   UNL     1       9.051   1.353  10.661  1.00  0.00    -0.200 F 
ATOM     58  C   UNL     1       6.810   0.688  10.998  1.00  0.00     0.200 A 
ATOM     59  F   UNL     1       4.577  -0.019  11.299  1.00  0.00    -0.200 F 
ATOM     60  F   UNL     1       6.653   1.636  11.931  1.00  0.00    -0.200 F 
ENDBRANCH  26  50
BRANCH  38  61
ATOM     61  C   UNL     1      10.937  -7.126   8.621  1.00  0.00     0.064 A 
ATOM     62  C   UNL     1      10.501  -7.713   9.819  1.00  0.00     0.173 A 
ATOM     63  C   UNL     1      12.310  -7.151   8.337  1.00  0.00     0.173 A 
ATOM     64  F   UNL     1       9.200  -7.698  10.143  1.00  0.00    -0.203 F 
ATOM     65  C   UNL     1      11.410  -8.267  10.716  1.00  0.00     0.198 A 
ATOM     66  C   UNL     1      13.213  -7.733   9.223  1.00  0.00     0.198 A 
ATOM     67  F   UNL     1      12.776  -6.607   7.203  1.00  0.00    -0.203 F 
ATOM     68  F   UNL     1      10.978  -8.766  11.882  1.00  0.00    -0.200 F 
ATOM     69  C   UNL     1      12.764  -8.280  10.415  1.00  0.00     0.200 A 
ATOM     70  F   UNL     1      14.520  -7.753   8.927  1.00  0.00    -0.200 F 
ATOM     71  F   UNL     1      13.638  -8.809  11.282  1.00  0.00    -0.200 F 
ENDBRANCH  38  61
ENDBRANCH  12  13
ENDBRANCH   5   7
ENDBRANCH   2   3
ENDBRANCH   1   2
BRANCH   1  72
ATOM     72  C   UNL     1       4.422   0.682  -3.978  1.00  0.00     0.023 C 
BRANCH  72  73
ATOM     73  C   UNL     1       4.817   2.154  -3.977  1.00  0.00     0.116 C 
BRANCH  73  74
ATOM     74  N   UNL     1       6.256   2.356  -3.943  1.00  0.00    -0.352 N 
ATOM     75  C   UNL     1       7.040   3.178  -4.713  1.00  0.00     0.251 C 
ATOM     76  H   UNL     1       6.739   1.824  -3.270  1.00  0.00     0.163 HD
ATOM     77  O   UNL     1       8.262   3.113  -4.637  1.00  0.00    -0.269 OA
BRANCH  75  78
ATOM     78  C   UNL     1       6.419   4.156  -5.632  1.00  0.00     0.041 A 
ATOM     79  C   UNL     1       6.931   4.298  -6.922  1.00  0.00     0.022 A 
ATOM     80  C   UNL     1       5.376   4.970  -5.198  1.00  0.00     0.035 A 
ATOM     81  C   UNL     1       6.375   5.230  -7.816  1.00  0.00    -0.013 A 
ATOM     82  C   UNL     1       4.801   5.888  -6.067  1.00  0.00     0.084 A 
ATOM     83  C   UNL     1       5.300   6.023  -7.371  1.00  0.00     0.030 A 
BRANCH  81  84
ATOM     84  C   UNL     1       6.920   5.362  -9.169  1.00  0.00     0.018 A 
ATOM     85  C   UNL     1       7.363   6.564  -9.695  1.00  0.00     0.123 A 
ATOM     86  C   UNL     1       7.076   4.285 -10.029  1.00  0.00     0.123 A 
ATOM     87  N   UNL     1       7.910   6.706 -10.922  1.00  0.00    -0.244 NA
ATOM     88  N   UNL     1       7.614   4.362 -11.264  1.00  0.00    -0.244 NA
ATOM     89  C   UNL     1       8.011   5.583 -11.647  1.00  0.00     0.221 A 
ENDBRANCH  81  84
BRANCH  82  90
ATOM     90  S   UNL     1       3.421   6.903  -5.570  1.00  0.00     0.243 S 
ATOM     91  O   UNL     1       3.742   8.249  -6.005  1.00  0.00    -0.207 OA
ATOM     92  O   UNL     1       2.239   6.213  -6.027  1.00  0.00    -0.207 OA
BRANCH  90  93
ATOM     93  N   UNL     1       3.398   6.914  -3.893  1.00  0.00    -0.198 NA
ATOM     94  C   UNL     1       4.420   7.622  -3.112  1.00  0.00     0.102 C 
ATOM     95  C   UNL     1       2.821   5.802  -3.123  1.00  0.00     0.102 C 
ATOM     96  C   UNL     1       4.853   6.613  -2.060  1.00  0.00     0.018 C 
ATOM     97  C   UNL     1       3.618   5.758  -1.820  1.00  0.00     0.018 C 
ENDBRANCH  90  93
ENDBRANCH  82  90
ENDBRANCH  75  78
ENDBRANCH  73  74
ENDBRANCH  72  73
ENDBRANCH   1  72
TORSDOF 14
