REMARK SMILES O=C(NCCCCNC(=O)[C@@H]1CCCN1C(=O)[C@H]1CC[C@@H](Cn2c(O)nc3ccccc3c2=O)CC1)c1ccc(-c2c3nc(c(-c4c(F)c(F)c(F)c(F)c4F)c4ccc([nH]4)c(-c4c(F)c(F)c(F)c(F)c4F)c4nc(c(-c5c(F)c(F)c(F)c(F)c5F)c5ccc2[nH]5)C=C4)C=C3)cc1
REMARK SMILES IDX 7 1 6 2 5 3 4 4 3 5 1 6 2 7 37 9 38 10 99 11 39 12 98 13
REMARK SMILES IDX 40 14 41 15 42 16 92 17 43 18 97 19 91 20 93 21 44 22 96 23
REMARK SMILES IDX 90 24 89 25 45 27 77 28 57 29 76 30 58 31 61 32 75 33 94 34
REMARK SMILES IDX 59 35 60 36 74 38 95 39 62 40 46 41 47 42 55 43 48 44 49 45
REMARK SMILES IDX 53 46 56 47 50 48 51 49 54 50 52 51 78 52 79 53 87 54 80 55
REMARK SMILES IDX 81 56 85 57 88 58 82 59 83 60 86 61 84 62 63 63 64 64 72 65
REMARK SMILES IDX 65 66 66 67 70 68 73 69 67 70 68 71 71 72 69 73 8 74 9 75
REMARK SMILES IDX 10 77 11 78 12 79 15 80 13 81 14 82 16 83 17 84 18 85 36 86
REMARK SMILES IDX 19 87 35 88 20 89 21 90 22 91 23 92 24 93 33 94 26 95 32 96
REMARK SMILES IDX 34 97 27 98 31 99 28 100 30 101 29 102 25 103
REMARK H PARENT 3 8 93 26 61 37 8 76 25 104
REMARK Flexibility Score: inf
ROOT
ATOM      1  C   UNL     1       4.153   4.821  -0.452  1.00  0.00     0.116 C 
ENDROOT
BRANCH   1   2
ATOM      2  C   UNL     1       3.234   3.838  -1.223  1.00  0.00     0.023 C 
BRANCH   2   3
ATOM      3  C   UNL     1       3.428   2.317  -1.317  1.00  0.00     0.023 C 
BRANCH   3   4
ATOM      4  C   UNL     1       3.545   1.539  -0.026  1.00  0.00     0.116 C 
BRANCH   4   5
ATOM      5  N   UNL     1       2.223   1.169   0.442  1.00  0.00    -0.352 N 
ATOM      6  O   UNL     1       0.521  -0.278   0.663  1.00  0.00    -0.269 OA
ATOM      7  C   UNL     1       1.734  -0.087   0.703  1.00  0.00     0.251 C 
ATOM      8  H   UNL     1       1.597   1.913   0.592  1.00  0.00     0.163 HD
BRANCH   7   9
ATOM      9  C   UNL     1       2.643  -1.201   1.075  1.00  0.00     0.039 A 
ATOM     10  C   UNL     1       2.203  -2.516   0.893  1.00  0.00     0.014 A 
ATOM     11  C   UNL     1       3.864  -0.967   1.717  1.00  0.00     0.014 A 
ATOM     12  C   UNL     1       2.949  -3.576   1.411  1.00  0.00     0.010 A 
ATOM     13  C   UNL     1       4.663  -2.028   2.127  1.00  0.00     0.010 A 
ATOM     14  C   UNL     1       4.174  -3.336   2.054  1.00  0.00    -0.014 A 
BRANCH  14  15
ATOM     15  C   UNL     1       4.872  -4.425   2.780  1.00  0.00     0.031 A 
ATOM     16  C   UNL     1       5.020  -4.340   4.280  1.00  0.00     0.074 A 
ATOM     17  C   UNL     1       5.333  -5.491   2.100  1.00  0.00     0.049 A 
ATOM     18  N   UNL     1       5.551  -5.204   5.108  1.00  0.00    -0.248 NA
ATOM     19  C   UNL     1       4.534  -3.114   4.942  1.00  0.00     0.031 C 
ATOM     20  C   UNL     1       5.275  -5.649   0.646  1.00  0.00     0.029 A 
ATOM     21  N   UNL     1       5.916  -6.652   2.538  1.00  0.00    -0.354 N 
ATOM     22  C   UNL     1       5.465  -4.622   6.368  1.00  0.00     0.074 A 
ATOM     23  C   UNL     1       4.909  -3.303   6.197  1.00  0.00     0.031 C 
ATOM     24  C   UNL     1       5.745  -6.862   0.317  1.00  0.00     0.029 A 
ATOM     25  C   UNL     1       6.171  -7.552   1.532  1.00  0.00     0.049 A 
ATOM     26  H   UNL     1       6.132  -6.824   3.483  1.00  0.00     0.167 HD
ATOM     27  C   UNL     1       5.777  -5.162   7.567  1.00  0.00     0.037 A 
ATOM     28  C   UNL     1       6.678  -8.799   1.590  1.00  0.00     0.037 A 
ATOM     29  C   UNL     1       6.275  -6.499   7.728  1.00  0.00     0.049 A 
ATOM     30  C   UNL     1       7.021  -9.374   2.940  1.00  0.00     0.074 A 
ATOM     31  C   UNL     1       6.579  -7.167   8.899  1.00  0.00     0.029 A 
ATOM     32  N   UNL     1       6.528  -7.373   6.682  1.00  0.00    -0.354 N 
ATOM     33  N   UNL     1       6.874  -8.836   4.127  1.00  0.00    -0.248 NA
ATOM     34  C   UNL     1       7.595 -10.726   2.963  1.00  0.00     0.031 C 
ATOM     35  C   UNL     1       7.066  -8.429   8.560  1.00  0.00     0.029 A 
ATOM     36  C   UNL     1       7.007  -8.570   7.181  1.00  0.00     0.049 A 
ATOM     37  H   UNL     1       6.389  -7.171   5.729  1.00  0.00     0.167 HD
ATOM     38  C   UNL     1       7.307  -9.790   5.036  1.00  0.00     0.074 A 
ATOM     39  C   UNL     1       7.712 -10.948   4.266  1.00  0.00     0.031 C 
ATOM     40  C   UNL     1       7.370  -9.715   6.387  1.00  0.00     0.037 A 
BRANCH  27  41
ATOM     41  C   UNL     1       5.556  -4.340   8.804  1.00  0.00     0.064 A 
ATOM     42  C   UNL     1       4.265  -4.057   9.274  1.00  0.00     0.173 A 
ATOM     43  C   UNL     1       6.644  -3.922   9.586  1.00  0.00     0.173 A 
ATOM     44  F   UNL     1       3.191  -4.423   8.558  1.00  0.00    -0.203 F 
ATOM     45  C   UNL     1       4.071  -3.384  10.477  1.00  0.00     0.198 A 
ATOM     46  C   UNL     1       6.446  -3.275  10.803  1.00  0.00     0.198 A 
ATOM     47  F   UNL     1       7.900  -4.169   9.185  1.00  0.00    -0.203 F 
ATOM     48  F   UNL     1       2.828  -3.104  10.893  1.00  0.00    -0.200 F 
ATOM     49  C   UNL     1       5.160  -3.007  11.247  1.00  0.00     0.200 A 
ATOM     50  F   UNL     1       7.499  -2.926  11.555  1.00  0.00    -0.200 F 
ATOM     51  F   UNL     1       4.970  -2.387  12.420  1.00  0.00    -0.200 F 
ENDBRANCH  27  41
BRANCH  28  52
ATOM     52  C   UNL     1       6.845  -9.593   0.343  1.00  0.00     0.064 A 
ATOM     53  C   UNL     1       6.076 -10.742   0.109  1.00  0.00     0.173 A 
ATOM     54  C   UNL     1       7.760  -9.212  -0.650  1.00  0.00     0.173 A 
ATOM     55  F   UNL     1       5.195 -11.159   1.031  1.00  0.00    -0.203 F 
ATOM     56  C   UNL     1       6.229 -11.488  -1.059  1.00  0.00     0.198 A 
ATOM     57  C   UNL     1       7.888  -9.939  -1.832  1.00  0.00     0.198 A 
ATOM     58  F   UNL     1       8.514  -8.116  -0.483  1.00  0.00    -0.203 F 
ATOM     59  F   UNL     1       5.511 -12.606  -1.236  1.00  0.00    -0.200 F 
ATOM     60  C   UNL     1       7.129 -11.082  -2.032  1.00  0.00     0.200 A 
ATOM     61  F   UNL     1       8.744  -9.530  -2.779  1.00  0.00    -0.200 F 
ATOM     62  F   UNL     1       7.268 -11.792  -3.159  1.00  0.00    -0.200 F 
ENDBRANCH  28  52
BRANCH  40  63
ATOM     63  C   UNL     1       7.860 -10.915   7.139  1.00  0.00     0.064 A 
ATOM     64  C   UNL     1       9.220 -11.248   7.168  1.00  0.00     0.173 A 
ATOM     65  C   UNL     1       6.981 -11.640   7.958  1.00  0.00     0.173 A 
ATOM     66  F   UNL     1      10.095 -10.585   6.397  1.00  0.00    -0.203 F 
ATOM     67  C   UNL     1       9.685 -12.264   7.997  1.00  0.00     0.198 A 
ATOM     68  C   UNL     1       7.454 -12.634   8.807  1.00  0.00     0.198 A 
ATOM     69  F   UNL     1       5.672 -11.345   7.974  1.00  0.00    -0.203 F 
ATOM     70  F   UNL     1      10.989 -12.576   8.003  1.00  0.00    -0.200 F 
ATOM     71  C   UNL     1       8.806 -12.944   8.827  1.00  0.00     0.200 A 
ATOM     72  F   UNL     1       6.607 -13.272   9.627  1.00  0.00    -0.200 F 
ATOM     73  F   UNL     1       9.263 -13.895   9.653  1.00  0.00    -0.200 F 
ENDBRANCH  40  63
ENDBRANCH  14  15
ENDBRANCH   7   9
ENDBRANCH   4   5
ENDBRANCH   3   4
ENDBRANCH   2   3
ENDBRANCH   1   2
BRANCH   1  74
ATOM     74  N   UNL     1       5.606   4.903  -0.591  1.00  0.00    -0.354 N 
ATOM     75  C   UNL     1       6.447   5.723  -1.295  1.00  0.00     0.242 C 
ATOM     76  H   UNL     1       6.082   4.221  -0.064  1.00  0.00     0.163 HD
ATOM     77  O   UNL     1       7.492   6.048  -0.714  1.00  0.00    -0.273 OA
BRANCH  75  78
ATOM     78  C   UNL     1       6.256   6.135  -2.775  1.00  0.00     0.174 C 
ATOM     79  C   UNL     1       6.387   7.668  -2.897  1.00  0.00     0.037 C 
ATOM     80  N   UNL     1       5.012   5.792  -3.428  1.00  0.00    -0.330 N 
ATOM     81  C   UNL     1       5.091   8.160  -3.529  1.00  0.00     0.024 C 
ATOM     82  C   UNL     1       4.152   6.969  -3.478  1.00  0.00     0.120 C 
BRANCH  80  83
ATOM     83  C   UNL     1       4.672   4.616  -4.055  1.00  0.00     0.226 C 
ATOM     84  O   UNL     1       3.637   4.579  -4.737  1.00  0.00    -0.275 OA
BRANCH  83  85
ATOM     85  C   UNL     1       5.479   3.287  -3.935  1.00  0.00     0.078 C 
ATOM     86  C   UNL     1       6.252   2.938  -5.206  1.00  0.00     0.014 C 
ATOM     87  C   UNL     1       6.367   3.006  -2.727  1.00  0.00     0.014 C 
ATOM     88  C   UNL     1       6.825   1.508  -5.122  1.00  0.00     0.006 C 
ATOM     89  C   UNL     1       6.902   1.583  -2.640  1.00  0.00     0.006 C 
ATOM     90  C   UNL     1       7.708   1.238  -3.879  1.00  0.00     0.009 C 
BRANCH  90  91
ATOM     91  C   UNL     1       9.054   2.000  -3.944  1.00  0.00     0.134 C 
BRANCH  91  92
ATOM     92  N   UNL     1       9.957   1.827  -2.791  1.00  0.00    -0.262 N 
ATOM     93  C   UNL     1      10.764   0.729  -2.582  1.00  0.00     0.297 A 
ATOM     94  C   UNL     1      10.057   2.899  -1.906  1.00  0.00     0.264 A 
ATOM     95  N   UNL     1      11.695   0.642  -1.696  1.00  0.00    -0.197 NA
ATOM     96  C   UNL     1      11.205   2.921  -0.994  1.00  0.00     0.066 A 
ATOM     97  O   UNL     1       9.263   3.838  -1.865  1.00  0.00    -0.268 OA
ATOM     98  C   UNL     1      11.989   1.777  -0.933  1.00  0.00     0.081 A 
ATOM     99  C   UNL     1      11.550   4.085  -0.292  1.00  0.00     0.016 A 
ATOM    100  C   UNL     1      13.136   1.798  -0.137  1.00  0.00     0.029 A 
ATOM    101  C   UNL     1      12.715   4.105   0.471  1.00  0.00     0.001 A 
ATOM    102  C   UNL     1      13.506   2.959   0.553  1.00  0.00     0.002 A 
BRANCH  93 103
ATOM    103  O   UNL     1      10.575  -0.346  -3.369  1.00  0.00    -0.480 OA
ATOM    104  H   UNL     1       9.909  -0.332  -4.028  1.00  0.00     0.296 HD
ENDBRANCH  93 103
ENDBRANCH  91  92
ENDBRANCH  90  91
ENDBRANCH  83  85
ENDBRANCH  80  83
ENDBRANCH  75  78
ENDBRANCH   1  74
TORSDOF 16
