REMARK SMILES Cc1cc(OC(F)(F)F)cc2c1O[C@H](C(F)(F)F)C(C(=O)NCCCCNC(=O)c1ccc(-c3c4nc(c(-c5c(F)c(F)c(F)c(F)c5F)c5ccc([nH]5)c(-c5c(F)c(F)c(F)c(F)c5F)c5nc(c(-c6c(F)c(F)c(F)c(F)c6F)c6ccc3[nH]6)C=C5)C=C4)cc1)=C2
REMARK SMILES IDX 24 1 23 2 22 3 20 4 21 5 19 7 1 8 2 9 3 10 12 11 4 12 11 13
REMARK SMILES IDX 13 14 10 15 93 16 14 17 5 18 6 19 7 20 8 21 9 22 15 23 16 24
REMARK SMILES IDX 17 25 18 26 25 27 26 28 27 29 28 30 29 32 30 33 31 34 92 35
REMARK SMILES IDX 32 36 91 37 33 38 34 39 35 40 85 41 36 42 90 43 84 44 86 45
REMARK SMILES IDX 37 46 89 47 83 48 82 49 38 51 70 52 50 53 69 54 51 55 54 56
REMARK SMILES IDX 68 57 87 58 52 59 53 60 67 62 88 63 55 64 39 65 40 66 48 67
REMARK SMILES IDX 41 68 42 69 46 70 49 71 43 72 44 73 47 74 45 75 71 76 72 77
REMARK SMILES IDX 80 78 73 79 74 80 78 81 81 82 75 83 76 84 79 85 77 86 56 87
REMARK SMILES IDX 57 88 65 89 58 90 59 91 63 92 66 93 60 94 61 95 64 96 62 97
REMARK H PARENT 22 6 27 31 86 50 54 61
REMARK Flexibility Score: inf
ROOT
ATOM      1  C   UNL     1       5.409  -4.815  -2.949  1.00  0.00     0.023 C 
ENDROOT
BRANCH   1   2
ATOM      2  C   UNL     1       3.975  -5.206  -3.295  1.00  0.00     0.116 C 
BRANCH   2   3
ATOM      3  N   UNL     1       3.399  -6.094  -2.301  1.00  0.00    -0.352 N 
ATOM      4  C   UNL     1       2.571  -5.977  -1.236  1.00  0.00     0.251 C 
ATOM      5  O   UNL     1       2.341  -7.032  -0.636  1.00  0.00    -0.270 OA
ATOM      6  H   UNL     1       3.686  -7.025  -2.437  1.00  0.00     0.163 HD
BRANCH   4   7
ATOM      7  C   UNL     1       1.947  -4.707  -0.761  1.00  0.00     0.067 C 
ATOM      8  C   UNL     1       0.671   0.160   0.261  1.00  0.00     0.048 C 
ATOM      9  C   UNL     1       0.333  -1.177   0.858  1.00  0.00    -0.005 A 
ATOM     10  C   UNL     1      -0.588  -1.268   1.914  1.00  0.00     0.054 A 
ATOM     11  C   UNL     1       0.908  -2.350   0.355  1.00  0.00     0.131 A 
ATOM     12  C   UNL     1      -0.913  -2.508   2.472  1.00  0.00     0.130 A 
ATOM     13  C   UNL     1       0.597  -3.594   0.905  1.00  0.00     0.021 A 
ATOM     14  O   UNL     1       1.815  -2.222  -0.661  1.00  0.00    -0.475 OA
ATOM     15  C   UNL     1      -0.314  -3.667   1.963  1.00  0.00     0.058 A 
ATOM     16  C   UNL     1       1.256  -4.790   0.392  1.00  0.00     0.025 C 
ATOM     17  C   UNL     1       2.011  -3.397  -1.494  1.00  0.00     0.314 C 
BRANCH  12  18
ATOM     18  O   UNL     1      -1.783  -2.730   3.501  1.00  0.00    -0.406 OA
BRANCH  18  19
ATOM     19  C   UNL     1      -2.387  -1.602   4.112  1.00  0.00     0.573 C 
ATOM     20  F   UNL     1      -1.457  -0.773   4.633  1.00  0.00    -0.132 F 
ATOM     21  F   UNL     1      -3.154  -0.924   3.233  1.00  0.00    -0.132 F 
ATOM     22  F   UNL     1      -3.180  -2.028   5.120  1.00  0.00    -0.132 F 
ENDBRANCH  18  19
ENDBRANCH  12  18
BRANCH  17  23
ATOM     23  C   UNL     1       1.047  -3.341  -2.695  1.00  0.00     0.429 C 
ATOM     24  F   UNL     1       1.354  -2.292  -3.499  1.00  0.00    -0.167 F 
ATOM     25  F   UNL     1       1.121  -4.449  -3.469  1.00  0.00    -0.167 F 
ATOM     26  F   UNL     1      -0.246  -3.204  -2.326  1.00  0.00    -0.167 F 
ENDBRANCH  17  23
ENDBRANCH   4   7
ENDBRANCH   2   3
ENDBRANCH   1   2
BRANCH   1  27
ATOM     27  C   UNL     1       6.466  -5.793  -3.472  1.00  0.00     0.023 C 
BRANCH  27  28
ATOM     28  C   UNL     1       6.459  -6.017  -4.984  1.00  0.00     0.116 C 
BRANCH  28  29
ATOM     29  N   UNL     1       6.558  -4.791  -5.762  1.00  0.00    -0.352 N 
ATOM     30  C   UNL     1       7.056  -4.653  -7.036  1.00  0.00     0.251 C 
ATOM     31  H   UNL     1       6.231  -3.970  -5.329  1.00  0.00     0.163 HD
ATOM     32  O   UNL     1       7.140  -3.558  -7.577  1.00  0.00    -0.269 OA
BRANCH  30  33
ATOM     33  C   UNL     1       7.535  -5.864  -7.723  1.00  0.00     0.039 A 
ATOM     34  C   UNL     1       8.895  -5.974  -8.019  1.00  0.00     0.014 A 
ATOM     35  C   UNL     1       6.653  -6.921  -7.964  1.00  0.00     0.014 A 
ATOM     36  C   UNL     1       9.392  -7.186  -8.495  1.00  0.00     0.010 A 
ATOM     37  C   UNL     1       7.157  -8.139  -8.404  1.00  0.00     0.010 A 
ATOM     38  C   UNL     1       8.531  -8.284  -8.655  1.00  0.00    -0.014 A 
BRANCH  38  39
ATOM     39  C   UNL     1       9.049  -9.605  -9.071  1.00  0.00     0.031 A 
ATOM     40  C   UNL     1       8.743 -10.125 -10.442  1.00  0.00     0.074 A 
ATOM     41  C   UNL     1       9.731 -10.358  -8.189  1.00  0.00     0.049 A 
ATOM     42  N   UNL     1       9.019 -11.292 -10.963  1.00  0.00    -0.248 NA
ATOM     43  C   UNL     1       8.015  -9.216 -11.340  1.00  0.00     0.031 C 
ATOM     44  C   UNL     1      10.066  -9.962  -6.821  1.00  0.00     0.029 A 
ATOM     45  N   UNL     1      10.252 -11.621  -8.309  1.00  0.00    -0.354 N 
ATOM     46  C   UNL     1       8.494 -11.261 -12.247  1.00  0.00     0.074 A 
ATOM     47  C   UNL     1       7.849  -9.976 -12.413  1.00  0.00     0.031 C 
ATOM     48  C   UNL     1      10.747 -10.959  -6.230  1.00  0.00     0.029 A 
ATOM     49  C   UNL     1      10.869 -12.072  -7.168  1.00  0.00     0.049 A 
ATOM     50  H   UNL     1      10.190 -12.154  -9.134  1.00  0.00     0.167 HD
ATOM     51  C   UNL     1       8.560 -12.215 -13.204  1.00  0.00     0.037 A 
ATOM     52  C   UNL     1      11.460 -13.254  -6.910  1.00  0.00     0.037 A 
ATOM     53  C   UNL     1       9.207 -13.488 -13.037  1.00  0.00     0.049 A 
ATOM     54  C   UNL     1      11.505 -14.303  -7.985  1.00  0.00     0.074 A 
ATOM     55  C   UNL     1       9.340 -14.517 -13.952  1.00  0.00     0.029 A 
ATOM     56  N   UNL     1       9.836 -13.903 -11.872  1.00  0.00    -0.354 N 
ATOM     57  N   UNL     1      11.027 -14.256  -9.204  1.00  0.00    -0.248 NA
ATOM     58  C   UNL     1      12.175 -15.568  -7.651  1.00  0.00     0.031 C 
ATOM     59  C   UNL     1      10.029 -15.565 -13.333  1.00  0.00     0.029 A 
ATOM     60  C   UNL     1      10.355 -15.175 -12.043  1.00  0.00     0.049 A 
ATOM     61  H   UNL     1       9.904 -13.371 -11.046  1.00  0.00     0.167 HD
ATOM     62  C   UNL     1      11.357 -15.469  -9.791  1.00  0.00     0.074 A 
ATOM     63  C   UNL     1      12.082 -16.231  -8.796  1.00  0.00     0.031 C 
ATOM     64  C   UNL     1      11.086 -15.909 -11.043  1.00  0.00     0.037 A 
BRANCH  51  65
ATOM     65  C   UNL     1       7.916 -11.909 -14.521  1.00  0.00     0.064 A 
ATOM     66  C   UNL     1       8.498 -11.006 -15.422  1.00  0.00     0.173 A 
ATOM     67  C   UNL     1       6.723 -12.542 -14.898  1.00  0.00     0.173 A 
ATOM     68  F   UNL     1       9.630 -10.364 -15.098  1.00  0.00    -0.203 F 
ATOM     69  C   UNL     1       7.897 -10.732 -16.648  1.00  0.00     0.198 A 
ATOM     70  C   UNL     1       6.137 -12.282 -16.134  1.00  0.00     0.198 A 
ATOM     71  F   UNL     1       6.128 -13.414 -14.070  1.00  0.00    -0.203 F 
ATOM     72  F   UNL     1       8.449  -9.835 -17.477  1.00  0.00    -0.200 F 
ATOM     73  C   UNL     1       6.721 -11.374 -17.005  1.00  0.00     0.200 A 
ATOM     74  F   UNL     1       5.004 -12.908 -16.481  1.00  0.00    -0.200 F 
ATOM     75  F   UNL     1       6.146 -11.112 -18.186  1.00  0.00    -0.200 F 
ENDBRANCH  51  65
BRANCH  52  76
ATOM     76  C   UNL     1      12.087 -13.489  -5.586  1.00  0.00     0.064 A 
ATOM     77  C   UNL     1      13.482 -13.487  -5.448  1.00  0.00     0.173 A 
ATOM     78  C   UNL     1      11.315 -13.698  -4.436  1.00  0.00     0.173 A 
ATOM     79  F   UNL     1      14.260 -13.309  -6.526  1.00  0.00    -0.203 F 
ATOM     80  C   UNL     1      14.082 -13.695  -4.208  1.00  0.00     0.198 A 
ATOM     81  C   UNL     1      11.915 -13.887  -3.193  1.00  0.00     0.198 A 
ATOM     82  F   UNL     1       9.976 -13.704  -4.518  1.00  0.00    -0.203 F 
ATOM     83  F   UNL     1      15.417 -13.715  -4.107  1.00  0.00    -0.200 F 
ATOM     84  C   UNL     1      13.298 -13.889  -3.081  1.00  0.00     0.200 A 
ATOM     85  F   UNL     1      11.155 -14.064  -2.104  1.00  0.00    -0.200 F 
ATOM     86  F   UNL     1      13.875 -14.081  -1.887  1.00  0.00    -0.200 F 
ENDBRANCH  52  76
BRANCH  64  87
ATOM     87  C   UNL     1      11.603 -17.263 -11.424  1.00  0.00     0.064 A 
ATOM     88  C   UNL     1      10.981 -18.436 -10.978  1.00  0.00     0.173 A 
ATOM     89  C   UNL     1      12.694 -17.382 -12.298  1.00  0.00     0.173 A 
ATOM     90  F   UNL     1       9.944 -18.369 -10.130  1.00  0.00    -0.203 F 
ATOM     91  C   UNL     1      11.440 -19.686 -11.386  1.00  0.00     0.198 A 
ATOM     92  C   UNL     1      13.137 -18.632 -12.720  1.00  0.00     0.198 A 
ATOM     93  F   UNL     1      13.318 -16.286 -12.755  1.00  0.00    -0.203 F 
ATOM     94  F   UNL     1      10.848 -20.797 -10.927  1.00  0.00    -0.200 F 
ATOM     95  C   UNL     1      12.511 -19.782 -12.262  1.00  0.00     0.200 A 
ATOM     96  F   UNL     1      14.166 -18.724 -13.574  1.00  0.00    -0.200 F 
ATOM     97  F   UNL     1      12.944 -20.985 -12.663  1.00  0.00    -0.200 F 
ENDBRANCH  64  87
ENDBRANCH  38  39
ENDBRANCH  30  33
ENDBRANCH  28  29
ENDBRANCH  27  28
ENDBRANCH   1  27
TORSDOF 14
