REMARK SMILES CN(CC(C)(C)O)C(=O)N1CCCC[C@H]1CC(=O)NCCCCNC(=O)c1ccc(-c2c3nc(c(-c4c(F)c(F)c(F)c(F)c4F)c4ccc([nH]4)c(-c4c(F)c(F)c(F)c(F)c4F)c4nc(c(-c5c(F)c(F)c(F)c(F)c5F)c5ccc2[nH]5)C=C4)C=C3)cc1
REMARK SMILES IDX 17 1 18 2 19 3 16 5 15 6 10 7 11 8 12 9 14 10 13 11 8 12
REMARK SMILES IDX 9 13 2 14 1 15 3 16 4 17 5 18 6 19 7 20 20 22 21 23 22 24
REMARK SMILES IDX 23 25 24 26 25 27 26 29 27 30 28 31 89 32 29 33 88 34 30 35
REMARK SMILES IDX 31 36 32 37 82 38 33 39 87 40 81 41 83 42 34 43 86 44 80 45
REMARK SMILES IDX 79 46 35 48 67 49 47 50 66 51 48 52 51 53 65 54 84 55 49 56
REMARK SMILES IDX 50 57 64 59 85 60 52 61 36 62 37 63 45 64 38 65 39 66 43 67
REMARK SMILES IDX 46 68 40 69 41 70 44 71 42 72 68 73 69 74 77 75 70 76 71 77
REMARK SMILES IDX 75 78 78 79 72 80 73 81 76 82 74 83 53 84 54 85 62 86 55 87
REMARK SMILES IDX 56 88 60 89 63 90 57 91 58 92 61 93 59 94
REMARK H PARENT 19 4 7 21 24 28 83 47 51 58
REMARK Flexibility Score: inf
ROOT
ATOM      1  C   UNL     1      -0.909  -3.357  -3.731  1.00  0.00     0.222 C 
ATOM      2  O   UNL     1      -2.036  -3.838  -3.875  1.00  0.00    -0.275 OA
ATOM      3  N   UNL     1      -0.257  -3.621  -2.562  1.00  0.00    -0.356 N 
ATOM      4  H   UNL     1      -0.779  -4.149  -1.917  1.00  0.00     0.163 HD
ENDROOT
BRANCH   1   5
ATOM      5  C   UNL     1      -0.313  -2.472  -4.811  1.00  0.00     0.125 C 
BRANCH   5   6
ATOM      6  C   UNL     1      -0.661  -0.982  -4.604  1.00  0.00     0.096 C 
ATOM      7  N   UNL     1       0.460  -0.195  -4.080  1.00  0.00    -0.321 N 
ATOM      8  C   UNL     1       1.563  -0.043  -5.054  1.00  0.00     0.121 C 
ATOM      9  C   UNL     1       1.085   0.654  -6.330  1.00  0.00     0.022 C 
ATOM     10  C   UNL     1      -1.208  -0.266  -5.857  1.00  0.00     0.026 C 
ATOM     11  C   UNL     1      -0.144  -0.032  -6.922  1.00  0.00     0.004 C 
BRANCH   7  12
ATOM     12  C   UNL     1       0.481   0.640  -2.974  1.00  0.00     0.320 C 
ATOM     13  O   UNL     1       1.419   1.443  -2.862  1.00  0.00    -0.248 OA
BRANCH  12  14
ATOM     14  N   UNL     1      -0.475   0.581  -1.958  1.00  0.00    -0.325 N 
ATOM     15  C   UNL     1      -0.129   1.426  -0.813  1.00  0.00     0.148 C 
BRANCH  14  16
ATOM     16  C   UNL     1      -1.417  -0.499  -1.615  1.00  0.00     0.155 C 
BRANCH  16  17
ATOM     17  C   UNL     1      -2.955  -0.302  -1.683  1.00  0.00     0.077 C 
ATOM     18  C   UNL     1      -3.525   0.141  -3.029  1.00  0.00     0.043 C 
ATOM     19  C   UNL     1      -3.591  -1.652  -1.292  1.00  0.00     0.043 C 
BRANCH  17  20
ATOM     20  O   UNL     1      -3.344   0.656  -0.692  1.00  0.00    -0.389 OA
ATOM     21  H   UNL     1      -2.960   1.520  -0.908  1.00  0.00     0.211 HD
ENDBRANCH  17  20
ENDBRANCH  16  17
ENDBRANCH  14  16
ENDBRANCH  12  14
ENDBRANCH   7  12
ENDBRANCH   5   6
ENDBRANCH   1   5
BRANCH   3  22
ATOM     22  C   UNL     1       1.075  -3.259  -2.102  1.00  0.00     0.116 C 
BRANCH  22  23
ATOM     23  C   UNL     1       1.122  -2.380  -0.848  1.00  0.00     0.023 C 
BRANCH  23  24
ATOM     24  C   UNL     1       0.230  -2.776   0.334  1.00  0.00     0.023 C 
BRANCH  24  25
ATOM     25  C   UNL     1       0.916  -3.686   1.334  1.00  0.00     0.116 C 
BRANCH  25  26
ATOM     26  N   UNL     1       2.118  -3.064   1.888  1.00  0.00    -0.352 N 
ATOM     27  C   UNL     1       2.471  -2.829   3.194  1.00  0.00     0.251 C 
ATOM     28  H   UNL     1       2.778  -2.768   1.220  1.00  0.00     0.163 HD
ATOM     29  O   UNL     1       3.374  -2.053   3.466  1.00  0.00    -0.269 OA
BRANCH  27  30
ATOM     30  C   UNL     1       1.754  -3.546   4.261  1.00  0.00     0.039 A 
ATOM     31  C   UNL     1       1.495  -2.918   5.480  1.00  0.00     0.014 A 
ATOM     32  C   UNL     1       1.345  -4.859   4.033  1.00  0.00     0.014 A 
ATOM     33  C   UNL     1       0.781  -3.607   6.458  1.00  0.00     0.010 A 
ATOM     34  C   UNL     1       0.505  -5.476   4.933  1.00  0.00     0.010 A 
ATOM     35  C   UNL     1       0.260  -4.880   6.174  1.00  0.00    -0.014 A 
BRANCH  35  36
ATOM     36  C   UNL     1      -0.490  -5.670   7.170  1.00  0.00     0.031 A 
ATOM     37  C   UNL     1       0.034  -7.022   7.569  1.00  0.00     0.074 A 
ATOM     38  C   UNL     1      -1.676  -5.218   7.611  1.00  0.00     0.049 A 
ATOM     39  N   UNL     1      -0.520  -7.941   8.315  1.00  0.00    -0.248 NA
ATOM     40  C   UNL     1       1.330  -7.425   6.992  1.00  0.00     0.031 C 
ATOM     41  C   UNL     1      -2.299  -3.951   7.222  1.00  0.00     0.029 A 
ATOM     42  N   UNL     1      -2.571  -5.777   8.481  1.00  0.00    -0.354 N 
ATOM     43  C   UNL     1       0.341  -9.030   8.263  1.00  0.00     0.074 A 
ATOM     44  C   UNL     1       1.392  -8.701   7.330  1.00  0.00     0.031 C 
ATOM     45  C   UNL     1      -3.447  -3.801   7.900  1.00  0.00     0.029 A 
ATOM     46  C   UNL     1      -3.661  -4.981   8.729  1.00  0.00     0.049 A 
ATOM     47  H   UNL     1      -2.446  -6.664   8.889  1.00  0.00     0.167 HD
ATOM     48  C   UNL     1       0.286 -10.182   8.971  1.00  0.00     0.037 A 
ATOM     49  C   UNL     1      -4.704  -5.190   9.551  1.00  0.00     0.037 A 
ATOM     50  C   UNL     1      -0.751 -10.462   9.925  1.00  0.00     0.049 A 
ATOM     51  C   UNL     1      -4.747  -6.473  10.334  1.00  0.00     0.074 A 
ATOM     52  C   UNL     1      -0.892 -11.554  10.758  1.00  0.00     0.029 A 
ATOM     53  N   UNL     1      -1.832  -9.623  10.171  1.00  0.00    -0.354 N 
ATOM     54  N   UNL     1      -3.890  -7.467  10.345  1.00  0.00    -0.248 NA
ATOM     55  C   UNL     1      -5.898  -6.660  11.223  1.00  0.00     0.031 C 
ATOM     56  C   UNL     1      -2.088 -11.402  11.469  1.00  0.00     0.029 A 
ATOM     57  C   UNL     1      -2.660 -10.185  11.126  1.00  0.00     0.049 A 
ATOM     58  H   UNL     1      -1.985  -8.756   9.731  1.00  0.00     0.167 HD
ATOM     59  C   UNL     1      -4.379  -8.384  11.264  1.00  0.00     0.074 A 
ATOM     60  C   UNL     1      -5.602  -7.816  11.799  1.00  0.00     0.031 C 
ATOM     61  C   UNL     1      -3.868  -9.585  11.637  1.00  0.00     0.037 A 
BRANCH  48  62
ATOM     62  C   UNL     1       1.373 -11.193   8.729  1.00  0.00     0.064 A 
ATOM     63  C   UNL     1       2.720 -10.921   9.029  1.00  0.00     0.173 A 
ATOM     64  C   UNL     1       1.076 -12.438   8.155  1.00  0.00     0.173 A 
ATOM     65  F   UNL     1       3.068  -9.742   9.568  1.00  0.00    -0.203 F 
ATOM     66  C   UNL     1       3.728 -11.825   8.703  1.00  0.00     0.198 A 
ATOM     67  C   UNL     1       2.083 -13.358   7.872  1.00  0.00     0.198 A 
ATOM     68  F   UNL     1      -0.190 -12.759   7.851  1.00  0.00    -0.203 F 
ATOM     69  F   UNL     1       5.011 -11.498   8.913  1.00  0.00    -0.200 F 
ATOM     70  C   UNL     1       3.409 -13.044   8.129  1.00  0.00     0.200 A 
ATOM     71  F   UNL     1       1.772 -14.543   7.329  1.00  0.00    -0.200 F 
ATOM     72  F   UNL     1       4.380 -13.910   7.807  1.00  0.00    -0.200 F 
ENDBRANCH  48  62
BRANCH  49  73
ATOM     73  C   UNL     1      -5.731  -4.131   9.727  1.00  0.00     0.064 A 
ATOM     74  C   UNL     1      -5.817  -3.421  10.933  1.00  0.00     0.173 A 
ATOM     75  C   UNL     1      -6.616  -3.777   8.698  1.00  0.00     0.173 A 
ATOM     76  F   UNL     1      -4.998  -3.728  11.950  1.00  0.00    -0.203 F 
ATOM     77  C   UNL     1      -6.760  -2.412  11.111  1.00  0.00     0.198 A 
ATOM     78  C   UNL     1      -7.541  -2.748   8.867  1.00  0.00     0.198 A 
ATOM     79  F   UNL     1      -6.565  -4.414   7.519  1.00  0.00    -0.203 F 
ATOM     80  F   UNL     1      -6.843  -1.775  12.287  1.00  0.00    -0.200 F 
ATOM     81  C   UNL     1      -7.617  -2.071  10.075  1.00  0.00     0.200 A 
ATOM     82  F   UNL     1      -8.353  -2.408   7.857  1.00  0.00    -0.200 F 
ATOM     83  F   UNL     1      -8.518  -1.093  10.242  1.00  0.00    -0.200 F 
ENDBRANCH  49  73
BRANCH  61  84
ATOM     84  C   UNL     1      -4.613 -10.341  12.697  1.00  0.00     0.064 A 
ATOM     85  C   UNL     1      -5.858 -10.933  12.443  1.00  0.00     0.173 A 
ATOM     86  C   UNL     1      -4.048 -10.510  13.970  1.00  0.00     0.173 A 
ATOM     87  F   UNL     1      -6.445 -10.786  11.246  1.00  0.00    -0.203 F 
ATOM     88  C   UNL     1      -6.526 -11.642  13.437  1.00  0.00     0.198 A 
ATOM     89  C   UNL     1      -4.701 -11.253  14.948  1.00  0.00     0.198 A 
ATOM     90  F   UNL     1      -2.854  -9.971  14.259  1.00  0.00    -0.203 F 
ATOM     91  F   UNL     1      -7.740 -12.153  13.191  1.00  0.00    -0.200 F 
ATOM     92  C   UNL     1      -5.942 -11.810  14.684  1.00  0.00     0.200 A 
ATOM     93  F   UNL     1      -4.127 -11.430  16.146  1.00  0.00    -0.200 F 
ATOM     94  F   UNL     1      -6.582 -12.504  15.636  1.00  0.00    -0.200 F 
ENDBRANCH  61  84
ENDBRANCH  35  36
ENDBRANCH  27  30
ENDBRANCH  25  26
ENDBRANCH  24  25
ENDBRANCH  23  24
ENDBRANCH  22  23
ENDBRANCH   3  22
TORSDOF 17
