REMARK SMILES Cc1ccccc1N[C@H](C(=O)NCCCCNC(=O)c1ccc(-c2c3nc(c(-c4c(F)c(F)c(F)c(F)c4F)c4ccc([nH]4)c(-c4c(F)c(F)c(F)c(F)c4F)c4nc(c(-c5c(F)c(F)c(F)c(F)c5F)c5ccc2[nH]5)C=C4)C=C3)cc1)c1ccccc1
REMARK SMILES IDX 14 1 13 2 12 3 10 4 11 5 9 7 8 8 7 10 1 11 2 12 3 13 4 14
REMARK SMILES IDX 6 15 5 16 83 17 84 18 88 19 85 20 87 21 86 22 15 23 16 24
REMARK SMILES IDX 17 25 18 26 19 28 20 29 21 30 82 31 22 32 81 33 23 34 24 35
REMARK SMILES IDX 25 36 75 37 26 38 80 39 74 40 76 41 27 42 79 43 73 44 72 45
REMARK SMILES IDX 28 47 60 48 40 49 59 50 41 51 44 52 58 53 77 54 42 55 43 56
REMARK SMILES IDX 57 58 78 59 45 60 29 61 30 62 38 63 31 64 32 65 36 66 39 67
REMARK SMILES IDX 33 68 34 69 37 70 35 71 61 72 62 73 70 74 63 75 64 76 68 77
REMARK SMILES IDX 71 78 65 79 66 80 69 81 67 82 46 83 47 84 55 85 48 86 49 87
REMARK SMILES IDX 53 88 56 89 50 90 51 91 54 92 52 93
REMARK H PARENT 12 6 8 9 17 27 76 46 44 57
REMARK Flexibility Score: inf
ROOT
ATOM      1  C   UNL     1       2.014   3.390   3.872  1.00  0.00     0.023 C 
ENDROOT
BRANCH   1   2
ATOM      2  C   UNL     1       1.845   3.718   2.392  1.00  0.00     0.116 C 
BRANCH   2   3
ATOM      3  N   UNL     1       1.507   2.565   1.576  1.00  0.00    -0.354 N 
ATOM      4  C   UNL     1       0.785   2.547   0.406  1.00  0.00     0.247 C 
ATOM      5  O   UNL     1       0.719   1.473  -0.203  1.00  0.00    -0.272 OA
ATOM      6  H   UNL     1       1.834   1.694   1.898  1.00  0.00     0.163 HD
BRANCH   4   7
ATOM      7  C   UNL     1       0.068   3.828  -0.130  1.00  0.00     0.200 C 
BRANCH   7   8
ATOM      8  N   UNL     1      -0.988   4.206   0.845  1.00  0.00    -0.370 N 
ATOM      9  H   UNL     1      -1.697   3.523   0.878  1.00  0.00     0.161 HD
BRANCH   8  10
ATOM     10  C   UNL     1      -1.259   5.237   1.716  1.00  0.00     0.038 A 
ATOM     11  C   UNL     1      -2.732   3.704   3.165  1.00  0.00     0.046 C 
ATOM     12  C   UNL     1      -2.199   5.055   2.757  1.00  0.00    -0.028 A 
ATOM     13  C   UNL     1      -2.633   6.149   3.540  1.00  0.00     0.005 A 
ATOM     14  C   UNL     1      -2.087   7.414   3.371  1.00  0.00     0.000 A 
ATOM     15  C   UNL     1      -0.627   6.485   1.698  1.00  0.00     0.026 A 
ATOM     16  C   UNL     1      -1.048   7.571   2.475  1.00  0.00     0.002 A 
ENDBRANCH   8  10
ENDBRANCH   7   8
BRANCH   7  17
ATOM     17  C   UNL     1       0.999   4.907  -0.657  1.00  0.00    -0.016 A 
ATOM     18  C   UNL     1       0.472   6.100  -1.178  1.00  0.00     0.006 A 
ATOM     19  C   UNL     1       2.397   4.761  -0.645  1.00  0.00     0.006 A 
ATOM     20  C   UNL     1       1.298   7.201  -1.384  1.00  0.00     0.000 A 
ATOM     21  C   UNL     1       3.228   5.852  -0.869  1.00  0.00     0.000 A 
ATOM     22  C   UNL     1       2.666   7.084  -1.177  1.00  0.00     0.000 A 
ENDBRANCH   7  17
ENDBRANCH   4   7
ENDBRANCH   2   3
ENDBRANCH   1   2
BRANCH   1  23
ATOM     23  C   UNL     1       3.287   2.611   4.200  1.00  0.00     0.023 C 
BRANCH  23  24
ATOM     24  C   UNL     1       4.579   3.373   3.933  1.00  0.00     0.116 C 
BRANCH  24  25
ATOM     25  N   UNL     1       4.922   4.367   4.933  1.00  0.00    -0.352 N 
ATOM     26  C   UNL     1       5.994   5.243   5.008  1.00  0.00     0.251 C 
ATOM     27  H   UNL     1       4.288   4.428   5.684  1.00  0.00     0.163 HD
ATOM     28  O   UNL     1       6.148   5.892   6.027  1.00  0.00    -0.269 OA
BRANCH  26  29
ATOM     29  C   UNL     1       6.877   5.504   3.831  1.00  0.00     0.039 A 
ATOM     30  C   UNL     1       7.478   6.773   3.734  1.00  0.00     0.014 A 
ATOM     31  C   UNL     1       7.006   4.616   2.770  1.00  0.00     0.014 A 
ATOM     32  C   UNL     1       7.998   7.214   2.515  1.00  0.00     0.010 A 
ATOM     33  C   UNL     1       7.428   5.075   1.542  1.00  0.00     0.010 A 
ATOM     34  C   UNL     1       7.872   6.389   1.403  1.00  0.00    -0.014 A 
BRANCH  34  35
ATOM     35  C   UNL     1       7.994   6.838   0.027  1.00  0.00     0.031 A 
ATOM     36  C   UNL     1       9.094   6.395  -0.847  1.00  0.00     0.074 A 
ATOM     37  C   UNL     1       6.925   7.461  -0.514  1.00  0.00     0.049 A 
ATOM     38  N   UNL     1       9.421   7.008  -1.935  1.00  0.00    -0.248 NA
ATOM     39  C   UNL     1       9.920   5.222  -0.576  1.00  0.00     0.031 C 
ATOM     40  C   UNL     1       6.610   7.599  -1.930  1.00  0.00     0.029 A 
ATOM     41  N   UNL     1       5.947   8.219   0.141  1.00  0.00    -0.354 N 
ATOM     42  C   UNL     1      10.249   6.174  -2.641  1.00  0.00     0.074 A 
ATOM     43  C   UNL     1      10.601   5.113  -1.723  1.00  0.00     0.031 C 
ATOM     44  C   UNL     1       5.713   8.582  -2.082  1.00  0.00     0.029 A 
ATOM     45  C   UNL     1       5.519   9.194  -0.779  1.00  0.00     0.049 A 
ATOM     46  H   UNL     1       5.624   8.096   1.062  1.00  0.00     0.167 HD
ATOM     47  C   UNL     1      10.432   6.379  -3.975  1.00  0.00     0.037 A 
ATOM     48  C   UNL     1       5.629  10.526  -0.518  1.00  0.00     0.037 A 
ATOM     49  C   UNL     1       9.636   7.501  -4.464  1.00  0.00     0.049 A 
ATOM     50  C   UNL     1       6.508  11.229  -1.519  1.00  0.00     0.074 A 
ATOM     51  C   UNL     1       8.415   7.561  -5.116  1.00  0.00     0.029 A 
ATOM     52  N   UNL     1       9.896   8.790  -4.004  1.00  0.00    -0.354 N 
ATOM     53  N   UNL     1       7.375  10.600  -2.264  1.00  0.00    -0.248 NA
ATOM     54  C   UNL     1       6.479  12.661  -1.787  1.00  0.00     0.031 C 
ATOM     55  C   UNL     1       7.928   8.887  -5.027  1.00  0.00     0.029 A 
ATOM     56  C   UNL     1       8.859   9.642  -4.335  1.00  0.00     0.049 A 
ATOM     57  H   UNL     1      10.706   9.057  -3.512  1.00  0.00     0.167 HD
ATOM     58  C   UNL     1       7.984  11.483  -3.111  1.00  0.00     0.074 A 
ATOM     59  C   UNL     1       7.397  12.765  -2.767  1.00  0.00     0.031 C 
ATOM     60  C   UNL     1       8.909  11.064  -4.024  1.00  0.00     0.037 A 
BRANCH  47  61
ATOM     61  C   UNL     1      11.107   5.363  -4.859  1.00  0.00     0.064 A 
ATOM     62  C   UNL     1      10.624   5.063  -6.150  1.00  0.00     0.173 A 
ATOM     63  C   UNL     1      12.240   4.633  -4.456  1.00  0.00     0.173 A 
ATOM     64  F   UNL     1       9.588   5.722  -6.683  1.00  0.00    -0.203 F 
ATOM     65  C   UNL     1      11.180   4.054  -6.939  1.00  0.00     0.198 A 
ATOM     66  C   UNL     1      12.766   3.590  -5.225  1.00  0.00     0.198 A 
ATOM     67  F   UNL     1      12.871   4.923  -3.308  1.00  0.00    -0.203 F 
ATOM     68  F   UNL     1      10.675   3.807  -8.156  1.00  0.00    -0.200 F 
ATOM     69  C   UNL     1      12.232   3.297  -6.465  1.00  0.00     0.200 A 
ATOM     70  F   UNL     1      13.790   2.865  -4.752  1.00  0.00    -0.200 F 
ATOM     71  F   UNL     1      12.735   2.299  -7.204  1.00  0.00    -0.200 F 
ENDBRANCH  47  61
BRANCH  48  72
ATOM     72  C   UNL     1       5.478  10.831   0.927  1.00  0.00     0.064 A 
ATOM     73  C   UNL     1       4.201  10.635   1.491  1.00  0.00     0.173 A 
ATOM     74  C   UNL     1       6.580  10.807   1.792  1.00  0.00     0.173 A 
ATOM     75  F   UNL     1       3.115  10.636   0.700  1.00  0.00    -0.203 F 
ATOM     76  C   UNL     1       4.046  10.290   2.831  1.00  0.00     0.198 A 
ATOM     77  C   UNL     1       6.418  10.467   3.138  1.00  0.00     0.198 A 
ATOM     78  F   UNL     1       7.821  10.965   1.311  1.00  0.00    -0.203 F 
ATOM     79  F   UNL     1       2.830   9.982   3.305  1.00  0.00    -0.200 F 
ATOM     80  C   UNL     1       5.159  10.172   3.646  1.00  0.00     0.200 A 
ATOM     81  F   UNL     1       7.496  10.326   3.924  1.00  0.00    -0.200 F 
ATOM     82  F   UNL     1       5.025   9.731   4.904  1.00  0.00    -0.200 F 
ENDBRANCH  48  72
BRANCH  60  83
ATOM     83  C   UNL     1       9.861  11.936  -4.805  1.00  0.00     0.064 A 
ATOM     84  C   UNL     1      10.274  13.211  -4.390  1.00  0.00     0.173 A 
ATOM     85  C   UNL     1      10.532  11.423  -5.946  1.00  0.00     0.173 A 
ATOM     86  F   UNL     1       9.805  13.768  -3.266  1.00  0.00    -0.203 F 
ATOM     87  C   UNL     1      11.241  13.939  -5.088  1.00  0.00     0.198 A 
ATOM     88  C   UNL     1      11.541  12.125  -6.600  1.00  0.00     0.198 A 
ATOM     89  F   UNL     1      10.255  10.209  -6.443  1.00  0.00    -0.203 F 
ATOM     90  F   UNL     1      11.571  15.169  -4.671  1.00  0.00    -0.200 F 
ATOM     91  C   UNL     1      11.886  13.391  -6.181  1.00  0.00     0.200 A 
ATOM     92  F   UNL     1      12.192  11.553  -7.624  1.00  0.00    -0.200 F 
ATOM     93  F   UNL     1      12.852  14.070  -6.812  1.00  0.00    -0.200 F 
ENDBRANCH  60  83
ENDBRANCH  34  35
ENDBRANCH  26  29
ENDBRANCH  24  25
ENDBRANCH  23  24
ENDBRANCH   1  23
TORSDOF 14
