REMARK SMILES C[N@H+]([C@H]1CCC[C@]([NH3+])(C(=O)NCCCCNC(=O)c2ccc(-c3c4nc(c(-c5c(F)c(F)c(F)c(F)c5F)c5ccc([nH]5)c(-c5c(F)c(F)c(F)c(F)c5F)c5nc(c(-c6c(F)c(F)c(F)c(F)c6F)c6ccc3[nH]6)C=C5)C=C4)cc2)C1)[C@H]1CC[C@H](C)CC1
REMARK SMILES IDX 13 1 12 2 11 3 9 4 10 5 7 7 3 8 4 9 82 10 5 11 6 12 2 13
REMARK SMILES IDX 1 14 83 16 87 17 86 18 85 19 88 20 84 21 89 22 8 23 14 27
REMARK SMILES IDX 15 28 16 29 17 30 18 32 19 33 20 34 81 35 21 36 80 37 22 38
REMARK SMILES IDX 23 39 24 40 74 41 25 42 79 43 73 44 75 45 26 46 78 47 72 48
REMARK SMILES IDX 71 49 27 51 59 52 39 53 58 54 40 55 43 56 57 57 76 58 41 59
REMARK SMILES IDX 42 60 56 62 77 63 44 64 28 65 29 66 37 67 30 68 31 69 35 70
REMARK SMILES IDX 38 71 32 72 33 73 36 74 34 75 60 76 61 77 69 78 62 79 63 80
REMARK SMILES IDX 67 81 70 82 64 83 65 84 68 85 66 86 45 87 46 88 54 89 47 90
REMARK SMILES IDX 48 91 52 92 55 93 49 94 50 95 53 96 51 97
REMARK H PARENT 11 6 2 15 8 24 8 25 8 26 16 31 75 50 43 61
REMARK Flexibility Score: inf
ROOT
ATOM      1  C   UNL     1      -3.188  -2.911   7.346  1.00  0.00     0.023 C 
ENDROOT
BRANCH   1   2
ATOM      2  C   UNL     1      -2.043  -2.146   6.687  1.00  0.00     0.116 C 
BRANCH   2   3
ATOM      3  N   UNL     1      -1.456  -2.822   5.535  1.00  0.00    -0.351 N 
ATOM      4  C   UNL     1      -1.623  -2.554   4.184  1.00  0.00     0.281 C 
ATOM      5  O   UNL     1      -0.995  -3.229   3.367  1.00  0.00    -0.268 OA
ATOM      6  H   UNL     1      -0.858  -3.574   5.746  1.00  0.00     0.163 HD
BRANCH   4   7
ATOM      7  C   UNL     1      -2.552  -1.357   3.775  1.00  0.00     0.179 C 
ATOM      8  C   UNL     1      -3.522   0.114   1.833  1.00  0.00     0.190 C 
ATOM      9  C   UNL     1      -2.533   1.247   2.139  1.00  0.00     0.065 C 
ATOM     10  C   UNL     1      -2.856  -1.245   2.267  1.00  0.00     0.144 C 
ATOM     11  C   UNL     1      -2.087   1.288   3.589  1.00  0.00     0.013 C 
ATOM     12  C   UNL     1      -1.720  -0.081   4.165  1.00  0.00     0.079 C 
BRANCH   8  13
ATOM     13  N   UNL     1      -4.940   0.367   2.250  1.00  0.00    -0.332 N 
ATOM     14  C   UNL     1      -5.153   0.761   3.656  1.00  0.00     0.333 C 
ATOM     15  H   UNL     1      -5.323  -0.565   2.093  1.00  0.00     0.348 HD
BRANCH  13  16
ATOM     16  C   UNL     1      -5.655   1.407   1.439  1.00  0.00     0.184 C 
ATOM     17  C   UNL     1      -8.363   3.907  -0.884  1.00  0.00     0.007 C 
ATOM     18  C   UNL     1      -7.739   2.631  -0.325  1.00  0.00    -0.014 C 
ATOM     19  C   UNL     1      -7.865   2.628   1.195  1.00  0.00     0.009 C 
ATOM     20  C   UNL     1      -6.275   2.495  -0.762  1.00  0.00     0.009 C 
ATOM     21  C   UNL     1      -7.167   1.423   1.806  1.00  0.00     0.065 C 
ATOM     22  C   UNL     1      -5.554   1.312  -0.096  1.00  0.00     0.065 C 
ENDBRANCH  13  16
ENDBRANCH   8  13
BRANCH   7  23
ATOM     23  N   UNL     1      -3.843  -1.705   4.406  1.00  0.00    -0.345 N 
ATOM     24  H   UNL     1      -3.715  -1.796   5.414  1.00  0.00     0.345 HD
ATOM     25  H   UNL     1      -4.180  -2.590   4.026  1.00  0.00     0.345 HD
ATOM     26  H   UNL     1      -4.524  -0.971   4.215  1.00  0.00     0.345 HD
ENDBRANCH   7  23
ENDBRANCH   4   7
ENDBRANCH   2   3
ENDBRANCH   1   2
BRANCH   1  27
ATOM     27  C   UNL     1      -2.749  -4.081   8.212  1.00  0.00     0.023 C 
BRANCH  27  28
ATOM     28  C   UNL     1      -1.661  -3.754   9.224  1.00  0.00     0.116 C 
BRANCH  28  29
ATOM     29  N   UNL     1      -1.992  -2.646  10.110  1.00  0.00    -0.352 N 
ATOM     30  C   UNL     1      -1.715  -2.513  11.450  1.00  0.00     0.251 C 
ATOM     31  H   UNL     1      -2.477  -1.896   9.696  1.00  0.00     0.163 HD
ATOM     32  O   UNL     1      -2.137  -1.552  12.086  1.00  0.00    -0.269 OA
BRANCH  30  33
ATOM     33  C   UNL     1      -0.945  -3.575  12.128  1.00  0.00     0.039 A 
ATOM     34  C   UNL     1      -1.453  -4.122  13.306  1.00  0.00     0.014 A 
ATOM     35  C   UNL     1       0.226  -4.080  11.557  1.00  0.00     0.014 A 
ATOM     36  C   UNL     1      -0.831  -5.238  13.866  1.00  0.00     0.010 A 
ATOM     37  C   UNL     1       0.790  -5.245  12.064  1.00  0.00     0.010 A 
ATOM     38  C   UNL     1       0.264  -5.838  13.220  1.00  0.00    -0.014 A 
BRANCH  38  39
ATOM     39  C   UNL     1       0.845  -7.105  13.732  1.00  0.00     0.031 A 
ATOM     40  C   UNL     1       2.265  -7.151  14.217  1.00  0.00     0.074 A 
ATOM     41  C   UNL     1       0.102  -8.228  13.706  1.00  0.00     0.049 A 
ATOM     42  N   UNL     1       2.943  -8.164  14.695  1.00  0.00    -0.248 NA
ATOM     43  C   UNL     1       3.038  -5.902  14.127  1.00  0.00     0.031 C 
ATOM     44  C   UNL     1      -1.264  -8.327  13.187  1.00  0.00     0.029 A 
ATOM     45  N   UNL     1       0.390  -9.503  14.124  1.00  0.00    -0.354 N 
ATOM     46  C   UNL     1       4.217  -7.677  14.956  1.00  0.00     0.074 A 
ATOM     47  C   UNL     1       4.239  -6.297  14.524  1.00  0.00     0.031 C 
ATOM     48  C   UNL     1      -1.708  -9.583  13.351  1.00  0.00     0.029 A 
ATOM     49  C   UNL     1      -0.649 -10.386  13.955  1.00  0.00     0.049 A 
ATOM     50  H   UNL     1       1.259  -9.761  14.508  1.00  0.00     0.167 HD
ATOM     51  C   UNL     1       5.264  -8.316  15.530  1.00  0.00     0.037 A 
ATOM     52  C   UNL     1      -0.739 -11.694  14.258  1.00  0.00     0.037 A 
ATOM     53  C   UNL     1       5.231  -9.685  15.974  1.00  0.00     0.049 A 
ATOM     54  C   UNL     1       0.435 -12.376  14.907  1.00  0.00     0.074 A 
ATOM     55  C   UNL     1       6.216 -10.405  16.627  1.00  0.00     0.029 A 
ATOM     56  N   UNL     1       4.156 -10.545  15.802  1.00  0.00    -0.354 N 
ATOM     57  N   UNL     1       1.605 -11.881  15.233  1.00  0.00    -0.248 NA
ATOM     58  C   UNL     1       0.270 -13.796  15.242  1.00  0.00     0.031 C 
ATOM     59  C   UNL     1       5.756 -11.714  16.806  1.00  0.00     0.029 A 
ATOM     60  C   UNL     1       4.464 -11.796  16.315  1.00  0.00     0.049 A 
ATOM     61  H   UNL     1       3.301 -10.303  15.379  1.00  0.00     0.167 HD
ATOM     62  C   UNL     1       2.306 -12.920  15.828  1.00  0.00     0.074 A 
ATOM     63  C   UNL     1       1.419 -14.065  15.844  1.00  0.00     0.031 C 
ATOM     64  C   UNL     1       3.572 -12.928  16.315  1.00  0.00     0.037 A 
BRANCH  51  65
ATOM     65  C   UNL     1       6.533  -7.535  15.717  1.00  0.00     0.064 A 
ATOM     66  C   UNL     1       6.620  -6.481  16.639  1.00  0.00     0.173 A 
ATOM     67  C   UNL     1       7.687  -7.865  14.991  1.00  0.00     0.173 A 
ATOM     68  F   UNL     1       5.542  -6.115  17.350  1.00  0.00    -0.203 F 
ATOM     69  C   UNL     1       7.804  -5.768  16.806  1.00  0.00     0.198 A 
ATOM     70  C   UNL     1       8.879  -7.171  15.183  1.00  0.00     0.198 A 
ATOM     71  F   UNL     1       7.662  -8.867  14.098  1.00  0.00    -0.203 F 
ATOM     72  F   UNL     1       7.846  -4.731  17.655  1.00  0.00    -0.200 F 
ATOM     73  C   UNL     1       8.934  -6.118  16.084  1.00  0.00     0.200 A 
ATOM     74  F   UNL     1       9.975  -7.519  14.494  1.00  0.00    -0.200 F 
ATOM     75  F   UNL     1      10.076  -5.436  16.251  1.00  0.00    -0.200 F 
ENDBRANCH  51  65
BRANCH  52  76
ATOM     76  C   UNL     1      -1.996 -12.437  13.985  1.00  0.00     0.064 A 
ATOM     77  C   UNL     1      -2.810 -12.887  15.034  1.00  0.00     0.173 A 
ATOM     78  C   UNL     1      -2.409 -12.718  12.674  1.00  0.00     0.173 A 
ATOM     79  F   UNL     1      -2.448 -12.661  16.306  1.00  0.00    -0.203 F 
ATOM     80  C   UNL     1      -3.974 -13.610  14.784  1.00  0.00     0.198 A 
ATOM     81  C   UNL     1      -3.589 -13.414  12.424  1.00  0.00     0.198 A 
ATOM     82  F   UNL     1      -1.670 -12.303  11.634  1.00  0.00    -0.203 F 
ATOM     83  F   UNL     1      -4.707 -14.071  15.807  1.00  0.00    -0.200 F 
ATOM     84  C   UNL     1      -4.366 -13.868  13.479  1.00  0.00     0.200 A 
ATOM     85  F   UNL     1      -3.972 -13.648  11.162  1.00  0.00    -0.200 F 
ATOM     86  F   UNL     1      -5.488 -14.560  13.239  1.00  0.00    -0.200 F 
ENDBRANCH  52  76
BRANCH  64  87
ATOM     87  C   UNL     1       4.060 -14.213  16.921  1.00  0.00     0.064 A 
ATOM     88  C   UNL     1       4.320 -15.346  16.135  1.00  0.00     0.173 A 
ATOM     89  C   UNL     1       4.278 -14.310  18.304  1.00  0.00     0.173 A 
ATOM     90  F   UNL     1       4.113 -15.310  14.809  1.00  0.00    -0.203 F 
ATOM     91  C   UNL     1       4.740 -16.540  16.716  1.00  0.00     0.198 A 
ATOM     92  C   UNL     1       4.731 -15.495  18.877  1.00  0.00     0.198 A 
ATOM     93  F   UNL     1       4.054 -13.254  19.100  1.00  0.00    -0.203 F 
ATOM     94  F   UNL     1       4.918 -17.627  15.953  1.00  0.00    -0.200 F 
ATOM     95  C   UNL     1       4.950 -16.612  18.084  1.00  0.00     0.200 A 
ATOM     96  F   UNL     1       4.948 -15.559  20.198  1.00  0.00    -0.200 F 
ATOM     97  F   UNL     1       5.353 -17.762  18.642  1.00  0.00    -0.200 F 
ENDBRANCH  64  87
ENDBRANCH  38  39
ENDBRANCH  30  33
ENDBRANCH  28  29
ENDBRANCH  27  28
ENDBRANCH   1  27
TORSDOF 14
