REMARK SMILES Cc1c(-c2nn(-c3ccccc3)cc2/C=N/O)nnn1-c1ccc(C(=O)NCCCCNC(=O)c2ccc(-c3c4nc(c(-c5c(F)c(F)c(F)c(F)c5F)c5ccc([nH]5)c(-c5c(F)c(F)c(F)c(F)c5F)c5nc(c(-c6c(F)c(F)c(F)c(F)c6F)c6ccc3[nH]6)C=C5)C=C4)cc2)cc1
REMARK SMILES IDX 28 1 27 2 25 3 26 4 24 6 21 7 22 8 99 9 23 10 98 11 20 12
REMARK SMILES IDX 1 13 2 14 3 15 18 16 19 17 4 18 5 19 14 20 6 21 13 22 15 23
REMARK SMILES IDX 16 24 17 25 7 27 8 28 12 29 9 30 11 31 10 32 29 33 30 34
REMARK SMILES IDX 31 35 32 36 33 37 34 39 35 40 36 41 97 42 37 43 96 44 38 45
REMARK SMILES IDX 39 46 40 47 90 48 41 49 95 50 89 51 91 52 42 53 94 54 88 55
REMARK SMILES IDX 87 56 43 58 75 59 55 60 74 61 56 62 59 63 73 64 92 65 57 66
REMARK SMILES IDX 58 67 72 69 93 70 60 71 44 72 45 73 53 74 46 75 47 76 51 77
REMARK SMILES IDX 54 78 48 79 49 80 52 81 50 82 76 83 77 84 85 85 78 86 79 87
REMARK SMILES IDX 83 88 86 89 80 90 81 91 84 92 82 93 61 94 62 95 70 96 63 97
REMARK SMILES IDX 64 98 68 99 71 100 65 101 66 102 69 103 67 104
REMARK H PARENT 27 5 17 26 32 38 91 57 59 68
REMARK Flexibility Score: inf
ROOT
ATOM      1  C   UNL     1      -4.997   3.012  -0.569  1.00  0.00     0.116 C 
ENDROOT
BRANCH   1   2
ATOM      2  N   UNL     1      -5.494   2.447   0.670  1.00  0.00    -0.352 N 
ATOM      3  C   UNL     1      -5.123   1.377   1.446  1.00  0.00     0.251 C 
ATOM      4  O   UNL     1      -5.790   1.189   2.466  1.00  0.00    -0.269 OA
ATOM      5  H   UNL     1      -6.265   2.938   1.035  1.00  0.00     0.163 HD
BRANCH   3   6
ATOM      6  C   UNL     1      -3.958   0.480   1.169  1.00  0.00     0.039 A 
ATOM      7  C   UNL     1      -1.689  -1.169   0.905  1.00  0.00     0.067 A 
ATOM      8  C   UNL     1      -2.407  -1.174   2.100  1.00  0.00     0.029 A 
ATOM      9  C   UNL     1      -2.137  -0.409  -0.179  1.00  0.00     0.029 A 
ATOM     10  C   UNL     1      -3.512  -0.325   2.237  1.00  0.00     0.016 A 
ATOM     11  C   UNL     1      -3.296   0.367  -0.056  1.00  0.00     0.016 A 
BRANCH   7  12
ATOM     12  N   UNL     1      -0.528  -1.960   0.781  1.00  0.00    -0.217 N 
ATOM     13  C   UNL     1       1.117  -0.239  -0.099  1.00  0.00     0.069 C 
ATOM     14  C   UNL     1       0.689  -1.621   0.222  1.00  0.00     0.071 A 
ATOM     15  C   UNL     1       1.362  -2.826   0.184  1.00  0.00     0.137 A 
ATOM     16  N   UNL     1       0.623  -3.796   0.797  1.00  0.00    -0.128 NA
ATOM     17  N   UNL     1      -0.500  -3.236   1.231  1.00  0.00    -0.061 NA
BRANCH  15  18
ATOM     18  C   UNL     1       2.711  -3.093  -0.298  1.00  0.00     0.124 A 
ATOM     19  N   UNL     1       3.791  -2.777   0.425  1.00  0.00    -0.165 NA
ATOM     20  C   UNL     1       3.044  -3.656  -1.552  1.00  0.00     0.044 A 
ATOM     21  N   UNL     1       4.832  -3.036  -0.393  1.00  0.00    -0.240 N 
ATOM     22  C   UNL     1       4.423  -3.553  -1.600  1.00  0.00     0.125 A 
BRANCH  20  23
ATOM     23  C   UNL     1       2.228  -4.226  -2.594  1.00  0.00     0.166 C 
ATOM     24  N   UNL     1       0.940  -4.154  -2.524  1.00  0.00    -0.097 NA
BRANCH  24  25
ATOM     25  O   UNL     1       0.383  -4.812  -3.627  1.00  0.00    -0.411 OA
ATOM     26  H   UNL     1      -0.548  -4.852  -3.728  1.00  0.00     0.330 HD
ENDBRANCH  24  25
ENDBRANCH  20  23
BRANCH  21  27
ATOM     27  C   UNL     1       6.155  -2.753   0.012  1.00  0.00     0.065 A 
ATOM     28  C   UNL     1       6.512  -2.941   1.353  1.00  0.00     0.028 A 
ATOM     29  C   UNL     1       7.093  -2.275  -0.911  1.00  0.00     0.028 A 
ATOM     30  C   UNL     1       7.819  -2.678   1.763  1.00  0.00     0.002 A 
ATOM     31  C   UNL     1       8.382  -1.960  -0.478  1.00  0.00     0.002 A 
ATOM     32  C   UNL     1       8.748  -2.175   0.853  1.00  0.00     0.000 A 
ENDBRANCH  21  27
ENDBRANCH  15  18
ENDBRANCH   7  12
ENDBRANCH   3   6
ENDBRANCH   1   2
BRANCH   1  33
ATOM     33  C   UNL     1      -5.784   2.489  -1.776  1.00  0.00     0.023 C 
BRANCH  33  34
ATOM     34  C   UNL     1      -7.170   3.125  -1.971  1.00  0.00     0.023 C 
BRANCH  34  35
ATOM     35  C   UNL     1      -7.153   4.601  -2.359  1.00  0.00     0.116 C 
BRANCH  35  36
ATOM     36  N   UNL     1      -6.463   4.853  -3.626  1.00  0.00    -0.352 N 
ATOM     37  C   UNL     1      -6.031   6.060  -4.137  1.00  0.00     0.251 C 
ATOM     38  H   UNL     1      -6.284   4.061  -4.184  1.00  0.00     0.163 HD
ATOM     39  O   UNL     1      -5.834   6.208  -5.343  1.00  0.00    -0.269 OA
BRANCH  37  40
ATOM     40  C   UNL     1      -5.783   7.171  -3.209  1.00  0.00     0.039 A 
ATOM     41  C   UNL     1      -6.186   8.479  -3.493  1.00  0.00     0.014 A 
ATOM     42  C   UNL     1      -5.163   6.859  -2.003  1.00  0.00     0.014 A 
ATOM     43  C   UNL     1      -6.035   9.453  -2.509  1.00  0.00     0.010 A 
ATOM     44  C   UNL     1      -5.169   7.771  -0.983  1.00  0.00     0.010 A 
ATOM     45  C   UNL     1      -5.544   9.083  -1.246  1.00  0.00    -0.014 A 
BRANCH  45  46
ATOM     46  C   UNL     1      -5.544  10.024  -0.130  1.00  0.00     0.031 A 
ATOM     47  C   UNL     1      -6.895  10.556   0.192  1.00  0.00     0.074 A 
ATOM     48  C   UNL     1      -4.476  10.180   0.686  1.00  0.00     0.049 A 
ATOM     49  N   UNL     1      -7.322  11.766   0.048  1.00  0.00    -0.248 NA
ATOM     50  C   UNL     1      -7.952   9.603   0.578  1.00  0.00     0.031 C 
ATOM     51  C   UNL     1      -3.224   9.409   0.662  1.00  0.00     0.029 A 
ATOM     52  N   UNL     1      -4.314  10.969   1.790  1.00  0.00    -0.354 N 
ATOM     53  C   UNL     1      -8.613  11.774   0.576  1.00  0.00     0.074 A 
ATOM     54  C   UNL     1      -9.021  10.400   0.660  1.00  0.00     0.031 C 
ATOM     55  C   UNL     1      -2.557   9.580   1.823  1.00  0.00     0.029 A 
ATOM     56  C   UNL     1      -3.224  10.617   2.584  1.00  0.00     0.049 A 
ATOM     57  H   UNL     1      -4.915  11.719   2.006  1.00  0.00     0.167 HD
ATOM     58  C   UNL     1      -9.072  12.885   1.220  1.00  0.00     0.037 A 
ATOM     59  C   UNL     1      -2.886  11.142   3.787  1.00  0.00     0.037 A 
ATOM     60  C   UNL     1      -8.202  14.003   0.959  1.00  0.00     0.049 A 
ATOM     61  C   UNL     1      -3.556  12.454   3.904  1.00  0.00     0.074 A 
ATOM     62  C   UNL     1      -7.984  14.898  -0.063  1.00  0.00     0.029 A 
ATOM     63  N   UNL     1      -7.098  14.024   1.767  1.00  0.00    -0.354 N 
ATOM     64  N   UNL     1      -3.264  13.476   3.148  1.00  0.00    -0.248 NA
ATOM     65  C   UNL     1      -4.821  12.544   4.625  1.00  0.00     0.031 C 
ATOM     66  C   UNL     1      -6.652  15.383   0.107  1.00  0.00     0.029 A 
ATOM     67  C   UNL     1      -6.108  14.812   1.254  1.00  0.00     0.049 A 
ATOM     68  H   UNL     1      -7.026  13.530   2.615  1.00  0.00     0.167 HD
ATOM     69  C   UNL     1      -4.471  14.117   2.970  1.00  0.00     0.074 A 
ATOM     70  C   UNL     1      -5.343  13.617   4.025  1.00  0.00     0.031 C 
ATOM     71  C   UNL     1      -4.769  14.716   1.783  1.00  0.00     0.037 A 
BRANCH  58  72
ATOM     72  C   UNL     1      -9.937  12.887   2.471  1.00  0.00     0.064 A 
ATOM     73  C   UNL     1     -10.352  14.131   3.001  1.00  0.00     0.173 A 
ATOM     74  C   UNL     1     -10.091  11.787   3.340  1.00  0.00     0.173 A 
ATOM     75  F   UNL     1     -10.246  15.254   2.273  1.00  0.00    -0.203 F 
ATOM     76  C   UNL     1     -10.800  14.267   4.319  1.00  0.00     0.198 A 
ATOM     77  C   UNL     1     -10.585  11.920   4.639  1.00  0.00     0.198 A 
ATOM     78  F   UNL     1      -9.671  10.558   3.025  1.00  0.00    -0.203 F 
ATOM     79  F   UNL     1     -11.064  15.485   4.811  1.00  0.00    -0.200 F 
ATOM     80  C   UNL     1     -10.909  13.162   5.140  1.00  0.00     0.200 A 
ATOM     81  F   UNL     1     -10.661  10.837   5.427  1.00  0.00    -0.200 F 
ATOM     82  F   UNL     1     -11.279  13.294   6.420  1.00  0.00    -0.200 F 
ENDBRANCH  58  72
BRANCH  59  83
ATOM     83  C   UNL     1      -2.212  10.501   4.938  1.00  0.00     0.064 A 
ATOM     84  C   UNL     1      -1.551  11.264   5.915  1.00  0.00     0.173 A 
ATOM     85  C   UNL     1      -2.464   9.153   5.256  1.00  0.00     0.173 A 
ATOM     86  F   UNL     1      -1.306  12.564   5.701  1.00  0.00    -0.203 F 
ATOM     87  C   UNL     1      -1.199  10.719   7.155  1.00  0.00     0.198 A 
ATOM     88  C   UNL     1      -2.112   8.611   6.493  1.00  0.00     0.198 A 
ATOM     89  F   UNL     1      -3.146   8.370   4.407  1.00  0.00    -0.203 F 
ATOM     90  F   UNL     1      -0.628  11.495   8.088  1.00  0.00    -0.200 F 
ATOM     91  C   UNL     1      -1.494   9.398   7.449  1.00  0.00     0.200 A 
ATOM     92  F   UNL     1      -2.438   7.343   6.781  1.00  0.00    -0.200 F 
ATOM     93  F   UNL     1      -1.223   8.897   8.662  1.00  0.00    -0.200 F 
ENDBRANCH  59  83
BRANCH  71  94
ATOM     94  C   UNL     1      -3.634  15.164   0.923  1.00  0.00     0.064 A 
ATOM     95  C   UNL     1      -2.755  14.306   0.245  1.00  0.00     0.173 A 
ATOM     96  C   UNL     1      -3.495  16.541   0.712  1.00  0.00     0.173 A 
ATOM     97  F   UNL     1      -2.870  12.975   0.350  1.00  0.00    -0.203 F 
ATOM     98  C   UNL     1      -1.765  14.816  -0.594  1.00  0.00     0.198 A 
ATOM     99  C   UNL     1      -2.530  17.045  -0.150  1.00  0.00     0.198 A 
ATOM    100  F   UNL     1      -4.334  17.399   1.315  1.00  0.00    -0.203 F 
ATOM    101  F   UNL     1      -0.926  13.984  -1.230  1.00  0.00    -0.200 F 
ATOM    102  C   UNL     1      -1.660  16.184  -0.797  1.00  0.00     0.200 A 
ATOM    103  F   UNL     1      -2.462  18.365  -0.371  1.00  0.00    -0.200 F 
ATOM    104  F   UNL     1      -0.734  16.673  -1.634  1.00  0.00    -0.200 F 
ENDBRANCH  71  94
ENDBRANCH  45  46
ENDBRANCH  37  40
ENDBRANCH  35  36
ENDBRANCH  34  35
ENDBRANCH  33  34
ENDBRANCH   1  33
TORSDOF 16
