REMARK SMILES O=C(CC[N@@H+]1CCC[C@@H]1c1csc(Nc2ccccn2)n1)NCCCCNC(=O)c1ccc(-c2c3nc(c(-c4c(F)c(F)c(F)c(F)c4F)c4ccc([nH]4)c(-c4c(F)c(F)c(F)c(F)c4F)c4nc(c(-c5c(F)c(F)c(F)c(F)c5F)c5ccc2[nH]5)C=C4)C=C3)cc1
REMARK SMILES IDX 23 1 22 2 1 3 2 4 3 6 4 7 5 8 6 9 9 10 7 12 8 13 10 14 11 15
REMARK SMILES IDX 21 16 12 17 13 18 14 19 15 21 16 22 20 23 17 24 19 25 18 26
REMARK SMILES IDX 24 27 25 28 26 29 27 30 28 31 29 33 30 34 31 35 92 36 32 37
REMARK SMILES IDX 91 38 33 39 34 40 35 41 85 42 36 43 90 44 84 45 86 46 37 47
REMARK SMILES IDX 89 48 83 49 82 50 38 52 70 53 50 54 69 55 51 56 54 57 68 58
REMARK SMILES IDX 87 59 52 60 53 61 67 63 88 64 55 65 39 66 40 67 48 68 41 69
REMARK SMILES IDX 42 70 46 71 49 72 43 73 44 74 47 75 45 76 71 77 72 78 80 79
REMARK SMILES IDX 73 80 74 81 78 82 81 83 75 84 76 85 79 86 77 87 56 88 57 89
REMARK SMILES IDX 65 90 58 91 59 92 63 93 66 94 60 95 61 96 64 97 62 98
REMARK H PARENT 22 5 5 11 14 20 27 32 86 51 54 62
REMARK Flexibility Score: inf
ROOT
ATOM      1  C   UNL     1       1.710   0.346   2.729  1.00  0.00     0.116 C 
ENDROOT
BRANCH   1   2
ATOM      2  N   UNL     1       2.386  -0.396   1.680  1.00  0.00    -0.356 N 
ATOM      3  O   UNL     1       0.875   0.223   0.074  1.00  0.00    -0.275 OA
ATOM      4  C   UNL     1       1.948  -0.294   0.376  1.00  0.00     0.225 C 
ATOM      5  H   UNL     1       3.156  -0.970   1.898  1.00  0.00     0.163 HD
BRANCH   4   6
ATOM      6  C   UNL     1       2.926  -0.768  -0.680  1.00  0.00     0.161 C 
BRANCH   6   7
ATOM      7  C   UNL     1       3.460   0.461  -1.446  1.00  0.00     0.272 C 
BRANCH   7   8
ATOM      8  N   UNL     1       4.812   1.001  -1.163  1.00  0.00    -0.327 N 
ATOM      9  C   UNL     1       5.294   0.800   0.205  1.00  0.00     0.263 C 
ATOM     10  C   UNL     1       4.953   2.494  -1.359  1.00  0.00     0.235 C 
ATOM     11  H   UNL     1       5.353   0.465  -1.842  1.00  0.00     0.348 HD
ATOM     12  C   UNL     1       4.703   1.950   0.980  1.00  0.00     0.068 C 
ATOM     13  C   UNL     1       4.840   3.123   0.042  1.00  0.00     0.078 C 
BRANCH  10  14
ATOM     14  C   UNL     1       4.053   3.132  -2.385  1.00  0.00     0.111 A 
ATOM     15  C   UNL     1       3.785   2.667  -3.656  1.00  0.00     0.098 A 
ATOM     16  N   UNL     1       3.438   4.349  -2.093  1.00  0.00    -0.219 NA
ATOM     17  S   UNL     1       2.591   3.628  -4.397  1.00  0.00    -0.105 S 
ATOM     18  C   UNL     1       2.610   4.717  -3.046  1.00  0.00     0.188 A 
BRANCH  18  19
ATOM     19  N   UNL     1       1.932   5.893  -3.008  1.00  0.00    -0.316 N 
ATOM     20  H   UNL     1       2.139   6.522  -2.280  1.00  0.00     0.170 HD
BRANCH  19  21
ATOM     21  C   UNL     1       0.959   6.265  -3.938  1.00  0.00     0.132 A 
ATOM     22  C   UNL     1      -0.209   5.515  -4.081  1.00  0.00     0.047 A 
ATOM     23  N   UNL     1       1.241   7.311  -4.740  1.00  0.00    -0.239 NA
ATOM     24  C   UNL     1      -1.082   5.802  -5.123  1.00  0.00     0.005 A 
ATOM     25  C   UNL     1       0.397   7.546  -5.770  1.00  0.00     0.113 A 
ATOM     26  C   UNL     1      -0.759   6.822  -6.006  1.00  0.00     0.020 A 
ENDBRANCH  19  21
ENDBRANCH  18  19
ENDBRANCH  10  14
ENDBRANCH   7   8
ENDBRANCH   6   7
ENDBRANCH   4   6
ENDBRANCH   1   2
BRANCH   1  27
ATOM     27  C   UNL     1       2.267   0.107   4.134  1.00  0.00     0.023 C 
BRANCH  27  28
ATOM     28  C   UNL     1       3.747   0.450   4.346  1.00  0.00     0.023 C 
BRANCH  28  29
ATOM     29  C   UNL     1       4.104   1.937   4.340  1.00  0.00     0.116 C 
BRANCH  29  30
ATOM     30  N   UNL     1       3.725   2.654   5.540  1.00  0.00    -0.352 N 
ATOM     31  C   UNL     1       4.474   3.371   6.446  1.00  0.00     0.251 C 
ATOM     32  H   UNL     1       2.762   2.624   5.743  1.00  0.00     0.163 HD
ATOM     33  O   UNL     1       3.907   3.897   7.397  1.00  0.00    -0.269 OA
BRANCH  31  34
ATOM     34  C   UNL     1       5.954   3.480   6.347  1.00  0.00     0.039 A 
ATOM     35  C   UNL     1       6.688   3.343   7.532  1.00  0.00     0.014 A 
ATOM     36  C   UNL     1       6.633   3.766   5.159  1.00  0.00     0.014 A 
ATOM     37  C   UNL     1       8.085   3.418   7.518  1.00  0.00     0.010 A 
ATOM     38  C   UNL     1       8.036   3.777   5.133  1.00  0.00     0.010 A 
ATOM     39  C   UNL     1       8.779   3.595   6.311  1.00  0.00    -0.014 A 
BRANCH  39  40
ATOM     40  C   UNL     1      10.271   3.561   6.288  1.00  0.00     0.031 A 
ATOM     41  C   UNL     1      11.072   4.780   5.917  1.00  0.00     0.074 A 
ATOM     42  C   UNL     1      10.915   2.414   6.589  1.00  0.00     0.049 A 
ATOM     43  N   UNL     1      12.373   4.925   5.841  1.00  0.00    -0.248 NA
ATOM     44  C   UNL     1      10.315   5.991   5.571  1.00  0.00     0.031 C 
ATOM     45  C   UNL     1      10.265   1.151   6.940  1.00  0.00     0.029 A 
ATOM     46  N   UNL     1      12.257   2.122   6.648  1.00  0.00    -0.354 N 
ATOM     47  C   UNL     1      12.589   6.236   5.435  1.00  0.00     0.074 A 
ATOM     48  C   UNL     1      11.284   6.830   5.234  1.00  0.00     0.031 C 
ATOM     49  C   UNL     1      11.205   0.230   7.204  1.00  0.00     0.029 A 
ATOM     50  C   UNL     1      12.524   0.820   7.000  1.00  0.00     0.049 A 
ATOM     51  H   UNL     1      12.961   2.783   6.456  1.00  0.00     0.167 HD
ATOM     52  C   UNL     1      13.764   6.891   5.263  1.00  0.00     0.037 A 
ATOM     53  C   UNL     1      13.697   0.169   7.136  1.00  0.00     0.037 A 
ATOM     54  C   UNL     1      15.065   6.306   5.476  1.00  0.00     0.049 A 
ATOM     55  C   UNL     1      14.986   0.911   6.905  1.00  0.00     0.074 A 
ATOM     56  C   UNL     1      16.308   6.909   5.380  1.00  0.00     0.029 A 
ATOM     57  N   UNL     1      15.292   4.981   5.817  1.00  0.00    -0.354 N 
ATOM     58  N   UNL     1      15.174   2.169   6.589  1.00  0.00    -0.248 NA
ATOM     59  C   UNL     1      16.230   0.141   7.054  1.00  0.00     0.031 C 
ATOM     60  C   UNL     1      17.288   5.936   5.601  1.00  0.00     0.029 A 
ATOM     61  C   UNL     1      16.656   4.740   5.902  1.00  0.00     0.049 A 
ATOM     62  H   UNL     1      14.590   4.310   5.976  1.00  0.00     0.167 HD
ATOM     63  C   UNL     1      16.550   2.349   6.536  1.00  0.00     0.074 A 
ATOM     64  C   UNL     1      17.151   1.075   6.867  1.00  0.00     0.031 C 
ATOM     65  C   UNL     1      17.250   3.471   6.239  1.00  0.00     0.037 A 
BRANCH  52  66
ATOM     66  C   UNL     1      13.706   8.324   4.811  1.00  0.00     0.064 A 
ATOM     67  C   UNL     1      13.232   9.345   5.649  1.00  0.00     0.173 A 
ATOM     68  C   UNL     1      14.181   8.689   3.542  1.00  0.00     0.173 A 
ATOM     69  F   UNL     1      12.762   9.051   6.871  1.00  0.00    -0.203 F 
ATOM     70  C   UNL     1      13.206  10.670   5.222  1.00  0.00     0.198 A 
ATOM     71  C   UNL     1      14.185  10.020   3.131  1.00  0.00     0.198 A 
ATOM     72  F   UNL     1      14.658   7.756   2.703  1.00  0.00    -0.203 F 
ATOM     73  F   UNL     1      12.703  11.620   6.023  1.00  0.00    -0.200 F 
ATOM     74  C   UNL     1      13.689  11.008   3.967  1.00  0.00     0.200 A 
ATOM     75  F   UNL     1      14.670  10.346   1.925  1.00  0.00    -0.200 F 
ATOM     76  F   UNL     1      13.674  12.285   3.562  1.00  0.00    -0.200 F 
ENDBRANCH  52  66
BRANCH  53  77
ATOM     77  C   UNL     1      13.711  -1.268   7.522  1.00  0.00     0.064 A 
ATOM     78  C   UNL     1      14.223  -1.679   8.762  1.00  0.00     0.173 A 
ATOM     79  C   UNL     1      13.236  -2.262   6.653  1.00  0.00     0.173 A 
ATOM     80  F   UNL     1      14.711  -0.769   9.618  1.00  0.00    -0.203 F 
ATOM     81  C   UNL     1      14.280  -3.027   9.107  1.00  0.00     0.198 A 
ATOM     82  C   UNL     1      13.264  -3.607   7.013  1.00  0.00     0.198 A 
ATOM     83  F   UNL     1      12.735  -1.924   5.456  1.00  0.00    -0.203 F 
ATOM     84  F   UNL     1      14.825  -3.395  10.275  1.00  0.00    -0.200 F 
ATOM     85  C   UNL     1      13.795  -3.990   8.235  1.00  0.00     0.200 A 
ATOM     86  F   UNL     1      12.779  -4.533   6.174  1.00  0.00    -0.200 F 
ATOM     87  F   UNL     1      13.849  -5.287   8.568  1.00  0.00    -0.200 F 
ENDBRANCH  53  77
BRANCH  65  88
ATOM     88  C   UNL     1      18.750   3.389   6.299  1.00  0.00     0.064 A 
ATOM     89  C   UNL     1      19.491   2.660   5.356  1.00  0.00     0.173 A 
ATOM     90  C   UNL     1      19.459   4.079   7.295  1.00  0.00     0.173 A 
ATOM     91  F   UNL     1      18.863   1.970   4.392  1.00  0.00    -0.203 F 
ATOM     92  C   UNL     1      20.881   2.602   5.426  1.00  0.00     0.198 A 
ATOM     93  C   UNL     1      20.850   4.047   7.341  1.00  0.00     0.198 A 
ATOM     94  F   UNL     1      18.802   4.797   8.219  1.00  0.00    -0.203 F 
ATOM     95  F   UNL     1      21.563   1.855   4.546  1.00  0.00    -0.200 F 
ATOM     96  C   UNL     1      21.559   3.302   6.412  1.00  0.00     0.200 A 
ATOM     97  F   UNL     1      21.504   4.737   8.286  1.00  0.00    -0.200 F 
ATOM     98  F   UNL     1      22.897   3.251   6.472  1.00  0.00    -0.200 F 
ENDBRANCH  65  88
ENDBRANCH  39  40
ENDBRANCH  31  34
ENDBRANCH  29  30
ENDBRANCH  28  29
ENDBRANCH  27  28
ENDBRANCH   1  27
TORSDOF 16
