REMARK SMILES Cc1nn(C)c(C)c1C[C@@H](C)C(=O)N[C@@H](C(=O)NCCCCNC(=O)c1ccc(-c2c3nc(c(-c4c(F)c(F)c(F)c(F)c4F)c4ccc([nH]4)c(-c4c(F)c(F)c(F)c(F)c4F)c4nc(c(-c5c(F)c(F)c(F)c(F)c5F)c5ccc2[nH]5)C=C4)C=C3)cc1)c1ccccc1Cl
REMARK SMILES IDX 19 1 18 2 16 3 17 4 15 6 14 7 12 8 13 9 10 11 11 12 9 13
REMARK SMILES IDX 8 14 1 15 2 16 3 17 4 18 6 19 5 20 7 21 89 22 90 23 94 24
REMARK SMILES IDX 91 25 93 26 95 27 92 28 20 29 21 30 22 31 23 32 24 33 25 35
REMARK SMILES IDX 26 36 27 37 88 38 28 39 87 40 29 41 30 42 31 43 81 44 32 45
REMARK SMILES IDX 86 46 80 47 82 48 33 49 85 50 79 51 78 52 34 54 66 55 46 56
REMARK SMILES IDX 65 57 47 58 50 59 64 60 83 61 48 62 49 63 63 65 84 66 51 67
REMARK SMILES IDX 35 68 36 69 44 70 37 71 38 72 42 73 45 74 39 75 40 76 43 77
REMARK SMILES IDX 41 78 67 79 68 80 76 81 69 82 70 83 74 84 77 85 71 86 72 87
REMARK SMILES IDX 75 88 73 89 52 90 53 91 61 92 54 93 55 94 59 95 62 96 56 97
REMARK SMILES IDX 57 98 60 99 58 100
REMARK H PARENT 18 5 14 10 23 34 82 53 50 64
REMARK Flexibility Score: inf
ROOT
ATOM      1  C   UNL     1      -2.334   4.639  -1.274  1.00  0.00     0.116 C 
ENDROOT
BRANCH   1   2
ATOM      2  N   UNL     1      -1.493   5.439  -2.132  1.00  0.00    -0.354 N 
ATOM      3  C   UNL     1      -0.150   5.699  -2.052  1.00  0.00     0.247 C 
ATOM      4  O   UNL     1       0.379   6.076  -3.106  1.00  0.00    -0.272 OA
ATOM      5  H   UNL     1      -1.955   5.862  -2.892  1.00  0.00     0.163 HD
BRANCH   3   6
ATOM      6  C   UNL     1       0.711   5.366  -0.775  1.00  0.00     0.203 C 
BRANCH   6   7
ATOM      7  N   UNL     1       0.026   5.545   0.509  1.00  0.00    -0.340 N 
ATOM      8  C   UNL     1      -0.339   4.693   1.504  1.00  0.00     0.224 C 
ATOM      9  O   UNL     1      -1.056   5.161   2.395  1.00  0.00    -0.275 OA
ATOM     10  H   UNL     1      -0.224   6.480   0.688  1.00  0.00     0.164 HD
BRANCH   8  11
ATOM     11  C   UNL     1       0.082   3.220   1.566  1.00  0.00     0.080 C 
ATOM     12  C   UNL     1       1.573   3.150   1.857  1.00  0.00     0.018 C 
BRANCH  11  13
ATOM     13  C   UNL     1      -0.460   2.396   0.386  1.00  0.00     0.052 C 
BRANCH  13  14
ATOM     14  C   UNL     1      -0.164   0.932   0.337  1.00  0.00    -0.003 A 
ATOM     15  C   UNL     1      -2.594  -0.100   0.431  1.00  0.00     0.069 C 
ATOM     16  C   UNL     1      -1.107  -0.140   0.372  1.00  0.00     0.063 A 
ATOM     17  N   UNL     1      -0.507  -1.328   0.259  1.00  0.00    -0.178 NA
ATOM     18  N   UNL     1       0.791  -1.036   0.105  1.00  0.00    -0.272 N 
ATOM     19  C   UNL     1       1.041   0.309   0.035  1.00  0.00     0.038 A 
ATOM     20  C   UNL     1       1.725  -2.128  -0.036  1.00  0.00     0.174 C 
ATOM     21  C   UNL     1       2.369   0.860  -0.340  1.00  0.00     0.066 C 
ENDBRANCH  13  14
ENDBRANCH  11  13
ENDBRANCH   8  11
ENDBRANCH   6   7
BRANCH   6  22
ATOM     22  C   UNL     1       2.027   6.139  -0.772  1.00  0.00     0.002 A 
ATOM     23  C   UNL     1       3.238   5.421  -0.857  1.00  0.00     0.008 A 
ATOM     24  C   UNL     1       2.096   7.542  -0.709  1.00  0.00     0.046 A 
ATOM     25  C   UNL     1       4.470   6.076  -0.867  1.00  0.00     0.000 A 
ATOM     26  C   UNL     1       3.333   8.196  -0.731  1.00  0.00     0.021 A 
ATOM     27  Cl  UNL     1       0.679   8.526  -0.590  1.00  0.00    -0.084 Cl
ATOM     28  C   UNL     1       4.517   7.465  -0.806  1.00  0.00     0.002 A 
ENDBRANCH   6  22
ENDBRANCH   3   6
ENDBRANCH   1   2
BRANCH   1  29
ATOM     29  C   UNL     1      -3.664   5.279  -0.909  1.00  0.00     0.023 C 
BRANCH  29  30
ATOM     30  C   UNL     1      -4.718   5.238  -2.008  1.00  0.00     0.023 C 
BRANCH  30  31
ATOM     31  C   UNL     1      -5.017   3.857  -2.583  1.00  0.00     0.116 C 
BRANCH  31  32
ATOM     32  N   UNL     1      -5.456   2.881  -1.594  1.00  0.00    -0.352 N 
ATOM     33  C   UNL     1      -6.519   2.009  -1.660  1.00  0.00     0.251 C 
ATOM     34  H   UNL     1      -4.921   2.841  -0.768  1.00  0.00     0.163 HD
ATOM     35  O   UNL     1      -6.798   1.285  -0.709  1.00  0.00    -0.269 OA
BRANCH  33  36
ATOM     36  C   UNL     1      -7.356   1.992  -2.876  1.00  0.00     0.039 A 
ATOM     37  C   UNL     1      -8.734   2.182  -2.751  1.00  0.00     0.014 A 
ATOM     38  C   UNL     1      -6.767   1.883  -4.138  1.00  0.00     0.014 A 
ATOM     39  C   UNL     1      -9.510   2.366  -3.897  1.00  0.00     0.010 A 
ATOM     40  C   UNL     1      -7.527   2.143  -5.273  1.00  0.00     0.010 A 
ATOM     41  C   UNL     1      -8.903   2.403  -5.163  1.00  0.00    -0.014 A 
BRANCH  41  42
ATOM     42  C   UNL     1      -9.678   2.729  -6.386  1.00  0.00     0.031 A 
ATOM     43  C   UNL     1      -9.807   1.713  -7.485  1.00  0.00     0.074 A 
ATOM     44  C   UNL     1     -10.192   3.965  -6.545  1.00  0.00     0.049 A 
ATOM     45  N   UNL     1     -10.335   1.842  -8.676  1.00  0.00    -0.248 NA
ATOM     46  C   UNL     1      -9.239   0.382  -7.220  1.00  0.00     0.031 C 
ATOM     47  C   UNL     1     -10.092   5.057  -5.575  1.00  0.00     0.029 A 
ATOM     48  N   UNL     1     -10.886   4.518  -7.594  1.00  0.00    -0.354 N 
ATOM     49  C   UNL     1     -10.151   0.617  -9.303  1.00  0.00     0.074 A 
ATOM     50  C   UNL     1      -9.415  -0.224  -8.385  1.00  0.00     0.031 C 
ATOM     51  C   UNL     1     -10.715   6.141  -6.066  1.00  0.00     0.029 A 
ATOM     52  C   UNL     1     -11.224   5.835  -7.399  1.00  0.00     0.049 A 
ATOM     53  H   UNL     1     -11.119   4.017  -8.409  1.00  0.00     0.167 HD
ATOM     54  C   UNL     1     -10.582   0.221 -10.524  1.00  0.00     0.037 A 
ATOM     55  C   UNL     1     -11.863   6.701  -8.210  1.00  0.00     0.037 A 
ATOM     56  C   UNL     1     -11.336   1.048 -11.427  1.00  0.00     0.049 A 
ATOM     57  C   UNL     1     -12.327   6.234  -9.563  1.00  0.00     0.074 A 
ATOM     58  C   UNL     1     -11.850   0.724 -12.670  1.00  0.00     0.029 A 
ATOM     59  N   UNL     1     -11.691   2.365 -11.177  1.00  0.00    -0.354 N 
ATOM     60  N   UNL     1     -12.191   5.058 -10.124  1.00  0.00    -0.248 NA
ATOM     61  C   UNL     1     -13.038   7.216 -10.395  1.00  0.00     0.031 C 
ATOM     62  C   UNL     1     -12.492   1.855 -13.186  1.00  0.00     0.029 A 
ATOM     63  C   UNL     1     -12.410   2.871 -12.248  1.00  0.00     0.049 A 
ATOM     64  H   UNL     1     -11.465   2.867 -10.361  1.00  0.00     0.167 HD
ATOM     65  C   UNL     1     -12.821   5.149 -11.358  1.00  0.00     0.074 A 
ATOM     66  C   UNL     1     -13.352   6.492 -11.459  1.00  0.00     0.031 C 
ATOM     67  C   UNL     1     -12.945   4.205 -12.322  1.00  0.00     0.037 A 
BRANCH  54  68
ATOM     68  C   UNL     1     -10.260  -1.182 -10.945  1.00  0.00     0.064 A 
ATOM     69  C   UNL     1     -10.895  -2.285 -10.353  1.00  0.00     0.173 A 
ATOM     70  C   UNL     1      -9.336  -1.428 -11.972  1.00  0.00     0.173 A 
ATOM     71  F   UNL     1     -11.775  -2.102  -9.358  1.00  0.00    -0.203 F 
ATOM     72  C   UNL     1     -10.597  -3.583 -10.755  1.00  0.00     0.198 A 
ATOM     73  C   UNL     1      -9.062  -2.728 -12.391  1.00  0.00     0.198 A 
ATOM     74  F   UNL     1      -8.705  -0.409 -12.573  1.00  0.00    -0.203 F 
ATOM     75  F   UNL     1     -11.182  -4.623 -10.144  1.00  0.00    -0.200 F 
ATOM     76  C   UNL     1      -9.687  -3.804 -11.778  1.00  0.00     0.200 A 
ATOM     77  F   UNL     1      -8.191  -2.939 -13.386  1.00  0.00    -0.200 F 
ATOM     78  F   UNL     1      -9.407  -5.054 -12.169  1.00  0.00    -0.200 F 
ENDBRANCH  54  68
BRANCH  55  79
ATOM     79  C   UNL     1     -12.118   8.095  -7.763  1.00  0.00     0.064 A 
ATOM     80  C   UNL     1     -13.419   8.530  -7.473  1.00  0.00     0.173 A 
ATOM     81  C   UNL     1     -11.076   9.026  -7.640  1.00  0.00     0.173 A 
ATOM     82  F   UNL     1     -14.451   7.682  -7.598  1.00  0.00    -0.203 F 
ATOM     83  C   UNL     1     -13.672   9.848  -7.101  1.00  0.00     0.198 A 
ATOM     84  C   UNL     1     -11.327  10.338  -7.242  1.00  0.00     0.198 A 
ATOM     85  F   UNL     1      -9.813   8.659  -7.902  1.00  0.00    -0.203 F 
ATOM     86  F   UNL     1     -14.931  10.250  -6.880  1.00  0.00    -0.200 F 
ATOM     87  C   UNL     1     -12.626  10.750  -6.983  1.00  0.00     0.200 A 
ATOM     88  F   UNL     1     -10.312  11.204  -7.118  1.00  0.00    -0.200 F 
ATOM     89  F   UNL     1     -12.870  12.020  -6.629  1.00  0.00    -0.200 F 
ENDBRANCH  55  79
BRANCH  67  90
ATOM     90  C   UNL     1     -13.716   4.578 -13.553  1.00  0.00     0.064 A 
ATOM     91  C   UNL     1     -13.178   5.434 -14.524  1.00  0.00     0.173 A 
ATOM     92  C   UNL     1     -14.990   4.036 -13.783  1.00  0.00     0.173 A 
ATOM     93  F   UNL     1     -11.971   5.989 -14.341  1.00  0.00    -0.203 F 
ATOM     94  C   UNL     1     -13.897   5.750 -15.674  1.00  0.00     0.198 A 
ATOM     95  C   UNL     1     -15.694   4.334 -14.946  1.00  0.00     0.198 A 
ATOM     96  F   UNL     1     -15.544   3.208 -12.885  1.00  0.00    -0.203 F 
ATOM     97  F   UNL     1     -13.381   6.602 -16.571  1.00  0.00    -0.200 F 
ATOM     98  C   UNL     1     -15.150   5.195 -15.887  1.00  0.00     0.200 A 
ATOM     99  F   UNL     1     -16.900   3.788 -15.155  1.00  0.00    -0.200 F 
ATOM    100  F   UNL     1     -15.837   5.494 -16.998  1.00  0.00    -0.200 F 
ENDBRANCH  67  90
ENDBRANCH  41  42
ENDBRANCH  33  36
ENDBRANCH  31  32
ENDBRANCH  30  31
ENDBRANCH  29  30
ENDBRANCH   1  29
TORSDOF 16
