REMARK SMILES O=C(NCCCCNC(=O)[C@@H]1CN(c2nccc(N3CCC(O)CC3)n2)CC[NH2+]1)c1ccc(-c2c3nc(c(-c4c(F)c(F)c(F)c(F)c4F)c4ccc([nH]4)c(-c4c(F)c(F)c(F)c(F)c4F)c4nc(c(-c5c(F)c(F)c(F)c(F)c5F)c5ccc2[nH]5)C=C4)C=C3)cc1
REMARK SMILES IDX 6 1 5 2 4 3 3 4 1 5 2 6 30 8 31 9 92 10 32 11 91 12 33 13
REMARK SMILES IDX 34 14 35 15 85 16 36 17 90 18 84 19 86 20 37 21 89 22 83 23
REMARK SMILES IDX 82 24 38 26 70 27 50 28 69 29 51 30 54 31 68 32 87 33 52 34
REMARK SMILES IDX 53 35 67 37 88 38 55 39 39 40 40 41 48 42 41 43 42 44 46 45
REMARK SMILES IDX 49 46 43 47 44 48 47 49 45 50 71 51 72 52 80 53 73 54 74 55
REMARK SMILES IDX 78 56 81 57 75 58 76 59 79 60 77 61 56 62 57 63 65 64 58 65
REMARK SMILES IDX 59 66 63 67 66 68 60 69 61 70 64 71 62 72 7 73 8 74 9 75
REMARK SMILES IDX 10 77 11 78 12 79 29 80 13 81 28 82 27 85 14 86 15 87 26 88
REMARK SMILES IDX 16 89 18 90 17 91 19 92 20 93 25 94 21 95 24 96 22 97 23 98
REMARK H PARENT 3 7 86 25 54 36 8 76 29 83 29 84 23 99
REMARK Flexibility Score: inf
ROOT
ATOM      1  C   UNL     1       4.242   0.578  -3.928  1.00  0.00     0.023 C 
ENDROOT
BRANCH   1   2
ATOM      2  C   UNL     1       4.739  -0.299  -2.778  1.00  0.00     0.023 C 
BRANCH   2   3
ATOM      3  C   UNL     1       4.465   0.236  -1.379  1.00  0.00     0.116 C 
BRANCH   3   4
ATOM      4  N   UNL     1       3.048   0.398  -1.087  1.00  0.00    -0.352 N 
ATOM      5  O   UNL     1       1.132   0.149   0.085  1.00  0.00    -0.269 OA
ATOM      6  C   UNL     1       2.353   0.035   0.043  1.00  0.00     0.251 C 
ATOM      7  H   UNL     1       2.515   0.827  -1.795  1.00  0.00     0.163 HD
BRANCH   6   8
ATOM      8  C   UNL     1       3.082  -0.530   1.199  1.00  0.00     0.039 A 
ATOM      9  C   UNL     1       4.260   0.065   1.652  1.00  0.00     0.014 A 
ATOM     10  C   UNL     1       2.593  -1.683   1.821  1.00  0.00     0.014 A 
ATOM     11  C   UNL     1       5.028  -0.577   2.615  1.00  0.00     0.010 A 
ATOM     12  C   UNL     1       3.323  -2.280   2.854  1.00  0.00     0.010 A 
ATOM     13  C   UNL     1       4.566  -1.751   3.235  1.00  0.00    -0.014 A 
BRANCH  13  14
ATOM     14  C   UNL     1       5.388  -2.361   4.310  1.00  0.00     0.031 A 
ATOM     15  C   UNL     1       6.023  -3.713   4.143  1.00  0.00     0.074 A 
ATOM     16  C   UNL     1       5.614  -1.641   5.426  1.00  0.00     0.049 A 
ATOM     17  N   UNL     1       6.832  -4.349   4.955  1.00  0.00    -0.248 NA
ATOM     18  C   UNL     1       5.709  -4.454   2.913  1.00  0.00     0.031 C 
ATOM     19  C   UNL     1       5.030  -0.327   5.708  1.00  0.00     0.029 A 
ATOM     20  N   UNL     1       6.414  -1.889   6.511  1.00  0.00    -0.354 N 
ATOM     21  C   UNL     1       7.115  -5.562   4.342  1.00  0.00     0.074 A 
ATOM     22  C   UNL     1       6.368  -5.590   3.102  1.00  0.00     0.031 C 
ATOM     23  C   UNL     1       5.535   0.141   6.858  1.00  0.00     0.029 A 
ATOM     24  C   UNL     1       6.433  -0.861   7.421  1.00  0.00     0.049 A 
ATOM     25  H   UNL     1       6.924  -2.723   6.628  1.00  0.00     0.167 HD
ATOM     26  C   UNL     1       7.933  -6.554   4.771  1.00  0.00     0.037 A 
ATOM     27  C   UNL     1       7.097  -0.737   8.585  1.00  0.00     0.037 A 
ATOM     28  C   UNL     1       8.682  -6.517   6.002  1.00  0.00     0.049 A 
ATOM     29  C   UNL     1       8.004  -1.847   9.027  1.00  0.00     0.074 A 
ATOM     30  C   UNL     1       9.540  -7.472   6.522  1.00  0.00     0.029 A 
ATOM     31  N   UNL     1       8.665  -5.464   6.906  1.00  0.00    -0.354 N 
ATOM     32  N   UNL     1       8.275  -2.981   8.427  1.00  0.00    -0.248 NA
ATOM     33  C   UNL     1       8.698  -1.662  10.307  1.00  0.00     0.031 C 
ATOM     34  C   UNL     1      10.016  -7.011   7.755  1.00  0.00     0.029 A 
ATOM     35  C   UNL     1       9.489  -5.751   7.984  1.00  0.00     0.049 A 
ATOM     36  H   UNL     1       8.144  -4.636   6.798  1.00  0.00     0.167 HD
ATOM     37  C   UNL     1       9.170  -3.643   9.252  1.00  0.00     0.074 A 
ATOM     38  C   UNL     1       9.425  -2.768  10.379  1.00  0.00     0.031 C 
ATOM     39  C   UNL     1       9.723  -4.871   9.099  1.00  0.00     0.037 A 
BRANCH  26  40
ATOM     40  C   UNL     1       8.066  -7.773   3.905  1.00  0.00     0.064 A 
ATOM     41  C   UNL     1       8.791  -7.745   2.705  1.00  0.00     0.173 A 
ATOM     42  C   UNL     1       7.516  -8.999   4.310  1.00  0.00     0.173 A 
ATOM     43  F   UNL     1       9.327  -6.595   2.268  1.00  0.00    -0.203 F 
ATOM     44  C   UNL     1       8.948  -8.895   1.934  1.00  0.00     0.198 A 
ATOM     45  C   UNL     1       7.695 -10.152   3.550  1.00  0.00     0.198 A 
ATOM     46  F   UNL     1       6.819  -9.083   5.453  1.00  0.00    -0.203 F 
ATOM     47  F   UNL     1       9.618  -8.836   0.775  1.00  0.00    -0.200 F 
ATOM     48  C   UNL     1       8.408 -10.098   2.361  1.00  0.00     0.200 A 
ATOM     49  F   UNL     1       7.183 -11.318   3.969  1.00  0.00    -0.200 F 
ATOM     50  F   UNL     1       8.570 -11.206   1.624  1.00  0.00    -0.200 F 
ENDBRANCH  26  40
BRANCH  27  51
ATOM     51  C   UNL     1       6.920   0.488   9.405  1.00  0.00     0.064 A 
ATOM     52  C   UNL     1       7.960   1.413   9.563  1.00  0.00     0.173 A 
ATOM     53  C   UNL     1       5.697   0.765  10.034  1.00  0.00     0.173 A 
ATOM     54  F   UNL     1       9.153   1.182   8.995  1.00  0.00    -0.203 F 
ATOM     55  C   UNL     1       7.789   2.561  10.333  1.00  0.00     0.198 A 
ATOM     56  C   UNL     1       5.517   1.928  10.778  1.00  0.00     0.198 A 
ATOM     57  F   UNL     1       4.668  -0.086   9.907  1.00  0.00    -0.203 F 
ATOM     58  F   UNL     1       8.812   3.409  10.503  1.00  0.00    -0.200 F 
ATOM     59  C   UNL     1       6.566   2.821  10.934  1.00  0.00     0.200 A 
ATOM     60  F   UNL     1       4.328   2.184  11.340  1.00  0.00    -0.200 F 
ATOM     61  F   UNL     1       6.400   3.931  11.666  1.00  0.00    -0.200 F 
ENDBRANCH  27  51
BRANCH  39  62
ATOM     62  C   UNL     1      10.659  -5.328  10.177  1.00  0.00     0.064 A 
ATOM     63  C   UNL     1      10.187  -5.707  11.442  1.00  0.00     0.173 A 
ATOM     64  C   UNL     1      12.040  -5.394   9.941  1.00  0.00     0.173 A 
ATOM     65  F   UNL     1       8.876  -5.644  11.720  1.00  0.00    -0.203 F 
ATOM     66  C   UNL     1      11.068  -6.104  12.444  1.00  0.00     0.198 A 
ATOM     67  C   UNL     1      12.915  -5.816  10.938  1.00  0.00     0.198 A 
ATOM     68  F   UNL     1      12.540  -5.046   8.746  1.00  0.00    -0.203 F 
ATOM     69  F   UNL     1      10.600  -6.409  13.663  1.00  0.00    -0.200 F 
ATOM     70  C   UNL     1      12.430  -6.162  12.190  1.00  0.00     0.200 A 
ATOM     71  F   UNL     1      14.231  -5.880  10.689  1.00  0.00    -0.200 F 
ATOM     72  F   UNL     1      13.277  -6.540  13.158  1.00  0.00    -0.200 F 
ENDBRANCH  39  62
ENDBRANCH  13  14
ENDBRANCH   6   8
ENDBRANCH   3   4
ENDBRANCH   2   3
ENDBRANCH   1   2
BRANCH   1  73
ATOM     73  C   UNL     1       4.698   2.035  -3.878  1.00  0.00     0.116 C 
BRANCH  73  74
ATOM     74  N   UNL     1       6.144   2.159  -3.922  1.00  0.00    -0.351 N 
ATOM     75  C   UNL     1       6.936   2.779  -4.846  1.00  0.00     0.280 C 
ATOM     76  H   UNL     1       6.624   1.734  -3.175  1.00  0.00     0.163 HD
ATOM     77  O   UNL     1       8.159   2.724  -4.686  1.00  0.00    -0.268 OA
BRANCH  75  78
ATOM     78  C   UNL     1       6.307   3.465  -6.065  1.00  0.00     0.292 C 
ATOM     79  C   UNL     1       6.290   2.427  -7.205  1.00  0.00     0.195 C 
ATOM     80  N   UNL     1       7.080   4.705  -6.391  1.00  0.00    -0.333 N 
ATOM     81  N   UNL     1       5.880   3.066  -8.447  1.00  0.00    -0.329 N 
ATOM     82  C   UNL     1       6.583   5.263  -7.668  1.00  0.00     0.283 C 
ATOM     83  H   UNL     1       8.070   4.477  -6.480  1.00  0.00     0.347 HD
ATOM     84  H   UNL     1       6.958   5.391  -5.647  1.00  0.00     0.347 HD
ATOM     85  C   UNL     1       6.587   4.264  -8.854  1.00  0.00     0.181 C 
BRANCH  81  86
ATOM     86  C   UNL     1       5.049   2.401  -9.299  1.00  0.00     0.227 A 
ATOM     87  N   UNL     1       5.349   2.349 -10.602  1.00  0.00    -0.221 NA
ATOM     88  N   UNL     1       3.941   1.857  -8.773  1.00  0.00    -0.196 NA
ATOM     89  C   UNL     1       4.513   1.646 -11.381  1.00  0.00     0.119 A 
ATOM     90  C   UNL     1       3.090   1.207  -9.581  1.00  0.00     0.134 A 
ATOM     91  C   UNL     1       3.370   1.041 -10.918  1.00  0.00     0.067 A 
BRANCH  90  92
ATOM     92  N   UNL     1       1.908   0.762  -9.036  1.00  0.00    -0.356 N 
ATOM     93  C   UNL     1       1.435  -0.596  -9.215  1.00  0.00     0.121 C 
ATOM     94  C   UNL     1       1.107   1.703  -8.265  1.00  0.00     0.121 C 
ATOM     95  C   UNL     1       1.134  -1.205  -7.845  1.00  0.00     0.053 C 
ATOM     96  C   UNL     1       0.778   1.121  -6.896  1.00  0.00     0.053 C 
ATOM     97  C   UNL     1       0.237  -0.305  -6.994  1.00  0.00     0.118 C 
BRANCH  97  98
ATOM     98  O   UNL     1      -1.097  -0.308  -7.501  1.00  0.00    -0.393 OA
ATOM     99  H   UNL     1      -1.102   0.053  -8.401  1.00  0.00     0.210 HD
ENDBRANCH  97  98
ENDBRANCH  90  92
ENDBRANCH  81  86
ENDBRANCH  75  78
ENDBRANCH  73  74
ENDBRANCH   1  73
TORSDOF 14
