REMARK SMILES Cc1nc(S(=O)(=O)N[C@H]2C=C[C@H](C(=O)NCCCCNC(=O)c3ccc(-c4c5nc(c(-c6c(F)c(F)c(F)c(F)c6F)c6ccc([nH]6)c(-c6c(F)c(F)c(F)c(F)c6F)c6nc(c(-c7c(F)c(F)c(F)c(F)c7F)c7ccc4[nH]7)C=C6)C=C5)cc3)C2)cn1C
REMARK SMILES IDX 17 1 16 2 15 3 13 4 14 5 12 7 9 8 10 9 86 10 11 11 8 12 5 14
REMARK SMILES IDX 6 15 7 16 4 17 1 18 2 19 3 20 88 21 87 22 89 23 18 24 19 25
REMARK SMILES IDX 20 26 21 27 22 29 23 30 24 31 85 32 25 33 84 34 26 35 27 36
REMARK SMILES IDX 28 37 78 38 29 39 83 40 77 41 79 42 30 43 82 44 76 45 75 46
REMARK SMILES IDX 31 48 63 49 43 50 62 51 44 52 47 53 61 54 80 55 45 56 46 57
REMARK SMILES IDX 60 59 81 60 48 61 32 62 33 63 41 64 34 65 35 66 39 67 42 68
REMARK SMILES IDX 36 69 37 70 40 71 38 72 64 73 65 74 73 75 66 76 67 77 71 78
REMARK SMILES IDX 74 79 68 80 69 81 72 82 70 83 49 84 50 85 58 86 51 87 52 88
REMARK SMILES IDX 56 89 59 90 53 91 54 92 57 93 55 94
REMARK H PARENT 15 6 8 13 20 28 79 47 47 58
REMARK Flexibility Score: inf
ROOT
ATOM      1  C   UNL     1       1.486   6.990   0.451  1.00  0.00     0.023 C 
ENDROOT
BRANCH   1   2
ATOM      2  C   UNL     1       2.775   7.065   1.270  1.00  0.00     0.116 C 
BRANCH   2   3
ATOM      3  N   UNL     1       2.650   6.393   2.551  1.00  0.00    -0.356 N 
ATOM      4  C   UNL     1       3.311   5.289   3.019  1.00  0.00     0.226 C 
ATOM      5  O   UNL     1       3.050   4.897   4.156  1.00  0.00    -0.274 OA
ATOM      6  H   UNL     1       1.996   6.788   3.172  1.00  0.00     0.163 HD
BRANCH   4   7
ATOM      7  C   UNL     1       4.328   4.604   2.103  1.00  0.00     0.103 C 
ATOM      8  C   UNL     1       3.700   2.347   1.357  1.00  0.00     0.093 C 
ATOM      9  C   UNL     1       4.814   2.311   2.341  1.00  0.00    -0.011 C 
ATOM     10  C   UNL     1       3.625   3.833   0.979  1.00  0.00     0.042 C 
ATOM     11  C   UNL     1       5.136   3.535   2.775  1.00  0.00    -0.016 C 
BRANCH   8  12
ATOM     12  N   UNL     1       4.036   1.591   0.155  1.00  0.00    -0.203 NA
ATOM     13  H   UNL     1       3.666   2.106  -0.644  1.00  0.00     0.142 HD
BRANCH  12  14
ATOM     14  S   UNL     1       3.462   0.005   0.045  1.00  0.00     0.260 S 
ATOM     15  O   UNL     1       3.793  -0.658   1.285  1.00  0.00    -0.205 OA
ATOM     16  O   UNL     1       3.902  -0.486  -1.243  1.00  0.00    -0.205 OA
BRANCH  14  17
ATOM     17  C   UNL     1       1.718   0.013  -0.037  1.00  0.00     0.188 A 
ATOM     18  C   UNL     1      -1.487  -1.639   0.025  1.00  0.00     0.088 C 
ATOM     19  C   UNL     1      -0.309  -0.735  -0.013  1.00  0.00     0.106 A 
ATOM     20  N   UNL     1       0.946  -1.132   0.051  1.00  0.00    -0.221 NA
ATOM     21  N   UNL     1      -0.374   0.635  -0.118  1.00  0.00    -0.337 N 
ATOM     22  C   UNL     1       0.904   1.120  -0.177  1.00  0.00     0.129 A 
ATOM     23  C   UNL     1      -1.572   1.440  -0.135  1.00  0.00     0.151 C 
ENDBRANCH  14  17
ENDBRANCH  12  14
ENDBRANCH   8  12
ENDBRANCH   4   7
ENDBRANCH   2   3
ENDBRANCH   1   2
BRANCH   1  24
ATOM     24  C   UNL     1       0.274   7.681   1.082  1.00  0.00     0.023 C 
BRANCH  24  25
ATOM     25  C   UNL     1       0.464   9.155   1.422  1.00  0.00     0.116 C 
BRANCH  25  26
ATOM     26  N   UNL     1       0.756   9.976   0.258  1.00  0.00    -0.352 N 
ATOM     27  C   UNL     1       0.244  11.204  -0.087  1.00  0.00     0.251 C 
ATOM     28  H   UNL     1       1.412   9.599  -0.371  1.00  0.00     0.163 HD
ATOM     29  O   UNL     1       0.517  11.700  -1.175  1.00  0.00    -0.269 OA
BRANCH  27  30
ATOM     30  C   UNL     1      -0.666  11.914   0.838  1.00  0.00     0.039 A 
ATOM     31  C   UNL     1      -1.837  12.482   0.328  1.00  0.00     0.014 A 
ATOM     32  C   UNL     1      -0.372  12.019   2.200  1.00  0.00     0.014 A 
ATOM     33  C   UNL     1      -2.748  13.093   1.193  1.00  0.00     0.010 A 
ATOM     34  C   UNL     1      -1.310  12.569   3.070  1.00  0.00     0.010 A 
ATOM     35  C   UNL     1      -2.507  13.110   2.576  1.00  0.00    -0.014 A 
BRANCH  35  36
ATOM     36  C   UNL     1      -3.488  13.691   3.527  1.00  0.00     0.031 A 
ATOM     37  C   UNL     1      -3.126  14.907   4.332  1.00  0.00     0.074 A 
ATOM     38  C   UNL     1      -4.672  13.079   3.725  1.00  0.00     0.049 A 
ATOM     39  N   UNL     1      -3.795  15.497   5.290  1.00  0.00    -0.248 NA
ATOM     40  C   UNL     1      -1.824  15.525   4.038  1.00  0.00     0.031 C 
ATOM     41  C   UNL     1      -5.127  11.872   3.034  1.00  0.00     0.029 A 
ATOM     42  N   UNL     1      -5.703  13.383   4.579  1.00  0.00    -0.354 N 
ATOM     43  C   UNL     1      -2.988  16.538   5.727  1.00  0.00     0.074 A 
ATOM     44  C   UNL     1      -1.761  16.473   4.961  1.00  0.00     0.031 C 
ATOM     45  C   UNL     1      -6.351  11.546   3.480  1.00  0.00     0.029 A 
ATOM     46  C   UNL     1      -6.751  12.498   4.513  1.00  0.00     0.049 A 
ATOM     47  H   UNL     1      -5.691  14.160   5.183  1.00  0.00     0.167 HD
ATOM     48  C   UNL     1      -3.253  17.476   6.668  1.00  0.00     0.037 A 
ATOM     49  C   UNL     1      -7.900  12.454   5.213  1.00  0.00     0.037 A 
ATOM     50  C   UNL     1      -4.485  17.559   7.406  1.00  0.00     0.049 A 
ATOM     51  C   UNL     1      -8.172  13.508   6.252  1.00  0.00     0.074 A 
ATOM     52  C   UNL     1      -4.871  18.505   8.340  1.00  0.00     0.029 A 
ATOM     53  N   UNL     1      -5.535  16.659   7.292  1.00  0.00    -0.354 N 
ATOM     54  N   UNL     1      -7.423  14.518   6.620  1.00  0.00    -0.248 NA
ATOM     55  C   UNL     1      -9.451  13.415   6.970  1.00  0.00     0.031 C 
ATOM     56  C   UNL     1      -6.140  18.158   8.816  1.00  0.00     0.029 A 
ATOM     57  C   UNL     1      -6.562  17.019   8.148  1.00  0.00     0.049 A 
ATOM     58  H   UNL     1      -5.547  15.879   6.691  1.00  0.00     0.167 HD
ATOM     59  C   UNL     1      -8.150  15.198   7.588  1.00  0.00     0.074 A 
ATOM     60  C   UNL     1      -9.403  14.489   7.745  1.00  0.00     0.031 C 
ATOM     61  C   UNL     1      -7.809  16.311   8.283  1.00  0.00     0.037 A 
BRANCH  48  62
ATOM     62  C   UNL     1      -2.184  18.491   6.949  1.00  0.00     0.064 A 
ATOM     63  C   UNL     1      -1.861  19.493   6.022  1.00  0.00     0.173 A 
ATOM     64  C   UNL     1      -1.491  18.476   8.169  1.00  0.00     0.173 A 
ATOM     65  F   UNL     1      -2.486  19.542   4.836  1.00  0.00    -0.203 F 
ATOM     66  C   UNL     1      -0.859  20.422   6.291  1.00  0.00     0.198 A 
ATOM     67  C   UNL     1      -0.510  19.425   8.447  1.00  0.00     0.198 A 
ATOM     68  F   UNL     1      -1.765  17.543   9.092  1.00  0.00    -0.203 F 
ATOM     69  F   UNL     1      -0.530  21.337   5.368  1.00  0.00    -0.200 F 
ATOM     70  C   UNL     1      -0.189  20.391   7.505  1.00  0.00     0.200 A 
ATOM     71  F   UNL     1       0.129  19.400   9.624  1.00  0.00    -0.200 F 
ATOM     72  F   UNL     1       0.773  21.287   7.763  1.00  0.00    -0.200 F 
ENDBRANCH  48  62
BRANCH  49  73
ATOM     73  C   UNL     1      -8.897  11.390   4.932  1.00  0.00     0.064 A 
ATOM     74  C   UNL     1     -10.103  11.692   4.285  1.00  0.00     0.173 A 
ATOM     75  C   UNL     1      -8.667  10.056   5.296  1.00  0.00     0.173 A 
ATOM     76  F   UNL     1     -10.376  12.958   3.936  1.00  0.00    -0.203 F 
ATOM     77  C   UNL     1     -11.049  10.703   4.026  1.00  0.00     0.198 A 
ATOM     78  C   UNL     1      -9.602   9.062   5.015  1.00  0.00     0.198 A 
ATOM     79  F   UNL     1      -7.525   9.715   5.912  1.00  0.00    -0.203 F 
ATOM     80  F   UNL     1     -12.210  11.025   3.440  1.00  0.00    -0.200 F 
ATOM     81  C   UNL     1     -10.795   9.388   4.386  1.00  0.00     0.200 A 
ATOM     82  F   UNL     1      -9.348   7.791   5.352  1.00  0.00    -0.200 F 
ATOM     83  F   UNL     1     -11.702   8.435   4.132  1.00  0.00    -0.200 F 
ENDBRANCH  49  73
BRANCH  61  84
ATOM     84  C   UNL     1      -8.821  16.857   9.246  1.00  0.00     0.064 A 
ATOM     85  C   UNL     1      -9.084  16.228  10.471  1.00  0.00     0.173 A 
ATOM     86  C   UNL     1      -9.502  18.049   8.957  1.00  0.00     0.173 A 
ATOM     87  F   UNL     1      -8.470  15.078  10.785  1.00  0.00    -0.203 F 
ATOM     88  C   UNL     1     -10.008  16.764  11.365  1.00  0.00     0.198 A 
ATOM     89  C   UNL     1     -10.406  18.595   9.863  1.00  0.00     0.198 A 
ATOM     90  F   UNL     1      -9.281  18.690   7.800  1.00  0.00    -0.203 F 
ATOM     91  F   UNL     1     -10.275  16.126  12.513  1.00  0.00    -0.200 F 
ATOM     92  C   UNL     1     -10.662  17.949  11.063  1.00  0.00     0.200 A 
ATOM     93  F   UNL     1     -11.029  19.746   9.575  1.00  0.00    -0.200 F 
ATOM     94  F   UNL     1     -11.546  18.467  11.928  1.00  0.00    -0.200 F 
ENDBRANCH  61  84
ENDBRANCH  35  36
ENDBRANCH  27  30
ENDBRANCH  25  26
ENDBRANCH  24  25
ENDBRANCH   1  24
TORSDOF 14
