REMARK SMILES C[NH+](C)Cc1ccccc1[C@H]1[NH2+][C@@H](C(=O)NCCCCNC(=O)c2ccc(-c3c4nc(c(-c5c(F)c(F)c(F)c(F)c5F)c5ccc([nH]5)c(-c5c(F)c(F)c(F)c(F)c5F)c5nc(c(-c6c(F)c(F)c(F)c(F)c6F)c6ccc3[nH]6)C=C5)C=C4)cc2)C(C)(C)S1
REMARK SMILES IDX 18 1 17 2 16 3 14 4 15 5 13 7 11 8 12 9 90 10 87 13 88 14
REMARK SMILES IDX 89 15 10 16 5 17 6 18 7 19 9 20 8 21 4 22 2 23 1 24 3 25
REMARK SMILES IDX 19 27 20 28 21 29 22 30 23 32 24 33 25 34 86 35 26 36 85 37
REMARK SMILES IDX 27 38 28 39 29 40 79 41 30 42 84 43 78 44 80 45 31 46 83 47
REMARK SMILES IDX 77 48 76 49 32 51 64 52 44 53 63 54 45 55 48 56 62 57 81 58
REMARK SMILES IDX 46 59 47 60 61 62 82 63 49 64 33 65 34 66 42 67 35 68 36 69
REMARK SMILES IDX 40 70 43 71 37 72 38 73 41 74 39 75 65 76 66 77 74 78 67 79
REMARK SMILES IDX 68 80 72 81 75 82 69 83 70 84 73 85 71 86 50 87 51 88 59 89
REMARK SMILES IDX 52 90 53 91 57 92 60 93 54 94 55 95 58 96 56 97
REMARK H PARENT 16 6 12 11 12 12 2 26 21 31 80 50 48 61
REMARK Flexibility Score: inf
ROOT
ATOM      1  C   UNL     1       0.235   4.099  -1.508  1.00  0.00     0.023 C 
ENDROOT
BRANCH   1   2
ATOM      2  C   UNL     1      -0.202   2.653  -1.265  1.00  0.00     0.116 C 
BRANCH   2   3
ATOM      3  N   UNL     1      -0.123   1.780  -2.420  1.00  0.00    -0.351 N 
ATOM      4  C   UNL     1       0.220   0.460  -2.491  1.00  0.00     0.279 C 
ATOM      5  O   UNL     1      -0.265  -0.167  -3.444  1.00  0.00    -0.268 OA
ATOM      6  H   UNL     1      -0.351   2.200  -3.280  1.00  0.00     0.163 HD
BRANCH   4   7
ATOM      7  C   UNL     1       1.138  -0.299  -1.487  1.00  0.00     0.289 C 
ATOM      8  C   UNL     1       1.402  -1.145   0.728  1.00  0.00     0.275 C 
ATOM      9  N   UNL     1       0.460  -0.537  -0.200  1.00  0.00    -0.320 N 
ATOM     10  S   UNL     1       3.041  -0.459   0.386  1.00  0.00    -0.081 SA
ATOM     11  H   UNL     1       0.129   0.349   0.181  1.00  0.00     0.348 HD
ATOM     12  H   UNL     1      -0.335  -1.160  -0.340  1.00  0.00     0.348 HD
ATOM     13  C   UNL     1       2.586   0.202  -1.282  1.00  0.00     0.077 C 
ATOM     14  C   UNL     1       2.857   1.704  -1.235  1.00  0.00     0.030 C 
ATOM     15  C   UNL     1       3.484  -0.416  -2.365  1.00  0.00     0.030 C 
BRANCH   8  16
ATOM     16  C   UNL     1       0.947  -1.098   2.190  1.00  0.00     0.029 A 
ATOM     17  C   UNL     1       0.534   0.055   2.913  1.00  0.00     0.016 A 
ATOM     18  C   UNL     1       0.244  -0.062   4.295  1.00  0.00     0.010 A 
ATOM     19  C   UNL     1       0.247  -1.291   4.945  1.00  0.00     0.001 A 
ATOM     20  C   UNL     1       0.931  -2.335   2.885  1.00  0.00     0.011 A 
ATOM     21  C   UNL     1       0.567  -2.433   4.231  1.00  0.00     0.001 A 
BRANCH  17  22
ATOM     22  C   UNL     1       0.346   1.437   2.308  1.00  0.00     0.299 C 
BRANCH  22  23
ATOM     23  N   UNL     1      -1.038   1.863   1.973  1.00  0.00    -0.336 N 
ATOM     24  C   UNL     1      -1.763   0.926   1.121  1.00  0.00     0.332 C 
ATOM     25  C   UNL     1      -1.869   2.156   3.136  1.00  0.00     0.332 C 
ATOM     26  H   UNL     1      -0.878   2.725   1.452  1.00  0.00     0.347 HD
ENDBRANCH  22  23
ENDBRANCH  17  22
ENDBRANCH   8  16
ENDBRANCH   4   7
ENDBRANCH   2   3
ENDBRANCH   1   2
BRANCH   1  27
ATOM     27  C   UNL     1      -0.905   5.110  -1.675  1.00  0.00     0.023 C 
BRANCH  27  28
ATOM     28  C   UNL     1      -1.999   5.125  -0.603  1.00  0.00     0.116 C 
BRANCH  28  29
ATOM     29  N   UNL     1      -1.554   5.496   0.733  1.00  0.00    -0.352 N 
ATOM     30  C   UNL     1      -1.978   6.527   1.546  1.00  0.00     0.251 C 
ATOM     31  H   UNL     1      -0.846   4.927   1.113  1.00  0.00     0.163 HD
ATOM     32  O   UNL     1      -1.467   6.710   2.648  1.00  0.00    -0.269 OA
BRANCH  30  33
ATOM     33  C   UNL     1      -3.024   7.460   1.068  1.00  0.00     0.039 A 
ATOM     34  C   UNL     1      -2.768   8.834   1.091  1.00  0.00     0.014 A 
ATOM     35  C   UNL     1      -4.220   6.982   0.529  1.00  0.00     0.014 A 
ATOM     36  C   UNL     1      -3.643   9.712   0.444  1.00  0.00     0.010 A 
ATOM     37  C   UNL     1      -5.045   7.846  -0.188  1.00  0.00     0.010 A 
ATOM     38  C   UNL     1      -4.745   9.215  -0.271  1.00  0.00    -0.014 A 
BRANCH  38  39
ATOM     39  C   UNL     1      -5.541  10.086  -1.179  1.00  0.00     0.031 A 
ATOM     40  C   UNL     1      -7.016  10.279  -0.964  1.00  0.00     0.074 A 
ATOM     41  C   UNL     1      -4.952  10.617  -2.272  1.00  0.00     0.049 A 
ATOM     42  N   UNL     1      -7.889  10.900  -1.718  1.00  0.00    -0.248 NA
ATOM     43  C   UNL     1      -7.592   9.666   0.242  1.00  0.00     0.031 C 
ATOM     44  C   UNL     1      -3.543  10.456  -2.636  1.00  0.00     0.029 A 
ATOM     45  N   UNL     1      -5.468  11.383  -3.289  1.00  0.00    -0.354 N 
ATOM     46  C   UNL     1      -9.116  10.736  -1.089  1.00  0.00     0.074 A 
ATOM     47  C   UNL     1      -8.883   9.918   0.082  1.00  0.00     0.031 C 
ATOM     48  C   UNL     1      -3.302  11.119  -3.778  1.00  0.00     0.029 A 
ATOM     49  C   UNL     1      -4.547  11.714  -4.254  1.00  0.00     0.049 A 
ATOM     50  H   UNL     1      -6.410  11.669  -3.324  1.00  0.00     0.167 HD
ATOM     51  C   UNL     1     -10.322  11.241  -1.444  1.00  0.00     0.037 A 
ATOM     52  C   UNL     1      -4.687  12.404  -5.402  1.00  0.00     0.037 A 
ATOM     53  C   UNL     1     -10.548  12.081  -2.591  1.00  0.00     0.049 A 
ATOM     54  C   UNL     1      -6.039  12.946  -5.777  1.00  0.00     0.074 A 
ATOM     55  C   UNL     1     -11.717  12.712  -2.981  1.00  0.00     0.029 A 
ATOM     56  N   UNL     1      -9.586  12.405  -3.536  1.00  0.00    -0.354 N 
ATOM     57  N   UNL     1      -7.175  12.852  -5.131  1.00  0.00    -0.248 NA
ATOM     58  C   UNL     1      -6.129  13.688  -7.043  1.00  0.00     0.031 C 
ATOM     59  C   UNL     1     -11.475  13.379  -4.186  1.00  0.00     0.029 A 
ATOM     60  C   UNL     1     -10.144  13.200  -4.525  1.00  0.00     0.049 A 
ATOM     61  H   UNL     1      -8.646  12.112  -3.509  1.00  0.00     0.167 HD
ATOM     62  C   UNL     1      -8.108  13.534  -5.899  1.00  0.00     0.074 A 
ATOM     63  C   UNL     1      -7.403  14.055  -7.051  1.00  0.00     0.031 C 
ATOM     64  C   UNL     1      -9.432  13.709  -5.669  1.00  0.00     0.037 A 
BRANCH  51  65
ATOM     65  C   UNL     1     -11.498  10.903  -0.574  1.00  0.00     0.064 A 
ATOM     66  C   UNL     1     -11.636  11.441   0.715  1.00  0.00     0.173 A 
ATOM     67  C   UNL     1     -12.519  10.067  -1.049  1.00  0.00     0.173 A 
ATOM     68  F   UNL     1     -10.683  12.239   1.218  1.00  0.00    -0.203 F 
ATOM     69  C   UNL     1     -12.737  11.128   1.507  1.00  0.00     0.198 A 
ATOM     70  C   UNL     1     -13.633   9.780  -0.265  1.00  0.00     0.198 A 
ATOM     71  F   UNL     1     -12.441   9.533  -2.278  1.00  0.00    -0.203 F 
ATOM     72  F   UNL     1     -12.824  11.615   2.752  1.00  0.00    -0.200 F 
ATOM     73  C   UNL     1     -13.738  10.304   1.014  1.00  0.00     0.200 A 
ATOM     74  F   UNL     1     -14.606   8.994  -0.747  1.00  0.00    -0.200 F 
ATOM     75  F   UNL     1     -14.801  10.010   1.776  1.00  0.00    -0.200 F 
ENDBRANCH  51  65
BRANCH  52  76
ATOM     76  C   UNL     1      -3.509  12.633  -6.280  1.00  0.00     0.064 A 
ATOM     77  C   UNL     1      -2.952  13.913  -6.412  1.00  0.00     0.173 A 
ATOM     78  C   UNL     1      -2.919  11.587  -7.003  1.00  0.00     0.173 A 
ATOM     79  F   UNL     1      -3.496  14.950  -5.759  1.00  0.00    -0.203 F 
ATOM     80  C   UNL     1      -1.859  14.140  -7.246  1.00  0.00     0.198 A 
ATOM     81  C   UNL     1      -1.810  11.810  -7.816  1.00  0.00     0.198 A 
ATOM     82  F   UNL     1      -3.413  10.343  -6.909  1.00  0.00    -0.203 F 
ATOM     83  F   UNL     1      -1.373  15.380  -7.386  1.00  0.00    -0.200 F 
ATOM     84  C   UNL     1      -1.285  13.087  -7.942  1.00  0.00     0.200 A 
ATOM     85  F   UNL     1      -1.250  10.787  -8.477  1.00  0.00    -0.200 F 
ATOM     86  F   UNL     1      -0.231  13.305  -8.741  1.00  0.00    -0.200 F 
ENDBRANCH  52  76
BRANCH  64  87
ATOM     87  C   UNL     1     -10.206  14.506  -6.677  1.00  0.00     0.064 A 
ATOM     88  C   UNL     1     -10.528  13.978  -7.936  1.00  0.00     0.173 A 
ATOM     89  C   UNL     1     -10.673  15.792  -6.364  1.00  0.00     0.173 A 
ATOM     90  F   UNL     1     -10.089  12.761  -8.289  1.00  0.00    -0.203 F 
ATOM     91  C   UNL     1     -11.276  14.715  -8.851  1.00  0.00     0.198 A 
ATOM     92  C   UNL     1     -11.443  16.515  -7.271  1.00  0.00     0.198 A 
ATOM     93  F   UNL     1     -10.395  16.340  -5.172  1.00  0.00    -0.203 F 
ATOM     94  F   UNL     1     -11.539  14.206 -10.062  1.00  0.00    -0.200 F 
ATOM     95  C   UNL     1     -11.740  15.978  -8.514  1.00  0.00     0.200 A 
ATOM     96  F   UNL     1     -11.901  17.730  -6.940  1.00  0.00    -0.200 F 
ATOM     97  F   UNL     1     -12.469  16.681  -9.392  1.00  0.00    -0.200 F 
ENDBRANCH  64  87
ENDBRANCH  38  39
ENDBRANCH  30  33
ENDBRANCH  28  29
ENDBRANCH  27  28
ENDBRANCH   1  27
TORSDOF 14
