REMARK SMILES COC(=O)CNC(=O)N1[C@@H](C(=O)NCCCCNC(=O)c2ccc(-c3c4nc(c(-c5c(F)c(F)c(F)c(F)c5F)c5ccc([nH]5)c(-c5c(F)c(F)c(F)c(F)c5F)c5nc(c(-c6c(F)c(F)c(F)c(F)c6F)c6ccc3[nH]6)C=C5)C=C4)cc2)CC[C@@H]2CCCC[C@H]21
REMARK SMILES IDX 14 1 13 2 11 3 12 4 10 6 9 7 91 8 84 9 86 10 90 11 85 12
REMARK SMILES IDX 87 13 89 14 88 15 7 16 6 17 8 19 5 20 3 21 4 22 2 23 1 24
REMARK SMILES IDX 15 25 16 26 17 27 18 28 19 29 20 31 21 32 22 33 83 34 23 35
REMARK SMILES IDX 82 36 24 37 25 38 26 39 76 40 27 41 81 42 75 43 77 44 28 45
REMARK SMILES IDX 80 46 74 47 73 48 29 50 61 51 41 52 60 53 42 54 45 55 59 56
REMARK SMILES IDX 78 57 43 58 44 59 58 61 79 62 46 63 30 64 31 65 39 66 32 67
REMARK SMILES IDX 33 68 37 69 40 70 34 71 35 72 38 73 36 74 62 75 63 76 71 77
REMARK SMILES IDX 64 78 65 79 69 80 72 81 66 82 67 83 70 84 68 85 47 86 48 87
REMARK SMILES IDX 56 88 49 89 50 90 54 91 57 92 51 93 52 94 55 95 53 96
REMARK H PARENT 13 5 6 18 18 30 77 49 45 60
REMARK Flexibility Score: inf
ROOT
ATOM      1  C   UNL     1      -0.685   5.755  -5.031  1.00  0.00     0.116 C 
ENDROOT
BRANCH   1   2
ATOM      2  N   UNL     1      -0.696   5.926  -3.591  1.00  0.00    -0.354 N 
ATOM      3  C   UNL     1      -1.429   5.271  -2.650  1.00  0.00     0.242 C 
ATOM      4  O   UNL     1      -1.444   5.745  -1.509  1.00  0.00    -0.273 OA
ATOM      5  H   UNL     1      -0.085   6.616  -3.244  1.00  0.00     0.163 HD
BRANCH   3   6
ATOM      6  C   UNL     1      -2.306   4.047  -3.002  1.00  0.00     0.176 C 
ATOM      7  N   UNL     1      -1.661   2.994  -3.828  1.00  0.00    -0.310 N 
ATOM      8  C   UNL     1      -2.588   1.993  -4.434  1.00  0.00     0.091 C 
ATOM      9  C   UNL     1      -3.570   4.649  -3.659  1.00  0.00     0.036 C 
ATOM     10  C   UNL     1      -3.741   2.681  -5.199  1.00  0.00     0.012 C 
ATOM     11  C   UNL     1      -1.948   0.892  -5.309  1.00  0.00     0.025 C 
ATOM     12  C   UNL     1      -4.502   3.618  -4.260  1.00  0.00     0.008 C 
ATOM     13  C   UNL     1      -4.732   1.678  -5.811  1.00  0.00     0.006 C 
ATOM     14  C   UNL     1      -2.974  -0.101  -5.846  1.00  0.00     0.002 C 
ATOM     15  C   UNL     1      -4.045   0.613  -6.653  1.00  0.00     0.000 C 
BRANCH   7  16
ATOM     16  C   UNL     1      -0.310   2.756  -3.855  1.00  0.00     0.318 C 
ATOM     17  N   UNL     1       0.500   2.997  -2.813  1.00  0.00    -0.327 N 
ATOM     18  H   UNL     1       1.446   3.041  -3.079  1.00  0.00     0.166 HD
ATOM     19  O   UNL     1       0.267   2.357  -4.870  1.00  0.00    -0.249 OA
BRANCH  17  20
ATOM     20  C   UNL     1       0.318   3.211  -1.382  1.00  0.00     0.240 C 
BRANCH  20  21
ATOM     21  C   UNL     1       0.918   2.128  -0.496  1.00  0.00     0.325 C 
ATOM     22  O   UNL     1       1.293   2.332   0.653  1.00  0.00    -0.250 OA
BRANCH  21  23
ATOM     23  O   UNL     1       0.820   0.897  -1.071  1.00  0.00    -0.468 OA
ATOM     24  C   UNL     1       1.124  -0.179  -0.184  1.00  0.00     0.282 C 
ENDBRANCH  21  23
ENDBRANCH  20  21
ENDBRANCH  17  20
ENDBRANCH   7  16
ENDBRANCH   3   6
ENDBRANCH   1   2
BRANCH   1  25
ATOM     25  C   UNL     1      -1.153   7.036  -5.714  1.00  0.00     0.023 C 
BRANCH  25  26
ATOM     26  C   UNL     1      -0.207   8.222  -5.520  1.00  0.00     0.023 C 
BRANCH  26  27
ATOM     27  C   UNL     1       1.224   7.962  -5.970  1.00  0.00     0.116 C 
BRANCH  27  28
ATOM     28  N   UNL     1       1.306   7.607  -7.379  1.00  0.00    -0.352 N 
ATOM     29  C   UNL     1       2.147   8.111  -8.338  1.00  0.00     0.251 C 
ATOM     30  H   UNL     1       0.676   6.914  -7.683  1.00  0.00     0.163 HD
ATOM     31  O   UNL     1       1.978   7.845  -9.524  1.00  0.00    -0.269 OA
BRANCH  29  32
ATOM     32  C   UNL     1       3.248   9.002  -7.926  1.00  0.00     0.039 A 
ATOM     33  C   UNL     1       3.447  10.198  -8.616  1.00  0.00     0.014 A 
ATOM     34  C   UNL     1       4.057   8.665  -6.837  1.00  0.00     0.014 A 
ATOM     35  C   UNL     1       4.431  11.085  -8.180  1.00  0.00     0.010 A 
ATOM     36  C   UNL     1       4.976   9.587  -6.352  1.00  0.00     0.010 A 
ATOM     37  C   UNL     1       5.183  10.800  -7.027  1.00  0.00    -0.014 A 
BRANCH  37  38
ATOM     38  C   UNL     1       6.215  11.742  -6.529  1.00  0.00     0.031 A 
ATOM     39  C   UNL     1       7.657  11.318  -6.494  1.00  0.00     0.074 A 
ATOM     40  C   UNL     1       5.850  12.951  -6.061  1.00  0.00     0.049 A 
ATOM     41  N   UNL     1       8.700  11.964  -6.039  1.00  0.00    -0.248 NA
ATOM     42  C   UNL     1       7.964   9.975  -7.012  1.00  0.00     0.031 C 
ATOM     43  C   UNL     1       4.478  13.457  -6.000  1.00  0.00     0.029 A 
ATOM     44  N   UNL     1       6.604  13.971  -5.537  1.00  0.00    -0.354 N 
ATOM     45  C   UNL     1       9.777  11.104  -6.203  1.00  0.00     0.074 A 
ATOM     46  C   UNL     1       9.254   9.866  -6.737  1.00  0.00     0.031 C 
ATOM     47  C   UNL     1       4.491  14.702  -5.497  1.00  0.00     0.029 A 
ATOM     48  C   UNL     1       5.864  15.065  -5.161  1.00  0.00     0.049 A 
ATOM     49  H   UNL     1       7.583  13.923  -5.441  1.00  0.00     0.167 HD
ATOM     50  C   UNL     1      11.089  11.335  -5.960  1.00  0.00     0.037 A 
ATOM     51  C   UNL     1       6.253  16.227  -4.602  1.00  0.00     0.037 A 
ATOM     52  C   UNL     1      11.607  12.577  -5.450  1.00  0.00     0.049 A 
ATOM     53  C   UNL     1       7.716  16.454  -4.328  1.00  0.00     0.074 A 
ATOM     54  C   UNL     1      12.923  12.931  -5.215  1.00  0.00     0.029 A 
ATOM     55  N   UNL     1      10.828  13.669  -5.096  1.00  0.00    -0.354 N 
ATOM     56  N   UNL     1       8.735  15.659  -4.550  1.00  0.00    -0.248 NA
ATOM     57  C   UNL     1       8.085  17.746  -3.733  1.00  0.00     0.031 C 
ATOM     58  C   UNL     1      12.937  14.219  -4.668  1.00  0.00     0.029 A 
ATOM     59  C   UNL     1      11.636  14.691  -4.623  1.00  0.00     0.049 A 
ATOM     60  H   UNL     1       9.847  13.712  -5.169  1.00  0.00     0.167 HD
ATOM     61  C   UNL     1       9.864  16.366  -4.160  1.00  0.00     0.074 A 
ATOM     62  C   UNL     1       9.407  17.660  -3.698  1.00  0.00     0.031 C 
ATOM     63  C   UNL     1      11.164  15.980  -4.183  1.00  0.00     0.037 A 
BRANCH  50  64
ATOM     64  C   UNL     1      12.055  10.220  -6.247  1.00  0.00     0.064 A 
ATOM     65  C   UNL     1      12.320   9.793  -7.558  1.00  0.00     0.173 A 
ATOM     66  C   UNL     1      12.747   9.590  -5.201  1.00  0.00     0.173 A 
ATOM     67  F   UNL     1      11.677  10.353  -8.593  1.00  0.00    -0.203 F 
ATOM     68  C   UNL     1      13.213   8.755  -7.808  1.00  0.00     0.198 A 
ATOM     69  C   UNL     1      13.666   8.576  -5.458  1.00  0.00     0.198 A 
ATOM     70  F   UNL     1      12.537   9.961  -3.929  1.00  0.00    -0.203 F 
ATOM     71  F   UNL     1      13.405   8.327  -9.063  1.00  0.00    -0.200 F 
ATOM     72  C   UNL     1      13.892   8.153  -6.759  1.00  0.00     0.200 A 
ATOM     73  F   UNL     1      14.332   8.005  -4.445  1.00  0.00    -0.200 F 
ATOM     74  F   UNL     1      14.758   7.160  -7.002  1.00  0.00    -0.200 F 
ENDBRANCH  50  64
BRANCH  51  75
ATOM     75  C   UNL     1       5.248  17.278  -4.290  1.00  0.00     0.064 A 
ATOM     76  C   UNL     1       5.232  18.491  -4.994  1.00  0.00     0.173 A 
ATOM     77  C   UNL     1       4.297  17.102  -3.275  1.00  0.00     0.173 A 
ATOM     78  F   UNL     1       6.134  18.715  -5.961  1.00  0.00    -0.203 F 
ATOM     79  C   UNL     1       4.322  19.497  -4.677  1.00  0.00     0.198 A 
ATOM     80  C   UNL     1       3.366  18.097  -2.980  1.00  0.00     0.198 A 
ATOM     81  F   UNL     1       4.264  15.959  -2.575  1.00  0.00    -0.203 F 
ATOM     82  F   UNL     1       4.364  20.666  -5.330  1.00  0.00    -0.200 F 
ATOM     83  C   UNL     1       3.386  19.297  -3.674  1.00  0.00     0.200 A 
ATOM     84  F   UNL     1       2.453  17.893  -2.020  1.00  0.00    -0.200 F 
ATOM     85  F   UNL     1       2.510  20.264  -3.369  1.00  0.00    -0.200 F 
ENDBRANCH  51  75
BRANCH  63  86
ATOM     86  C   UNL     1      12.191  16.985  -3.748  1.00  0.00     0.064 A 
ATOM     87  C   UNL     1      12.325  17.377  -2.408  1.00  0.00     0.173 A 
ATOM     88  C   UNL     1      13.083  17.533  -4.684  1.00  0.00     0.173 A 
ATOM     89  F   UNL     1      11.490  16.893  -1.476  1.00  0.00    -0.203 F 
ATOM     90  C   UNL     1      13.293  18.302  -2.027  1.00  0.00     0.198 A 
ATOM     91  C   UNL     1      14.072  18.431  -4.293  1.00  0.00     0.198 A 
ATOM     92  F   UNL     1      13.004  17.186  -5.978  1.00  0.00    -0.203 F 
ATOM     93  F   UNL     1      13.368  18.703  -0.750  1.00  0.00    -0.200 F 
ATOM     94  C   UNL     1      14.171  18.822  -2.967  1.00  0.00     0.200 A 
ATOM     95  F   UNL     1      14.929  18.918  -5.201  1.00  0.00    -0.200 F 
ATOM     96  F   UNL     1      15.107  19.705  -2.596  1.00  0.00    -0.200 F 
ENDBRANCH  63  86
ENDBRANCH  37  38
ENDBRANCH  29  32
ENDBRANCH  27  28
ENDBRANCH  26  27
ENDBRANCH  25  26
ENDBRANCH   1  25
TORSDOF 15
