REMARK SMILES C[C@@H](NC(=O)[C@@H](C)NC(=O)C(C)(C)C)C(=O)NCCCCNC(=O)c1ccc(-c2c3nc(c(-c4c(F)c(F)c(F)c(F)c4F)c4ccc([nH]4)c(-c4c(F)c(F)c(F)c(F)c4F)c4nc(c(-c5c(F)c(F)c(F)c(F)c5F)c5ccc2[nH]5)C=C4)C=C3)cc1
REMARK SMILES IDX 18 1 17 2 15 3 16 4 2 6 1 7 3 8 4 9 5 11 6 12 7 13 8 14 9 15
REMARK SMILES IDX 10 17 11 18 12 19 13 20 14 21 19 22 20 23 21 24 22 25 23 26
REMARK SMILES IDX 24 28 25 29 26 30 87 31 27 32 86 33 28 34 29 35 30 36 80 37
REMARK SMILES IDX 31 38 85 39 79 40 81 41 32 42 84 43 78 44 77 45 33 47 65 48
REMARK SMILES IDX 45 49 64 50 46 51 49 52 63 53 82 54 47 55 48 56 62 58 83 59
REMARK SMILES IDX 50 60 34 61 35 62 43 63 36 64 37 65 41 66 44 67 38 68 39 69
REMARK SMILES IDX 42 70 40 71 66 72 67 73 75 74 68 75 69 76 73 77 76 78 70 79
REMARK SMILES IDX 71 80 74 81 72 82 51 83 52 84 60 85 53 86 54 87 58 88 61 89
REMARK SMILES IDX 55 90 56 91 59 92 57 93
REMARK H PARENT 17 5 3 10 8 16 22 27 81 46 49 57
REMARK Flexibility Score: inf
ROOT
ATOM      1  C   UNL     1      -0.523   1.226   1.671  1.00  0.00     0.116 C 
ENDROOT
BRANCH   1   2
ATOM      2  N   UNL     1      -1.168   0.529   0.570  1.00  0.00    -0.354 N 
ATOM      3  C   UNL     1      -0.808  -0.582  -0.128  1.00  0.00     0.242 C 
ATOM      4  O   UNL     1      -1.595  -0.982  -0.992  1.00  0.00    -0.273 OA
ATOM      5  H   UNL     1      -2.018   0.932   0.278  1.00  0.00     0.163 HD
BRANCH   3   6
ATOM      6  C   UNL     1       0.554  -1.275   0.034  1.00  0.00     0.168 C 
ATOM      7  C   UNL     1       1.651  -0.351  -0.514  1.00  0.00     0.041 C 
BRANCH   6   8
ATOM      8  N   UNL     1       0.926  -1.747   1.365  1.00  0.00    -0.343 N 
ATOM      9  C   UNL     1       0.435  -2.771   2.117  1.00  0.00     0.242 C 
ATOM     10  H   UNL     1       1.654  -1.239   1.791  1.00  0.00     0.164 HD
ATOM     11  O   UNL     1       1.228  -3.260   2.931  1.00  0.00    -0.273 OA
BRANCH   9  12
ATOM     12  C   UNL     1      -1.053  -3.212   2.145  1.00  0.00     0.168 C 
ATOM     13  C   UNL     1      -1.922  -2.062   2.613  1.00  0.00     0.041 C 
BRANCH  12  14
ATOM     14  N   UNL     1      -1.624  -3.851   0.973  1.00  0.00    -0.344 N 
ATOM     15  C   UNL     1      -2.663  -4.734   0.872  1.00  0.00     0.226 C 
ATOM     16  H   UNL     1      -1.197  -3.611   0.119  1.00  0.00     0.164 HD
ATOM     17  O   UNL     1      -2.957  -5.071  -0.281  1.00  0.00    -0.275 OA
BRANCH  15  18
ATOM     18  C   UNL     1      -3.468  -5.295   2.092  1.00  0.00     0.041 C 
ATOM     19  C   UNL     1      -2.593  -6.057   3.098  1.00  0.00     0.021 C 
ATOM     20  C   UNL     1      -4.290  -4.215   2.810  1.00  0.00     0.021 C 
ATOM     21  C   UNL     1      -4.497  -6.319   1.545  1.00  0.00     0.021 C 
ENDBRANCH  15  18
ENDBRANCH  12  14
ENDBRANCH   9  12
ENDBRANCH   6   8
ENDBRANCH   3   6
ENDBRANCH   1   2
BRANCH   1  22
ATOM     22  C   UNL     1      -1.315   2.454   2.135  1.00  0.00     0.023 C 
BRANCH  22  23
ATOM     23  C   UNL     1      -2.793   2.237   2.490  1.00  0.00     0.023 C 
BRANCH  23  24
ATOM     24  C   UNL     1      -3.086   1.280   3.639  1.00  0.00     0.116 C 
BRANCH  24  25
ATOM     25  N   UNL     1      -2.532   1.712   4.908  1.00  0.00    -0.352 N 
ATOM     26  C   UNL     1      -3.162   2.136   6.054  1.00  0.00     0.251 C 
ATOM     27  H   UNL     1      -1.549   1.700   4.957  1.00  0.00     0.163 HD
ATOM     28  O   UNL     1      -2.500   2.596   6.977  1.00  0.00    -0.269 OA
BRANCH  26  29
ATOM     29  C   UNL     1      -4.636   2.074   6.173  1.00  0.00     0.039 A 
ATOM     30  C   UNL     1      -5.312   3.197   6.659  1.00  0.00     0.014 A 
ATOM     31  C   UNL     1      -5.352   0.922   5.837  1.00  0.00     0.014 A 
ATOM     32  C   UNL     1      -6.707   3.191   6.735  1.00  0.00     0.010 A 
ATOM     33  C   UNL     1      -6.747   0.943   5.845  1.00  0.00     0.010 A 
ATOM     34  C   UNL     1      -7.441   2.080   6.289  1.00  0.00    -0.014 A 
BRANCH  34  35
ATOM     35  C   UNL     1      -8.928   2.107   6.263  1.00  0.00     0.031 A 
ATOM     36  C   UNL     1      -9.728   1.160   7.114  1.00  0.00     0.074 A 
ATOM     37  C   UNL     1      -9.563   2.957   5.431  1.00  0.00     0.049 A 
ATOM     38  N   UNL     1     -11.028   1.008   7.188  1.00  0.00    -0.248 NA
ATOM     39  C   UNL     1      -8.968   0.247   7.980  1.00  0.00     0.031 C 
ATOM     40  C   UNL     1      -8.905   3.897   4.522  1.00  0.00     0.029 A 
ATOM     41  N   UNL     1     -10.903   3.163   5.207  1.00  0.00    -0.354 N 
ATOM     42  C   UNL     1     -11.239  -0.016   8.102  1.00  0.00     0.074 A 
ATOM     43  C   UNL     1      -9.933  -0.490   8.511  1.00  0.00     0.031 C 
ATOM     44  C   UNL     1      -9.840   4.592   3.855  1.00  0.00     0.029 A 
ATOM     45  C   UNL     1     -11.162   4.119   4.255  1.00  0.00     0.049 A 
ATOM     46  H   UNL     1     -11.611   2.671   5.683  1.00  0.00     0.167 HD
ATOM     47  C   UNL     1     -12.412  -0.501   8.576  1.00  0.00     0.037 A 
ATOM     48  C   UNL     1     -12.331   4.559   3.751  1.00  0.00     0.037 A 
ATOM     49  C   UNL     1     -13.710  -0.024   8.173  1.00  0.00     0.049 A 
ATOM     50  C   UNL     1     -13.621   3.983   4.272  1.00  0.00     0.074 A 
ATOM     51  C   UNL     1     -14.956  -0.421   8.630  1.00  0.00     0.029 A 
ATOM     52  N   UNL     1     -13.932   0.950   7.209  1.00  0.00    -0.354 N 
ATOM     53  N   UNL     1     -13.807   3.063   5.187  1.00  0.00    -0.248 NA
ATOM     54  C   UNL     1     -14.864   4.513   3.695  1.00  0.00     0.031 C 
ATOM     55  C   UNL     1     -15.931   0.269   7.902  1.00  0.00     0.029 A 
ATOM     56  C   UNL     1     -15.294   1.146   7.038  1.00  0.00     0.049 A 
ATOM     57  H   UNL     1     -13.226   1.430   6.719  1.00  0.00     0.167 HD
ATOM     58  C   UNL     1     -15.183   2.926   5.317  1.00  0.00     0.074 A 
ATOM     59  C   UNL     1     -15.784   3.870   4.399  1.00  0.00     0.031 C 
ATOM     60  C   UNL     1     -15.884   2.093   6.125  1.00  0.00     0.037 A 
BRANCH  47  61
ATOM     61  C   UNL     1     -12.347  -1.611   9.588  1.00  0.00     0.064 A 
ATOM     62  C   UNL     1     -11.854  -1.398  10.885  1.00  0.00     0.173 A 
ATOM     63  C   UNL     1     -12.817  -2.895   9.271  1.00  0.00     0.173 A 
ATOM     64  F   UNL     1     -11.384  -0.192  11.239  1.00  0.00    -0.203 F 
ATOM     65  C   UNL     1     -11.802  -2.435  11.813  1.00  0.00     0.198 A 
ATOM     66  C   UNL     1     -12.796  -3.921  10.213  1.00  0.00     0.198 A 
ATOM     67  F   UNL     1     -13.308  -3.154   8.049  1.00  0.00    -0.203 F 
ATOM     68  F   UNL     1     -11.275  -2.220  13.026  1.00  0.00    -0.200 F 
ATOM     69  C   UNL     1     -12.280  -3.693  11.479  1.00  0.00     0.200 A 
ATOM     70  F   UNL     1     -13.274  -5.131   9.893  1.00  0.00    -0.200 F 
ATOM     71  F   UNL     1     -12.236  -4.688  12.376  1.00  0.00    -0.200 F 
ENDBRANCH  47  61
BRANCH  48  72
ATOM     72  C   UNL     1     -12.338   5.610   2.698  1.00  0.00     0.064 A 
ATOM     73  C   UNL     1     -12.839   6.893   2.959  1.00  0.00     0.173 A 
ATOM     74  C   UNL     1     -11.852   5.351   1.407  1.00  0.00     0.173 A 
ATOM     75  F   UNL     1     -13.333   7.184   4.172  1.00  0.00    -0.203 F 
ATOM     76  C   UNL     1     -12.876   7.869   1.965  1.00  0.00     0.198 A 
ATOM     77  C   UNL     1     -11.860   6.338   0.423  1.00  0.00     0.198 A 
ATOM     78  F   UNL     1     -11.357   4.143   1.105  1.00  0.00    -0.203 F 
ATOM     79  F   UNL     1     -13.408   9.070   2.229  1.00  0.00    -0.200 F 
ATOM     80  C   UNL     1     -12.380   7.593   0.700  1.00  0.00     0.200 A 
ATOM     81  F   UNL     1     -11.363   6.072  -0.792  1.00  0.00    -0.200 F 
ATOM     82  F   UNL     1     -12.412   8.533  -0.254  1.00  0.00    -0.200 F 
ENDBRANCH  48  72
BRANCH  60  83
ATOM     83  C   UNL     1     -17.383   2.189   6.085  1.00  0.00     0.064 A 
ATOM     84  C   UNL     1     -18.124   1.759   4.973  1.00  0.00     0.173 A 
ATOM     85  C   UNL     1     -18.091   2.683   7.191  1.00  0.00     0.173 A 
ATOM     86  F   UNL     1     -17.496   1.292   3.883  1.00  0.00    -0.203 F 
ATOM     87  C   UNL     1     -19.514   1.849   4.960  1.00  0.00     0.198 A 
ATOM     88  C   UNL     1     -19.482   2.739   7.188  1.00  0.00     0.198 A 
ATOM     89  F   UNL     1     -17.434   3.102   8.284  1.00  0.00    -0.203 F 
ATOM     90  F   UNL     1     -20.196   1.483   3.866  1.00  0.00    -0.200 F 
ATOM     91  C   UNL     1     -20.192   2.330   6.070  1.00  0.00     0.200 A 
ATOM     92  F   UNL     1     -20.136   3.188   8.268  1.00  0.00    -0.200 F 
ATOM     93  F   UNL     1     -21.530   2.407   6.058  1.00  0.00    -0.200 F 
ENDBRANCH  60  83
ENDBRANCH  34  35
ENDBRANCH  26  29
ENDBRANCH  24  25
ENDBRANCH  23  24
ENDBRANCH  22  23
ENDBRANCH   1  22
TORSDOF 15
