REMARK SMILES O=C(Cc1cc(=O)[nH]c(=O)[nH]1)Nc1cccc(C(=O)NCCCCNC(=O)c2ccc(-c3c4nc(c(-c5c(F)c(F)c(F)c(F)c5F)c5ccc([nH]5)c(-c5c(F)c(F)c(F)c(F)c5F)c5nc(c(-c6c(F)c(F)c(F)c(F)c6F)c6ccc3[nH]6)C=C5)C=C4)cc2)c1
REMARK SMILES IDX 22 1 21 2 20 3 18 4 19 5 17 7 13 8 14 9 91 10 15 11 16 12
REMARK SMILES IDX 12 13 1 14 2 15 3 17 4 18 5 19 11 20 6 21 9 22 7 24 8 25
REMARK SMILES IDX 10 26 23 28 24 29 25 30 26 31 27 33 28 34 29 35 90 36 30 37
REMARK SMILES IDX 89 38 31 39 32 40 33 41 83 42 34 43 88 44 82 45 84 46 35 47
REMARK SMILES IDX 87 48 81 49 80 50 36 52 68 53 48 54 67 55 49 56 52 57 66 58
REMARK SMILES IDX 85 59 50 60 51 61 65 63 86 64 53 65 37 66 38 67 46 68 39 69
REMARK SMILES IDX 40 70 44 71 47 72 41 73 42 74 45 75 43 76 69 77 70 78 78 79
REMARK SMILES IDX 71 80 72 81 76 82 79 83 73 84 74 85 77 86 75 87 54 88 55 89
REMARK SMILES IDX 63 90 56 91 57 92 61 93 64 94 58 95 59 96 62 97 60 98
REMARK H PARENT 20 6 12 16 11 23 8 27 25 32 84 51 52 62
REMARK Flexibility Score: inf
ROOT
ATOM      1  C   UNL     1       0.501  -4.654   0.756  1.00  0.00     0.023 C 
ENDROOT
BRANCH   1   2
ATOM      2  C   UNL     1       0.129  -3.276   1.285  1.00  0.00     0.116 C 
BRANCH   2   3
ATOM      3  N   UNL     1      -0.615  -3.282   2.539  1.00  0.00    -0.352 N 
ATOM      4  C   UNL     1      -0.477  -2.478   3.655  1.00  0.00     0.251 C 
ATOM      5  O   UNL     1      -1.201  -2.664   4.630  1.00  0.00    -0.269 OA
ATOM      6  H   UNL     1      -1.323  -3.964   2.601  1.00  0.00     0.163 HD
BRANCH   4   7
ATOM      7  C   UNL     1       0.587  -1.443   3.719  1.00  0.00     0.041 A 
ATOM      8  C   UNL     1       2.129  -0.008   2.537  1.00  0.00     0.041 A 
ATOM      9  C   UNL     1       2.881   0.129   3.709  1.00  0.00     0.026 A 
ATOM     10  C   UNL     1       0.915  -0.684   2.596  1.00  0.00     0.040 A 
ATOM     11  C   UNL     1       2.460  -0.483   4.895  1.00  0.00     0.003 A 
ATOM     12  C   UNL     1       1.331  -1.302   4.892  1.00  0.00     0.014 A 
BRANCH   8  13
ATOM     13  N   UNL     1       2.712   0.402   1.317  1.00  0.00    -0.326 N 
ATOM     14  O   UNL     1       1.057  -0.181  -0.221  1.00  0.00    -0.274 OA
ATOM     15  C   UNL     1       2.201   0.181   0.045  1.00  0.00     0.230 C 
ATOM     16  H   UNL     1       3.564   0.893   1.374  1.00  0.00     0.169 HD
BRANCH  15  17
ATOM     17  C   UNL     1       3.228   0.273  -1.082  1.00  0.00     0.154 C 
BRANCH  17  18
ATOM     18  C   UNL     1       4.111   1.483  -1.024  1.00  0.00     0.034 A 
ATOM     19  C   UNL     1       5.440   1.397  -0.873  1.00  0.00     0.093 A 
ATOM     20  N   UNL     1       3.519   2.715  -1.151  1.00  0.00    -0.311 N 
ATOM     21  C   UNL     1       6.245   2.633  -0.830  1.00  0.00     0.253 A 
ATOM     22  C   UNL     1       4.202   3.901  -1.127  1.00  0.00     0.325 A 
ATOM     23  H   UNL     1       2.542   2.748  -1.267  1.00  0.00     0.171 HD
ATOM     24  O   UNL     1       7.457   2.582  -0.666  1.00  0.00    -0.269 OA
ATOM     25  N   UNL     1       5.553   3.801  -0.964  1.00  0.00    -0.274 N 
ATOM     26  O   UNL     1       3.630   4.979  -1.237  1.00  0.00    -0.248 OA
ATOM     27  H   UNL     1       6.070   4.639  -0.942  1.00  0.00     0.175 HD
ENDBRANCH  17  18
ENDBRANCH  15  17
ENDBRANCH   8  13
ENDBRANCH   4   7
ENDBRANCH   2   3
ENDBRANCH   1   2
BRANCH   1  28
ATOM     28  C   UNL     1      -0.657  -5.573   0.396  1.00  0.00     0.023 C 
BRANCH  28  29
ATOM     29  C   UNL     1      -1.720  -4.980  -0.522  1.00  0.00     0.116 C 
BRANCH  29  30
ATOM     30  N   UNL     1      -1.205  -4.523  -1.804  1.00  0.00    -0.352 N 
ATOM     31  C   UNL     1      -1.601  -4.847  -3.083  1.00  0.00     0.251 C 
ATOM     32  H   UNL     1      -0.459  -3.883  -1.749  1.00  0.00     0.163 HD
ATOM     33  O   UNL     1      -0.980  -4.420  -4.048  1.00  0.00    -0.269 OA
BRANCH  31  34
ATOM     34  C   UNL     1      -2.753  -5.753  -3.294  1.00  0.00     0.039 A 
ATOM     35  C   UNL     1      -2.627  -6.801  -4.209  1.00  0.00     0.014 A 
ATOM     36  C   UNL     1      -3.941  -5.591  -2.577  1.00  0.00     0.014 A 
ATOM     37  C   UNL     1      -3.651  -7.744  -4.330  1.00  0.00     0.010 A 
ATOM     38  C   UNL     1      -4.923  -6.575  -2.636  1.00  0.00     0.010 A 
ATOM     39  C   UNL     1      -4.785  -7.668  -3.505  1.00  0.00    -0.014 A 
BRANCH  39  40
ATOM     40  C   UNL     1      -5.828  -8.726  -3.522  1.00  0.00     0.031 A 
ATOM     41  C   UNL     1      -7.236  -8.393  -3.932  1.00  0.00     0.074 A 
ATOM     42  C   UNL     1      -5.528  -9.968  -3.092  1.00  0.00     0.049 A 
ATOM     43  N   UNL     1      -8.304  -9.150  -3.920  1.00  0.00    -0.248 NA
ATOM     44  C   UNL     1      -7.481  -7.017  -4.391  1.00  0.00     0.031 C 
ATOM     45  C   UNL     1      -4.214 -10.407  -2.621  1.00  0.00     0.029 A 
ATOM     46  N   UNL     1      -6.314 -11.087  -2.969  1.00  0.00    -0.354 N 
ATOM     47  C   UNL     1      -9.345  -8.340  -4.351  1.00  0.00     0.074 A 
ATOM     48  C   UNL     1      -8.794  -7.020  -4.567  1.00  0.00     0.031 C 
ATOM     49  C   UNL     1      -4.277 -11.706  -2.284  1.00  0.00     0.029 A 
ATOM     50  C   UNL     1      -5.644 -12.181  -2.477  1.00  0.00     0.049 A 
ATOM     51  H   UNL     1      -7.269 -11.105  -3.210  1.00  0.00     0.167 HD
ATOM     52  C   UNL     1     -10.639  -8.672  -4.574  1.00  0.00     0.037 A 
ATOM     53  C   UNL     1      -6.083 -13.425  -2.206  1.00  0.00     0.037 A 
ATOM     54  C   UNL     1     -11.183  -9.992  -4.386  1.00  0.00     0.049 A 
ATOM     55  C   UNL     1      -7.527 -13.765  -2.457  1.00  0.00     0.074 A 
ATOM     56  C   UNL     1     -12.469 -10.439  -4.631  1.00  0.00     0.029 A 
ATOM     57  N   UNL     1     -10.466 -11.079  -3.909  1.00  0.00    -0.354 N 
ATOM     58  N   UNL     1      -8.489 -13.006  -2.921  1.00  0.00    -0.248 NA
ATOM     59  C   UNL     1      -7.946 -15.140  -2.148  1.00  0.00     0.031 C 
ATOM     60  C   UNL     1     -12.540 -11.788  -4.269  1.00  0.00     0.029 A 
ATOM     61  C   UNL     1     -11.287 -12.193  -3.839  1.00  0.00     0.049 A 
ATOM     62  H   UNL     1      -9.514 -11.061  -3.656  1.00  0.00     0.167 HD
ATOM     63  C   UNL     1      -9.615 -13.815  -2.990  1.00  0.00     0.074 A 
ATOM     64  C   UNL     1      -9.215 -15.128  -2.531  1.00  0.00     0.031 C 
ATOM     65  C   UNL     1     -10.868 -13.497  -3.395  1.00  0.00     0.037 A 
BRANCH  52  66
ATOM     66  C   UNL     1     -11.557  -7.589  -5.060  1.00  0.00     0.064 A 
ATOM     67  C   UNL     1     -11.449  -7.067  -6.359  1.00  0.00     0.173 A 
ATOM     68  C   UNL     1     -12.575  -7.089  -4.235  1.00  0.00     0.173 A 
ATOM     69  F   UNL     1     -10.485  -7.503  -7.183  1.00  0.00    -0.203 F 
ATOM     70  C   UNL     1     -12.308  -6.066  -6.802  1.00  0.00     0.198 A 
ATOM     71  C   UNL     1     -13.451  -6.108  -4.692  1.00  0.00     0.198 A 
ATOM     72  F   UNL     1     -12.725  -7.558  -2.987  1.00  0.00    -0.203 F 
ATOM     73  F   UNL     1     -12.155  -5.550  -8.030  1.00  0.00    -0.200 F 
ATOM     74  C   UNL     1     -13.312  -5.592  -5.972  1.00  0.00     0.200 A 
ATOM     75  F   UNL     1     -14.429  -5.660  -3.893  1.00  0.00    -0.200 F 
ATOM     76  F   UNL     1     -14.143  -4.633  -6.403  1.00  0.00    -0.200 F 
ENDBRANCH  52  66
BRANCH  53  77
ATOM     77  C   UNL     1      -5.142 -14.454  -1.693  1.00  0.00     0.064 A 
ATOM     78  C   UNL     1      -4.761 -15.538  -2.497  1.00  0.00     0.173 A 
ATOM     79  C   UNL     1      -4.618 -14.388  -0.395  1.00  0.00     0.173 A 
ATOM     80  F   UNL     1      -5.253 -15.656  -3.739  1.00  0.00    -0.203 F 
ATOM     81  C   UNL     1      -3.910 -16.529  -2.013  1.00  0.00     0.198 A 
ATOM     82  C   UNL     1      -3.746 -15.366   0.080  1.00  0.00     0.198 A 
ATOM     83  F   UNL     1      -4.949 -13.370   0.412  1.00  0.00    -0.203 F 
ATOM     84  F   UNL     1      -3.600 -17.580  -2.785  1.00  0.00    -0.200 F 
ATOM     85  C   UNL     1      -3.400 -16.440  -0.726  1.00  0.00     0.200 A 
ATOM     86  F   UNL     1      -3.245 -15.271   1.319  1.00  0.00    -0.200 F 
ATOM     87  F   UNL     1      -2.581 -17.394  -0.261  1.00  0.00    -0.200 F 
ENDBRANCH  53  77
BRANCH  65  88
ATOM     88  C   UNL     1     -11.888 -14.597  -3.401  1.00  0.00     0.064 A 
ATOM     89  C   UNL     1     -12.433 -15.102  -2.212  1.00  0.00     0.173 A 
ATOM     90  C   UNL     1     -12.353 -15.125  -4.615  1.00  0.00     0.173 A 
ATOM     91  F   UNL     1     -12.008 -14.641  -1.026  1.00  0.00    -0.203 F 
ATOM     92  C   UNL     1     -13.390 -16.113  -2.238  1.00  0.00     0.198 A 
ATOM     93  C   UNL     1     -13.330 -16.116  -4.638  1.00  0.00     0.198 A 
ATOM     94  F   UNL     1     -11.867 -14.672  -5.781  1.00  0.00    -0.203 F 
ATOM     95  F   UNL     1     -13.864 -16.613  -1.088  1.00  0.00    -0.200 F 
ATOM     96  C   UNL     1     -13.842 -16.614  -3.449  1.00  0.00     0.200 A 
ATOM     97  F   UNL     1     -13.775 -16.591  -5.810  1.00  0.00    -0.200 F 
ATOM     98  F   UNL     1     -14.768 -17.582  -3.471  1.00  0.00    -0.200 F 
ENDBRANCH  65  88
ENDBRANCH  39  40
ENDBRANCH  31  34
ENDBRANCH  29  30
ENDBRANCH  28  29
ENDBRANCH   1  28
TORSDOF 14
