REMARK SMILES O=C(NCCCCNC(=O)[C@H](c1ccc(Cl)cc1)[NH+]1CCCCC1)c1ccc(-c2c3nc(c(-c4c(F)c(F)c(F)c(F)c4F)c4ccc([nH]4)c(-c4c(F)c(F)c(F)c(F)c4F)c4nc(c(-c5c(F)c(F)c(F)c(F)c5F)c5ccc2[nH]5)C=C4)C=C3)cc1
REMARK SMILES IDX 5 1 4 2 3 3 1 4 2 5 25 7 26 8 87 9 27 10 86 11 28 12 29 13
REMARK SMILES IDX 30 14 80 15 31 16 85 17 79 18 81 19 32 20 84 21 78 22 77 23
REMARK SMILES IDX 33 25 65 26 45 27 64 28 46 29 49 30 63 31 82 32 47 33 48 34
REMARK SMILES IDX 62 36 83 37 50 38 34 39 35 40 43 41 36 42 37 43 41 44 44 45
REMARK SMILES IDX 38 46 39 47 42 48 40 49 66 50 67 51 75 52 68 53 69 54 73 55
REMARK SMILES IDX 76 56 70 57 71 58 74 59 72 60 51 61 52 62 60 63 53 64 54 65
REMARK SMILES IDX 58 66 61 67 55 68 56 69 59 70 57 71 6 72 7 73 8 74 9 75
REMARK SMILES IDX 10 77 11 78 19 79 20 80 24 81 21 83 23 84 22 85 12 86 13 87
REMARK SMILES IDX 18 88 14 89 17 90 15 91 16 92
REMARK H PARENT 3 6 81 24 49 35 8 76 19 82
REMARK Flexibility Score: inf
ROOT
ATOM      1  C   UNL     1       7.971   9.104  -0.406  1.00  0.00     0.023 C 
ENDROOT
BRANCH   1   2
ATOM      2  C   UNL     1       7.591  10.563  -0.193  1.00  0.00     0.116 C 
BRANCH   2   3
ATOM      3  N   UNL     1       8.696  11.374   0.290  1.00  0.00    -0.352 N 
ATOM      4  O   UNL     1      10.141  13.113   0.272  1.00  0.00    -0.269 OA
ATOM      5  C   UNL     1       9.103  12.611  -0.149  1.00  0.00     0.251 C 
ATOM      6  H   UNL     1       9.221  10.988   1.028  1.00  0.00     0.163 HD
BRANCH   5   7
ATOM      7  C   UNL     1       8.289  13.326  -1.154  1.00  0.00     0.039 A 
ATOM      8  C   UNL     1       6.904  13.428  -0.998  1.00  0.00     0.014 A 
ATOM      9  C   UNL     1       8.919  13.898  -2.263  1.00  0.00     0.014 A 
ATOM     10  C   UNL     1       6.137  13.998  -2.006  1.00  0.00     0.010 A 
ATOM     11  C   UNL     1       8.153  14.542  -3.238  1.00  0.00     0.010 A 
ATOM     12  C   UNL     1       6.755  14.583  -3.123  1.00  0.00    -0.014 A 
BRANCH  12  13
ATOM     13  C   UNL     1       5.923  15.330  -4.098  1.00  0.00     0.031 A 
ATOM     14  C   UNL     1       5.759  14.861  -5.514  1.00  0.00     0.074 A 
ATOM     15  C   UNL     1       5.301  16.447  -3.672  1.00  0.00     0.049 A 
ATOM     16  N   UNL     1       5.064  15.403  -6.483  1.00  0.00    -0.248 NA
ATOM     17  C   UNL     1       6.467  13.631  -5.901  1.00  0.00     0.031 C 
ATOM     18  C   UNL     1       5.411  17.005  -2.321  1.00  0.00     0.029 A 
ATOM     19  N   UNL     1       4.453  17.308  -4.318  1.00  0.00    -0.354 N 
ATOM     20  C   UNL     1       5.263  14.595  -7.594  1.00  0.00     0.074 A 
ATOM     21  C   UNL     1       6.158  13.532  -7.188  1.00  0.00     0.031 C 
ATOM     22  C   UNL     1       4.634  18.093  -2.229  1.00  0.00     0.029 A 
ATOM     23  C   UNL     1       4.022  18.346  -3.527  1.00  0.00     0.049 A 
ATOM     24  H   UNL     1       4.179  17.195  -5.256  1.00  0.00     0.167 HD
ATOM     25  C   UNL     1       4.740  14.734  -8.836  1.00  0.00     0.037 A 
ATOM     26  C   UNL     1       3.243  19.402  -3.822  1.00  0.00     0.037 A 
ATOM     27  C   UNL     1       3.831  15.784  -9.223  1.00  0.00     0.049 A 
ATOM     28  C   UNL     1       2.696  19.532  -5.214  1.00  0.00     0.074 A 
ATOM     29  C   UNL     1       3.195  15.969 -10.438  1.00  0.00     0.029 A 
ATOM     30  N   UNL     1       3.436  16.831  -8.403  1.00  0.00    -0.354 N 
ATOM     31  N   UNL     1       2.846  18.730  -6.239  1.00  0.00    -0.248 NA
ATOM     32  C   UNL     1       1.876  20.718  -5.492  1.00  0.00     0.031 C 
ATOM     33  C   UNL     1       2.456  17.154 -10.372  1.00  0.00     0.029 A 
ATOM     34  C   UNL     1       2.593  17.684  -9.099  1.00  0.00     0.049 A 
ATOM     35  H   UNL     1       3.714  16.951  -7.466  1.00  0.00     0.167 HD
ATOM     36  C   UNL     1       2.135  19.306  -7.280  1.00  0.00     0.074 A 
ATOM     37  C   UNL     1       1.527  20.511  -6.754  1.00  0.00     0.031 C 
ATOM     38  C   UNL     1       2.004  18.882  -8.560  1.00  0.00     0.037 A 
BRANCH  25  39
ATOM     39  C   UNL     1       5.135  13.740  -9.889  1.00  0.00     0.064 A 
ATOM     40  C   UNL     1       4.623  12.435  -9.899  1.00  0.00     0.173 A 
ATOM     41  C   UNL     1       5.956  14.132 -10.958  1.00  0.00     0.173 A 
ATOM     42  F   UNL     1       3.840  12.009  -8.896  1.00  0.00    -0.203 F 
ATOM     43  C   UNL     1       4.923  11.556 -10.938  1.00  0.00     0.198 A 
ATOM     44  C   UNL     1       6.236  13.259 -12.006  1.00  0.00     0.198 A 
ATOM     45  F   UNL     1       6.465  15.373 -10.999  1.00  0.00    -0.203 F 
ATOM     46  F   UNL     1       4.438  10.307 -10.919  1.00  0.00    -0.200 F 
ATOM     47  C   UNL     1       5.720  11.972 -11.995  1.00  0.00     0.200 A 
ATOM     48  F   UNL     1       6.994  13.667 -13.033  1.00  0.00    -0.200 F 
ATOM     49  F   UNL     1       5.989  11.132 -13.004  1.00  0.00    -0.200 F 
ENDBRANCH  25  39
BRANCH  26  50
ATOM     50  C   UNL     1       2.961  20.427  -2.786  1.00  0.00     0.064 A 
ATOM     51  C   UNL     1       1.670  20.601  -2.270  1.00  0.00     0.173 A 
ATOM     52  C   UNL     1       3.979  21.260  -2.295  1.00  0.00     0.173 A 
ATOM     53  F   UNL     1       0.661  19.842  -2.721  1.00  0.00    -0.203 F 
ATOM     54  C   UNL     1       1.403  21.584  -1.319  1.00  0.00     0.198 A 
ATOM     55  C   UNL     1       3.717  22.219  -1.320  1.00  0.00     0.198 A 
ATOM     56  F   UNL     1       5.233  21.130  -2.752  1.00  0.00    -0.203 F 
ATOM     57  F   UNL     1       0.150  21.763  -0.879  1.00  0.00    -0.200 F 
ATOM     58  C   UNL     1       2.428  22.388  -0.841  1.00  0.00     0.200 A 
ATOM     59  F   UNL     1       4.714  22.980  -0.849  1.00  0.00    -0.200 F 
ATOM     60  F   UNL     1       2.170  23.330   0.076  1.00  0.00    -0.200 F 
ENDBRANCH  26  50
BRANCH  38  61
ATOM     61  C   UNL     1       1.163  19.726  -9.470  1.00  0.00     0.064 A 
ATOM     62  C   UNL     1       1.613  20.970  -9.935  1.00  0.00     0.173 A 
ATOM     63  C   UNL     1      -0.097  19.279  -9.896  1.00  0.00     0.173 A 
ATOM     64  F   UNL     1       2.802  21.449  -9.539  1.00  0.00    -0.203 F 
ATOM     65  C   UNL     1       0.820  21.750 -10.771  1.00  0.00     0.198 A 
ATOM     66  C   UNL     1      -0.874  20.048 -10.757  1.00  0.00     0.198 A 
ATOM     67  F   UNL     1      -0.570  18.093  -9.483  1.00  0.00    -0.203 F 
ATOM     68  F   UNL     1       1.247  22.959 -11.161  1.00  0.00    -0.200 F 
ATOM     69  C   UNL     1      -0.420  21.285 -11.187  1.00  0.00     0.200 A 
ATOM     70  F   UNL     1      -2.067  19.593 -11.166  1.00  0.00    -0.200 F 
ATOM     71  F   UNL     1      -1.181  22.036 -11.994  1.00  0.00    -0.200 F 
ENDBRANCH  38  61
ENDBRANCH  12  13
ENDBRANCH   5   7
ENDBRANCH   2   3
ENDBRANCH   1   2
BRANCH   1  72
ATOM     72  C   UNL     1       8.407   8.357   0.855  1.00  0.00     0.023 C 
BRANCH  72  73
ATOM     73  C   UNL     1       7.396   8.398   1.999  1.00  0.00     0.116 C 
BRANCH  73  74
ATOM     74  N   UNL     1       6.149   7.743   1.639  1.00  0.00    -0.351 N 
ATOM     75  C   UNL     1       5.641   6.536   2.052  1.00  0.00     0.283 C 
ATOM     76  H   UNL     1       5.584   8.239   1.003  1.00  0.00     0.163 HD
ATOM     77  O   UNL     1       4.637   6.117   1.469  1.00  0.00    -0.268 OA
BRANCH  75  78
ATOM     78  C   UNL     1       6.341   5.771   3.213  1.00  0.00     0.305 C 
BRANCH  78  79
ATOM     79  N   UNL     1       5.420   5.292   4.293  1.00  0.00    -0.321 N 
ATOM     80  C   UNL     1       4.288   6.207   4.524  1.00  0.00     0.263 C 
ATOM     81  C   UNL     1       4.977   3.901   4.202  1.00  0.00     0.263 C 
ATOM     82  H   UNL     1       6.021   5.306   5.118  1.00  0.00     0.349 HD
ATOM     83  C   UNL     1       3.499   5.843   5.782  1.00  0.00     0.062 C 
ATOM     84  C   UNL     1       4.227   3.480   5.470  1.00  0.00     0.062 C 
ATOM     85  C   UNL     1       3.041   4.391   5.743  1.00  0.00     0.012 C 
ENDBRANCH  78  79
BRANCH  78  86
ATOM     86  C   UNL     1       7.328   4.749   2.648  1.00  0.00     0.019 A 
ATOM     87  C   UNL     1       6.920   3.781   1.710  1.00  0.00     0.012 A 
ATOM     88  C   UNL     1       8.673   4.764   3.049  1.00  0.00     0.012 A 
ATOM     89  C   UNL     1       7.818   2.832   1.219  1.00  0.00     0.021 A 
ATOM     90  C   UNL     1       9.578   3.829   2.540  1.00  0.00     0.021 A 
ATOM     91  C   UNL     1       9.144   2.860   1.638  1.00  0.00     0.041 A 
ATOM     92  Cl  UNL     1      10.252   1.687   1.041  1.00  0.00    -0.084 Cl
ENDBRANCH  78  86
ENDBRANCH  75  78
ENDBRANCH  73  74
ENDBRANCH  72  73
ENDBRANCH   1  72
TORSDOF 13
