REMARK SMILES CC[C@](C)([NH3+])C(=O)Nc1ccc(C(F)(F)F)cc1C(=O)NCCCCNC(=O)c1ccc(-c2c3nc(c(-c4c(F)c(F)c(F)c(F)c4F)c4ccc([nH]4)c(-c4c(F)c(F)c(F)c(F)c4F)c4nc(c(-c5c(F)c(F)c(F)c(F)c5F)c5ccc2[nH]5)C=C4)C=C3)cc1
REMARK SMILES IDX 23 1 22 2 21 3 19 4 20 5 18 7 9 8 10 9 11 10 17 11 12 12
REMARK SMILES IDX 8 13 6 14 7 15 3 17 4 18 2 19 1 20 5 21 13 25 14 26 15 27
REMARK SMILES IDX 16 28 24 29 25 30 26 31 27 32 28 34 29 35 30 36 91 37 31 38
REMARK SMILES IDX 90 39 32 40 33 41 34 42 84 43 35 44 89 45 83 46 85 47 36 48
REMARK SMILES IDX 88 49 82 50 81 51 37 53 69 54 49 55 68 56 50 57 53 58 67 59
REMARK SMILES IDX 86 60 51 61 52 62 66 64 87 65 54 66 38 67 39 68 47 69 40 70
REMARK SMILES IDX 41 71 45 72 48 73 42 74 43 75 46 76 44 77 70 78 71 79 79 80
REMARK SMILES IDX 72 81 73 82 77 83 80 84 74 85 75 86 78 87 76 88 55 89 56 90
REMARK SMILES IDX 64 91 57 92 58 93 62 94 65 95 59 96 60 97 63 98 61 99
REMARK H PARENT 21 6 8 16 5 22 5 23 5 24 26 33 85 52 53 63
REMARK Flexibility Score: inf
ROOT
ATOM      1  C   UNL     1       4.376   3.556   2.836  1.00  0.00     0.023 C 
ENDROOT
BRANCH   1   2
ATOM      2  C   UNL     1       3.460   3.890   1.667  1.00  0.00     0.116 C 
BRANCH   2   3
ATOM      3  N   UNL     1       2.322   4.732   1.939  1.00  0.00    -0.352 N 
ATOM      4  C   UNL     1       1.458   5.361   1.064  1.00  0.00     0.253 C 
ATOM      5  O   UNL     1       0.496   5.949   1.570  1.00  0.00    -0.269 OA
ATOM      6  H   UNL     1       2.131   4.880   2.893  1.00  0.00     0.163 HD
BRANCH   4   7
ATOM      7  C   UNL     1       1.652   5.480  -0.433  1.00  0.00     0.063 A 
ATOM      8  C   UNL     1       2.353   4.638  -1.313  1.00  0.00     0.054 A 
ATOM      9  C   UNL     1       2.702   5.112  -2.593  1.00  0.00     0.027 A 
ATOM     10  C   UNL     1       2.164   6.290  -3.101  1.00  0.00     0.015 A 
ATOM     11  C   UNL     1       1.071   6.651  -0.992  1.00  0.00     0.029 A 
ATOM     12  C   UNL     1       1.271   7.031  -2.331  1.00  0.00     0.056 A 
BRANCH   8  13
ATOM     13  N   UNL     1       2.779   3.323  -1.095  1.00  0.00    -0.320 N 
ATOM     14  C   UNL     1       2.143   2.194  -0.662  1.00  0.00     0.285 C 
ATOM     15  O   UNL     1       2.897   1.235  -0.432  1.00  0.00    -0.267 OA
ATOM     16  H   UNL     1       3.733   3.183  -1.295  1.00  0.00     0.170 HD
BRANCH  14  17
ATOM     17  C   UNL     1       0.597   2.011  -0.638  1.00  0.00     0.171 C 
ATOM     18  C   UNL     1       0.272   0.701   0.109  1.00  0.00     0.090 C 
BRANCH  17  19
ATOM     19  C   UNL     1       0.053   1.984  -2.083  1.00  0.00     0.075 C 
ATOM     20  C   UNL     1       0.781   1.015  -3.011  1.00  0.00     0.011 C 
ENDBRANCH  17  19
BRANCH  17  21
ATOM     21  N   UNL     1      -0.092   3.069   0.119  1.00  0.00    -0.345 N 
ATOM     22  H   UNL     1       0.264   3.090   1.074  1.00  0.00     0.345 HD
ATOM     23  H   UNL     1      -1.094   2.879   0.134  1.00  0.00     0.345 HD
ATOM     24  H   UNL     1       0.077   3.970  -0.327  1.00  0.00     0.345 HD
ENDBRANCH  17  21
ENDBRANCH  14  17
ENDBRANCH   8  13
BRANCH  12  25
ATOM     25  C   UNL     1       0.554   8.210  -2.946  1.00  0.00     0.416 C 
ATOM     26  F   UNL     1       1.372   9.279  -3.139  1.00  0.00    -0.166 F 
ATOM     27  F   UNL     1       0.040   7.908  -4.173  1.00  0.00    -0.166 F 
ATOM     28  F   UNL     1      -0.496   8.658  -2.207  1.00  0.00    -0.166 F 
ENDBRANCH  12  25
ENDBRANCH   4   7
ENDBRANCH   2   3
ENDBRANCH   1   2
BRANCH   1  29
ATOM     29  C   UNL     1       3.852   2.503   3.819  1.00  0.00     0.023 C 
BRANCH  29  30
ATOM     30  C   UNL     1       3.351   1.175   3.241  1.00  0.00     0.116 C 
BRANCH  30  31
ATOM     31  N   UNL     1       4.354   0.411   2.512  1.00  0.00    -0.352 N 
ATOM     32  C   UNL     1       4.895  -0.832   2.770  1.00  0.00     0.251 C 
ATOM     33  H   UNL     1       4.703   0.853   1.704  1.00  0.00     0.163 HD
ATOM     34  O   UNL     1       5.809  -1.267   2.086  1.00  0.00    -0.269 OA
BRANCH  32  35
ATOM     35  C   UNL     1       4.387  -1.645   3.901  1.00  0.00     0.039 A 
ATOM     36  C   UNL     1       5.303  -2.257   4.762  1.00  0.00     0.014 A 
ATOM     37  C   UNL     1       3.018  -1.817   4.110  1.00  0.00     0.014 A 
ATOM     38  C   UNL     1       4.844  -2.964   5.878  1.00  0.00     0.010 A 
ATOM     39  C   UNL     1       2.563  -2.445   5.270  1.00  0.00     0.010 A 
ATOM     40  C   UNL     1       3.470  -3.028   6.168  1.00  0.00    -0.014 A 
BRANCH  40  41
ATOM     41  C   UNL     1       2.976  -3.699   7.403  1.00  0.00     0.031 A 
ATOM     42  C   UNL     1       2.067  -4.897   7.310  1.00  0.00     0.074 A 
ATOM     43  C   UNL     1       3.300  -3.199   8.613  1.00  0.00     0.049 A 
ATOM     44  N   UNL     1       1.517  -5.597   8.272  1.00  0.00    -0.248 NA
ATOM     45  C   UNL     1       1.701  -5.352   5.959  1.00  0.00     0.031 C 
ATOM     46  C   UNL     1       4.109  -2.001   8.846  1.00  0.00     0.029 A 
ATOM     47  N   UNL     1       2.979  -3.629   9.878  1.00  0.00    -0.354 N 
ATOM     48  C   UNL     1       0.730  -6.554   7.644  1.00  0.00     0.074 A 
ATOM     49  C   UNL     1       0.830  -6.316   6.221  1.00  0.00     0.031 C 
ATOM     50  C   UNL     1       4.242  -1.807  10.168  1.00  0.00     0.029 A 
ATOM     51  C   UNL     1       3.503  -2.845  10.879  1.00  0.00     0.049 A 
ATOM     52  H   UNL     1       2.426  -4.425  10.052  1.00  0.00     0.167 HD
ATOM     53  C   UNL     1       0.009  -7.557   8.201  1.00  0.00     0.037 A 
ATOM     54  C   UNL     1       3.398  -2.951  12.218  1.00  0.00     0.037 A 
ATOM     55  C   UNL     1      -0.057  -7.822   9.614  1.00  0.00     0.049 A 
ATOM     56  C   UNL     1       2.627  -4.104  12.807  1.00  0.00     0.074 A 
ATOM     57  C   UNL     1      -0.692  -8.864  10.267  1.00  0.00     0.029 A 
ATOM     58  N   UNL     1       0.532  -7.037  10.594  1.00  0.00    -0.354 N 
ATOM     59  N   UNL     1       1.970  -5.060  12.197  1.00  0.00    -0.248 NA
ATOM     60  C   UNL     1       2.602  -4.203  14.273  1.00  0.00     0.031 C 
ATOM     61  C   UNL     1      -0.532  -8.681  11.644  1.00  0.00     0.029 A 
ATOM     62  C   UNL     1       0.257  -7.561  11.847  1.00  0.00     0.049 A 
ATOM     63  H   UNL     1       1.065  -6.227  10.424  1.00  0.00     0.167 HD
ATOM     64  C   UNL     1       1.487  -5.891  13.200  1.00  0.00     0.074 A 
ATOM     65  C   UNL     1       1.944  -5.338  14.456  1.00  0.00     0.031 C 
ATOM     66  C   UNL     1       0.731  -7.011  13.090  1.00  0.00     0.037 A 
BRANCH  53  67
ATOM     67  C   UNL     1      -0.765  -8.460   7.283  1.00  0.00     0.064 A 
ATOM     68  C   UNL     1      -0.125  -9.378   6.438  1.00  0.00     0.173 A 
ATOM     69  C   UNL     1      -2.169  -8.454   7.302  1.00  0.00     0.173 A 
ATOM     70  F   UNL     1       1.214  -9.418   6.374  1.00  0.00    -0.203 F 
ATOM     71  C   UNL     1      -0.861 -10.244   5.632  1.00  0.00     0.198 A 
ATOM     72  C   UNL     1      -2.900  -9.343   6.519  1.00  0.00     0.198 A 
ATOM     73  F   UNL     1      -2.832  -7.601   8.097  1.00  0.00    -0.203 F 
ATOM     74  F   UNL     1      -0.227 -11.086   4.803  1.00  0.00    -0.200 F 
ATOM     75  C   UNL     1      -2.246 -10.233   5.681  1.00  0.00     0.200 A 
ATOM     76  F   UNL     1      -4.239  -9.341   6.579  1.00  0.00    -0.200 F 
ATOM     77  F   UNL     1      -2.952 -11.079   4.918  1.00  0.00    -0.200 F 
ENDBRANCH  53  67
BRANCH  54  78
ATOM     78  C   UNL     1       4.055  -1.952  13.106  1.00  0.00     0.064 A 
ATOM     79  C   UNL     1       5.125  -2.314  13.938  1.00  0.00     0.173 A 
ATOM     80  C   UNL     1       3.598  -0.628  13.175  1.00  0.00     0.173 A 
ATOM     81  F   UNL     1       5.588  -3.573  13.925  1.00  0.00    -0.203 F 
ATOM     82  C   UNL     1       5.683  -1.404  14.833  1.00  0.00     0.198 A 
ATOM     83  C   UNL     1       4.180   0.291  14.046  1.00  0.00     0.198 A 
ATOM     84  F   UNL     1       2.582  -0.227  12.397  1.00  0.00    -0.203 F 
ATOM     85  F   UNL     1       6.657  -1.797  15.666  1.00  0.00    -0.200 F 
ATOM     86  C   UNL     1       5.212  -0.101  14.884  1.00  0.00     0.200 A 
ATOM     87  F   UNL     1       3.732   1.553  14.081  1.00  0.00    -0.200 F 
ATOM     88  F   UNL     1       5.744   0.773  15.751  1.00  0.00    -0.200 F 
ENDBRANCH  54  78
BRANCH  66  89
ATOM     89  C   UNL     1       0.401  -7.746  14.359  1.00  0.00     0.064 A 
ATOM     90  C   UNL     1      -0.469  -7.212  15.321  1.00  0.00     0.173 A 
ATOM     91  C   UNL     1       0.956  -9.011  14.607  1.00  0.00     0.173 A 
ATOM     92  F   UNL     1      -1.019  -6.002  15.139  1.00  0.00    -0.203 F 
ATOM     93  C   UNL     1      -0.735  -7.897  16.505  1.00  0.00     0.198 A 
ATOM     94  C   UNL     1       0.659  -9.709  15.774  1.00  0.00     0.198 A 
ATOM     95  F   UNL     1       1.786  -9.573  13.715  1.00  0.00    -0.203 F 
ATOM     96  F   UNL     1      -1.515  -7.337  17.439  1.00  0.00    -0.200 F 
ATOM     97  C   UNL     1      -0.175  -9.146  16.727  1.00  0.00     0.200 A 
ATOM     98  F   UNL     1       1.187 -10.924  15.979  1.00  0.00    -0.200 F 
ATOM     99  F   UNL     1      -0.432  -9.803  17.867  1.00  0.00    -0.200 F 
ENDBRANCH  66  89
ENDBRANCH  40  41
ENDBRANCH  32  35
ENDBRANCH  30  31
ENDBRANCH  29  30
ENDBRANCH   1  29
TORSDOF 16
