REMARK SMILES Cc1nc(CSCC(=O)N2CCCC[C@@H]2C(=O)NCCCCNC(=O)c2ccc(-c3c4nc(c(-c5c(F)c(F)c(F)c(F)c5F)c5ccc([nH]5)c(-c5c(F)c(F)c(F)c(F)c5F)c5nc(c(-c6c(F)c(F)c(F)c(F)c6F)c6ccc3[nH]6)C=C5)C=C4)cc2)cs1
REMARK SMILES IDX 19 1 18 2 16 3 17 4 15 6 10 7 11 8 12 9 14 10 13 11 8 12
REMARK SMILES IDX 9 13 7 14 6 15 5 16 4 17 1 18 2 19 3 20 90 21 89 22 20 23
REMARK SMILES IDX 21 24 22 25 23 26 24 27 25 29 26 30 27 31 88 32 28 33 87 34
REMARK SMILES IDX 29 35 30 36 31 37 81 38 32 39 86 40 80 41 82 42 33 43 85 44
REMARK SMILES IDX 79 45 78 46 34 48 66 49 46 50 65 51 47 52 50 53 64 54 83 55
REMARK SMILES IDX 48 56 49 57 63 59 84 60 51 61 35 62 36 63 44 64 37 65 38 66
REMARK SMILES IDX 42 67 45 68 39 69 40 70 43 71 41 72 67 73 68 74 76 75 69 76
REMARK SMILES IDX 70 77 74 78 77 79 71 80 72 81 75 82 73 83 52 84 53 85 61 86
REMARK SMILES IDX 54 87 55 88 59 89 62 90 56 91 57 92 60 93 58 94
REMARK H PARENT 18 5 23 28 82 47 50 58
REMARK Flexibility Score: inf
ROOT
ATOM      1  C   UNL     1       0.932  -5.265   0.061  1.00  0.00     0.116 C 
ENDROOT
BRANCH   1   2
ATOM      2  N   UNL     1       2.261  -4.714   0.279  1.00  0.00    -0.354 N 
ATOM      3  C   UNL     1       3.322  -4.620  -0.576  1.00  0.00     0.242 C 
ATOM      4  O   UNL     1       4.376  -4.174  -0.112  1.00  0.00    -0.273 OA
ATOM      5  H   UNL     1       2.420  -4.353   1.181  1.00  0.00     0.163 HD
BRANCH   3   6
ATOM      6  C   UNL     1       3.283  -5.247  -1.988  1.00  0.00     0.174 C 
ATOM      7  N   UNL     1       2.032  -5.023  -2.745  1.00  0.00    -0.330 N 
ATOM      8  C   UNL     1       1.729  -5.983  -3.804  1.00  0.00     0.120 C 
ATOM      9  C   UNL     1       1.780  -7.421  -3.327  1.00  0.00     0.022 C 
ATOM     10  C   UNL     1       3.542  -6.753  -1.683  1.00  0.00     0.035 C 
ATOM     11  C   UNL     1       3.162  -7.732  -2.780  1.00  0.00     0.004 C 
BRANCH   7  12
ATOM     12  C   UNL     1       1.376  -3.802  -2.888  1.00  0.00     0.233 C 
ATOM     13  O   UNL     1       0.138  -3.797  -2.926  1.00  0.00    -0.274 OA
BRANCH  12  14
ATOM     14  C   UNL     1       2.127  -2.531  -3.264  1.00  0.00     0.170 C 
BRANCH  14  15
ATOM     15  S   UNL     1       3.081  -1.657  -2.005  1.00  0.00    -0.146 SA
BRANCH  15  16
ATOM     16  C   UNL     1       1.951  -1.654  -0.592  1.00  0.00     0.127 C 
BRANCH  16  17
ATOM     17  C   UNL     1       1.049  -0.477  -0.467  1.00  0.00     0.061 A 
ATOM     18  C   UNL     1      -2.462   0.504  -0.254  1.00  0.00     0.079 C 
ATOM     19  C   UNL     1      -0.979   0.405  -0.277  1.00  0.00     0.090 A 
ATOM     20  N   UNL     1      -0.320  -0.709  -0.500  1.00  0.00    -0.246 NA
ATOM     21  S   UNL     1      -0.006   1.787   0.024  1.00  0.00    -0.127 S 
ATOM     22  C   UNL     1       1.401   0.828  -0.177  1.00  0.00     0.091 A 
ENDBRANCH  16  17
ENDBRANCH  15  16
ENDBRANCH  14  15
ENDBRANCH  12  14
ENDBRANCH   7  12
ENDBRANCH   3   6
ENDBRANCH   1   2
BRANCH   1  23
ATOM     23  C   UNL     1       0.305  -5.737   1.368  1.00  0.00     0.023 C 
BRANCH  23  24
ATOM     24  C   UNL     1      -0.054  -4.602   2.329  1.00  0.00     0.023 C 
BRANCH  24  25
ATOM     25  C   UNL     1      -1.161  -3.677   1.832  1.00  0.00     0.116 C 
BRANCH  25  26
ATOM     26  N   UNL     1      -2.443  -4.363   1.738  1.00  0.00    -0.352 N 
ATOM     27  C   UNL     1      -3.602  -4.160   2.440  1.00  0.00     0.251 C 
ATOM     28  H   UNL     1      -2.482  -5.083   1.067  1.00  0.00     0.163 HD
ATOM     29  O   UNL     1      -4.514  -4.987   2.375  1.00  0.00    -0.269 OA
BRANCH  27  30
ATOM     30  C   UNL     1      -3.768  -2.960   3.286  1.00  0.00     0.039 A 
ATOM     31  C   UNL     1      -4.388  -3.084   4.532  1.00  0.00     0.014 A 
ATOM     32  C   UNL     1      -3.338  -1.706   2.845  1.00  0.00     0.014 A 
ATOM     33  C   UNL     1      -4.520  -1.964   5.356  1.00  0.00     0.010 A 
ATOM     34  C   UNL     1      -3.393  -0.608   3.698  1.00  0.00     0.010 A 
ATOM     35  C   UNL     1      -3.992  -0.723   4.960  1.00  0.00    -0.014 A 
BRANCH  35  36
ATOM     36  C   UNL     1      -4.058   0.461   5.855  1.00  0.00     0.031 A 
ATOM     37  C   UNL     1      -4.849   1.676   5.452  1.00  0.00     0.074 A 
ATOM     38  C   UNL     1      -3.362   0.460   7.009  1.00  0.00     0.049 A 
ATOM     39  N   UNL     1      -4.995   2.815   6.081  1.00  0.00    -0.248 NA
ATOM     40  C   UNL     1      -5.549   1.613   4.159  1.00  0.00     0.031 C 
ATOM     41  C   UNL     1      -2.517  -0.637   7.485  1.00  0.00     0.029 A 
ATOM     42  N   UNL     1      -3.252   1.413   7.990  1.00  0.00    -0.354 N 
ATOM     43  C   UNL     1      -5.800   3.599   5.264  1.00  0.00     0.074 A 
ATOM     44  C   UNL     1      -6.057   2.833   4.064  1.00  0.00     0.031 C 
ATOM     45  C   UNL     1      -1.999  -0.307   8.679  1.00  0.00     0.029 A 
ATOM     46  C   UNL     1      -2.444   1.037   9.036  1.00  0.00     0.049 A 
ATOM     47  H   UNL     1      -3.708   2.285   7.948  1.00  0.00     0.167 HD
ATOM     48  C   UNL     1      -6.304   4.832   5.506  1.00  0.00     0.037 A 
ATOM     49  C   UNL     1      -2.101   1.702  10.155  1.00  0.00     0.037 A 
ATOM     50  C   UNL     1      -6.057   5.587   6.707  1.00  0.00     0.049 A 
ATOM     51  C   UNL     1      -2.663   3.080  10.388  1.00  0.00     0.074 A 
ATOM     52  C   UNL     1      -6.546   6.832   7.061  1.00  0.00     0.029 A 
ATOM     53  N   UNL     1      -5.250   5.163   7.753  1.00  0.00    -0.354 N 
ATOM     54  N   UNL     1      -3.477   3.782   9.638  1.00  0.00    -0.248 NA
ATOM     55  C   UNL     1      -2.267   3.752  11.634  1.00  0.00     0.031 C 
ATOM     56  C   UNL     1      -6.001   7.182   8.300  1.00  0.00     0.029 A 
ATOM     57  C   UNL     1      -5.219   6.129   8.747  1.00  0.00     0.049 A 
ATOM     58  H   UNL     1      -4.770   4.304   7.784  1.00  0.00     0.167 HD
ATOM     59  C   UNL     1      -3.726   4.955  10.340  1.00  0.00     0.074 A 
ATOM     60  C   UNL     1      -2.986   4.863  11.580  1.00  0.00     0.031 C 
ATOM     61  C   UNL     1      -4.499   6.011   9.989  1.00  0.00     0.037 A 
BRANCH  48  62
ATOM     62  C   UNL     1      -7.192   5.441   4.458  1.00  0.00     0.064 A 
ATOM     63  C   UNL     1      -8.475   4.933   4.201  1.00  0.00     0.173 A 
ATOM     64  C   UNL     1      -6.783   6.577   3.744  1.00  0.00     0.173 A 
ATOM     65  F   UNL     1      -8.912   3.842   4.848  1.00  0.00    -0.203 F 
ATOM     66  C   UNL     1      -9.305   5.525   3.252  1.00  0.00     0.198 A 
ATOM     67  C   UNL     1      -7.628   7.185   2.818  1.00  0.00     0.198 A 
ATOM     68  F   UNL     1      -5.569   7.108   3.954  1.00  0.00    -0.203 F 
ATOM     69  F   UNL     1     -10.508   4.995   2.993  1.00  0.00    -0.200 F 
ATOM     70  C   UNL     1      -8.885   6.656   2.569  1.00  0.00     0.200 A 
ATOM     71  F   UNL     1      -7.226   8.287   2.170  1.00  0.00    -0.200 F 
ATOM     72  F   UNL     1      -9.690   7.233   1.666  1.00  0.00    -0.200 F 
ENDBRANCH  48  62
BRANCH  49  73
ATOM     73  C   UNL     1      -1.205   1.071  11.161  1.00  0.00     0.064 A 
ATOM     74  C   UNL     1      -1.682   0.728  12.434  1.00  0.00     0.173 A 
ATOM     75  C   UNL     1       0.149   0.830  10.886  1.00  0.00     0.173 A 
ATOM     76  F   UNL     1      -2.965   0.955  12.752  1.00  0.00    -0.203 F 
ATOM     77  C   UNL     1      -0.832   0.204  13.406  1.00  0.00     0.198 A 
ATOM     78  C   UNL     1       0.991   0.275  11.848  1.00  0.00     0.198 A 
ATOM     79  F   UNL     1       0.655   1.132   9.682  1.00  0.00    -0.203 F 
ATOM     80  F   UNL     1      -1.301  -0.053  14.634  1.00  0.00    -0.200 F 
ATOM     81  C   UNL     1       0.503  -0.025  13.111  1.00  0.00     0.200 A 
ATOM     82  F   UNL     1       2.277   0.040  11.554  1.00  0.00    -0.200 F 
ATOM     83  F   UNL     1       1.322  -0.523  14.047  1.00  0.00    -0.200 F 
ENDBRANCH  49  73
BRANCH  61  84
ATOM     84  C   UNL     1      -4.641   7.123  10.989  1.00  0.00     0.064 A 
ATOM     85  C   UNL     1      -3.579   7.985  11.298  1.00  0.00     0.173 A 
ATOM     86  C   UNL     1      -5.872   7.342  11.628  1.00  0.00     0.173 A 
ATOM     87  F   UNL     1      -2.379   7.811  10.725  1.00  0.00    -0.203 F 
ATOM     88  C   UNL     1      -3.733   9.002  12.238  1.00  0.00     0.198 A 
ATOM     89  C   UNL     1      -6.032   8.381  12.540  1.00  0.00     0.198 A 
ATOM     90  F   UNL     1      -6.923   6.552  11.362  1.00  0.00    -0.203 F 
ATOM     91  F   UNL     1      -2.687   9.775  12.562  1.00  0.00    -0.200 F 
ATOM     92  C   UNL     1      -4.960   9.203  12.852  1.00  0.00     0.200 A 
ATOM     93  F   UNL     1      -7.222   8.583  13.121  1.00  0.00    -0.200 F 
ATOM     94  F   UNL     1      -5.106  10.184  13.753  1.00  0.00    -0.200 F 
ENDBRANCH  61  84
ENDBRANCH  35  36
ENDBRANCH  27  30
ENDBRANCH  25  26
ENDBRANCH  24  25
ENDBRANCH  23  24
ENDBRANCH   1  23
TORSDOF 16
