REMARK SMILES O=C(NCCCCNC(=O)c1ccc(CNC(=O)c2cccnc2)o1)c1ccc(-c2c3nc(c(-c4c(F)c(F)c(F)c(F)c4F)c4ccc([nH]4)c(-c4c(F)c(F)c(F)c(F)c4F)c4nc(c(-c5c(F)c(F)c(F)c(F)c5F)c5ccc2[nH]5)C=C4)C=C3)cc1
REMARK SMILES IDX 6 1 5 2 4 3 3 4 1 5 2 6 26 8 27 9 88 10 28 11 87 12 29 13
REMARK SMILES IDX 30 14 31 15 81 16 32 17 86 18 80 19 82 20 33 21 85 22 79 23
REMARK SMILES IDX 78 24 34 26 66 27 46 28 65 29 47 30 50 31 64 32 83 33 48 34
REMARK SMILES IDX 49 35 63 37 84 38 51 39 35 40 36 41 44 42 37 43 38 44 42 45
REMARK SMILES IDX 45 46 39 47 40 48 43 49 41 50 67 51 68 52 76 53 69 54 70 55
REMARK SMILES IDX 74 56 77 57 71 58 72 59 75 60 73 61 52 62 53 63 61 64 54 65
REMARK SMILES IDX 55 66 59 67 62 68 56 69 57 70 60 71 58 72 7 73 8 74 9 75
REMARK SMILES IDX 10 77 11 78 12 79 25 80 13 81 14 82 15 83 16 84 17 85 18 87
REMARK SMILES IDX 19 88 20 89 24 90 21 91 23 92 22 93
REMARK H PARENT 3 7 82 25 50 36 8 76 16 86
REMARK Flexibility Score: inf
ROOT
ATOM      1  C   UNL     1       4.472   0.725   3.948  1.00  0.00     0.023 C 
ENDROOT
BRANCH   1   2
ATOM      2  C   UNL     1       4.969   1.151   2.566  1.00  0.00     0.023 C 
BRANCH   2   3
ATOM      3  C   UNL     1       4.674   0.173   1.434  1.00  0.00     0.116 C 
BRANCH   3   4
ATOM      4  N   UNL     1       3.252  -0.059   1.240  1.00  0.00    -0.352 N 
ATOM      5  O   UNL     1       1.287  -0.105   0.137  1.00  0.00    -0.269 OA
ATOM      6  C   UNL     1       2.509  -0.005   0.086  1.00  0.00     0.251 C 
ATOM      7  H   UNL     1       2.748  -0.287   2.055  1.00  0.00     0.163 HD
BRANCH   6   8
ATOM      8  C   UNL     1       3.176   0.202  -1.218  1.00  0.00     0.039 A 
ATOM      9  C   UNL     1       4.324  -0.516  -1.563  1.00  0.00     0.014 A 
ATOM     10  C   UNL     1       2.627   1.121  -2.117  1.00  0.00     0.014 A 
ATOM     11  C   UNL     1       4.993  -0.224  -2.747  1.00  0.00     0.010 A 
ATOM     12  C   UNL     1       3.262   1.365  -3.338  1.00  0.00     0.010 A 
ATOM     13  C   UNL     1       4.466   0.716  -3.648  1.00  0.00    -0.014 A 
BRANCH  13  14
ATOM     14  C   UNL     1       5.163   0.965  -4.934  1.00  0.00     0.031 A 
ATOM     15  C   UNL     1       5.817   2.287  -5.218  1.00  0.00     0.074 A 
ATOM     16  C   UNL     1       5.212  -0.023  -5.846  1.00  0.00     0.049 A 
ATOM     17  N   UNL     1       6.477   2.667  -6.283  1.00  0.00    -0.248 NA
ATOM     18  C   UNL     1       5.708   3.321  -4.178  1.00  0.00     0.031 C 
ATOM     19  C   UNL     1       4.591  -1.340  -5.691  1.00  0.00     0.029 A 
ATOM     20  N   UNL     1       5.814  -0.080  -7.077  1.00  0.00    -0.354 N 
ATOM     21  C   UNL     1       6.846   3.986  -6.052  1.00  0.00     0.074 A 
ATOM     22  C   UNL     1       6.318   4.349  -4.753  1.00  0.00     0.031 C 
ATOM     23  C   UNL     1       4.867  -2.084  -6.772  1.00  0.00     0.029 A 
ATOM     24  C   UNL     1       5.646  -1.285  -7.712  1.00  0.00     0.049 A 
ATOM     25  H   UNL     1       6.317   0.671  -7.467  1.00  0.00     0.167 HD
ATOM     26  C   UNL     1       7.565   4.812  -6.849  1.00  0.00     0.037 A 
ATOM     27  C   UNL     1       6.061  -1.698  -8.923  1.00  0.00     0.037 A 
ATOM     28  C   UNL     1       8.109   4.439  -8.129  1.00  0.00     0.049 A 
ATOM     29  C   UNL     1       6.864  -0.765  -9.781  1.00  0.00     0.074 A 
ATOM     30  C   UNL     1       8.904   5.187  -8.981  1.00  0.00     0.029 A 
ATOM     31  N   UNL     1       7.911   3.212  -8.744  1.00  0.00    -0.354 N 
ATOM     32  N   UNL     1       7.245   0.463  -9.530  1.00  0.00    -0.248 NA
ATOM     33  C   UNL     1       7.292  -1.274 -11.091  1.00  0.00     0.031 C 
ATOM     34  C   UNL     1       9.156   4.426 -10.128  1.00  0.00     0.029 A 
ATOM     35  C   UNL     1       8.548   3.190  -9.975  1.00  0.00     0.049 A 
ATOM     36  H   UNL     1       7.394   2.466  -8.363  1.00  0.00     0.167 HD
ATOM     37  C   UNL     1       7.960   0.874 -10.644  1.00  0.00     0.074 A 
ATOM     38  C   UNL     1       7.979  -0.244 -11.566  1.00  0.00     0.031 C 
ATOM     39  C   UNL     1       8.544   2.073 -10.884  1.00  0.00     0.037 A 
BRANCH  26  40
ATOM     40  C   UNL     1       7.797   6.213  -6.367  1.00  0.00     0.064 A 
ATOM     41  C   UNL     1       8.709   6.497  -5.340  1.00  0.00     0.173 A 
ATOM     42  C   UNL     1       7.131   7.290  -6.972  1.00  0.00     0.173 A 
ATOM     43  F   UNL     1       9.361   5.501  -4.723  1.00  0.00    -0.203 F 
ATOM     44  C   UNL     1       8.931   7.807  -4.923  1.00  0.00     0.198 A 
ATOM     45  C   UNL     1       7.372   8.601  -6.567  1.00  0.00     0.198 A 
ATOM     46  F   UNL     1       6.253   7.072  -7.962  1.00  0.00    -0.203 F 
ATOM     47  F   UNL     1       9.781   8.052  -3.916  1.00  0.00    -0.200 F 
ATOM     48  C   UNL     1       8.268   8.857  -5.540  1.00  0.00     0.200 A 
ATOM     49  F   UNL     1       6.737   9.615  -7.169  1.00  0.00    -0.200 F 
ATOM     50  F   UNL     1       8.487  10.118  -5.139  1.00  0.00    -0.200 F 
ENDBRANCH  26  40
BRANCH  27  51
ATOM     51  C   UNL     1       5.717  -3.066  -9.380  1.00  0.00     0.064 A 
ATOM     52  C   UNL     1       6.688  -4.074  -9.436  1.00  0.00     0.173 A 
ATOM     53  C   UNL     1       4.399  -3.402  -9.725  1.00  0.00     0.173 A 
ATOM     54  F   UNL     1       7.963  -3.792  -9.131  1.00  0.00    -0.203 F 
ATOM     55  C   UNL     1       6.354  -5.369  -9.824  1.00  0.00     0.198 A 
ATOM     56  C   UNL     1       4.063  -4.703 -10.089  1.00  0.00     0.198 A 
ATOM     57  F   UNL     1       3.435  -2.471  -9.679  1.00  0.00    -0.203 F 
ATOM     58  F   UNL     1       7.304  -6.311  -9.892  1.00  0.00    -0.200 F 
ATOM     59  C   UNL     1       5.041  -5.684 -10.142  1.00  0.00     0.200 A 
ATOM     60  F   UNL     1       2.791  -5.007 -10.380  1.00  0.00    -0.200 F 
ATOM     61  F   UNL     1       4.718  -6.935 -10.499  1.00  0.00    -0.200 F 
ENDBRANCH  27  51
BRANCH  39  62
ATOM     62  C   UNL     1       9.251   2.234 -12.196  1.00  0.00     0.064 A 
ATOM     63  C   UNL     1       8.536   2.410 -13.389  1.00  0.00     0.173 A 
ATOM     64  C   UNL     1      10.652   2.240 -12.256  1.00  0.00     0.173 A 
ATOM     65  F   UNL     1       7.195   2.393 -13.382  1.00  0.00    -0.203 F 
ATOM     66  C   UNL     1       9.201   2.568 -14.602  1.00  0.00     0.198 A 
ATOM     67  C   UNL     1      11.313   2.421 -13.467  1.00  0.00     0.198 A 
ATOM     68  F   UNL     1      11.377   2.078 -11.140  1.00  0.00    -0.203 F 
ATOM     69  F   UNL     1       8.500   2.696 -15.737  1.00  0.00    -0.200 F 
ATOM     70  C   UNL     1      10.588   2.579 -14.639  1.00  0.00     0.200 A 
ATOM     71  F   UNL     1      12.652   2.437 -13.502  1.00  0.00    -0.200 F 
ATOM     72  F   UNL     1      11.226   2.734 -15.807  1.00  0.00    -0.200 F 
ENDBRANCH  39  62
ENDBRANCH  13  14
ENDBRANCH   6   8
ENDBRANCH   3   4
ENDBRANCH   2   3
ENDBRANCH   1   2
BRANCH   1  73
ATOM     73  C   UNL     1       4.912  -0.666   4.401  1.00  0.00     0.116 C 
BRANCH  73  74
ATOM     74  N   UNL     1       6.355  -0.780   4.495  1.00  0.00    -0.349 N 
ATOM     75  C   UNL     1       7.119  -1.104   5.594  1.00  0.00     0.286 C 
ATOM     76  H   UNL     1       6.854  -0.604   3.665  1.00  0.00     0.163 HD
ATOM     77  O   UNL     1       8.341  -0.988   5.498  1.00  0.00    -0.266 OA
BRANCH  75  78
ATOM     78  C   UNL     1       6.443  -1.557   6.784  1.00  0.00     0.191 A 
ATOM     79  C   UNL     1       5.596  -2.624   7.021  1.00  0.00     0.056 A 
ATOM     80  O   UNL     1       6.596  -0.833   7.931  1.00  0.00    -0.454 OA
ATOM     81  C   UNL     1       5.194  -2.532   8.376  1.00  0.00     0.048 A 
ATOM     82  C   UNL     1       5.821  -1.416   8.889  1.00  0.00     0.124 A 
BRANCH  82  83
ATOM     83  C   UNL     1       5.780  -0.732  10.202  1.00  0.00     0.191 C 
BRANCH  83  84
ATOM     84  N   UNL     1       7.019  -0.972  10.910  1.00  0.00    -0.345 N 
ATOM     85  C   UNL     1       7.858  -0.067  11.505  1.00  0.00     0.253 C 
ATOM     86  H   UNL     1       7.297  -1.915  10.973  1.00  0.00     0.164 HD
ATOM     87  O   UNL     1       8.949  -0.424  11.939  1.00  0.00    -0.269 OA
BRANCH  85  88
ATOM     88  C   UNL     1       7.468   1.348  11.617  1.00  0.00     0.058 A 
ATOM     89  C   UNL     1       6.245   1.754  12.154  1.00  0.00     0.017 A 
ATOM     90  C   UNL     1       8.367   2.322  11.209  1.00  0.00     0.124 A 
ATOM     91  C   UNL     1       5.949   3.114  12.209  1.00  0.00     0.021 A 
ATOM     92  N   UNL     1       8.101   3.652  11.253  1.00  0.00    -0.264 NA
ATOM     93  C   UNL     1       6.897   4.015  11.746  1.00  0.00     0.111 A 
ENDBRANCH  85  88
ENDBRANCH  83  84
ENDBRANCH  82  83
ENDBRANCH  75  78
ENDBRANCH  73  74
ENDBRANCH   1  73
TORSDOF 14
