REMARK SMILES Cc1ncccc1C(=O)NCCOCC(=O)NCCCCNC(=O)c1ccc(-c2c3nc(c(-c4c(F)c(F)c(F)c(F)c4F)c4ccc([nH]4)c(-c4c(F)c(F)c(F)c(F)c4F)c4nc(c(-c5c(F)c(F)c(F)c(F)c5F)c5ccc2[nH]5)C=C4)C=C3)cc1
REMARK SMILES IDX 18 1 17 2 15 3 16 4 14 6 13 7 12 8 11 9 10 10 8 11 9 12 7 14
REMARK SMILES IDX 1 15 2 16 3 17 4 18 6 19 5 20 19 21 20 22 21 23 22 24 23 25
REMARK SMILES IDX 24 27 25 28 26 29 87 30 27 31 86 32 28 33 29 34 30 35 80 36
REMARK SMILES IDX 31 37 85 38 79 39 81 40 32 41 84 42 78 43 77 44 33 46 65 47
REMARK SMILES IDX 45 48 64 49 46 50 49 51 63 52 82 53 47 54 48 55 62 57 83 58
REMARK SMILES IDX 50 59 34 60 35 61 43 62 36 63 37 64 41 65 44 66 38 67 39 68
REMARK SMILES IDX 42 69 40 70 66 71 67 72 75 73 68 74 69 75 73 76 76 77 70 78
REMARK SMILES IDX 71 79 74 80 72 81 51 82 52 83 60 84 53 85 54 86 58 87 61 88
REMARK SMILES IDX 55 89 56 90 59 91 57 92
REMARK H PARENT 17 5 10 13 22 26 81 45 49 56
REMARK Flexibility Score: inf
ROOT
ATOM      1  C   UNL     1       5.611  -3.793   4.128  1.00  0.00     0.116 C 
ENDROOT
BRANCH   1   2
ATOM      2  N   UNL     1       4.221  -4.160   3.943  1.00  0.00    -0.354 N 
ATOM      3  C   UNL     1       3.571  -4.439   2.773  1.00  0.00     0.245 C 
ATOM      4  O   UNL     1       2.389  -4.779   2.816  1.00  0.00    -0.272 OA
ATOM      5  H   UNL     1       3.677  -4.216   4.762  1.00  0.00     0.163 HD
BRANCH   3   6
ATOM      6  C   UNL     1       4.330  -4.298   1.444  1.00  0.00     0.260 C 
BRANCH   6   7
ATOM      7  O   UNL     1       4.902  -3.046   1.097  1.00  0.00    -0.370 OA
BRANCH   7   8
ATOM      8  C   UNL     1       4.147  -1.897   1.476  1.00  0.00     0.182 C 
BRANCH   8   9
ATOM      9  C   UNL     1       3.220  -1.353   0.393  1.00  0.00     0.144 C 
BRANCH   9  10
ATOM     10  N   UNL     1       2.222  -2.280  -0.097  1.00  0.00    -0.350 N 
ATOM     11  C   UNL     1       0.918  -2.103  -0.475  1.00  0.00     0.253 C 
ATOM     12  O   UNL     1       0.316  -3.078  -0.928  1.00  0.00    -0.269 OA
ATOM     13  H   UNL     1       2.539  -3.209  -0.173  1.00  0.00     0.163 HD
BRANCH  11  14
ATOM     14  C   UNL     1       0.170  -0.834  -0.305  1.00  0.00     0.061 A 
ATOM     15  C   UNL     1       1.862   0.750  -1.402  1.00  0.00     0.067 C 
ATOM     16  C   UNL     1       0.576   0.444  -0.701  1.00  0.00     0.050 A 
ATOM     17  N   UNL     1      -0.212   1.544  -0.517  1.00  0.00    -0.261 NA
ATOM     18  C   UNL     1      -1.456   1.368  -0.023  1.00  0.00     0.111 A 
ATOM     19  C   UNL     1      -1.141  -0.973   0.184  1.00  0.00     0.017 A 
ATOM     20  C   UNL     1      -1.970   0.136   0.320  1.00  0.00     0.021 A 
ENDBRANCH  11  14
ENDBRANCH   9  10
ENDBRANCH   8   9
ENDBRANCH   7   8
ENDBRANCH   6   7
ENDBRANCH   3   6
ENDBRANCH   1   2
BRANCH   1  21
ATOM     21  C   UNL     1       5.778  -2.385   4.699  1.00  0.00     0.023 C 
BRANCH  21  22
ATOM     22  C   UNL     1       5.125  -2.148   6.062  1.00  0.00     0.023 C 
BRANCH  22  23
ATOM     23  C   UNL     1       5.450  -3.186   7.128  1.00  0.00     0.116 C 
BRANCH  23  24
ATOM     24  N   UNL     1       6.878  -3.348   7.354  1.00  0.00    -0.352 N 
ATOM     25  C   UNL     1       7.548  -3.523   8.539  1.00  0.00     0.251 C 
ATOM     26  H   UNL     1       7.440  -3.331   6.546  1.00  0.00     0.163 HD
ATOM     27  O   UNL     1       8.776  -3.546   8.559  1.00  0.00    -0.269 OA
BRANCH  25  28
ATOM     28  C   UNL     1       6.786  -3.639   9.798  1.00  0.00     0.039 A 
ATOM     29  C   UNL     1       7.175  -2.862  10.891  1.00  0.00     0.014 A 
ATOM     30  C   UNL     1       5.675  -4.482   9.889  1.00  0.00     0.014 A 
ATOM     31  C   UNL     1       6.407  -2.877  12.056  1.00  0.00     0.010 A 
ATOM     32  C   UNL     1       4.869  -4.438  11.022  1.00  0.00     0.010 A 
ATOM     33  C   UNL     1       5.226  -3.635  12.116  1.00  0.00    -0.014 A 
BRANCH  33  34
ATOM     34  C   UNL     1       4.350  -3.600  13.313  1.00  0.00     0.031 A 
ATOM     35  C   UNL     1       4.139  -4.843  14.130  1.00  0.00     0.074 A 
ATOM     36  C   UNL     1       3.693  -2.466  13.624  1.00  0.00     0.049 A 
ATOM     37  N   UNL     1       3.362  -5.032  15.166  1.00  0.00    -0.248 NA
ATOM     38  C   UNL     1       4.880  -6.042  13.708  1.00  0.00     0.031 C 
ATOM     39  C   UNL     1       3.778  -1.208  12.881  1.00  0.00     0.029 A 
ATOM     40  N   UNL     1       2.815  -2.191  14.642  1.00  0.00    -0.354 N 
ATOM     41  C   UNL     1       3.510  -6.369  15.509  1.00  0.00     0.074 A 
ATOM     42  C   UNL     1       4.405  -6.959  14.538  1.00  0.00     0.031 C 
ATOM     43  C   UNL     1       3.005  -0.289  13.482  1.00  0.00     0.029 A 
ATOM     44  C   UNL     1       2.340  -0.902  14.627  1.00  0.00     0.049 A 
ATOM     45  H   UNL     1       2.550  -2.854  15.319  1.00  0.00     0.167 HD
ATOM     46  C   UNL     1       2.969  -7.038  16.555  1.00  0.00     0.037 A 
ATOM     47  C   UNL     1       1.464  -0.287  15.444  1.00  0.00     0.037 A 
ATOM     48  C   UNL     1       2.097  -6.441  17.532  1.00  0.00     0.049 A 
ATOM     49  C   UNL     1       0.866  -1.057  16.591  1.00  0.00     0.074 A 
ATOM     50  C   UNL     1       1.543  -7.017  18.662  1.00  0.00     0.029 A 
ATOM     51  N   UNL     1       1.648  -5.129  17.491  1.00  0.00    -0.354 N 
ATOM     52  N   UNL     1       1.069  -2.301  16.949  1.00  0.00    -0.248 NA
ATOM     53  C   UNL     1      -0.080  -0.332  17.451  1.00  0.00     0.031 C 
ATOM     54  C   UNL     1       0.722  -6.067  19.279  1.00  0.00     0.029 A 
ATOM     55  C   UNL     1       0.805  -4.883  18.564  1.00  0.00     0.049 A 
ATOM     56  H   UNL     1       1.893  -4.469  16.803  1.00  0.00     0.167 HD
ATOM     57  C   UNL     1       0.304  -2.500  18.090  1.00  0.00     0.074 A 
ATOM     58  C   UNL     1      -0.357  -1.244  18.373  1.00  0.00     0.031 C 
ATOM     59  C   UNL     1       0.163  -3.623  18.837  1.00  0.00     0.037 A 
BRANCH  46  60
ATOM     60  C   UNL     1       3.309  -8.494  16.696  1.00  0.00     0.064 A 
ATOM     61  C   UNL     1       4.601  -8.918  17.044  1.00  0.00     0.173 A 
ATOM     62  C   UNL     1       2.326  -9.477  16.507  1.00  0.00     0.173 A 
ATOM     63  F   UNL     1       5.581  -8.020  17.224  1.00  0.00    -0.203 F 
ATOM     64  C   UNL     1       4.904 -10.272  17.163  1.00  0.00     0.198 A 
ATOM     65  C   UNL     1       2.625 -10.829  16.659  1.00  0.00     0.198 A 
ATOM     66  F   UNL     1       1.073  -9.128  16.179  1.00  0.00    -0.203 F 
ATOM     67  F   UNL     1       6.158 -10.654  17.441  1.00  0.00    -0.200 F 
ATOM     68  C   UNL     1       3.915 -11.225  16.978  1.00  0.00     0.200 A 
ATOM     69  F   UNL     1       1.664 -11.749  16.493  1.00  0.00    -0.200 F 
ATOM     70  F   UNL     1       4.207 -12.528  17.098  1.00  0.00    -0.200 F 
ENDBRANCH  46  60
BRANCH  47  71
ATOM     71  C   UNL     1       1.119   1.142  15.225  1.00  0.00     0.064 A 
ATOM     72  C   UNL     1       1.538   2.128  16.131  1.00  0.00     0.173 A 
ATOM     73  C   UNL     1       0.362   1.553  14.118  1.00  0.00     0.173 A 
ATOM     74  F   UNL     1       2.247   1.782  17.215  1.00  0.00    -0.203 F 
ATOM     75  C   UNL     1       1.195   3.466  15.949  1.00  0.00     0.198 A 
ATOM     76  C   UNL     1       0.044   2.895  13.922  1.00  0.00     0.198 A 
ATOM     77  F   UNL     1      -0.059   0.650  13.220  1.00  0.00    -0.203 F 
ATOM     78  F   UNL     1       1.569   4.379  16.855  1.00  0.00    -0.200 F 
ATOM     79  C   UNL     1       0.453   3.849  14.842  1.00  0.00     0.200 A 
ATOM     80  F   UNL     1      -0.661   3.264  12.844  1.00  0.00    -0.200 F 
ATOM     81  F   UNL     1       0.125   5.136  14.666  1.00  0.00    -0.200 F 
ENDBRANCH  47  71
BRANCH  59  82
ATOM     82  C   UNL     1      -0.710  -3.533  20.055  1.00  0.00     0.064 A 
ATOM     83  C   UNL     1      -2.105  -3.433  19.957  1.00  0.00     0.173 A 
ATOM     84  C   UNL     1      -0.143  -3.588  21.338  1.00  0.00     0.173 A 
ATOM     85  F   UNL     1      -2.694  -3.361  18.754  1.00  0.00    -0.203 F 
ATOM     86  C   UNL     1      -2.899  -3.365  21.099  1.00  0.00     0.198 A 
ATOM     87  C   UNL     1      -0.942  -3.551  22.477  1.00  0.00     0.198 A 
ATOM     88  F   UNL     1       1.186  -3.690  21.486  1.00  0.00    -0.203 F 
ATOM     89  F   UNL     1      -4.226  -3.220  20.982  1.00  0.00    -0.200 F 
ATOM     90  C   UNL     1      -2.318  -3.431  22.357  1.00  0.00     0.200 A 
ATOM     91  F   UNL     1      -0.380  -3.630  23.691  1.00  0.00    -0.200 F 
ATOM     92  F   UNL     1      -3.085  -3.373  23.454  1.00  0.00    -0.200 F 
ENDBRANCH  59  82
ENDBRANCH  33  34
ENDBRANCH  25  28
ENDBRANCH  23  24
ENDBRANCH  22  23
ENDBRANCH  21  22
ENDBRANCH   1  21
TORSDOF 16
