REMARK SMILES C=CCN(CC(=O)NCCCCNC(=O)c1ccc(-c2c3nc(c(-c4c(F)c(F)c(F)c(F)c4F)c4ccc([nH]4)c(-c4c(F)c(F)c(F)c(F)c4F)c4nc(c(-c5c(F)c(F)c(F)c(F)c5F)c5ccc2[nH]5)C=C4)C=C3)cc1)S(=O)(=O)c1ccccc1OC
REMARK SMILES IDX 9 1 8 2 6 3 7 4 5 6 4 7 3 8 2 9 1 10 79 11 80 12 81 13 82 14
REMARK SMILES IDX 83 15 87 16 84 17 86 18 85 19 88 20 89 21 10 22 11 23 12 24
REMARK SMILES IDX 13 25 14 26 15 28 16 29 17 30 78 31 18 32 77 33 19 34 20 35
REMARK SMILES IDX 21 36 71 37 22 38 76 39 70 40 72 41 23 42 75 43 69 44 68 45
REMARK SMILES IDX 24 47 56 48 36 49 55 50 37 51 40 52 54 53 73 54 38 55 39 56
REMARK SMILES IDX 53 58 74 59 41 60 25 61 26 62 34 63 27 64 28 65 32 66 35 67
REMARK SMILES IDX 29 68 30 69 33 70 31 71 57 72 58 73 66 74 59 75 60 76 64 77
REMARK SMILES IDX 67 78 61 79 62 80 65 81 63 82 42 83 43 84 51 85 44 86 45 87
REMARK SMILES IDX 49 88 52 89 46 90 47 91 50 92 48 93
REMARK H PARENT 8 5 13 27 72 46 40 57
REMARK Flexibility Score: inf
ROOT
ATOM      1  C   UNL     1      -3.047   1.165   0.404  1.00  0.00     0.116 C 
ENDROOT
BRANCH   1   2
ATOM      2  N   UNL     1      -3.858   0.176  -0.269  1.00  0.00    -0.355 N 
ATOM      3  C   UNL     1      -3.998  -1.158  -0.004  1.00  0.00     0.235 C 
ATOM      4  O   UNL     1      -4.932  -1.758  -0.544  1.00  0.00    -0.274 OA
ATOM      5  H   UNL     1      -4.386   0.512  -1.029  1.00  0.00     0.163 HD
BRANCH   3   6
ATOM      6  C   UNL     1      -3.073  -1.874   0.979  1.00  0.00     0.202 C 
BRANCH   6   7
ATOM      7  N   UNL     1      -1.639  -2.082   0.602  1.00  0.00    -0.185 NA
BRANCH   7   8
ATOM      8  C   UNL     1      -0.729  -1.234   1.393  1.00  0.00     0.130 C 
BRANCH   8   9
ATOM      9  C   UNL     1       0.737  -1.435   1.239  1.00  0.00    -0.018 C 
ATOM     10  C   UNL     1       1.528  -0.595   0.552  1.00  0.00     0.005 C 
ENDBRANCH   8   9
ENDBRANCH   7   8
BRANCH   7  11
ATOM     11  S   UNL     1      -1.305  -2.636  -0.977  1.00  0.00     0.247 S 
ATOM     12  O   UNL     1      -2.298  -2.095  -1.878  1.00  0.00    -0.207 OA
ATOM     13  O   UNL     1       0.080  -2.394  -1.296  1.00  0.00    -0.207 OA
BRANCH  11  14
ATOM     14  C   UNL     1      -1.618  -4.408  -0.877  1.00  0.00     0.124 A 
ATOM     15  C   UNL     1      -3.002  -4.728  -0.825  1.00  0.00     0.026 A 
ATOM     16  C   UNL     1      -0.695  -5.464  -0.864  1.00  0.00     0.138 A 
ATOM     17  C   UNL     1      -3.470  -6.034  -0.685  1.00  0.00     0.002 A 
ATOM     18  C   UNL     1      -1.203  -6.785  -0.756  1.00  0.00     0.048 A 
ATOM     19  C   UNL     1      -2.563  -7.073  -0.652  1.00  0.00     0.004 A 
BRANCH  16  20
ATOM     20  O   UNL     1       0.663  -5.548  -0.863  1.00  0.00    -0.495 OA
ATOM     21  C   UNL     1       1.509  -4.578  -1.438  1.00  0.00     0.278 C 
ENDBRANCH  16  20
ENDBRANCH  11  14
ENDBRANCH   7  11
ENDBRANCH   6   7
ENDBRANCH   3   6
ENDBRANCH   1   2
BRANCH   1  22
ATOM     22  C   UNL     1      -1.764   1.503  -0.356  1.00  0.00     0.023 C 
BRANCH  22  23
ATOM     23  C   UNL     1      -1.899   2.544  -1.454  1.00  0.00     0.023 C 
BRANCH  23  24
ATOM     24  C   UNL     1      -2.459   3.882  -1.001  1.00  0.00     0.116 C 
BRANCH  24  25
ATOM     25  N   UNL     1      -1.701   4.516   0.075  1.00  0.00    -0.352 N 
ATOM     26  C   UNL     1      -1.319   5.835   0.184  1.00  0.00     0.251 C 
ATOM     27  H   UNL     1      -1.429   3.926   0.815  1.00  0.00     0.163 HD
ATOM     28  O   UNL     1      -0.613   6.220   1.109  1.00  0.00    -0.269 OA
BRANCH  26  29
ATOM     29  C   UNL     1      -1.740   6.768  -0.878  1.00  0.00     0.039 A 
ATOM     30  C   UNL     1      -0.767   7.485  -1.575  1.00  0.00     0.014 A 
ATOM     31  C   UNL     1      -3.076   6.790  -1.283  1.00  0.00     0.014 A 
ATOM     32  C   UNL     1      -1.119   8.134  -2.759  1.00  0.00     0.010 A 
ATOM     33  C   UNL     1      -3.398   7.340  -2.515  1.00  0.00     0.010 A 
ATOM     34  C   UNL     1      -2.421   8.006  -3.272  1.00  0.00    -0.014 A 
BRANCH  34  35
ATOM     35  C   UNL     1      -2.791   8.539  -4.607  1.00  0.00     0.031 A 
ATOM     36  C   UNL     1      -3.881   9.565  -4.719  1.00  0.00     0.074 A 
ATOM     37  C   UNL     1      -2.216   8.034  -5.716  1.00  0.00     0.049 A 
ATOM     38  N   UNL     1      -4.437  10.072  -5.789  1.00  0.00    -0.248 NA
ATOM     39  C   UNL     1      -4.449  10.061  -3.455  1.00  0.00     0.031 C 
ATOM     40  C   UNL     1      -1.178   7.002  -5.740  1.00  0.00     0.029 A 
ATOM     41  N   UNL     1      -2.436   8.311  -7.043  1.00  0.00    -0.354 N 
ATOM     42  C   UNL     1      -5.421  10.934  -5.327  1.00  0.00     0.074 A 
ATOM     43  C   UNL     1      -5.440  10.825  -3.885  1.00  0.00     0.031 C 
ATOM     44  C   UNL     1      -0.828   6.758  -7.013  1.00  0.00     0.029 A 
ATOM     45  C   UNL     1      -1.653   7.573  -7.899  1.00  0.00     0.049 A 
ATOM     46  H   UNL     1      -3.092   8.976  -7.353  1.00  0.00     0.167 HD
ATOM     47  C   UNL     1      -6.218  11.766  -6.038  1.00  0.00     0.037 A 
ATOM     48  C   UNL     1      -1.617   7.549  -9.245  1.00  0.00     0.037 A 
ATOM     49  C   UNL     1      -6.186  11.876  -7.472  1.00  0.00     0.049 A 
ATOM     50  C   UNL     1      -2.553   8.441 -10.017  1.00  0.00     0.074 A 
ATOM     51  C   UNL     1      -6.914  12.722  -8.288  1.00  0.00     0.029 A 
ATOM     52  N   UNL     1      -5.386  11.105  -8.305  1.00  0.00    -0.354 N 
ATOM     53  N   UNL     1      -3.431   9.306  -9.569  1.00  0.00    -0.248 NA
ATOM     54  C   UNL     1      -2.497   8.349 -11.482  1.00  0.00     0.031 C 
ATOM     55  C   UNL     1      -6.602  12.420  -9.617  1.00  0.00     0.029 A 
ATOM     56  C   UNL     1      -5.631  11.431  -9.629  1.00  0.00     0.049 A 
ATOM     57  H   UNL     1      -4.741  10.427  -7.999  1.00  0.00     0.167 HD
ATOM     58  C   UNL     1      -4.009   9.881 -10.692  1.00  0.00     0.074 A 
ATOM     59  C   UNL     1      -3.372   9.277 -11.844  1.00  0.00     0.031 C 
ATOM     60  C   UNL     1      -4.982  10.823 -10.764  1.00  0.00     0.037 A 
BRANCH  47  61
ATOM     61  C   UNL     1      -7.189  12.616  -5.269  1.00  0.00     0.064 A 
ATOM     62  C   UNL     1      -6.755  13.638  -4.410  1.00  0.00     0.173 A 
ATOM     63  C   UNL     1      -8.571  12.412  -5.396  1.00  0.00     0.173 A 
ATOM     64  F   UNL     1      -5.443  13.867  -4.241  1.00  0.00    -0.203 F 
ATOM     65  C   UNL     1      -7.664  14.394  -3.676  1.00  0.00     0.198 A 
ATOM     66  C   UNL     1      -9.479  13.196  -4.689  1.00  0.00     0.198 A 
ATOM     67  F   UNL     1      -9.043  11.452  -6.206  1.00  0.00    -0.203 F 
ATOM     68  F   UNL     1      -7.221  15.316  -2.811  1.00  0.00    -0.200 F 
ATOM     69  C   UNL     1      -9.026  14.177  -3.821  1.00  0.00     0.200 A 
ATOM     70  F   UNL     1     -10.796  12.995  -4.842  1.00  0.00    -0.200 F 
ATOM     71  F   UNL     1      -9.901  14.906  -3.115  1.00  0.00    -0.200 F 
ENDBRANCH  47  61
BRANCH  48  72
ATOM     72  C   UNL     1      -0.651   6.665  -9.951  1.00  0.00     0.064 A 
ATOM     73  C   UNL     1       0.413   7.209 -10.685  1.00  0.00     0.173 A 
ATOM     74  C   UNL     1      -0.767   5.268  -9.914  1.00  0.00     0.173 A 
ATOM     75  F   UNL     1       0.555   8.540 -10.770  1.00  0.00    -0.203 F 
ATOM     76  C   UNL     1       1.310   6.391 -11.370  1.00  0.00     0.198 A 
ATOM     77  C   UNL     1       0.149   4.450 -10.573  1.00  0.00     0.198 A 
ATOM     78  F   UNL     1      -1.765   4.695  -9.225  1.00  0.00    -0.203 F 
ATOM     79  F   UNL     1       2.289   6.941 -12.102  1.00  0.00    -0.200 F 
ATOM     80  C   UNL     1       1.181   5.012 -11.307  1.00  0.00     0.200 A 
ATOM     81  F   UNL     1       0.029   3.117 -10.498  1.00  0.00    -0.200 F 
ATOM     82  F   UNL     1       2.047   4.226 -11.961  1.00  0.00    -0.200 F 
ENDBRANCH  48  72
BRANCH  60  83
ATOM     83  C   UNL     1      -5.400  11.286 -12.130  1.00  0.00     0.064 A 
ATOM     84  C   UNL     1      -6.143  10.464 -12.990  1.00  0.00     0.173 A 
ATOM     85  C   UNL     1      -5.109  12.591 -12.556  1.00  0.00     0.173 A 
ATOM     86  F   UNL     1      -6.434   9.203 -12.636  1.00  0.00    -0.203 F 
ATOM     87  C   UNL     1      -6.565  10.927 -14.233  1.00  0.00     0.198 A 
ATOM     88  C   UNL     1      -5.562  13.061 -13.785  1.00  0.00     0.198 A 
ATOM     89  F   UNL     1      -4.407  13.419 -11.768  1.00  0.00    -0.203 F 
ATOM     90  F   UNL     1      -7.239  10.112 -15.056  1.00  0.00    -0.200 F 
ATOM     91  C   UNL     1      -6.284  12.228 -14.625  1.00  0.00     0.200 A 
ATOM     92  F   UNL     1      -5.304  14.324 -14.153  1.00  0.00    -0.200 F 
ATOM     93  F   UNL     1      -6.707  12.677 -15.815  1.00  0.00    -0.200 F 
ENDBRANCH  60  83
ENDBRANCH  34  35
ENDBRANCH  26  29
ENDBRANCH  24  25
ENDBRANCH  23  24
ENDBRANCH  22  23
ENDBRANCH   1  22
TORSDOF 17
