REMARK SMILES O=C(NCCCCNC(=O)[C@@H]1CC(=O)N(c2ccc(Cl)cc2C(=O)c2ccccc2)C1)c1ccc(-c2c3nc(c(-c4c(F)c(F)c(F)c(F)c4F)c4ccc([nH]4)c(-c4c(F)c(F)c(F)c(F)c4F)c4nc(c(-c5c(F)c(F)c(F)c(F)c5F)c5ccc2[nH]5)C=C4)C=C3)cc1
REMARK SMILES IDX 6 1 5 2 4 3 3 4 1 5 2 6 32 8 33 9 94 10 34 11 93 12 35 13
REMARK SMILES IDX 36 14 37 15 87 16 38 17 92 18 86 19 88 20 39 21 91 22 85 23
REMARK SMILES IDX 84 24 40 26 72 27 52 28 71 29 53 30 56 31 70 32 89 33 54 34
REMARK SMILES IDX 55 35 69 37 90 38 57 39 41 40 42 41 50 42 43 43 44 44 48 45
REMARK SMILES IDX 51 46 45 47 46 48 49 49 47 50 73 51 74 52 82 53 75 54 76 55
REMARK SMILES IDX 80 56 83 57 77 58 78 59 81 60 79 61 58 62 59 63 67 64 60 65
REMARK SMILES IDX 61 66 65 67 68 68 62 69 63 70 66 71 64 72 7 73 8 74 9 75
REMARK SMILES IDX 10 77 11 78 12 79 31 80 13 81 15 82 14 83 16 84 17 85 22 86
REMARK SMILES IDX 18 87 21 88 19 89 20 90 23 91 24 92 25 93 26 94 30 95 27 96
REMARK SMILES IDX 29 97 28 98
REMARK H PARENT 3 7 88 25 56 36 8 76
REMARK Flexibility Score: inf
ROOT
ATOM      1  C   UNL     1       3.845   0.419  -3.984  1.00  0.00     0.023 C 
ENDROOT
BRANCH   1   2
ATOM      2  C   UNL     1       4.571  -0.147  -2.760  1.00  0.00     0.023 C 
BRANCH   2   3
ATOM      3  C   UNL     1       4.334   0.587  -1.444  1.00  0.00     0.116 C 
BRANCH   3   4
ATOM      4  N   UNL     1       2.943   0.562  -1.018  1.00  0.00    -0.352 N 
ATOM      5  O   UNL     1       1.109  -0.086   0.111  1.00  0.00    -0.269 OA
ATOM      6  C   UNL     1       2.334  -0.085   0.032  1.00  0.00     0.251 C 
ATOM      7  H   UNL     1       2.335   1.098  -1.576  1.00  0.00     0.163 HD
BRANCH   6   8
ATOM      8  C   UNL     1       3.132  -0.797   1.056  1.00  0.00     0.039 A 
ATOM      9  C   UNL     1       4.309  -0.249   1.562  1.00  0.00     0.014 A 
ATOM     10  C   UNL     1       2.669  -2.020   1.557  1.00  0.00     0.014 A 
ATOM     11  C   UNL     1       5.104  -0.991   2.429  1.00  0.00     0.010 A 
ATOM     12  C   UNL     1       3.417  -2.718   2.513  1.00  0.00     0.010 A 
ATOM     13  C   UNL     1       4.661  -2.226   2.933  1.00  0.00    -0.014 A 
BRANCH  13  14
ATOM     14  C   UNL     1       5.494  -2.922   3.950  1.00  0.00     0.031 A 
ATOM     15  C   UNL     1       6.111  -4.266   3.680  1.00  0.00     0.074 A 
ATOM     16  C   UNL     1       5.745  -2.288   5.113  1.00  0.00     0.049 A 
ATOM     17  N   UNL     1       6.933  -4.961   4.429  1.00  0.00    -0.248 NA
ATOM     18  C   UNL     1       5.759  -4.924   2.413  1.00  0.00     0.031 C 
ATOM     19  C   UNL     1       5.177  -0.995   5.503  1.00  0.00     0.029 A 
ATOM     20  N   UNL     1       6.560  -2.621   6.165  1.00  0.00    -0.354 N 
ATOM     21  C   UNL     1       7.197  -6.130   3.728  1.00  0.00     0.074 A 
ATOM     22  C   UNL     1       6.413  -6.074   2.511  1.00  0.00     0.031 C 
ATOM     23  C   UNL     1       5.703  -0.617   6.675  1.00  0.00     0.029 A 
ATOM     24  C   UNL     1       6.594  -1.667   7.154  1.00  0.00     0.049 A 
ATOM     25  H   UNL     1       7.070  -3.462   6.208  1.00  0.00     0.167 HD
ATOM     26  C   UNL     1       8.029  -7.147   4.061  1.00  0.00     0.037 A 
ATOM     27  C   UNL     1       7.257  -1.643   8.324  1.00  0.00     0.037 A 
ATOM     28  C   UNL     1       8.804  -7.200   5.277  1.00  0.00     0.049 A 
ATOM     29  C   UNL     1       8.157  -2.795   8.674  1.00  0.00     0.074 A 
ATOM     30  C   UNL     1       9.681  -8.185   5.700  1.00  0.00     0.029 A 
ATOM     31  N   UNL     1       8.792  -6.228   6.267  1.00  0.00    -0.354 N 
ATOM     32  N   UNL     1       8.425  -3.875   7.981  1.00  0.00    -0.248 NA
ATOM     33  C   UNL     1       8.850  -2.721   9.966  1.00  0.00     0.031 C 
ATOM     34  C   UNL     1      10.163  -7.831   6.965  1.00  0.00     0.029 A 
ATOM     35  C   UNL     1       9.633  -6.598   7.307  1.00  0.00     0.049 A 
ATOM     36  H   UNL     1       8.265  -5.397   6.236  1.00  0.00     0.167 HD
ATOM     37  C   UNL     1       9.324  -4.603   8.746  1.00  0.00     0.074 A 
ATOM     38  C   UNL     1       9.585  -3.822   9.938  1.00  0.00     0.031 C 
ATOM     39  C   UNL     1       9.877  -5.814   8.490  1.00  0.00     0.037 A 
BRANCH  26  40
ATOM     40  C   UNL     1       8.152  -8.296   3.099  1.00  0.00     0.064 A 
ATOM     41  C   UNL     1       8.810  -8.154   1.867  1.00  0.00     0.173 A 
ATOM     42  C   UNL     1       7.666  -9.569   3.437  1.00  0.00     0.173 A 
ATOM     43  F   UNL     1       9.286  -6.958   1.490  1.00  0.00    -0.203 F 
ATOM     44  C   UNL     1       8.959  -9.238   1.004  1.00  0.00     0.198 A 
ATOM     45  C   UNL     1       7.843 -10.656   2.584  1.00  0.00     0.198 A 
ATOM     46  F   UNL     1       7.035  -9.763   4.605  1.00  0.00    -0.203 F 
ATOM     47  F   UNL     1       9.558  -9.068  -0.183  1.00  0.00    -0.200 F 
ATOM     48  C   UNL     1       8.484 -10.489   1.367  1.00  0.00     0.200 A 
ATOM     49  F   UNL     1       7.396 -11.867   2.944  1.00  0.00    -0.200 F 
ATOM     50  F   UNL     1       8.641 -11.532   0.541  1.00  0.00    -0.200 F 
ENDBRANCH  26  40
BRANCH  27  51
ATOM     51  C   UNL     1       7.078  -0.497   9.254  1.00  0.00     0.064 A 
ATOM     52  C   UNL     1       8.133   0.376   9.549  1.00  0.00     0.173 A 
ATOM     53  C   UNL     1       5.842  -0.258   9.874  1.00  0.00     0.173 A 
ATOM     54  F   UNL     1       9.340   0.181   8.996  1.00  0.00    -0.203 F 
ATOM     55  C   UNL     1       7.967   1.427  10.449  1.00  0.00     0.198 A 
ATOM     56  C   UNL     1       5.667   0.815  10.744  1.00  0.00     0.198 A 
ATOM     57  F   UNL     1       4.797  -1.060   9.621  1.00  0.00    -0.203 F 
ATOM     58  F   UNL     1       9.008   2.212  10.758  1.00  0.00    -0.200 F 
ATOM     59  C   UNL     1       6.733   1.649  11.041  1.00  0.00     0.200 A 
ATOM     60  F   UNL     1       4.466   1.037  11.296  1.00  0.00    -0.200 F 
ATOM     61  F   UNL     1       6.573   2.662  11.903  1.00  0.00    -0.200 F 
ENDBRANCH  27  51
BRANCH  39  62
ATOM     62  C   UNL     1      10.835  -6.352   9.515  1.00  0.00     0.064 A 
ATOM     63  C   UNL     1      10.399  -6.774  10.780  1.00  0.00     0.173 A 
ATOM     64  C   UNL     1      12.205  -6.445   9.229  1.00  0.00     0.173 A 
ATOM     65  F   UNL     1       9.101  -6.690  11.110  1.00  0.00    -0.203 F 
ATOM     66  C   UNL     1      11.304  -7.229  11.735  1.00  0.00     0.198 A 
ATOM     67  C   UNL     1      13.103  -6.933  10.174  1.00  0.00     0.198 A 
ATOM     68  F   UNL     1      12.675  -6.062   8.032  1.00  0.00    -0.203 F 
ATOM     69  F   UNL     1      10.872  -7.562  12.959  1.00  0.00    -0.200 F 
ATOM     70  C   UNL     1      12.654  -7.313  11.430  1.00  0.00     0.200 A 
ATOM     71  F   UNL     1      14.405  -7.027   9.873  1.00  0.00    -0.200 F 
ATOM     72  F   UNL     1      13.525  -7.748  12.351  1.00  0.00    -0.200 F 
ENDBRANCH  39  62
ENDBRANCH  13  14
ENDBRANCH   6   8
ENDBRANCH   3   4
ENDBRANCH   2   3
ENDBRANCH   1   2
BRANCH   1  73
ATOM     73  C   UNL     1       4.025   1.913  -4.232  1.00  0.00     0.116 C 
BRANCH  73  74
ATOM     74  N   UNL     1       5.410   2.338  -4.270  1.00  0.00    -0.356 N 
ATOM     75  C   UNL     1       5.690   3.653  -4.521  1.00  0.00     0.225 C 
ATOM     76  H   UNL     1       6.137   1.691  -4.117  1.00  0.00     0.163 HD
ATOM     77  O   UNL     1       5.954   4.381  -3.569  1.00  0.00    -0.275 OA
BRANCH  75  78
ATOM     78  C   UNL     1       5.532   4.162  -5.941  1.00  0.00     0.107 C 
ATOM     79  C   UNL     1       6.386   3.392  -6.954  1.00  0.00     0.116 C 
ATOM     80  C   UNL     1       6.061   5.587  -6.037  1.00  0.00     0.139 C 
ATOM     81  C   UNL     1       7.629   4.238  -7.113  1.00  0.00     0.227 C 
ATOM     82  N   UNL     1       7.447   5.412  -6.389  1.00  0.00    -0.311 N 
ATOM     83  O   UNL     1       8.607   3.918  -7.776  1.00  0.00    -0.274 OA
BRANCH  82  84
ATOM     84  C   UNL     1       8.328   6.506  -6.435  1.00  0.00     0.055 A 
ATOM     85  C   UNL     1       8.413   7.215  -7.646  1.00  0.00     0.028 A 
ATOM     86  C   UNL     1       9.031   6.973  -5.306  1.00  0.00     0.048 A 
ATOM     87  C   UNL     1       9.149   8.399  -7.729  1.00  0.00     0.023 A 
ATOM     88  C   UNL     1       9.769   8.168  -5.409  1.00  0.00     0.035 A 
ATOM     89  C   UNL     1       9.818   8.874  -6.607  1.00  0.00     0.041 A 
ATOM     90  Cl  UNL     1      10.695  10.351  -6.697  1.00  0.00    -0.084 Cl
BRANCH  86  91
ATOM     91  C   UNL     1       9.027   6.355  -3.951  1.00  0.00     0.195 C 
ATOM     92  O   UNL     1       8.998   7.124  -2.987  1.00  0.00    -0.289 OA
BRANCH  91  93
ATOM     93  C   UNL     1       9.103   4.894  -3.677  1.00  0.00     0.023 A 
ATOM     94  C   UNL     1       8.657   4.442  -2.425  1.00  0.00     0.012 A 
ATOM     95  C   UNL     1       9.615   3.964  -4.584  1.00  0.00     0.012 A 
ATOM     96  C   UNL     1       8.634   3.079  -2.120  1.00  0.00     0.001 A 
ATOM     97  C   UNL     1       9.577   2.596  -4.285  1.00  0.00     0.001 A 
ATOM     98  C   UNL     1       9.076   2.154  -3.061  1.00  0.00     0.000 A 
ENDBRANCH  91  93
ENDBRANCH  86  91
ENDBRANCH  82  84
ENDBRANCH  75  78
ENDBRANCH  73  74
ENDBRANCH   1  73
TORSDOF 14
