REMARK SMILES O=C(NCCCCNC(=O)[C@H](c1ccccc1)N1C(=O)/C(=C\c2ccc(Br)cc2)SC1=S)c1ccc(-c2c3nc(c(-c4c(F)c(F)c(F)c(F)c4F)c4ccc([nH]4)c(-c4c(F)c(F)c(F)c(F)c4F)c4nc(c(-c5c(F)c(F)c(F)c(F)c5F)c5ccc2[nH]5)C=C4)C=C3)cc1
REMARK SMILES IDX 5 1 4 2 3 3 1 4 2 5 33 7 34 8 95 9 35 10 94 11 36 12 37 13
REMARK SMILES IDX 38 14 88 15 39 16 93 17 87 18 89 19 40 20 92 21 86 22 85 23
REMARK SMILES IDX 41 25 73 26 53 27 72 28 54 29 57 30 71 31 90 32 55 33 56 34
REMARK SMILES IDX 70 36 91 37 58 38 42 39 43 40 51 41 44 42 45 43 49 44 52 45
REMARK SMILES IDX 46 46 47 47 50 48 48 49 74 50 75 51 83 52 76 53 77 54 81 55
REMARK SMILES IDX 84 56 78 57 79 58 82 59 80 60 59 61 60 62 68 63 61 64 62 65
REMARK SMILES IDX 66 66 69 67 63 68 64 69 67 70 65 71 6 72 7 73 8 74 9 75
REMARK SMILES IDX 10 77 11 78 18 79 19 80 31 81 20 82 21 83 30 84 32 85 22 86
REMARK SMILES IDX 23 87 24 88 29 89 25 90 28 91 26 92 27 93 12 94 13 95 17 96
REMARK SMILES IDX 14 97 16 98 15 99
REMARK H PARENT 3 6 89 24 57 35 8 76
REMARK Flexibility Score: inf
ROOT
ATOM      1  C   UNL     1       5.828   5.275   1.350  1.00  0.00     0.023 C 
ENDROOT
BRANCH   1   2
ATOM      2  C   UNL     1       6.063   6.721   0.958  1.00  0.00     0.116 C 
BRANCH   2   3
ATOM      3  N   UNL     1       7.292   6.892   0.201  1.00  0.00    -0.352 N 
ATOM      4  O   UNL     1       8.566   7.647  -1.504  1.00  0.00    -0.269 OA
ATOM      5  C   UNL     1       7.517   7.714  -0.873  1.00  0.00     0.251 C 
ATOM      6  H   UNL     1       8.059   6.350   0.496  1.00  0.00     0.163 HD
BRANCH   5   7
ATOM      7  C   UNL     1       6.465   8.666  -1.277  1.00  0.00     0.039 A 
ATOM      8  C   UNL     1       5.829   9.466  -0.322  1.00  0.00     0.014 A 
ATOM      9  C   UNL     1       6.115   8.753  -2.626  1.00  0.00     0.014 A 
ATOM     10  C   UNL     1       4.776  10.287  -0.703  1.00  0.00     0.010 A 
ATOM     11  C   UNL     1       5.105   9.631  -3.018  1.00  0.00     0.010 A 
ATOM     12  C   UNL     1       4.426  10.396  -2.057  1.00  0.00    -0.014 A 
BRANCH  12  13
ATOM     13  C   UNL     1       3.430  11.410  -2.467  1.00  0.00     0.031 A 
ATOM     14  C   UNL     1       2.098  11.011  -3.023  1.00  0.00     0.074 A 
ATOM     15  C   UNL     1       3.767  12.707  -2.345  1.00  0.00     0.049 A 
ATOM     16  N   UNL     1       1.135  11.775  -3.472  1.00  0.00    -0.248 NA
ATOM     17  C   UNL     1       1.806   9.571  -3.094  1.00  0.00     0.031 C 
ATOM     18  C   UNL     1       5.052  13.196  -1.835  1.00  0.00     0.029 A 
ATOM     19  N   UNL     1       3.071  13.849  -2.640  1.00  0.00    -0.354 N 
ATOM     20  C   UNL     1       0.136  10.914  -3.901  1.00  0.00     0.074 A 
ATOM     21  C   UNL     1       0.608   9.566  -3.667  1.00  0.00     0.031 C 
ATOM     22  C   UNL     1       5.045  14.536  -1.837  1.00  0.00     0.029 A 
ATOM     23  C   UNL     1       3.783  14.998  -2.401  1.00  0.00     0.049 A 
ATOM     24  H   UNL     1       2.151  13.846  -2.989  1.00  0.00     0.167 HD
ATOM     25  C   UNL     1      -1.065  11.232  -4.439  1.00  0.00     0.037 A 
ATOM     26  C   UNL     1       3.467  16.283  -2.641  1.00  0.00     0.037 A 
ATOM     27  C   UNL     1      -1.534  12.579  -4.632  1.00  0.00     0.049 A 
ATOM     28  C   UNL     1       2.137  16.598  -3.256  1.00  0.00     0.074 A 
ATOM     29  C   UNL     1      -2.775  13.006  -5.073  1.00  0.00     0.029 A 
ATOM     30  N   UNL     1      -0.776  13.719  -4.405  1.00  0.00    -0.354 N 
ATOM     31  N   UNL     1       1.175  15.778  -3.600  1.00  0.00    -0.248 NA
ATOM     32  C   UNL     1       1.852  18.012  -3.527  1.00  0.00     0.031 C 
ATOM     33  C   UNL     1      -2.752  14.403  -5.156  1.00  0.00     0.029 A 
ATOM     34  C   UNL     1      -1.509  14.847  -4.735  1.00  0.00     0.049 A 
ATOM     35  H   UNL     1       0.146  13.725  -4.061  1.00  0.00     0.167 HD
ATOM     36  C   UNL     1       0.171  16.572  -4.131  1.00  0.00     0.074 A 
ATOM     37  C   UNL     1       0.631  17.944  -4.039  1.00  0.00     0.031 C 
ATOM     38  C   UNL     1      -1.021  16.199  -4.654  1.00  0.00     0.037 A 
BRANCH  25  39
ATOM     39  C   UNL     1      -1.962  10.113  -4.872  1.00  0.00     0.064 A 
ATOM     40  C   UNL     1      -2.689   9.350  -3.948  1.00  0.00     0.173 A 
ATOM     41  C   UNL     1      -2.158   9.856  -6.238  1.00  0.00     0.173 A 
ATOM     42  F   UNL     1      -2.530   9.553  -2.632  1.00  0.00    -0.203 F 
ATOM     43  C   UNL     1      -3.577   8.365  -4.376  1.00  0.00     0.198 A 
ATOM     44  C   UNL     1      -3.059   8.883  -6.662  1.00  0.00     0.198 A 
ATOM     45  F   UNL     1      -1.488  10.562  -7.161  1.00  0.00    -0.203 F 
ATOM     46  F   UNL     1      -4.249   7.635  -3.476  1.00  0.00    -0.200 F 
ATOM     47  C   UNL     1      -3.767   8.138  -5.731  1.00  0.00     0.200 A 
ATOM     48  F   UNL     1      -3.247   8.671  -7.972  1.00  0.00    -0.200 F 
ATOM     49  F   UNL     1      -4.632   7.200  -6.141  1.00  0.00    -0.200 F 
ENDBRANCH  25  39
BRANCH  26  50
ATOM     50  C   UNL     1       4.451  17.348  -2.329  1.00  0.00     0.064 A 
ATOM     51  C   UNL     1       4.243  18.233  -1.264  1.00  0.00     0.173 A 
ATOM     52  C   UNL     1       5.633  17.481  -3.073  1.00  0.00     0.173 A 
ATOM     53  F   UNL     1       3.119  18.153  -0.537  1.00  0.00    -0.203 F 
ATOM     54  C   UNL     1       5.180  19.217  -0.958  1.00  0.00     0.198 A 
ATOM     55  C   UNL     1       6.580  18.448  -2.750  1.00  0.00     0.198 A 
ATOM     56  F   UNL     1       5.878  16.652  -4.098  1.00  0.00    -0.203 F 
ATOM     57  F   UNL     1       4.946  20.071   0.048  1.00  0.00    -0.200 F 
ATOM     58  C   UNL     1       6.351  19.320  -1.696  1.00  0.00     0.200 A 
ATOM     59  F   UNL     1       7.717  18.533  -3.455  1.00  0.00    -0.200 F 
ATOM     60  F   UNL     1       7.256  20.260  -1.393  1.00  0.00    -0.200 F 
ENDBRANCH  26  50
BRANCH  38  61
ATOM     61  C   UNL     1      -1.900  17.292  -5.177  1.00  0.00     0.064 A 
ATOM     62  C   UNL     1      -1.628  17.913  -6.405  1.00  0.00     0.173 A 
ATOM     63  C   UNL     1      -3.035  17.702  -4.464  1.00  0.00     0.173 A 
ATOM     64  F   UNL     1      -0.541  17.567  -7.110  1.00  0.00    -0.203 F 
ATOM     65  C   UNL     1      -2.456  18.919  -6.893  1.00  0.00     0.198 A 
ATOM     66  C   UNL     1      -3.873  18.692  -4.966  1.00  0.00     0.198 A 
ATOM     67  F   UNL     1      -3.334  17.135  -3.286  1.00  0.00    -0.203 F 
ATOM     68  F   UNL     1      -2.159  19.526  -8.050  1.00  0.00    -0.200 F 
ATOM     69  C   UNL     1      -3.581  19.302  -6.177  1.00  0.00     0.200 A 
ATOM     70  F   UNL     1      -4.963  19.058  -4.278  1.00  0.00    -0.200 F 
ATOM     71  F   UNL     1      -4.380  20.268  -6.651  1.00  0.00    -0.200 F 
ENDBRANCH  38  61
ENDBRANCH  12  13
ENDBRANCH   5   7
ENDBRANCH   2   3
ENDBRANCH   1   2
BRANCH   1  72
ATOM     72  C   UNL     1       6.879   4.719   2.310  1.00  0.00     0.023 C 
BRANCH  72  73
ATOM     73  C   UNL     1       6.848   5.331   3.717  1.00  0.00     0.116 C 
BRANCH  73  74
ATOM     74  N   UNL     1       5.598   5.013   4.384  1.00  0.00    -0.354 N 
ATOM     75  C   UNL     1       5.267   3.852   5.034  1.00  0.00     0.247 C 
ATOM     76  H   UNL     1       4.907   5.714   4.367  1.00  0.00     0.163 HD
ATOM     77  O   UNL     1       4.077   3.524   5.010  1.00  0.00    -0.272 OA
BRANCH  75  78
ATOM     78  C   UNL     1       6.364   3.000   5.761  1.00  0.00     0.211 C 
BRANCH  78  79
ATOM     79  N   UNL     1       5.718   2.027   6.680  1.00  0.00    -0.276 N 
ATOM     80  C   UNL     1       6.323   0.815   6.934  1.00  0.00     0.267 C 
ATOM     81  C   UNL     1       4.788   2.329   7.650  1.00  0.00     0.149 C 
ATOM     82  O   UNL     1       7.521   0.583   6.840  1.00  0.00    -0.268 OA
ATOM     83  C   UNL     1       5.356  -0.117   7.565  1.00  0.00     0.081 C 
ATOM     84  S   UNL     1       4.107   0.821   8.287  1.00  0.00    -0.054 SA
ATOM     85  S   UNL     1       4.355   3.821   8.263  1.00  0.00    -0.052 S 
ATOM     86  C   UNL     1       5.404  -1.458   7.553  1.00  0.00     0.029 C 
BRANCH  86  87
ATOM     87  C   UNL     1       6.457  -2.247   6.898  1.00  0.00    -0.024 A 
ATOM     88  C   UNL     1       6.157  -3.020   5.770  1.00  0.00     0.009 A 
ATOM     89  C   UNL     1       7.773  -2.222   7.376  1.00  0.00     0.009 A 
ATOM     90  C   UNL     1       7.170  -3.722   5.106  1.00  0.00     0.016 A 
ATOM     91  C   UNL     1       8.789  -2.906   6.705  1.00  0.00     0.016 A 
ATOM     92  C   UNL     1       8.483  -3.650   5.570  1.00  0.00     0.018 A 
ATOM     93  Br  UNL     1       9.861  -4.556   4.646  1.00  0.00    -0.051 Br
ENDBRANCH  86  87
ENDBRANCH  78  79
BRANCH  78  94
ATOM     94  C   UNL     1       7.217   2.299   4.695  1.00  0.00    -0.016 A 
ATOM     95  C   UNL     1       6.624   1.471   3.723  1.00  0.00     0.006 A 
ATOM     96  C   UNL     1       8.615   2.448   4.695  1.00  0.00     0.006 A 
ATOM     97  C   UNL     1       7.407   0.854   2.747  1.00  0.00     0.000 A 
ATOM     98  C   UNL     1       9.393   1.824   3.720  1.00  0.00     0.000 A 
ATOM     99  C   UNL     1       8.788   1.037   2.742  1.00  0.00     0.000 A 
ENDBRANCH  78  94
ENDBRANCH  75  78
ENDBRANCH  73  74
ENDBRANCH  72  73
ENDBRANCH   1  72
TORSDOF 14
