REMARK SMILES CC(C)(C)[NH2+]Cc1cc(C(=O)NCCCCNC(=O)c2ccc(-c3c4nc(c(-c5c(F)c(F)c(F)c(F)c5F)c5ccc([nH]5)c(-c5c(F)c(F)c(F)c(F)c5F)c5nc(c(-c6c(F)c(F)c(F)c(F)c6F)c6ccc3[nH]6)C=C5)C=C4)cc2)cs1
REMARK SMILES IDX 14 1 13 2 12 3 10 4 11 5 9 7 7 8 8 9 84 10 83 11 6 12 5 13
REMARK SMILES IDX 2 16 1 17 3 18 4 19 15 20 16 21 17 22 18 23 19 25 20 26
REMARK SMILES IDX 21 27 82 28 22 29 81 30 23 31 24 32 25 33 75 34 26 35 80 36
REMARK SMILES IDX 74 37 76 38 27 39 79 40 73 41 72 42 28 44 60 45 40 46 59 47
REMARK SMILES IDX 41 48 44 49 58 50 77 51 42 52 43 53 57 55 78 56 45 57 29 58
REMARK SMILES IDX 30 59 38 60 31 61 32 62 36 63 39 64 33 65 34 66 37 67 35 68
REMARK SMILES IDX 61 69 62 70 70 71 63 72 64 73 68 74 71 75 65 76 66 77 69 78
REMARK SMILES IDX 67 79 46 80 47 81 55 82 48 83 49 84 53 85 56 86 50 87 51 88
REMARK SMILES IDX 54 89 52 90
REMARK H PARENT 12 6 5 14 5 15 17 24 76 43 44 54
REMARK Flexibility Score: inf
ROOT
ATOM      1  C   UNL     1      -0.836   4.327   4.136  1.00  0.00     0.023 C 
ENDROOT
BRANCH   1   2
ATOM      2  C   UNL     1       0.125   4.372   2.955  1.00  0.00     0.116 C 
BRANCH   2   3
ATOM      3  N   UNL     1       1.201   5.324   3.158  1.00  0.00    -0.352 N 
ATOM      4  C   UNL     1       2.569   5.172   3.103  1.00  0.00     0.252 C 
ATOM      5  O   UNL     1       3.256   6.190   3.126  1.00  0.00    -0.269 OA
ATOM      6  H   UNL     1       0.902   6.237   3.372  1.00  0.00     0.163 HD
BRANCH   4   7
ATOM      7  C   UNL     1       3.159   3.846   2.924  1.00  0.00     0.051 A 
ATOM      8  C   UNL     1       3.227   1.536   2.643  1.00  0.00     0.059 A 
ATOM      9  C   UNL     1       2.683   2.573   3.378  1.00  0.00     0.035 A 
ATOM     10  S   UNL     1       4.701   2.029   1.927  1.00  0.00    -0.142 S 
ATOM     11  C   UNL     1       4.365   3.672   2.264  1.00  0.00     0.079 A 
BRANCH   8  12
ATOM     12  C   UNL     1       2.691   0.151   2.433  1.00  0.00     0.308 C 
BRANCH  12  13
ATOM     13  N   UNL     1       1.239   0.136   2.210  1.00  0.00    -0.338 N 
ATOM     14  H   UNL     1       0.914  -0.803   2.440  1.00  0.00     0.347 HD
ATOM     15  H   UNL     1       0.901   0.901   2.794  1.00  0.00     0.347 HD
BRANCH  13  16
ATOM     16  C   UNL     1       0.702   0.460   0.875  1.00  0.00     0.088 C 
ATOM     17  C   UNL     1       1.090  -0.616  -0.150  1.00  0.00     0.078 C 
ATOM     18  C   UNL     1       1.097   1.829   0.299  1.00  0.00     0.078 C 
ATOM     19  C   UNL     1      -0.835   0.449   1.040  1.00  0.00     0.078 C 
ENDBRANCH  13  16
ENDBRANCH  12  13
ENDBRANCH   8  12
ENDBRANCH   4   7
ENDBRANCH   2   3
ENDBRANCH   1   2
BRANCH   1  20
ATOM     20  C   UNL     1      -1.835   5.479   4.157  1.00  0.00     0.023 C 
BRANCH  20  21
ATOM     21  C   UNL     1      -2.746   5.558   2.936  1.00  0.00     0.116 C 
BRANCH  21  22
ATOM     22  N   UNL     1      -3.576   4.375   2.754  1.00  0.00    -0.352 N 
ATOM     23  C   UNL     1      -4.938   4.295   2.576  1.00  0.00     0.251 C 
ATOM     24  H   UNL     1      -3.097   3.514   2.759  1.00  0.00     0.163 HD
ATOM     25  O   UNL     1      -5.504   3.208   2.561  1.00  0.00    -0.269 OA
BRANCH  23  26
ATOM     26  C   UNL     1      -5.719   5.542   2.444  1.00  0.00     0.039 A 
ATOM     27  C   UNL     1      -6.851   5.720   3.240  1.00  0.00     0.014 A 
ATOM     28  C   UNL     1      -5.292   6.556   1.583  1.00  0.00     0.014 A 
ATOM     29  C   UNL     1      -7.506   6.953   3.236  1.00  0.00     0.010 A 
ATOM     30  C   UNL     1      -5.887   7.810   1.651  1.00  0.00     0.010 A 
ATOM     31  C   UNL     1      -7.000   8.024   2.480  1.00  0.00    -0.014 A 
BRANCH  31  32
ATOM     32  C   UNL     1      -7.612   9.376   2.546  1.00  0.00     0.031 A 
ATOM     33  C   UNL     1      -8.197  10.000   1.309  1.00  0.00     0.074 A 
ATOM     34  C   UNL     1      -7.579  10.071   3.701  1.00  0.00     0.049 A 
ATOM     35  N   UNL     1      -8.708  11.194   1.145  1.00  0.00    -0.248 NA
ATOM     36  C   UNL     1      -8.177   9.184   0.085  1.00  0.00     0.031 C 
ATOM     37  C   UNL     1      -6.994   9.598   4.957  1.00  0.00     0.029 A 
ATOM     38  N   UNL     1      -8.039  11.329   4.004  1.00  0.00    -0.354 N 
ATOM     39  C   UNL     1      -9.055  11.274  -0.197  1.00  0.00     0.074 A 
ATOM     40  C   UNL     1      -8.640  10.036  -0.817  1.00  0.00     0.031 C 
ATOM     41  C   UNL     1      -7.155  10.540   5.900  1.00  0.00     0.029 A 
ATOM     42  C   UNL     1      -7.812  11.701   5.307  1.00  0.00     0.049 A 
ATOM     43  H   UNL     1      -8.490  11.909   3.349  1.00  0.00     0.167 HD
ATOM     44  C   UNL     1      -9.688  12.279  -0.847  1.00  0.00     0.037 A 
ATOM     45  C   UNL     1      -8.094  12.852   5.949  1.00  0.00     0.037 A 
ATOM     46  C   UNL     1     -10.119  13.502  -0.221  1.00  0.00     0.049 A 
ATOM     47  C   UNL     1      -8.783  13.960   5.197  1.00  0.00     0.074 A 
ATOM     48  C   UNL     1     -10.820  14.556  -0.780  1.00  0.00     0.029 A 
ATOM     49  N   UNL     1      -9.885  13.836   1.105  1.00  0.00    -0.354 N 
ATOM     50  N   UNL     1      -9.174  13.995   3.946  1.00  0.00    -0.248 NA
ATOM     51  C   UNL     1      -9.077  15.188   5.950  1.00  0.00     0.031 C 
ATOM     52  C   UNL     1     -10.958  15.552   0.190  1.00  0.00     0.029 A 
ATOM     53  C   UNL     1     -10.404  15.092   1.374  1.00  0.00     0.049 A 
ATOM     54  H   UNL     1      -9.418  13.265   1.758  1.00  0.00     0.167 HD
ATOM     55  C   UNL     1      -9.789  15.228   3.772  1.00  0.00     0.074 A 
ATOM     56  C   UNL     1      -9.731  15.906   5.050  1.00  0.00     0.031 C 
ATOM     57  C   UNL     1     -10.351  15.750   2.655  1.00  0.00     0.037 A 
BRANCH  44  58
ATOM     58  C   UNL     1      -9.957  12.098  -2.314  1.00  0.00     0.064 A 
ATOM     59  C   UNL     1     -10.878  11.149  -2.784  1.00  0.00     0.173 A 
ATOM     60  C   UNL     1      -9.315  12.911  -3.261  1.00  0.00     0.173 A 
ATOM     61  F   UNL     1     -11.512  10.339  -1.923  1.00  0.00    -0.203 F 
ATOM     62  C   UNL     1     -11.123  10.999  -4.147  1.00  0.00     0.198 A 
ATOM     63  C   UNL     1      -9.588  12.782  -4.620  1.00  0.00     0.198 A 
ATOM     64  F   UNL     1      -8.428  13.838  -2.868  1.00  0.00    -0.203 F 
ATOM     65  F   UNL     1     -11.966  10.049  -4.574  1.00  0.00    -0.200 F 
ATOM     66  C   UNL     1     -10.484  11.821  -5.063  1.00  0.00     0.200 A 
ATOM     67  F   UNL     1      -8.981  13.588  -5.503  1.00  0.00    -0.200 F 
ATOM     68  F   UNL     1     -10.728  11.682  -6.373  1.00  0.00    -0.200 F 
ENDBRANCH  44  58
BRANCH  45  69
ATOM     69  C   UNL     1      -7.743  13.012   7.386  1.00  0.00     0.064 A 
ATOM     70  C   UNL     1      -8.742  13.111   8.365  1.00  0.00     0.173 A 
ATOM     71  C   UNL     1      -6.408  13.087   7.809  1.00  0.00     0.173 A 
ATOM     72  F   UNL     1     -10.034  13.065   8.010  1.00  0.00    -0.203 F 
ATOM     73  C   UNL     1      -8.419  13.307   9.707  1.00  0.00     0.198 A 
ATOM     74  C   UNL     1      -6.086  13.249   9.155  1.00  0.00     0.198 A 
ATOM     75  F   UNL     1      -5.413  12.992   6.914  1.00  0.00    -0.203 F 
ATOM     76  F   UNL     1      -9.395  13.454  10.613  1.00  0.00    -0.200 F 
ATOM     77  C   UNL     1      -7.092  13.370  10.101  1.00  0.00     0.200 A 
ATOM     78  F   UNL     1      -4.801  13.293   9.534  1.00  0.00    -0.200 F 
ATOM     79  F   UNL     1      -6.782  13.556  11.392  1.00  0.00    -0.200 F 
ENDBRANCH  45  69
BRANCH  57  80
ATOM     80  C   UNL     1     -10.995  17.103   2.771  1.00  0.00     0.064 A 
ATOM     81  C   UNL     1     -10.240  18.271   2.946  1.00  0.00     0.173 A 
ATOM     82  C   UNL     1     -12.389  17.233   2.659  1.00  0.00     0.173 A 
ATOM     83  F   UNL     1      -8.906  18.200   3.073  1.00  0.00    -0.203 F 
ATOM     84  C   UNL     1     -10.857  19.516   3.034  1.00  0.00     0.198 A 
ATOM     85  C   UNL     1     -12.999  18.483   2.711  1.00  0.00     0.198 A 
ATOM     86  F   UNL     1     -13.158  16.148   2.481  1.00  0.00    -0.203 F 
ATOM     87  F   UNL     1     -10.120  20.613   3.255  1.00  0.00    -0.200 F 
ATOM     88  C   UNL     1     -12.234  19.622   2.907  1.00  0.00     0.200 A 
ATOM     89  F   UNL     1     -14.328  18.584   2.570  1.00  0.00    -0.200 F 
ATOM     90  F   UNL     1     -12.825  20.823   2.981  1.00  0.00    -0.200 F 
ENDBRANCH  57  80
ENDBRANCH  31  32
ENDBRANCH  23  26
ENDBRANCH  21  22
ENDBRANCH  20  21
ENDBRANCH   1  20
TORSDOF 14
