REMARK SMILES Nc1cc(C(=O)NCCCCNC(=O)c2ccc(-c3c4nc(c(-c5c(F)c(F)c(F)c(F)c5F)c5ccc([nH]5)c(-c5c(F)c(F)c(F)c(F)c5F)c5nc(c(-c6c(F)c(F)c(F)c(F)c6F)c6ccc3[nH]6)C=C5)C=C4)cc2)c(-c2ccc(F)cc2O)cn1
REMARK SMILES IDX 9 1 8 2 7 3 5 4 6 5 4 7 2 8 3 9 88 10 87 11 78 12 1 13 79 16
REMARK SMILES IDX 80 17 85 18 81 19 84 20 82 21 83 22 86 23 10 25 11 26 12 27
REMARK SMILES IDX 13 28 14 30 15 31 16 32 77 33 17 34 76 35 18 36 19 37 20 38
REMARK SMILES IDX 70 39 21 40 75 41 69 42 71 43 22 44 74 45 68 46 67 47 23 49
REMARK SMILES IDX 55 50 35 51 54 52 36 53 39 54 53 55 72 56 37 57 38 58 52 60
REMARK SMILES IDX 73 61 40 62 24 63 25 64 33 65 26 66 27 67 31 68 34 69 28 70
REMARK SMILES IDX 29 71 32 72 30 73 56 74 57 75 65 76 58 77 59 78 63 79 66 80
REMARK SMILES IDX 60 81 61 82 64 83 62 84 41 85 42 86 50 87 43 88 44 89 48 90
REMARK SMILES IDX 51 91 45 92 46 93 49 94 47 95
REMARK H PARENT 7 6 1 14 1 15 86 24 12 29 71 48 39 59
REMARK Flexibility Score: inf
ROOT
ATOM      1  C   UNL     1       0.626  -4.442   0.982  1.00  0.00     0.023 C 
ENDROOT
BRANCH   1   2
ATOM      2  C   UNL     1       0.113  -3.993  -0.390  1.00  0.00     0.116 C 
BRANCH   2   3
ATOM      3  N   UNL     1      -1.256  -3.537  -0.275  1.00  0.00    -0.352 N 
ATOM      4  C   UNL     1      -1.840  -2.346   0.075  1.00  0.00     0.252 C 
ATOM      5  O   UNL     1      -3.034  -2.437   0.367  1.00  0.00    -0.269 OA
ATOM      6  H   UNL     1      -1.913  -4.236  -0.497  1.00  0.00     0.163 HD
BRANCH   4   7
ATOM      7  C   UNL     1      -1.149  -1.013   0.122  1.00  0.00     0.052 A 
ATOM      8  C   UNL     1       0.878   0.306   0.248  1.00  0.00     0.124 A 
ATOM      9  C   UNL     1       0.237  -0.920   0.310  1.00  0.00     0.061 A 
ATOM     10  N   UNL     1       0.215   1.451   0.092  1.00  0.00    -0.239 NA
ATOM     11  C   UNL     1      -1.131   1.372  -0.001  1.00  0.00     0.123 A 
ATOM     12  C   UNL     1      -1.884   0.190   0.003  1.00  0.00     0.017 A 
BRANCH   8  13
ATOM     13  N   UNL     1       2.246   0.399   0.408  1.00  0.00    -0.384 N 
ATOM     14  H   UNL     1       2.784  -0.417   0.527  1.00  0.00     0.158 HD
ATOM     15  H   UNL     1       2.683   1.280   0.403  1.00  0.00     0.158 HD
ENDBRANCH   8  13
BRANCH  12  16
ATOM     16  C   UNL     1      -3.355   0.333  -0.077  1.00  0.00     0.026 A 
ATOM     17  C   UNL     1      -3.956   0.885  -1.224  1.00  0.00     0.015 A 
ATOM     18  C   UNL     1      -4.204   0.028   1.006  1.00  0.00     0.126 A 
ATOM     19  C   UNL     1      -5.337   1.107  -1.276  1.00  0.00     0.040 A 
ATOM     20  C   UNL     1      -5.577   0.249   0.967  1.00  0.00     0.086 A 
ATOM     21  C   UNL     1      -6.132   0.786  -0.181  1.00  0.00     0.126 A 
ATOM     22  F   UNL     1      -7.454   0.992  -0.242  1.00  0.00    -0.207 F 
BRANCH  18  23
ATOM     23  O   UNL     1      -3.714  -0.580   2.131  1.00  0.00    -0.507 OA
ATOM     24  H   UNL     1      -2.796  -0.753   2.208  1.00  0.00     0.293 HD
ENDBRANCH  18  23
ENDBRANCH  12  16
ENDBRANCH   4   7
ENDBRANCH   2   3
ENDBRANCH   1   2
BRANCH   1  25
ATOM     25  C   UNL     1       0.059  -5.788   1.457  1.00  0.00     0.023 C 
BRANCH  25  26
ATOM     26  C   UNL     1       0.365  -6.975   0.549  1.00  0.00     0.116 C 
BRANCH  26  27
ATOM     27  N   UNL     1       1.784  -7.140   0.282  1.00  0.00    -0.352 N 
ATOM     28  C   UNL     1       2.479  -8.293   0.010  1.00  0.00     0.251 C 
ATOM     29  H   UNL     1       2.320  -6.314   0.298  1.00  0.00     0.163 HD
ATOM     30  O   UNL     1       3.698  -8.272  -0.096  1.00  0.00    -0.269 OA
BRANCH  28  31
ATOM     31  C   UNL     1       1.745  -9.569  -0.110  1.00  0.00     0.039 A 
ATOM     32  C   UNL     1       2.198 -10.670   0.621  1.00  0.00     0.014 A 
ATOM     33  C   UNL     1       0.610  -9.671  -0.917  1.00  0.00     0.014 A 
ATOM     34  C   UNL     1       1.472 -11.861   0.592  1.00  0.00     0.010 A 
ATOM     35  C   UNL     1      -0.146 -10.839  -0.897  1.00  0.00     0.010 A 
ATOM     36  C   UNL     1       0.277 -11.943  -0.140  1.00  0.00    -0.014 A 
BRANCH  36  37
ATOM     37  C   UNL     1      -0.551 -13.173  -0.119  1.00  0.00     0.031 A 
ATOM     38  C   UNL     1      -0.730 -13.983  -1.371  1.00  0.00     0.074 A 
ATOM     39  C   UNL     1      -1.194 -13.520   1.013  1.00  0.00     0.049 A 
ATOM     40  N   UNL     1      -1.471 -15.043  -1.572  1.00  0.00    -0.248 NA
ATOM     41  C   UNL     1       0.000 -13.525  -2.563  1.00  0.00     0.031 C 
ATOM     42  C   UNL     1      -1.136 -12.785   2.278  1.00  0.00     0.029 A 
ATOM     43  N   UNL     1      -2.033 -14.572   1.279  1.00  0.00    -0.354 N 
ATOM     44  C   UNL     1      -1.307 -15.368  -2.911  1.00  0.00     0.074 A 
ATOM     45  C   UNL     1      -0.436 -14.367  -3.488  1.00  0.00     0.031 C 
ATOM     46  C   UNL     1      -1.892 -13.417   3.189  1.00  0.00     0.029 A 
ATOM     47  C   UNL     1      -2.514 -14.582   2.565  1.00  0.00     0.049 A 
ATOM     48  H   UNL     1      -2.268 -15.256   0.611  1.00  0.00     0.167 HD
ATOM     49  C   UNL     1      -1.819 -16.422  -3.591  1.00  0.00     0.037 A 
ATOM     50  C   UNL     1      -3.365 -15.431   3.170  1.00  0.00     0.037 A 
ATOM     51  C   UNL     1      -2.662 -17.431  -3.006  1.00  0.00     0.049 A 
ATOM     52  C   UNL     1      -3.916 -16.595   2.390  1.00  0.00     0.074 A 
ATOM     53  C   UNL     1      -3.183 -18.569  -3.597  1.00  0.00     0.029 A 
ATOM     54  N   UNL     1      -3.106 -17.422  -1.692  1.00  0.00    -0.354 N 
ATOM     55  N   UNL     1      -3.700 -16.931   1.142  1.00  0.00    -0.248 NA
ATOM     56  C   UNL     1      -4.823 -17.502   3.108  1.00  0.00     0.031 C 
ATOM     57  C   UNL     1      -3.974 -19.229  -2.650  1.00  0.00     0.029 A 
ATOM     58  C   UNL     1      -3.910 -18.526  -1.458  1.00  0.00     0.049 A 
ATOM     59  H   UNL     1      -2.884 -16.733  -1.025  1.00  0.00     0.167 HD
ATOM     60  C   UNL     1      -4.420 -18.099   0.932  1.00  0.00     0.074 A 
ATOM     61  C   UNL     1      -5.067 -18.423   2.186  1.00  0.00     0.031 C 
ATOM     62  C   UNL     1      -4.536 -18.837  -0.199  1.00  0.00     0.037 A 
BRANCH  49  63
ATOM     63  C   UNL     1      -1.472 -16.543  -5.046  1.00  0.00     0.064 A 
ATOM     64  C   UNL     1      -0.179 -16.891  -5.465  1.00  0.00     0.173 A 
ATOM     65  C   UNL     1      -2.452 -16.349  -6.031  1.00  0.00     0.173 A 
ATOM     66  F   UNL     1       0.796 -17.074  -4.562  1.00  0.00    -0.203 F 
ATOM     67  C   UNL     1       0.126 -17.017  -6.817  1.00  0.00     0.198 A 
ATOM     68  C   UNL     1      -2.150 -16.504  -7.382  1.00  0.00     0.198 A 
ATOM     69  F   UNL     1      -3.705 -16.019  -5.684  1.00  0.00    -0.203 F 
ATOM     70  F   UNL     1       1.379 -17.307  -7.195  1.00  0.00    -0.200 F 
ATOM     71  C   UNL     1      -0.860 -16.831  -7.774  1.00  0.00     0.200 A 
ATOM     72  F   UNL     1      -3.106 -16.334  -8.305  1.00  0.00    -0.200 F 
ATOM     73  F   UNL     1      -0.566 -16.960  -9.075  1.00  0.00    -0.200 F 
ENDBRANCH  49  63
BRANCH  50  74
ATOM     74  C   UNL     1      -3.732 -15.229   4.595  1.00  0.00     0.064 A 
ATOM     75  C   UNL     1      -3.281 -16.114   5.585  1.00  0.00     0.173 A 
ATOM     76  C   UNL     1      -4.548 -14.161   4.996  1.00  0.00     0.173 A 
ATOM     77  F   UNL     1      -2.516 -17.162   5.247  1.00  0.00    -0.203 F 
ATOM     78  C   UNL     1      -3.651 -15.951   6.918  1.00  0.00     0.198 A 
ATOM     79  C   UNL     1      -4.895 -13.984   6.334  1.00  0.00     0.198 A 
ATOM     80  F   UNL     1      -5.001 -13.284   4.088  1.00  0.00    -0.203 F 
ATOM     81  F   UNL     1      -3.245 -16.839   7.836  1.00  0.00    -0.200 F 
ATOM     82  C   UNL     1      -4.454 -14.884   7.292  1.00  0.00     0.200 A 
ATOM     83  F   UNL     1      -5.659 -12.944   6.693  1.00  0.00    -0.200 F 
ATOM     84  F   UNL     1      -4.809 -14.728   8.575  1.00  0.00    -0.200 F 
ENDBRANCH  50  74
BRANCH  62  85
ATOM     85  C   UNL     1      -5.365 -20.085  -0.122  1.00  0.00     0.064 A 
ATOM     86  C   UNL     1      -6.764 -20.033  -0.044  1.00  0.00     0.173 A 
ATOM     87  C   UNL     1      -4.754 -21.347  -0.168  1.00  0.00     0.173 A 
ATOM     88  F   UNL     1      -7.394 -18.849   0.018  1.00  0.00    -0.203 F 
ATOM     89  C   UNL     1      -7.521 -21.200   0.010  1.00  0.00     0.198 A 
ATOM     90  C   UNL     1      -5.515 -22.512  -0.142  1.00  0.00     0.198 A 
ATOM     91  F   UNL     1      -3.419 -21.449  -0.249  1.00  0.00    -0.203 F 
ATOM     92  F   UNL     1      -8.853 -21.128   0.129  1.00  0.00    -0.200 F 
ATOM     93  C   UNL     1      -6.896 -22.438  -0.047  1.00  0.00     0.200 A 
ATOM     94  F   UNL     1      -4.911 -23.706  -0.210  1.00  0.00    -0.200 F 
ATOM     95  F   UNL     1      -7.627 -23.561  -0.003  1.00  0.00    -0.200 F 
ENDBRANCH  62  85
ENDBRANCH  36  37
ENDBRANCH  28  31
ENDBRANCH  26  27
ENDBRANCH  25  26
ENDBRANCH   1  25
TORSDOF 14
