REMARK SMILES CCCCN(c1ccccc1C(=O)NCCCCNC(=O)c1ccc(-c2c3nc(c(-c4c(F)c(F)c(F)c(F)c4F)c4ccc([nH]4)c(-c4c(F)c(F)c(F)c(F)c4F)c4nc(c(-c5c(F)c(F)c(F)c(F)c5F)c5ccc2[nH]5)C=C4)C=C3)cc1)S(=O)(=O)c1ccc2c(c1)oc(=O)n2C
REMARK SMILES IDX 15 1 14 2 12 3 13 4 11 6 6 7 7 8 8 9 10 10 9 11 5 12 4 13
REMARK SMILES IDX 3 14 2 15 1 16 85 17 86 18 87 19 88 20 89 21 93 22 90 23
REMARK SMILES IDX 92 24 91 25 94 26 97 27 95 28 98 29 96 30 16 31 17 32 18 33
REMARK SMILES IDX 19 34 20 35 21 37 22 38 23 39 84 40 24 41 83 42 25 43 26 44
REMARK SMILES IDX 27 45 77 46 28 47 82 48 76 49 78 50 29 51 81 52 75 53 74 54
REMARK SMILES IDX 30 56 62 57 42 58 61 59 43 60 46 61 60 62 79 63 44 64 45 65
REMARK SMILES IDX 59 67 80 68 47 69 31 70 32 71 40 72 33 73 34 74 38 75 41 76
REMARK SMILES IDX 35 77 36 78 39 79 37 80 63 81 64 82 72 83 65 84 66 85 70 86
REMARK SMILES IDX 73 87 67 88 68 89 71 90 69 91 48 92 49 93 57 94 50 95 51 96
REMARK SMILES IDX 55 97 58 98 52 99 53 100 56 101 54 102
REMARK H PARENT 14 5 19 36 78 55 46 66
REMARK Flexibility Score: inf
ROOT
ATOM      1  C   UNL     1       0.894   3.591   0.145  1.00  0.00     0.116 C 
ENDROOT
BRANCH   1   2
ATOM      2  N   UNL     1       0.574   4.955   0.295  1.00  0.00    -0.352 N 
ATOM      3  C   UNL     1      -0.230   5.484   1.279  1.00  0.00     0.253 C 
ATOM      4  O   UNL     1       0.005   6.684   1.486  1.00  0.00    -0.269 OA
ATOM      5  H   UNL     1       0.958   5.583  -0.359  1.00  0.00     0.163 HD
BRANCH   3   6
ATOM      6  C   UNL     1      -1.344   4.808   2.107  1.00  0.00     0.064 A 
ATOM      7  C   UNL     1      -1.700   3.481   2.530  1.00  0.00     0.065 A 
ATOM      8  C   UNL     1      -2.760   3.329   3.467  1.00  0.00     0.028 A 
ATOM      9  C   UNL     1      -3.565   4.384   3.888  1.00  0.00     0.002 A 
ATOM     10  C   UNL     1      -2.214   5.848   2.569  1.00  0.00     0.016 A 
ATOM     11  C   UNL     1      -3.309   5.649   3.411  1.00  0.00     0.001 A 
BRANCH   7  12
ATOM     12  N   UNL     1      -1.348   2.144   2.007  1.00  0.00    -0.266 N 
BRANCH  12  13
ATOM     13  C   UNL     1       0.036   1.609   2.178  1.00  0.00     0.136 C 
BRANCH  13  14
ATOM     14  C   UNL     1       0.229   0.230   2.802  1.00  0.00     0.022 C 
BRANCH  14  15
ATOM     15  C   UNL     1       0.041  -1.054   1.962  1.00  0.00    -0.002 C 
ATOM     16  C   UNL     1       0.349  -1.080   0.464  1.00  0.00     0.004 C 
ENDBRANCH  14  15
ENDBRANCH  13  14
ENDBRANCH  12  13
BRANCH  12  17
ATOM     17  S   UNL     1      -2.235   1.760   0.566  1.00  0.00     0.264 S 
ATOM     18  O   UNL     1      -2.221   2.891  -0.328  1.00  0.00    -0.201 OA
ATOM     19  O   UNL     1      -1.831   0.456   0.080  1.00  0.00    -0.201 OA
BRANCH  17  20
ATOM     20  C   UNL     1      -3.918   1.535   1.094  1.00  0.00     0.091 A 
ATOM     21  C   UNL     1      -4.838   2.590   0.904  1.00  0.00     0.025 A 
ATOM     22  C   UNL     1      -4.337   0.256   1.482  1.00  0.00     0.071 A 
ATOM     23  C   UNL     1      -6.203   2.378   1.106  1.00  0.00     0.032 A 
ATOM     24  C   UNL     1      -5.690   0.076   1.653  1.00  0.00     0.157 A 
ATOM     25  C   UNL     1      -6.594   1.104   1.462  1.00  0.00     0.090 A 
ATOM     26  O   UNL     1      -6.301  -1.129   1.961  1.00  0.00    -0.408 OA
ATOM     27  N   UNL     1      -7.834   0.549   1.657  1.00  0.00    -0.277 N 
ATOM     28  C   UNL     1      -7.662  -0.794   1.928  1.00  0.00     0.419 A 
ATOM     29  C   UNL     1      -9.100   1.201   1.499  1.00  0.00     0.157 C 
ATOM     30  O   UNL     1      -8.555  -1.611   2.112  1.00  0.00    -0.223 OA
ENDBRANCH  17  20
ENDBRANCH  12  17
ENDBRANCH   7  12
ENDBRANCH   3   6
ENDBRANCH   1   2
BRANCH   1  31
ATOM     31  C   UNL     1       1.203   2.996  -1.212  1.00  0.00     0.023 C 
BRANCH  31  32
ATOM     32  C   UNL     1       2.635   2.518  -1.454  1.00  0.00     0.023 C 
BRANCH  32  33
ATOM     33  C   UNL     1       3.459   1.980  -0.282  1.00  0.00     0.116 C 
BRANCH  33  34
ATOM     34  N   UNL     1       3.130   0.636   0.189  1.00  0.00    -0.352 N 
ATOM     35  C   UNL     1       3.859  -0.532   0.109  1.00  0.00     0.251 C 
ATOM     36  H   UNL     1       2.255   0.552   0.631  1.00  0.00     0.163 HD
ATOM     37  O   UNL     1       3.488  -1.584   0.614  1.00  0.00    -0.269 OA
BRANCH  35  38
ATOM     38  C   UNL     1       5.149  -0.506  -0.568  1.00  0.00     0.039 A 
ATOM     39  C   UNL     1       5.396  -1.338  -1.662  1.00  0.00     0.014 A 
ATOM     40  C   UNL     1       6.094   0.404  -0.105  1.00  0.00     0.014 A 
ATOM     41  C   UNL     1       6.592  -1.189  -2.355  1.00  0.00     0.010 A 
ATOM     42  C   UNL     1       7.210   0.642  -0.872  1.00  0.00     0.010 A 
ATOM     43  C   UNL     1       7.479  -0.166  -1.986  1.00  0.00    -0.014 A 
BRANCH  43  44
ATOM     44  C   UNL     1       8.740   0.094  -2.705  1.00  0.00     0.031 A 
ATOM     45  C   UNL     1      10.027   0.003  -1.939  1.00  0.00     0.074 A 
ATOM     46  C   UNL     1       8.694   0.561  -3.964  1.00  0.00     0.049 A 
ATOM     47  N   UNL     1      11.222   0.403  -2.277  1.00  0.00    -0.248 NA
ATOM     48  C   UNL     1       9.941  -0.552  -0.575  1.00  0.00     0.031 C 
ATOM     49  C   UNL     1       7.478   0.743  -4.759  1.00  0.00     0.029 A 
ATOM     50  N   UNL     1       9.698   0.998  -4.785  1.00  0.00    -0.354 N 
ATOM     51  C   UNL     1      12.015   0.182  -1.159  1.00  0.00     0.074 A 
ATOM     52  C   UNL     1      11.154  -0.309  -0.109  1.00  0.00     0.031 C 
ATOM     53  C   UNL     1       7.810   1.235  -5.963  1.00  0.00     0.029 A 
ATOM     54  C   UNL     1       9.251   1.449  -6.002  1.00  0.00     0.049 A 
ATOM     55  H   UNL     1      10.648   0.990  -4.527  1.00  0.00     0.167 HD
ATOM     56  C   UNL     1      13.352   0.348  -1.038  1.00  0.00     0.037 A 
ATOM     57  C   UNL     1       9.940   1.987  -7.024  1.00  0.00     0.037 A 
ATOM     58  C   UNL     1      14.185   0.808  -2.115  1.00  0.00     0.049 A 
ATOM     59  C   UNL     1      11.429   2.145  -6.873  1.00  0.00     0.074 A 
ATOM     60  C   UNL     1      15.559   0.950  -2.146  1.00  0.00     0.029 A 
ATOM     61  N   UNL     1      13.709   1.201  -3.360  1.00  0.00    -0.354 N 
ATOM     62  N   UNL     1      12.190   1.866  -5.841  1.00  0.00    -0.248 NA
ATOM     63  C   UNL     1      12.155   2.684  -8.028  1.00  0.00     0.031 C 
ATOM     64  C   UNL     1      15.909   1.479  -3.393  1.00  0.00     0.029 A 
ATOM     65  C   UNL     1      14.761   1.607  -4.162  1.00  0.00     0.049 A 
ATOM     66  H   UNL     1      12.763   1.192  -3.632  1.00  0.00     0.167 HD
ATOM     67  C   UNL     1      13.488   2.164  -6.231  1.00  0.00     0.074 A 
ATOM     68  C   UNL     1      13.408   2.633  -7.601  1.00  0.00     0.031 C 
ATOM     69  C   UNL     1      14.642   2.061  -5.525  1.00  0.00     0.037 A 
BRANCH  56  70
ATOM     70  C   UNL     1      13.975   0.026   0.291  1.00  0.00     0.064 A 
ATOM     71  C   UNL     1      13.989  -1.281   0.806  1.00  0.00     0.173 A 
ATOM     72  C   UNL     1      14.563   1.036   1.066  1.00  0.00     0.173 A 
ATOM     73  F   UNL     1      13.426  -2.285   0.116  1.00  0.00    -0.203 F 
ATOM     74  C   UNL     1      14.527  -1.556   2.060  1.00  0.00     0.198 A 
ATOM     75  C   UNL     1      15.137   0.751   2.303  1.00  0.00     0.198 A 
ATOM     76  F   UNL     1      14.580   2.304   0.627  1.00  0.00    -0.203 F 
ATOM     77  F   UNL     1      14.462  -2.798   2.558  1.00  0.00    -0.200 F 
ATOM     78  C   UNL     1      15.108  -0.541   2.805  1.00  0.00     0.200 A 
ATOM     79  F   UNL     1      15.710   1.732   3.016  1.00  0.00    -0.200 F 
ATOM     80  F   UNL     1      15.629  -0.806   4.010  1.00  0.00    -0.200 F 
ENDBRANCH  56  70
BRANCH  57  81
ATOM     81  C   UNL     1       9.237   2.362  -8.277  1.00  0.00     0.064 A 
ATOM     82  C   UNL     1       9.441   1.630  -9.456  1.00  0.00     0.173 A 
ATOM     83  C   UNL     1       8.330   3.430  -8.324  1.00  0.00     0.173 A 
ATOM     84  F   UNL     1      10.306   0.605  -9.464  1.00  0.00    -0.203 F 
ATOM     85  C   UNL     1       8.783   1.964 -10.637  1.00  0.00     0.198 A 
ATOM     86  C   UNL     1       7.649   3.746  -9.499  1.00  0.00     0.198 A 
ATOM     87  F   UNL     1       8.086   4.154  -7.222  1.00  0.00    -0.203 F 
ATOM     88  F   UNL     1       9.029   1.272 -11.757  1.00  0.00    -0.200 F 
ATOM     89  C   UNL     1       7.882   3.018 -10.656  1.00  0.00     0.200 A 
ATOM     90  F   UNL     1       6.764   4.752  -9.508  1.00  0.00    -0.200 F 
ATOM     91  F   UNL     1       7.242   3.334 -11.790  1.00  0.00    -0.200 F 
ENDBRANCH  57  81
BRANCH  69  92
ATOM     92  C   UNL     1      15.911   2.421  -6.240  1.00  0.00     0.064 A 
ATOM     93  C   UNL     1      16.223   3.749  -6.566  1.00  0.00     0.173 A 
ATOM     94  C   UNL     1      16.847   1.426  -6.558  1.00  0.00     0.173 A 
ATOM     95  F   UNL     1      15.352   4.733  -6.295  1.00  0.00    -0.203 F 
ATOM     96  C   UNL     1      17.415   4.063  -7.210  1.00  0.00     0.198 A 
ATOM     97  C   UNL     1      18.055   1.749  -7.168  1.00  0.00     0.198 A 
ATOM     98  F   UNL     1      16.599   0.142  -6.258  1.00  0.00    -0.203 F 
ATOM     99  F   UNL     1      17.670   5.331  -7.560  1.00  0.00    -0.200 F 
ATOM    100  C   UNL     1      18.333   3.065  -7.502  1.00  0.00     0.200 A 
ATOM    101  F   UNL     1      18.948   0.786  -7.432  1.00  0.00    -0.200 F 
ATOM    102  F   UNL     1      19.486   3.372  -8.111  1.00  0.00    -0.200 F 
ENDBRANCH  69  92
ENDBRANCH  43  44
ENDBRANCH  35  38
ENDBRANCH  33  34
ENDBRANCH  32  33
ENDBRANCH  31  32
ENDBRANCH   1  31
TORSDOF 17
