REMARK SMILES O=C(NCCCCNC(=O)c1ccc(-c2c3nc(c(-c4c(F)c(F)c(F)c(F)c4F)c4ccc([nH]4)c(-c4c(F)c(F)c(F)c(F)c4F)c4nc(c(-c5c(F)c(F)c(F)c(F)c5F)c5ccc2[nH]5)C=C4)C=C3)cc1)c1ccc(NS(=O)(=O)Cc2c(Cl)cccc2Cl)cc1
REMARK SMILES IDX 4 1 3 2 1 3 2 4 74 6 75 7 92 8 76 9 91 10 77 11 78 12 79 14
REMARK SMILES IDX 80 15 81 16 82 17 83 18 84 19 89 20 85 21 86 22 88 23 90 24
REMARK SMILES IDX 87 25 5 26 6 27 7 28 8 29 9 30 10 32 11 33 12 34 73 35 13 36
REMARK SMILES IDX 72 37 14 38 15 39 16 40 66 41 17 42 71 43 65 44 67 45 18 46
REMARK SMILES IDX 70 47 64 48 63 49 19 51 51 52 31 53 50 54 32 55 35 56 49 57
REMARK SMILES IDX 68 58 33 59 34 60 48 62 69 63 36 64 20 65 21 66 29 67 22 68
REMARK SMILES IDX 23 69 27 70 30 71 24 72 25 73 28 74 26 75 52 76 53 77 61 78
REMARK SMILES IDX 54 79 55 80 59 81 62 82 56 83 57 84 60 85 58 86 37 87 38 88
REMARK SMILES IDX 46 89 39 90 40 91 44 92 47 93 41 94 42 95 45 96 43 97
REMARK H PARENT 3 5 78 13 8 31 67 50 35 61
REMARK Flexibility Score: inf
ROOT
ATOM      1  C   UNL     1       4.124   0.818  -0.767  1.00  0.00     0.116 C 
ENDROOT
BRANCH   1   2
ATOM      2  N   UNL     1       2.675   0.731  -0.658  1.00  0.00    -0.352 N 
ATOM      3  O   UNL     1       0.711  -0.214  -0.010  1.00  0.00    -0.269 OA
ATOM      4  C   UNL     1       1.934  -0.206   0.028  1.00  0.00     0.251 C 
ATOM      5  H   UNL     1       2.162   1.426  -1.131  1.00  0.00     0.163 HD
BRANCH   4   6
ATOM      6  C   UNL     1       2.666  -1.234   0.787  1.00  0.00     0.039 A 
ATOM      7  C   UNL     1       3.408  -0.864   1.910  1.00  0.00     0.016 A 
ATOM      8  C   UNL     1       2.751  -2.523   0.265  1.00  0.00     0.016 A 
ATOM      9  C   UNL     1       4.335  -1.760   2.439  1.00  0.00     0.027 A 
ATOM     10  C   UNL     1       3.693  -3.407   0.795  1.00  0.00     0.027 A 
ATOM     11  C   UNL     1       4.522  -3.015   1.855  1.00  0.00     0.049 A 
BRANCH  11  12
ATOM     12  N   UNL     1       5.669  -3.823   2.100  1.00  0.00    -0.283 N 
ATOM     13  H   UNL     1       5.903  -4.497   1.422  1.00  0.00     0.180 HD
BRANCH  12  14
ATOM     14  S   UNL     1       6.643  -3.717   3.443  1.00  0.00     0.237 S 
ATOM     15  O   UNL     1       5.836  -3.326   4.580  1.00  0.00    -0.206 OA
ATOM     16  O   UNL     1       7.349  -4.984   3.474  1.00  0.00    -0.206 OA
BRANCH  14  17
ATOM     17  C   UNL     1       7.871  -2.426   3.127  1.00  0.00     0.198 C 
BRANCH  17  18
ATOM     18  C   UNL     1       7.841  -1.805   1.746  1.00  0.00     0.006 A 
ATOM     19  C   UNL     1       8.270  -2.516   0.606  1.00  0.00     0.046 A 
ATOM     20  C   UNL     1       7.506  -0.447   1.556  1.00  0.00     0.046 A 
ATOM     21  Cl  UNL     1       8.823  -4.150   0.692  1.00  0.00    -0.084 Cl
ATOM     22  C   UNL     1       8.327  -1.910  -0.657  1.00  0.00     0.021 A 
ATOM     23  C   UNL     1       7.579   0.159   0.293  1.00  0.00     0.021 A 
ATOM     24  Cl  UNL     1       7.031   0.595   2.855  1.00  0.00    -0.084 Cl
ATOM     25  C   UNL     1       7.985  -0.573  -0.816  1.00  0.00     0.003 A 
ENDBRANCH  17  18
ENDBRANCH  14  17
ENDBRANCH  12  14
ENDBRANCH  11  12
ENDBRANCH   4   6
ENDBRANCH   1   2
BRANCH   1  26
ATOM     26  C   UNL     1       4.607   0.918  -2.212  1.00  0.00     0.023 C 
BRANCH  26  27
ATOM     27  C   UNL     1       4.224   2.202  -2.943  1.00  0.00     0.023 C 
BRANCH  27  28
ATOM     28  C   UNL     1       4.681   3.499  -2.279  1.00  0.00     0.116 C 
BRANCH  28  29
ATOM     29  N   UNL     1       6.129   3.616  -2.170  1.00  0.00    -0.352 N 
ATOM     30  C   UNL     1       6.976   4.602  -2.621  1.00  0.00     0.251 C 
ATOM     31  H   UNL     1       6.571   2.873  -1.699  1.00  0.00     0.163 HD
ATOM     32  O   UNL     1       8.190   4.454  -2.517  1.00  0.00    -0.269 OA
BRANCH  30  33
ATOM     33  C   UNL     1       6.434   5.813  -3.277  1.00  0.00     0.039 A 
ATOM     34  C   UNL     1       7.013   6.244  -4.475  1.00  0.00     0.014 A 
ATOM     35  C   UNL     1       5.341   6.500  -2.744  1.00  0.00     0.014 A 
ATOM     36  C   UNL     1       6.423   7.285  -5.196  1.00  0.00     0.010 A 
ATOM     37  C   UNL     1       4.709   7.485  -3.499  1.00  0.00     0.010 A 
ATOM     38  C   UNL     1       5.227   7.868  -4.746  1.00  0.00    -0.014 A 
BRANCH  38  39
ATOM     39  C   UNL     1       4.461   8.816  -5.596  1.00  0.00     0.031 A 
ATOM     40  C   UNL     1       4.220  10.227  -5.149  1.00  0.00     0.074 A 
ATOM     41  C   UNL     1       3.884   8.364  -6.727  1.00  0.00     0.049 A 
ATOM     42  N   UNL     1       3.484  11.157  -5.704  1.00  0.00    -0.248 NA
ATOM     43  C   UNL     1       4.869  10.640  -3.896  1.00  0.00     0.031 C 
ATOM     44  C   UNL     1       3.987   6.996  -7.239  1.00  0.00     0.029 A 
ATOM     45  N   UNL     1       3.074   8.998  -7.637  1.00  0.00    -0.354 N 
ATOM     46  C   UNL     1       3.572  12.260  -4.866  1.00  0.00     0.074 A 
ATOM     47  C   UNL     1       4.391  11.866  -3.738  1.00  0.00     0.031 C 
ATOM     48  C   UNL     1       3.274   6.894  -8.370  1.00  0.00     0.029 A 
ATOM     49  C   UNL     1       2.630   8.175  -8.643  1.00  0.00     0.049 A 
ATOM     50  H   UNL     1       2.835   9.951  -7.574  1.00  0.00     0.167 HD
ATOM     51  C   UNL     1       3.036  13.493  -5.032  1.00  0.00     0.037 A 
ATOM     52  C   UNL     1       1.781   8.415  -9.661  1.00  0.00     0.037 A 
ATOM     53  C   UNL     1       2.231  13.885  -6.160  1.00  0.00     0.049 A 
ATOM     54  C   UNL     1       1.186   9.785  -9.819  1.00  0.00     0.074 A 
ATOM     55  C   UNL     1       1.713  15.133  -6.460  1.00  0.00     0.029 A 
ATOM     56  N   UNL     1       1.813  13.028  -7.169  1.00  0.00    -0.354 N 
ATOM     57  N   UNL     1       1.345  10.845  -9.065  1.00  0.00    -0.248 NA
ATOM     58  C   UNL     1       0.293   9.992 -10.968  1.00  0.00     0.031 C 
ATOM     59  C   UNL     1       0.941  15.020  -7.622  1.00  0.00     0.029 A 
ATOM     60  C   UNL     1       1.014  13.712  -8.073  1.00  0.00     0.049 A 
ATOM     61  H   UNL     1       2.050  12.074  -7.233  1.00  0.00     0.167 HD
ATOM     62  C   UNL     1       0.582  11.846  -9.649  1.00  0.00     0.074 A 
ATOM     63  C   UNL     1      -0.023  11.273 -10.833  1.00  0.00     0.031 C 
ATOM     64  C   UNL     1       0.399  13.124  -9.236  1.00  0.00     0.037 A 
BRANCH  51  65
ATOM     65  C   UNL     1       3.303  14.509  -3.959  1.00  0.00     0.064 A 
ATOM     66  C   UNL     1       4.583  15.051  -3.762  1.00  0.00     0.173 A 
ATOM     67  C   UNL     1       2.266  14.959  -3.128  1.00  0.00     0.173 A 
ATOM     68  F   UNL     1       5.611  14.648  -4.524  1.00  0.00    -0.203 F 
ATOM     69  C   UNL     1       4.823  15.973  -2.747  1.00  0.00     0.198 A 
ATOM     70  C   UNL     1       2.503  15.905  -2.134  1.00  0.00     0.198 A 
ATOM     71  F   UNL     1       1.022  14.480  -3.279  1.00  0.00    -0.203 F 
ATOM     72  F   UNL     1       6.065  16.431  -2.540  1.00  0.00    -0.200 F 
ATOM     73  C   UNL     1       3.783  16.403  -1.938  1.00  0.00     0.200 A 
ATOM     74  F   UNL     1       1.495  16.329  -1.360  1.00  0.00    -0.200 F 
ATOM     75  F   UNL     1       4.015  17.290  -0.960  1.00  0.00    -0.200 F 
ENDBRANCH  51  65
BRANCH  52  76
ATOM     76  C   UNL     1       1.452   7.319 -10.608  1.00  0.00     0.064 A 
ATOM     77  C   UNL     1       1.959   7.319 -11.914  1.00  0.00     0.173 A 
ATOM     78  C   UNL     1       0.657   6.233 -10.214  1.00  0.00     0.173 A 
ATOM     79  F   UNL     1       2.708   8.347 -12.341  1.00  0.00    -0.203 F 
ATOM     80  C   UNL     1       1.681   6.275 -12.793  1.00  0.00     0.198 A 
ATOM     81  C   UNL     1       0.400   5.177 -11.085  1.00  0.00     0.198 A 
ATOM     82  F   UNL     1       0.154   6.184  -8.972  1.00  0.00    -0.203 F 
ATOM     83  F   UNL     1       2.157   6.310 -14.045  1.00  0.00    -0.200 F 
ATOM     84  C   UNL     1       0.909   5.200 -12.375  1.00  0.00     0.200 A 
ATOM     85  F   UNL     1      -0.332   4.133 -10.672  1.00  0.00    -0.200 F 
ATOM     86  F   UNL     1       0.655   4.188 -13.215  1.00  0.00    -0.200 F 
ENDBRANCH  52  76
BRANCH  64  87
ATOM     87  C   UNL     1      -0.501  13.991 -10.069  1.00  0.00     0.064 A 
ATOM     88  C   UNL     1      -1.893  13.814 -10.064  1.00  0.00     0.173 A 
ATOM     89  C   UNL     1       0.027  15.032 -10.846  1.00  0.00     0.173 A 
ATOM     90  F   UNL     1      -2.444  12.821  -9.351  1.00  0.00    -0.203 F 
ATOM     91  C   UNL     1      -2.721  14.638 -10.822  1.00  0.00     0.198 A 
ATOM     92  C   UNL     1      -0.806  15.871 -11.581  1.00  0.00     0.198 A 
ATOM     93  F   UNL     1       1.351  15.244 -10.882  1.00  0.00    -0.203 F 
ATOM     94  F   UNL     1      -4.044  14.426 -10.834  1.00  0.00    -0.200 F 
ATOM     95  C   UNL     1      -2.178  15.670 -11.573  1.00  0.00     0.200 A 
ATOM     96  F   UNL     1      -0.281  16.874 -12.298  1.00  0.00    -0.200 F 
ATOM     97  F   UNL     1      -2.978  16.467 -12.295  1.00  0.00    -0.200 F 
ENDBRANCH  64  87
ENDBRANCH  38  39
ENDBRANCH  30  33
ENDBRANCH  28  29
ENDBRANCH  27  28
ENDBRANCH  26  27
ENDBRANCH   1  26
TORSDOF 15
