REMARK SMILES [NH3+]CCOCC(=O)N[C@]1(C(=O)NCCCCNC(=O)c2ccc(-c3c4nc(c(-c5c(F)c(F)c(F)c(F)c5F)c5ccc([nH]5)c(-c5c(F)c(F)c(F)c(F)c5F)c5nc(c(-c6c(F)c(F)c(F)c(F)c6F)c6ccc3[nH]6)C=C5)C=C4)cc2)CCOC1
REMARK SMILES IDX 10 1 11 2 12 3 9 5 83 6 86 7 84 8 85 9 8 10 6 11 7 12 5 14
REMARK SMILES IDX 4 15 3 16 2 17 1 18 13 22 14 23 15 24 16 25 17 26 18 27
REMARK SMILES IDX 19 29 20 30 21 31 82 32 22 33 81 34 23 35 24 36 25 37 75 38
REMARK SMILES IDX 26 39 80 40 74 41 76 42 27 43 79 44 73 45 72 46 28 48 60 49
REMARK SMILES IDX 40 50 59 51 41 52 44 53 58 54 77 55 42 56 43 57 57 59 78 60
REMARK SMILES IDX 45 61 29 62 30 63 38 64 31 65 32 66 36 67 39 68 33 69 34 70
REMARK SMILES IDX 37 71 35 72 61 73 62 74 70 75 63 76 64 77 68 78 71 79 65 80
REMARK SMILES IDX 66 81 69 82 67 83 46 84 47 85 55 86 48 87 49 88 53 89 56 90
REMARK SMILES IDX 50 91 51 92 54 93 52 94
REMARK H PARENT 12 4 8 13 1 19 1 20 1 21 17 28 76 47 44 58
REMARK Flexibility Score: inf
ROOT
ATOM      1  C   UNL     1       2.039   4.517   2.126  1.00  0.00     0.248 C 
ATOM      2  O   UNL     1       2.493   3.555   2.762  1.00  0.00    -0.272 OA
ATOM      3  N   UNL     1       1.130   5.260   2.802  1.00  0.00    -0.354 N 
ATOM      4  H   UNL     1       0.793   4.827   3.619  1.00  0.00     0.163 HD
ENDROOT
BRANCH   1   5
ATOM      5  C   UNL     1       2.639   4.904   0.746  1.00  0.00     0.144 C 
ATOM      6  C   UNL     1       1.791   5.579  -0.329  1.00  0.00     0.069 C 
ATOM      7  C   UNL     1       3.704   5.975   1.085  1.00  0.00     0.198 C 
ATOM      8  C   UNL     1       2.595   6.791  -0.751  1.00  0.00     0.163 C 
ATOM      9  O   UNL     1       3.367   7.177   0.378  1.00  0.00    -0.378 OA
BRANCH   5  10
ATOM     10  N   UNL     1       3.255   3.678   0.181  1.00  0.00    -0.338 N 
ATOM     11  C   UNL     1       2.650   2.537  -0.269  1.00  0.00     0.246 C 
ATOM     12  O   UNL     1       3.365   1.611  -0.662  1.00  0.00    -0.272 OA
ATOM     13  H   UNL     1       4.238   3.687   0.122  1.00  0.00     0.164 HD
BRANCH  11  14
ATOM     14  C   UNL     1       1.113   2.397  -0.283  1.00  0.00     0.260 C 
BRANCH  14  15
ATOM     15  O   UNL     1       0.422   2.266   0.943  1.00  0.00    -0.366 OA
BRANCH  15  16
ATOM     16  C   UNL     1       0.887   1.205   1.784  1.00  0.00     0.222 C 
BRANCH  16  17
ATOM     17  C   UNL     1       0.332  -0.178   1.412  1.00  0.00     0.287 C 
BRANCH  17  18
ATOM     18  N   UNL     1       0.940  -0.794   0.231  1.00  0.00    -0.356 N 
ATOM     19  H   UNL     1       0.511  -1.703   0.062  1.00  0.00     0.344 HD
ATOM     20  H   UNL     1       1.941  -0.914   0.388  1.00  0.00     0.344 HD
ATOM     21  H   UNL     1       0.793  -0.193  -0.580  1.00  0.00     0.344 HD
ENDBRANCH  17  18
ENDBRANCH  16  17
ENDBRANCH  15  16
ENDBRANCH  14  15
ENDBRANCH  11  14
ENDBRANCH   5  10
ENDBRANCH   1   5
BRANCH   3  22
ATOM     22  C   UNL     1       0.560   6.566   2.556  1.00  0.00     0.116 C 
BRANCH  22  23
ATOM     23  C   UNL     1      -0.963   6.491   2.462  1.00  0.00     0.023 C 
BRANCH  23  24
ATOM     24  C   UNL     1      -1.653   6.005   3.743  1.00  0.00     0.023 C 
BRANCH  24  25
ATOM     25  C   UNL     1      -1.226   6.719   5.021  1.00  0.00     0.116 C 
BRANCH  25  26
ATOM     26  N   UNL     1      -1.398   8.159   4.941  1.00  0.00    -0.352 N 
ATOM     27  C   UNL     1      -1.977   9.021   5.838  1.00  0.00     0.251 C 
ATOM     28  H   UNL     1      -1.047   8.579   4.123  1.00  0.00     0.163 HD
ATOM     29  O   UNL     1      -2.170  10.190   5.526  1.00  0.00    -0.269 OA
BRANCH  27  30
ATOM     30  C   UNL     1      -2.390   8.534   7.170  1.00  0.00     0.039 A 
ATOM     31  C   UNL     1      -3.621   8.953   7.681  1.00  0.00     0.014 A 
ATOM     32  C   UNL     1      -1.569   7.688   7.921  1.00  0.00     0.014 A 
ATOM     33  C   UNL     1      -4.044   8.492   8.928  1.00  0.00     0.010 A 
ATOM     34  C   UNL     1      -2.031   7.161   9.123  1.00  0.00     0.010 A 
ATOM     35  C   UNL     1      -3.264   7.574   9.650  1.00  0.00    -0.014 A 
BRANCH  35  36
ATOM     36  C   UNL     1      -3.716   7.066  10.970  1.00  0.00     0.031 A 
ATOM     37  C   UNL     1      -2.923   7.372  12.211  1.00  0.00     0.074 A 
ATOM     38  C   UNL     1      -4.823   6.303  11.047  1.00  0.00     0.049 A 
ATOM     39  N   UNL     1      -3.155   7.019  13.451  1.00  0.00    -0.248 NA
ATOM     40  C   UNL     1      -1.689   8.153  12.034  1.00  0.00     0.031 C 
ATOM     41  C   UNL     1      -5.643   5.887   9.908  1.00  0.00     0.029 A 
ATOM     42  N   UNL     1      -5.449   5.739  12.130  1.00  0.00    -0.354 N 
ATOM     43  C   UNL     1      -2.094   7.522  14.192  1.00  0.00     0.074 A 
ATOM     44  C   UNL     1      -1.185   8.147  13.258  1.00  0.00     0.031 C 
ATOM     45  C   UNL     1      -6.681   5.163  10.355  1.00  0.00     0.029 A 
ATOM     46  C   UNL     1      -6.582   5.035  11.806  1.00  0.00     0.049 A 
ATOM     47  H   UNL     1      -5.117   5.832  13.053  1.00  0.00     0.167 HD
ATOM     48  C   UNL     1      -1.909   7.491  15.534  1.00  0.00     0.037 A 
ATOM     49  C   UNL     1      -7.445   4.364  12.592  1.00  0.00     0.037 A 
ATOM     50  C   UNL     1      -2.830   6.888  16.462  1.00  0.00     0.049 A 
ATOM     51  C   UNL     1      -7.224   4.355  14.081  1.00  0.00     0.074 A 
ATOM     52  C   UNL     1      -2.769   6.860  17.843  1.00  0.00     0.029 A 
ATOM     53  N   UNL     1      -3.979   6.200  16.098  1.00  0.00    -0.354 N 
ATOM     54  N   UNL     1      -6.263   4.907  14.780  1.00  0.00    -0.248 NA
ATOM     55  C   UNL     1      -8.220   3.641  14.892  1.00  0.00     0.031 C 
ATOM     56  C   UNL     1      -3.850   6.106  18.314  1.00  0.00     0.029 A 
ATOM     57  C   UNL     1      -4.622   5.721  17.229  1.00  0.00     0.049 A 
ATOM     58  H   UNL     1      -4.291   6.071  15.173  1.00  0.00     0.167 HD
ATOM     59  C   UNL     1      -6.552   4.636  16.111  1.00  0.00     0.074 A 
ATOM     60  C   UNL     1      -7.790   3.885  16.121  1.00  0.00     0.031 C 
ATOM     61  C   UNL     1      -5.856   4.977  17.224  1.00  0.00     0.037 A 
BRANCH  48  62
ATOM     62  C   UNL     1      -0.660   8.128  16.077  1.00  0.00     0.064 A 
ATOM     63  C   UNL     1      -0.454   9.516  16.023  1.00  0.00     0.173 A 
ATOM     64  C   UNL     1       0.333   7.343  16.682  1.00  0.00     0.173 A 
ATOM     65  F   UNL     1      -1.366  10.313  15.445  1.00  0.00    -0.203 F 
ATOM     66  C   UNL     1       0.715  10.088  16.518  1.00  0.00     0.198 A 
ATOM     67  C   UNL     1       1.485   7.923  17.209  1.00  0.00     0.198 A 
ATOM     68  F   UNL     1       0.187   6.013  16.767  1.00  0.00    -0.203 F 
ATOM     69  F   UNL     1       0.916  11.408  16.399  1.00  0.00    -0.200 F 
ATOM     70  C   UNL     1       1.680   9.293  17.117  1.00  0.00     0.200 A 
ATOM     71  F   UNL     1       2.409   7.154  17.801  1.00  0.00    -0.200 F 
ATOM     72  F   UNL     1       2.802   9.845  17.599  1.00  0.00    -0.200 F 
ENDBRANCH  48  62
BRANCH  49  73
ATOM     73  C   UNL     1      -8.616   3.674  11.988  1.00  0.00     0.064 A 
ATOM     74  C   UNL     1      -9.920   4.139  12.208  1.00  0.00     0.173 A 
ATOM     75  C   UNL     1      -8.456   2.539  11.181  1.00  0.00     0.173 A 
ATOM     76  F   UNL     1     -10.127   5.210  12.988  1.00  0.00    -0.203 F 
ATOM     77  C   UNL     1     -11.021   3.481  11.663  1.00  0.00     0.198 A 
ATOM     78  C   UNL     1      -9.555   1.900  10.611  1.00  0.00     0.198 A 
ATOM     79  F   UNL     1      -7.229   2.058  10.933  1.00  0.00    -0.203 F 
ATOM     80  F   UNL     1     -12.259   3.917  11.930  1.00  0.00    -0.200 F 
ATOM     81  C   UNL     1     -10.837   2.365  10.860  1.00  0.00     0.200 A 
ATOM     82  F   UNL     1      -9.372   0.833   9.821  1.00  0.00    -0.200 F 
ATOM     83  F   UNL     1     -11.895   1.736  10.332  1.00  0.00    -0.200 F 
ENDBRANCH  49  73
BRANCH  61  84
ATOM     84  C   UNL     1      -6.440   4.577  18.549  1.00  0.00     0.064 A 
ATOM     85  C   UNL     1      -6.496   3.237  18.960  1.00  0.00     0.173 A 
ATOM     86  C   UNL     1      -6.930   5.554  19.431  1.00  0.00     0.173 A 
ATOM     87  F   UNL     1      -6.053   2.263  18.151  1.00  0.00    -0.203 F 
ATOM     88  C   UNL     1      -7.054   2.887  20.187  1.00  0.00     0.198 A 
ATOM     89  C   UNL     1      -7.454   5.203  20.672  1.00  0.00     0.198 A 
ATOM     90  F   UNL     1      -6.892   6.851  19.092  1.00  0.00    -0.203 F 
ATOM     91  F   UNL     1      -7.154   1.595  20.531  1.00  0.00    -0.200 F 
ATOM     92  C   UNL     1      -7.526   3.870  21.044  1.00  0.00     0.200 A 
ATOM     93  F   UNL     1      -7.893   6.156  21.505  1.00  0.00    -0.200 F 
ATOM     94  F   UNL     1      -8.060   3.531  22.226  1.00  0.00    -0.200 F 
ENDBRANCH  61  84
ENDBRANCH  35  36
ENDBRANCH  27  30
ENDBRANCH  25  26
ENDBRANCH  24  25
ENDBRANCH  23  24
ENDBRANCH  22  23
ENDBRANCH   3  22
TORSDOF 17
