REMARK SMILES Cc1ccc(-c2cc(Cl)cc3c2O[C@@H](C(F)(F)F)C(C(=O)NCCCCNC(=O)c2ccc(-c4c5nc(c(-c6c(F)c(F)c(F)c(F)c6F)c6ccc([nH]6)c(-c6c(F)c(F)c(F)c(F)c6F)c6nc(c(-c7c(F)c(F)c(F)c(F)c7F)c7ccc4[nH]7)C=C6)C=C5)cc2)=C3)cc1
REMARK SMILES IDX 25 1 24 2 23 3 22 4 20 5 21 6 19 8 6 9 7 10 12 11 8 12 11 13
REMARK SMILES IDX 13 14 9 15 10 16 93 17 14 18 5 19 1 20 2 21 3 22 95 23 4 24
REMARK SMILES IDX 94 25 15 26 16 27 17 28 18 29 26 30 27 31 28 32 29 34 30 35
REMARK SMILES IDX 31 36 92 37 32 38 91 39 33 40 34 41 35 42 85 43 36 44 90 45
REMARK SMILES IDX 84 46 86 47 37 48 89 49 83 50 82 51 38 53 70 54 50 55 69 56
REMARK SMILES IDX 51 57 54 58 68 59 87 60 52 61 53 62 67 64 88 65 55 66 39 67
REMARK SMILES IDX 40 68 48 69 41 70 42 71 46 72 49 73 43 74 44 75 47 76 45 77
REMARK SMILES IDX 71 78 72 79 80 80 73 81 74 82 78 83 81 84 75 85 76 86 79 87
REMARK SMILES IDX 77 88 56 89 57 90 65 91 58 92 59 93 63 94 66 95 60 96 61 97
REMARK SMILES IDX 64 98 62 99
REMARK H PARENT 22 7 27 33 86 52 54 63
REMARK Flexibility Score: inf
ROOT
ATOM      1  C   UNL     1      -2.176  -4.884   4.926  1.00  0.00     0.023 C 
ENDROOT
BRANCH   1   2
ATOM      2  C   UNL     1      -3.599  -4.313   4.894  1.00  0.00     0.023 C 
BRANCH   2   3
ATOM      3  C   UNL     1      -3.834  -2.899   5.456  1.00  0.00     0.116 C 
BRANCH   3   4
ATOM      4  N   UNL     1      -3.365  -1.795   4.633  1.00  0.00    -0.352 N 
ATOM      5  C   UNL     1      -3.956  -0.619   4.247  1.00  0.00     0.251 C 
ATOM      6  O   UNL     1      -3.209   0.361   4.165  1.00  0.00    -0.270 OA
ATOM      7  H   UNL     1      -2.451  -1.914   4.288  1.00  0.00     0.163 HD
BRANCH   5   8
ATOM      8  C   UNL     1      -5.417  -0.493   3.799  1.00  0.00     0.067 C 
ATOM      9  C   UNL     1      -3.884  -1.230   0.184  1.00  0.00     0.026 A 
ATOM     10  C   UNL     1      -4.376  -0.588  -0.968  1.00  0.00     0.033 A 
ATOM     11  C   UNL     1      -4.671  -1.065   1.322  1.00  0.00     0.135 A 
ATOM     12  C   UNL     1      -5.308   0.451  -0.848  1.00  0.00     0.042 A 
ATOM     13  C   UNL     1      -5.321   0.174   1.534  1.00  0.00     0.019 A 
ATOM     14  O   UNL     1      -4.963  -2.158   2.170  1.00  0.00    -0.475 OA
ATOM     15  Cl  UNL     1      -5.836   1.278  -2.262  1.00  0.00    -0.084 Cl
ATOM     16  C   UNL     1      -5.700   0.907   0.414  1.00  0.00     0.032 A 
ATOM     17  C   UNL     1      -5.617   0.564   2.961  1.00  0.00     0.025 C 
ATOM     18  C   UNL     1      -5.990  -1.724   3.120  1.00  0.00     0.314 C 
BRANCH   9  19
ATOM     19  C   UNL     1      -2.398  -1.116   0.330  1.00  0.00    -0.015 A 
ATOM     20  C   UNL     1       1.879  -0.375   0.160  1.00  0.00     0.044 C 
ATOM     21  C   UNL     1       0.406  -0.639   0.277  1.00  0.00    -0.051 A 
ATOM     22  C   UNL     1      -0.116  -1.939   0.174  1.00  0.00     0.004 A 
ATOM     23  C   UNL     1      -0.476   0.419   0.474  1.00  0.00     0.004 A 
ATOM     24  C   UNL     1      -1.505  -2.178   0.197  1.00  0.00     0.009 A 
ATOM     25  C   UNL     1      -1.848   0.179   0.508  1.00  0.00     0.009 A 
ENDBRANCH   9  19
BRANCH  18  26
ATOM     26  C   UNL     1      -6.768  -2.685   4.028  1.00  0.00     0.429 C 
ATOM     27  F   UNL     1      -8.069  -2.757   3.630  1.00  0.00    -0.167 F 
ATOM     28  F   UNL     1      -6.291  -3.942   4.032  1.00  0.00    -0.167 F 
ATOM     29  F   UNL     1      -6.823  -2.245   5.311  1.00  0.00    -0.167 F 
ENDBRANCH  18  26
ENDBRANCH   5   8
ENDBRANCH   3   4
ENDBRANCH   2   3
ENDBRANCH   1   2
BRANCH   1  30
ATOM     30  C   UNL     1      -1.421  -4.785   6.244  1.00  0.00     0.116 C 
BRANCH  30  31
ATOM     31  N   UNL     1      -1.648  -5.822   7.239  1.00  0.00    -0.352 N 
ATOM     32  C   UNL     1      -1.178  -5.888   8.556  1.00  0.00     0.251 C 
ATOM     33  H   UNL     1      -2.208  -6.577   6.948  1.00  0.00     0.163 HD
ATOM     34  O   UNL     1      -1.344  -6.886   9.216  1.00  0.00    -0.269 OA
BRANCH  32  35
ATOM     35  C   UNL     1      -0.594  -4.665   9.185  1.00  0.00     0.039 A 
ATOM     36  C   UNL     1      -1.006  -4.328  10.481  1.00  0.00     0.014 A 
ATOM     37  C   UNL     1       0.145  -3.752   8.443  1.00  0.00     0.014 A 
ATOM     38  C   UNL     1      -0.935  -2.998  10.899  1.00  0.00     0.010 A 
ATOM     39  C   UNL     1       0.087  -2.419   8.786  1.00  0.00     0.010 A 
ATOM     40  C   UNL     1      -0.510  -2.033   9.988  1.00  0.00    -0.014 A 
BRANCH  40  41
ATOM     41  C   UNL     1      -0.742  -0.603  10.150  1.00  0.00     0.031 A 
ATOM     42  C   UNL     1       0.379   0.312  10.444  1.00  0.00     0.074 A 
ATOM     43  C   UNL     1      -1.971  -0.096   9.902  1.00  0.00     0.049 A 
ATOM     44  N   UNL     1       0.250   1.438  11.061  1.00  0.00    -0.248 NA
ATOM     45  C   UNL     1       1.757   0.018  10.070  1.00  0.00     0.031 C 
ATOM     46  C   UNL     1      -2.329   1.312   9.748  1.00  0.00     0.029 A 
ATOM     47  N   UNL     1      -3.207  -0.769   9.911  1.00  0.00    -0.354 N 
ATOM     48  C   UNL     1       1.430   2.132  10.916  1.00  0.00     0.074 A 
ATOM     49  C   UNL     1       2.356   1.180  10.347  1.00  0.00     0.031 C 
ATOM     50  C   UNL     1      -3.640   1.453   9.993  1.00  0.00     0.029 A 
ATOM     51  C   UNL     1      -4.137   0.163  10.431  1.00  0.00     0.049 A 
ATOM     52  H   UNL     1      -3.386  -1.691   9.618  1.00  0.00     0.167 HD
ATOM     53  C   UNL     1       1.455   3.475  11.160  1.00  0.00     0.037 A 
ATOM     54  C   UNL     1      -4.790  -0.065  11.606  1.00  0.00     0.037 A 
ATOM     55  C   UNL     1       0.141   3.961  11.571  1.00  0.00     0.049 A 
ATOM     56  C   UNL     1      -4.524   0.970  12.670  1.00  0.00     0.074 A 
ATOM     57  C   UNL     1      -0.877   4.592  10.875  1.00  0.00     0.029 A 
ATOM     58  N   UNL     1      -0.412   3.534  12.774  1.00  0.00    -0.354 N 
ATOM     59  N   UNL     1      -3.519   1.801  12.637  1.00  0.00    -0.248 NA
ATOM     60  C   UNL     1      -5.346   1.139  13.864  1.00  0.00     0.031 C 
ATOM     61  C   UNL     1      -2.058   4.516  11.651  1.00  0.00     0.029 A 
ATOM     62  C   UNL     1      -1.756   3.850  12.826  1.00  0.00     0.049 A 
ATOM     63  H   UNL     1       0.085   3.073  13.488  1.00  0.00     0.167 HD
ATOM     64  C   UNL     1      -3.532   2.585  13.762  1.00  0.00     0.074 A 
ATOM     65  C   UNL     1      -4.709   2.145  14.488  1.00  0.00     0.031 C 
ATOM     66  C   UNL     1      -2.564   3.523  13.991  1.00  0.00     0.037 A 
BRANCH  53  67
ATOM     67  C   UNL     1       2.584   4.384  10.722  1.00  0.00     0.064 A 
ATOM     68  C   UNL     1       2.340   5.723  10.343  1.00  0.00     0.173 A 
ATOM     69  C   UNL     1       3.926   3.979  10.609  1.00  0.00     0.173 A 
ATOM     70  F   UNL     1       1.143   6.296  10.518  1.00  0.00    -0.203 F 
ATOM     71  C   UNL     1       3.323   6.533   9.768  1.00  0.00     0.198 A 
ATOM     72  C   UNL     1       4.897   4.768   9.980  1.00  0.00     0.198 A 
ATOM     73  F   UNL     1       4.351   2.830  11.150  1.00  0.00    -0.203 F 
ATOM     74  F   UNL     1       3.025   7.792   9.416  1.00  0.00    -0.200 F 
ATOM     75  C   UNL     1       4.591   6.040   9.545  1.00  0.00     0.200 A 
ATOM     76  F   UNL     1       6.134   4.282   9.801  1.00  0.00    -0.200 F 
ATOM     77  F   UNL     1       5.519   6.797   8.944  1.00  0.00    -0.200 F 
ENDBRANCH  53  67
BRANCH  54  78
ATOM     78  C   UNL     1      -5.075  -1.503  11.839  1.00  0.00     0.064 A 
ATOM     79  C   UNL     1      -5.992  -2.136  10.978  1.00  0.00     0.173 A 
ATOM     80  C   UNL     1      -4.198  -2.318  12.564  1.00  0.00     0.173 A 
ATOM     81  F   UNL     1      -6.856  -1.398  10.263  1.00  0.00    -0.203 F 
ATOM     82  C   UNL     1      -5.945  -3.510  10.753  1.00  0.00     0.198 A 
ATOM     83  C   UNL     1      -4.164  -3.698  12.346  1.00  0.00     0.198 A 
ATOM     84  F   UNL     1      -3.290  -1.773  13.386  1.00  0.00    -0.203 F 
ATOM     85  F   UNL     1      -6.753  -4.065   9.838  1.00  0.00    -0.200 F 
ATOM     86  C   UNL     1      -5.009  -4.285  11.414  1.00  0.00     0.200 A 
ATOM     87  F   UNL     1      -3.248  -4.449  12.974  1.00  0.00    -0.200 F 
ATOM     88  F   UNL     1      -4.894  -5.589  11.125  1.00  0.00    -0.200 F 
ENDBRANCH  54  78
BRANCH  66  89
ATOM     89  C   UNL     1      -2.334   4.303  15.268  1.00  0.00     0.064 A 
ATOM     90  C   UNL     1      -2.724   3.866  16.544  1.00  0.00     0.173 A 
ATOM     91  C   UNL     1      -1.562   5.493  15.248  1.00  0.00     0.173 A 
ATOM     92  F   UNL     1      -3.350   2.696  16.721  1.00  0.00    -0.203 F 
ATOM     93  C   UNL     1      -2.423   4.594  17.700  1.00  0.00     0.198 A 
ATOM     94  C   UNL     1      -1.211   6.182  16.408  1.00  0.00     0.198 A 
ATOM     95  F   UNL     1      -1.097   6.014  14.103  1.00  0.00    -0.203 F 
ATOM     96  F   UNL     1      -2.859   4.155  18.890  1.00  0.00    -0.200 F 
ATOM     97  C   UNL     1      -1.658   5.742  17.635  1.00  0.00     0.200 A 
ATOM     98  F   UNL     1      -0.421   7.263  16.328  1.00  0.00    -0.200 F 
ATOM     99  F   UNL     1      -1.332   6.408  18.750  1.00  0.00    -0.200 F 
ENDBRANCH  66  89
ENDBRANCH  40  41
ENDBRANCH  32  35
ENDBRANCH  30  31
ENDBRANCH   1  30
TORSDOF 13
