REMARK SMILES C[N@@H+]1CCC[C@H](NC(=O)N[C@@](C)(C(=O)NCCCCNC(=O)c2ccc(-c3c4nc(c(-c5c(F)c(F)c(F)c(F)c5F)c5ccc([nH]5)c(-c5c(F)c(F)c(F)c(F)c5F)c5nc(c(-c6c(F)c(F)c(F)c(F)c6F)c6ccc3[nH]6)C=C5)C=C4)cc2)C(F)(F)F)C1
REMARK SMILES IDX 17 1 16 2 15 3 13 4 14 5 11 7 12 8 10 9 7 10 8 11 9 13 6 15
REMARK SMILES IDX 1 16 2 17 3 18 90 19 4 21 5 22 86 23 87 24 88 25 89 26 18 27
REMARK SMILES IDX 19 28 20 29 21 30 22 32 23 33 24 34 85 35 25 36 84 37 26 38
REMARK SMILES IDX 27 39 28 40 78 41 29 42 83 43 77 44 79 45 30 46 82 47 76 48
REMARK SMILES IDX 75 49 31 51 63 52 43 53 62 54 44 55 47 56 61 57 80 58 45 59
REMARK SMILES IDX 46 60 60 62 81 63 48 64 32 65 33 66 41 67 34 68 35 69 39 70
REMARK SMILES IDX 42 71 36 72 37 73 40 74 38 75 64 76 65 77 73 78 66 79 67 80
REMARK SMILES IDX 71 81 74 82 68 83 69 84 72 85 70 86 49 87 50 88 58 89 51 90
REMARK SMILES IDX 52 91 56 92 59 93 53 94 54 95 57 96 55 97
REMARK H PARENT 15 6 7 12 10 14 2 20 20 31 79 50 47 61
REMARK Flexibility Score: inf
ROOT
ATOM      1  C   UNL     1       3.837  -4.181   5.211  1.00  0.00     0.023 C 
ENDROOT
BRANCH   1   2
ATOM      2  C   UNL     1       2.344  -4.013   4.953  1.00  0.00     0.116 C 
BRANCH   2   3
ATOM      3  N   UNL     1       1.968  -2.619   4.831  1.00  0.00    -0.354 N 
ATOM      4  C   UNL     1       1.119  -1.941   4.012  1.00  0.00     0.255 C 
ATOM      5  O   UNL     1       1.006  -0.745   4.298  1.00  0.00    -0.272 OA
ATOM      6  H   UNL     1       2.425  -2.038   5.481  1.00  0.00     0.163 HD
BRANCH   4   7
ATOM      7  C   UNL     1       0.436  -2.580   2.785  1.00  0.00     0.213 C 
ATOM      8  C   UNL     1      -0.351  -3.863   3.135  1.00  0.00     0.056 C 
BRANCH   7   9
ATOM      9  N   UNL     1       1.606  -2.972   1.895  1.00  0.00    -0.316 N 
ATOM     10  N   UNL     1       1.663  -2.287  -0.373  1.00  0.00    -0.330 N 
ATOM     11  C   UNL     1       1.967  -3.122   0.621  1.00  0.00     0.316 C 
ATOM     12  H   UNL     1       1.846  -2.623  -1.280  1.00  0.00     0.165 HD
ATOM     13  O   UNL     1       2.738  -4.054   0.375  1.00  0.00    -0.249 OA
ATOM     14  H   UNL     1       2.374  -3.197   2.467  1.00  0.00     0.166 HD
BRANCH  10  15
ATOM     15  C   UNL     1       1.106  -0.965  -0.302  1.00  0.00     0.139 C 
ATOM     16  C   UNL     1      -2.320   0.383  -0.877  1.00  0.00     0.332 C 
ATOM     17  N   UNL     1      -0.911   0.345  -0.528  1.00  0.00    -0.336 N 
ATOM     18  C   UNL     1      -0.171   1.541  -0.940  1.00  0.00     0.262 C 
ATOM     19  C   UNL     1      -0.259  -0.877  -0.997  1.00  0.00     0.287 C 
ATOM     20  H   UNL     1      -0.887   0.338   0.492  1.00  0.00     0.347 HD
ATOM     21  C   UNL     1       1.307   1.493  -0.500  1.00  0.00     0.064 C 
ATOM     22  C   UNL     1       1.993   0.160  -0.838  1.00  0.00     0.037 C 
ENDBRANCH  10  15
ENDBRANCH   7   9
BRANCH   7  23
ATOM     23  C   UNL     1      -0.674  -1.570   2.395  1.00  0.00     0.420 C 
ATOM     24  F   UNL     1      -0.272  -0.312   2.159  1.00  0.00    -0.168 F 
ATOM     25  F   UNL     1      -1.361  -2.019   1.317  1.00  0.00    -0.168 F 
ATOM     26  F   UNL     1      -1.603  -1.484   3.392  1.00  0.00    -0.168 F 
ENDBRANCH   7  23
ENDBRANCH   4   7
ENDBRANCH   2   3
ENDBRANCH   1   2
BRANCH   1  27
ATOM     27  C   UNL     1       4.373  -3.442   6.436  1.00  0.00     0.023 C 
BRANCH  27  28
ATOM     28  C   UNL     1       3.551  -3.613   7.705  1.00  0.00     0.116 C 
BRANCH  28  29
ATOM     29  N   UNL     1       3.394  -5.005   8.097  1.00  0.00    -0.352 N 
ATOM     30  C   UNL     1       3.626  -5.582   9.320  1.00  0.00     0.251 C 
ATOM     31  H   UNL     1       3.079  -5.614   7.390  1.00  0.00     0.163 HD
ATOM     32  O   UNL     1       3.559  -6.798   9.463  1.00  0.00    -0.269 OA
BRANCH  30  33
ATOM     33  C   UNL     1       3.994  -4.718  10.457  1.00  0.00     0.039 A 
ATOM     34  C   UNL     1       5.143  -5.018  11.191  1.00  0.00     0.014 A 
ATOM     35  C   UNL     1       3.233  -3.584  10.752  1.00  0.00     0.014 A 
ATOM     36  C   UNL     1       5.570  -4.138  12.186  1.00  0.00     0.010 A 
ATOM     37  C   UNL     1       3.704  -2.671  11.687  1.00  0.00     0.010 A 
ATOM     38  C   UNL     1       4.872  -2.942  12.417  1.00  0.00    -0.014 A 
BRANCH  38  39
ATOM     39  C   UNL     1       5.320  -1.965  13.440  1.00  0.00     0.031 A 
ATOM     40  C   UNL     1       4.431  -1.672  14.615  1.00  0.00     0.074 A 
ATOM     41  C   UNL     1       6.471  -1.287  13.270  1.00  0.00     0.049 A 
ATOM     42  N   UNL     1       4.558  -0.761  15.546  1.00  0.00    -0.248 NA
ATOM     43  C   UNL     1       3.215  -2.492  14.740  1.00  0.00     0.031 C 
ATOM     44  C   UNL     1       7.400  -1.459  12.152  1.00  0.00     0.029 A 
ATOM     45  N   UNL     1       7.046  -0.300  14.031  1.00  0.00    -0.354 N 
ATOM     46  C   UNL     1       3.430  -0.882  16.345  1.00  0.00     0.074 A 
ATOM     47  C   UNL     1       2.604  -1.916  15.764  1.00  0.00     0.031 C 
ATOM     48  C   UNL     1       8.434  -0.617  12.308  1.00  0.00     0.029 A 
ATOM     49  C   UNL     1       8.222   0.183  13.511  1.00  0.00     0.049 A 
ATOM     50  H   UNL     1       6.653   0.030  14.871  1.00  0.00     0.167 HD
ATOM     51  C   UNL     1       3.122  -0.205  17.477  1.00  0.00     0.037 A 
ATOM     52  C   UNL     1       9.027   1.169  13.949  1.00  0.00     0.037 A 
ATOM     53  C   UNL     1       3.966   0.796  18.070  1.00  0.00     0.049 A 
ATOM     54  C   UNL     1       8.662   1.907  15.211  1.00  0.00     0.074 A 
ATOM     55  C   UNL     1       3.773   1.502  19.244  1.00  0.00     0.029 A 
ATOM     56  N   UNL     1       5.169   1.230  17.533  1.00  0.00    -0.354 N 
ATOM     57  N   UNL     1       7.620   1.748  15.990  1.00  0.00    -0.248 NA
ATOM     58  C   UNL     1       9.589   2.956  15.658  1.00  0.00     0.031 C 
ATOM     59  C   UNL     1       4.840   2.393  19.397  1.00  0.00     0.029 A 
ATOM     60  C   UNL     1       5.723   2.204  18.346  1.00  0.00     0.049 A 
ATOM     61  H   UNL     1       5.570   0.895  16.698  1.00  0.00     0.167 HD
ATOM     62  C   UNL     1       7.785   2.645  17.037  1.00  0.00     0.074 A 
ATOM     63  C   UNL     1       9.029   3.345  16.795  1.00  0.00     0.031 C 
ATOM     64  C   UNL     1       6.980   2.867  18.104  1.00  0.00     0.037 A 
BRANCH  51  65
ATOM     65  C   UNL     1       1.820  -0.531  18.148  1.00  0.00     0.064 A 
ATOM     66  C   UNL     1       1.608  -1.762  18.787  1.00  0.00     0.173 A 
ATOM     67  C   UNL     1       0.779   0.410  18.177  1.00  0.00     0.173 A 
ATOM     68  F   UNL     1       2.566  -2.702  18.776  1.00  0.00    -0.203 F 
ATOM     69  C   UNL     1       0.394  -2.051  19.403  1.00  0.00     0.198 A 
ATOM     70  C   UNL     1      -0.422   0.130  18.822  1.00  0.00     0.198 A 
ATOM     71  F   UNL     1       0.930   1.604  17.585  1.00  0.00    -0.203 F 
ATOM     72  F   UNL     1       0.196  -3.254  19.960  1.00  0.00    -0.200 F 
ATOM     73  C   UNL     1      -0.617  -1.102  19.427  1.00  0.00     0.200 A 
ATOM     74  F   UNL     1      -1.393   1.053  18.856  1.00  0.00    -0.200 F 
ATOM     75  F   UNL     1      -1.783  -1.379  20.027  1.00  0.00    -0.200 F 
ENDBRANCH  51  65
BRANCH  52  76
ATOM     76  C   UNL     1      10.270   1.503  13.205  1.00  0.00     0.064 A 
ATOM     77  C   UNL     1      11.530   1.221  13.750  1.00  0.00     0.173 A 
ATOM     78  C   UNL     1      10.227   2.116  11.945  1.00  0.00     0.173 A 
ATOM     79  F   UNL     1      11.623   0.653  14.962  1.00  0.00    -0.203 F 
ATOM     80  C   UNL     1      12.701   1.559  13.073  1.00  0.00     0.198 A 
ATOM     81  C   UNL     1      11.398   2.429  11.256  1.00  0.00     0.198 A 
ATOM     82  F   UNL     1       9.047   2.403  11.376  1.00  0.00    -0.203 F 
ATOM     83  F   UNL     1      13.892   1.321  13.639  1.00  0.00    -0.200 F 
ATOM     84  C   UNL     1      12.634   2.158  11.825  1.00  0.00     0.200 A 
ATOM     85  F   UNL     1      11.329   2.994  10.043  1.00  0.00    -0.200 F 
ATOM     86  F   UNL     1      13.759   2.482  11.173  1.00  0.00    -0.200 F 
ENDBRANCH  52  76
BRANCH  64  87
ATOM     87  C   UNL     1       7.443   3.858  19.130  1.00  0.00     0.064 A 
ATOM     88  C   UNL     1       7.419   5.239  18.888  1.00  0.00     0.173 A 
ATOM     89  C   UNL     1       7.848   3.418  20.400  1.00  0.00     0.173 A 
ATOM     90  F   UNL     1       7.053   5.707  17.686  1.00  0.00    -0.203 F 
ATOM     91  C   UNL     1       7.800   6.142  19.877  1.00  0.00     0.198 A 
ATOM     92  C   UNL     1       8.200   4.325  21.394  1.00  0.00     0.198 A 
ATOM     93  F   UNL     1       7.880   2.106  20.682  1.00  0.00    -0.203 F 
ATOM     94  F   UNL     1       7.804   7.457  19.614  1.00  0.00    -0.200 F 
ATOM     95  C   UNL     1       8.179   5.686  21.131  1.00  0.00     0.200 A 
ATOM     96  F   UNL     1       8.551   3.882  22.609  1.00  0.00    -0.200 F 
ATOM     97  F   UNL     1       8.529   6.559  22.085  1.00  0.00    -0.200 F 
ENDBRANCH  64  87
ENDBRANCH  38  39
ENDBRANCH  30  33
ENDBRANCH  28  29
ENDBRANCH  27  28
ENDBRANCH   1  27
TORSDOF 14
