REMARK SMILES C[C@@H](O)[C@@H](NC(=O)CSc1ccncc1)C(=O)NCCCCNC(=O)c1ccc(-c2c3nc(c(-c4c(F)c(F)c(F)c(F)c4F)c4ccc([nH]4)c(-c4c(F)c(F)c(F)c(F)c4F)c4nc(c(-c5c(F)c(F)c(F)c(F)c5F)c5ccc2[nH]5)C=C4)C=C3)cc1
REMARK SMILES IDX 19 1 18 2 16 3 17 4 4 6 2 7 1 8 3 9 5 11 6 12 7 14 8 15 9 16
REMARK SMILES IDX 10 17 11 18 15 19 12 20 14 21 13 22 20 23 21 24 22 25 23 26
REMARK SMILES IDX 24 27 25 29 26 30 27 31 88 32 28 33 87 34 29 35 30 36 31 37
REMARK SMILES IDX 81 38 32 39 86 40 80 41 82 42 33 43 85 44 79 45 78 46 34 48
REMARK SMILES IDX 66 49 46 50 65 51 47 52 50 53 64 54 83 55 48 56 49 57 63 59
REMARK SMILES IDX 84 60 51 61 35 62 36 63 44 64 37 65 38 66 42 67 45 68 39 69
REMARK SMILES IDX 40 70 43 71 41 72 67 73 68 74 76 75 69 76 70 77 74 78 77 79
REMARK SMILES IDX 71 80 72 81 75 82 73 83 52 84 53 85 61 86 54 87 55 88 59 89
REMARK SMILES IDX 62 90 56 91 57 92 60 93 58 94
REMARK H PARENT 18 5 3 10 5 13 23 28 82 47 50 58
REMARK Flexibility Score: inf
ROOT
ATOM      1  C   UNL     1       0.209   2.503   3.517  1.00  0.00     0.116 C 
ENDROOT
BRANCH   1   2
ATOM      2  N   UNL     1      -0.579   3.179   2.526  1.00  0.00    -0.354 N 
ATOM      3  C   UNL     1      -1.262   2.603   1.490  1.00  0.00     0.245 C 
ATOM      4  O   UNL     1      -2.163   3.270   0.973  1.00  0.00    -0.273 OA
ATOM      5  H   UNL     1      -0.635   4.159   2.600  1.00  0.00     0.163 HD
BRANCH   3   6
ATOM      6  C   UNL     1      -0.913   1.187   0.945  1.00  0.00     0.200 C 
BRANCH   6   7
ATOM      7  C   UNL     1       0.499   1.235   0.278  1.00  0.00     0.143 C 
ATOM      8  C   UNL     1       0.800   0.004  -0.580  1.00  0.00     0.041 C 
BRANCH   7   9
ATOM      9  O   UNL     1       0.636   2.375  -0.569  1.00  0.00    -0.391 OA
ATOM     10  H   UNL     1       0.002   2.313  -1.300  1.00  0.00     0.211 HD
ENDBRANCH   7   9
ENDBRANCH   6   7
BRANCH   6  11
ATOM     11  N   UNL     1      -0.993   0.033   1.876  1.00  0.00    -0.341 N 
ATOM     12  C   UNL     1      -2.089  -0.430   2.546  1.00  0.00     0.231 C 
ATOM     13  H   UNL     1      -0.153  -0.459   2.028  1.00  0.00     0.164 HD
ATOM     14  O   UNL     1      -2.367  -1.625   2.436  1.00  0.00    -0.274 OA
BRANCH  12  15
ATOM     15  C   UNL     1      -2.817   0.467   3.510  1.00  0.00     0.174 C 
BRANCH  15  16
ATOM     16  S   UNL     1      -2.296   0.222   5.262  1.00  0.00    -0.116 SA
BRANCH  16  17
ATOM     17  C   UNL     1      -0.978  -0.994   5.237  1.00  0.00     0.011 A 
ATOM     18  C   UNL     1      -1.273  -2.329   5.489  1.00  0.00     0.035 A 
ATOM     19  C   UNL     1       0.366  -0.626   5.178  1.00  0.00     0.035 A 
ATOM     20  C   UNL     1      -0.223  -3.214   5.688  1.00  0.00     0.112 A 
ATOM     21  C   UNL     1       1.347  -1.570   5.433  1.00  0.00     0.112 A 
ATOM     22  N   UNL     1       1.081  -2.863   5.675  1.00  0.00    -0.265 NA
ENDBRANCH  16  17
ENDBRANCH  15  16
ENDBRANCH  12  15
ENDBRANCH   6  11
ENDBRANCH   3   6
ENDBRANCH   1   2
BRANCH   1  23
ATOM     23  C   UNL     1       1.222   3.369   4.251  1.00  0.00     0.023 C 
BRANCH  23  24
ATOM     24  C   UNL     1       0.659   4.300   5.334  1.00  0.00     0.023 C 
BRANCH  24  25
ATOM     25  C   UNL     1      -0.267   3.680   6.387  1.00  0.00     0.116 C 
BRANCH  25  26
ATOM     26  N   UNL     1       0.244   2.434   6.934  1.00  0.00    -0.352 N 
ATOM     27  C   UNL     1       0.536   2.020   8.206  1.00  0.00     0.251 C 
ATOM     28  H   UNL     1       0.416   1.748   6.250  1.00  0.00     0.163 HD
ATOM     29  O   UNL     1       1.158   0.983   8.379  1.00  0.00    -0.269 OA
BRANCH  27  30
ATOM     30  C   UNL     1       0.096   2.820   9.358  1.00  0.00     0.039 A 
ATOM     31  C   UNL     1       0.955   2.966  10.451  1.00  0.00     0.014 A 
ATOM     32  C   UNL     1      -1.174   3.399   9.366  1.00  0.00     0.014 A 
ATOM     33  C   UNL     1       0.572   3.779  11.515  1.00  0.00     0.010 A 
ATOM     34  C   UNL     1      -1.523   4.268  10.386  1.00  0.00     0.010 A 
ATOM     35  C   UNL     1      -0.646   4.475  11.459  1.00  0.00    -0.014 A 
BRANCH  35  36
ATOM     36  C   UNL     1      -0.991   5.489  12.476  1.00  0.00     0.031 A 
ATOM     37  C   UNL     1      -2.177   5.296  13.371  1.00  0.00     0.074 A 
ATOM     38  C   UNL     1      -0.283   6.634  12.494  1.00  0.00     0.049 A 
ATOM     39  N   UNL     1      -2.667   6.101  14.277  1.00  0.00    -0.248 NA
ATOM     40  C   UNL     1      -2.941   4.050  13.195  1.00  0.00     0.031 C 
ATOM     41  C   UNL     1       0.825   6.954  11.589  1.00  0.00     0.029 A 
ATOM     42  N   UNL     1      -0.394   7.745  13.286  1.00  0.00    -0.354 N 
ATOM     43  C   UNL     1      -3.804   5.470  14.765  1.00  0.00     0.074 A 
ATOM     44  C   UNL     1      -3.961   4.241  14.019  1.00  0.00     0.031 C 
ATOM     45  C   UNL     1       1.311   8.165  11.898  1.00  0.00     0.029 A 
ATOM     46  C   UNL     1       0.535   8.715  13.002  1.00  0.00     0.049 A 
ATOM     47  H   UNL     1      -1.075   7.839  13.992  1.00  0.00     0.167 HD
ATOM     48  C   UNL     1      -4.626   5.879  15.761  1.00  0.00     0.037 A 
ATOM     49  C   UNL     1       0.741   9.910  13.583  1.00  0.00     0.037 A 
ATOM     50  C   UNL     1      -4.435   7.099  16.501  1.00  0.00     0.049 A 
ATOM     51  C   UNL     1      -0.130  10.298  14.743  1.00  0.00     0.074 A 
ATOM     52  C   UNL     1      -5.164   7.590  17.569  1.00  0.00     0.029 A 
ATOM     53  N   UNL     1      -3.430   8.023  16.244  1.00  0.00    -0.354 N 
ATOM     54  N   UNL     1      -1.152   9.657  15.258  1.00  0.00    -0.248 NA
ATOM     55  C   UNL     1       0.194  11.560  15.418  1.00  0.00     0.031 C 
ATOM     56  C   UNL     1      -4.620   8.827  17.937  1.00  0.00     0.029 A 
ATOM     57  C   UNL     1      -3.523   9.085  17.129  1.00  0.00     0.049 A 
ATOM     58  H   UNL     1      -2.751   7.937  15.537  1.00  0.00     0.167 HD
ATOM     59  C   UNL     1      -1.583  10.424  16.329  1.00  0.00     0.074 A 
ATOM     60  C   UNL     1      -0.692  11.566  16.404  1.00  0.00     0.031 C 
ATOM     61  C   UNL     1      -2.621  10.209  17.174  1.00  0.00     0.037 A 
BRANCH  48  62
ATOM     62  C   UNL     1      -5.794   4.997  16.101  1.00  0.00     0.064 A 
ATOM     63  C   UNL     1      -5.617   3.736  16.693  1.00  0.00     0.173 A 
ATOM     64  C   UNL     1      -7.107   5.419  15.844  1.00  0.00     0.173 A 
ATOM     65  F   UNL     1      -4.383   3.278  16.948  1.00  0.00    -0.203 F 
ATOM     66  C   UNL     1      -6.707   2.918  16.982  1.00  0.00     0.198 A 
ATOM     67  C   UNL     1      -8.197   4.611  16.163  1.00  0.00     0.198 A 
ATOM     68  F   UNL     1      -7.337   6.615  15.283  1.00  0.00    -0.203 F 
ATOM     69  F   UNL     1      -6.508   1.696  17.494  1.00  0.00    -0.200 F 
ATOM     70  C   UNL     1      -7.996   3.358  16.722  1.00  0.00     0.200 A 
ATOM     71  F   UNL     1      -9.443   5.042  15.922  1.00  0.00    -0.200 F 
ATOM     72  F   UNL     1      -9.043   2.571  17.002  1.00  0.00    -0.200 F 
ENDBRANCH  48  62
BRANCH  49  73
ATOM     73  C   UNL     1       1.858  10.772  13.120  1.00  0.00     0.064 A 
ATOM     74  C   UNL     1       3.006  10.940  13.907  1.00  0.00     0.173 A 
ATOM     75  C   UNL     1       1.825  11.409  11.871  1.00  0.00     0.173 A 
ATOM     76  F   UNL     1       3.082  10.357  15.112  1.00  0.00    -0.203 F 
ATOM     77  C   UNL     1       4.070  11.727  13.472  1.00  0.00     0.198 A 
ATOM     78  C   UNL     1       2.900  12.175  11.425  1.00  0.00     0.198 A 
ATOM     79  F   UNL     1       0.757  11.265  11.072  1.00  0.00    -0.203 F 
ATOM     80  F   UNL     1       5.140  11.898  14.260  1.00  0.00    -0.200 F 
ATOM     81  C   UNL     1       4.019  12.339  12.228  1.00  0.00     0.200 A 
ATOM     82  F   UNL     1       2.857  12.747  10.214  1.00  0.00    -0.200 F 
ATOM     83  F   UNL     1       5.047  13.086  11.805  1.00  0.00    -0.200 F 
ENDBRANCH  49  73
BRANCH  61  84
ATOM     84  C   UNL     1      -2.824  11.224  18.258  1.00  0.00     0.064 A 
ATOM     85  C   UNL     1      -3.310  12.509  17.979  1.00  0.00     0.173 A 
ATOM     86  C   UNL     1      -2.533  10.903  19.592  1.00  0.00     0.173 A 
ATOM     87  F   UNL     1      -3.586  12.867  16.715  1.00  0.00    -0.203 F 
ATOM     88  C   UNL     1      -3.461  13.450  18.992  1.00  0.00     0.198 A 
ATOM     89  C   UNL     1      -2.714  11.837  20.607  1.00  0.00     0.198 A 
ATOM     90  F   UNL     1      -2.072   9.684  19.910  1.00  0.00    -0.203 F 
ATOM     91  F   UNL     1      -3.868  14.692  18.695  1.00  0.00    -0.200 F 
ATOM     92  C   UNL     1      -3.167  13.113  20.305  1.00  0.00     0.200 A 
ATOM     93  F   UNL     1      -2.440  11.506  21.877  1.00  0.00    -0.200 F 
ATOM     94  F   UNL     1      -3.309  14.022  21.279  1.00  0.00    -0.200 F 
ENDBRANCH  61  84
ENDBRANCH  35  36
ENDBRANCH  27  30
ENDBRANCH  25  26
ENDBRANCH  24  25
ENDBRANCH  23  24
ENDBRANCH   1  23
TORSDOF 17
