REMARK SMILES CCC[NH2+][C@H]1C[C@@H](C(=O)NCCCCNC(=O)c2ccc(-c3c4nc(c(-c5c(F)c(F)c(F)c(F)c5F)c5ccc([nH]5)c(-c5c(F)c(F)c(F)c(F)c5F)c5nc(c(-c6c(F)c(F)c(F)c(F)c6F)c6ccc3[nH]6)C=C5)C=C4)cc2)C1
REMARK SMILES IDX 12 1 11 2 10 3 8 4 9 5 7 7 5 8 81 9 6 10 4 11 3 14 2 15 1 16
REMARK SMILES IDX 13 17 14 18 15 19 16 20 17 22 18 23 19 24 80 25 20 26 79 27
REMARK SMILES IDX 21 28 22 29 23 30 73 31 24 32 78 33 72 34 74 35 25 36 77 37
REMARK SMILES IDX 71 38 70 39 26 41 58 42 38 43 57 44 39 45 42 46 56 47 75 48
REMARK SMILES IDX 40 49 41 50 55 52 76 53 43 54 27 55 28 56 36 57 29 58 30 59
REMARK SMILES IDX 34 60 37 61 31 62 32 63 35 64 33 65 59 66 60 67 68 68 61 69
REMARK SMILES IDX 62 70 66 71 69 72 63 73 64 74 67 75 65 76 44 77 45 78 53 79
REMARK SMILES IDX 46 80 47 81 51 82 54 83 48 84 49 85 52 86 50 87
REMARK H PARENT 10 6 4 12 4 13 15 21 74 40 42 51
REMARK Flexibility Score: inf
ROOT
ATOM      1  C   UNL     1      -0.751   5.569   3.819  1.00  0.00     0.023 C 
ENDROOT
BRANCH   1   2
ATOM      2  C   UNL     1      -0.906   6.077   2.388  1.00  0.00     0.116 C 
BRANCH   2   3
ATOM      3  N   UNL     1      -0.061   7.221   2.107  1.00  0.00    -0.356 N 
ATOM      4  C   UNL     1       0.960   7.387   1.203  1.00  0.00     0.223 C 
ATOM      5  O   UNL     1       1.467   8.519   1.173  1.00  0.00    -0.275 OA
ATOM      6  H   UNL     1      -0.252   8.014   2.658  1.00  0.00     0.163 HD
BRANCH   4   7
ATOM      7  C   UNL     1       1.468   6.245   0.305  1.00  0.00     0.090 C 
ATOM      8  C   UNL     1       1.326   4.168  -0.261  1.00  0.00     0.183 C 
ATOM      9  C   UNL     1       0.522   5.442  -0.618  1.00  0.00     0.078 C 
ATOM     10  C   UNL     1       1.911   4.920   0.952  1.00  0.00     0.078 C 
BRANCH   8  11
ATOM     11  N   UNL     1       0.377   3.123   0.139  1.00  0.00    -0.344 N 
ATOM     12  H   UNL     1      -0.441   3.563   0.560  1.00  0.00     0.346 HD
ATOM     13  H   UNL     1       0.117   2.594  -0.694  1.00  0.00     0.346 HD
BRANCH  11  14
ATOM     14  C   UNL     1       0.971   2.195   1.107  1.00  0.00     0.260 C 
BRANCH  14  15
ATOM     15  C   UNL     1       0.341   0.800   1.065  1.00  0.00     0.058 C 
ATOM     16  C   UNL     1       0.833  -0.031  -0.110  1.00  0.00     0.010 C 
ENDBRANCH  14  15
ENDBRANCH  11  14
ENDBRANCH   8  11
ENDBRANCH   4   7
ENDBRANCH   2   3
ENDBRANCH   1   2
BRANCH   1  17
ATOM     17  C   UNL     1      -1.168   6.555   4.911  1.00  0.00     0.023 C 
BRANCH  17  18
ATOM     18  C   UNL     1      -2.568   7.140   4.769  1.00  0.00     0.116 C 
BRANCH  18  19
ATOM     19  N   UNL     1      -3.613   6.129   4.740  1.00  0.00    -0.352 N 
ATOM     20  C   UNL     1      -4.822   6.103   5.390  1.00  0.00     0.251 C 
ATOM     21  H   UNL     1      -3.426   5.348   4.170  1.00  0.00     0.163 HD
ATOM     22  O   UNL     1      -5.526   5.096   5.333  1.00  0.00    -0.269 OA
BRANCH  20  23
ATOM     23  C   UNL     1      -5.269   7.264   6.191  1.00  0.00     0.039 A 
ATOM     24  C   UNL     1      -5.857   7.030   7.436  1.00  0.00     0.014 A 
ATOM     25  C   UNL     1      -5.114   8.575   5.729  1.00  0.00     0.014 A 
ATOM     26  C   UNL     1      -6.230   8.107   8.241  1.00  0.00     0.010 A 
ATOM     27  C   UNL     1      -5.409   9.648   6.568  1.00  0.00     0.010 A 
ATOM     28  C   UNL     1      -5.973   9.427   7.832  1.00  0.00    -0.014 A 
BRANCH  28  29
ATOM     29  C   UNL     1      -6.282  10.570   8.732  1.00  0.00     0.031 A 
ATOM     30  C   UNL     1      -7.304  11.603   8.341  1.00  0.00     0.074 A 
ATOM     31  C   UNL     1      -5.616  10.691   9.897  1.00  0.00     0.049 A 
ATOM     32  N   UNL     1      -7.720  12.650   9.010  1.00  0.00    -0.248 NA
ATOM     33  C   UNL     1      -7.925  11.458   7.015  1.00  0.00     0.031 C 
ATOM     34  C   UNL     1      -4.555   9.795  10.361  1.00  0.00     0.029 A 
ATOM     35  N   UNL     1      -5.735  11.613  10.908  1.00  0.00    -0.354 N 
ATOM     36  C   UNL     1      -8.645  13.283   8.190  1.00  0.00     0.074 A 
ATOM     37  C   UNL     1      -8.681  12.543   6.947  1.00  0.00     0.031 C 
ATOM     38  C   UNL     1      -4.152  10.184  11.581  1.00  0.00     0.029 A 
ATOM     39  C   UNL     1      -4.899  11.375  11.972  1.00  0.00     0.049 A 
ATOM     40  H   UNL     1      -6.361  12.372  10.874  1.00  0.00     0.167 HD
ATOM     41  C   UNL     1      -9.417  14.364   8.459  1.00  0.00     0.037 A 
ATOM     42  C   UNL     1      -4.757  12.038  13.135  1.00  0.00     0.037 A 
ATOM     43  C   UNL     1      -9.388  15.093   9.701  1.00  0.00     0.049 A 
ATOM     44  C   UNL     1      -5.630  13.233  13.407  1.00  0.00     0.074 A 
ATOM     45  C   UNL     1     -10.160  16.175  10.086  1.00  0.00     0.029 A 
ATOM     46  N   UNL     1      -8.537  14.814  10.760  1.00  0.00    -0.354 N 
ATOM     47  N   UNL     1      -6.559  13.772  12.655  1.00  0.00    -0.248 NA
ATOM     48  C   UNL     1      -5.446  13.901  14.702  1.00  0.00     0.031 C 
ATOM     49  C   UNL     1      -9.744  16.581  11.358  1.00  0.00     0.029 A 
ATOM     50  C   UNL     1      -8.754  15.715  11.792  1.00  0.00     0.049 A 
ATOM     51  H   UNL     1      -7.876  14.085  10.777  1.00  0.00     0.167 HD
ATOM     52  C   UNL     1      -7.090  14.819  13.396  1.00  0.00     0.074 A 
ATOM     53  C   UNL     1      -6.399  14.820  14.668  1.00  0.00     0.031 C 
ATOM     54  C   UNL     1      -8.061  15.702  13.055  1.00  0.00     0.037 A 
BRANCH  41  55
ATOM     55  C   UNL     1     -10.373  14.819   7.391  1.00  0.00     0.064 A 
ATOM     56  C   UNL     1     -11.495  14.053   7.036  1.00  0.00     0.173 A 
ATOM     57  C   UNL     1     -10.194  16.053   6.748  1.00  0.00     0.173 A 
ATOM     58  F   UNL     1     -11.709  12.860   7.611  1.00  0.00    -0.203 F 
ATOM     59  C   UNL     1     -12.386  14.494   6.061  1.00  0.00     0.198 A 
ATOM     60  C   UNL     1     -11.105  16.506   5.797  1.00  0.00     0.198 A 
ATOM     61  F   UNL     1      -9.142  16.828   7.052  1.00  0.00    -0.203 F 
ATOM     62  F   UNL     1     -13.423  13.724   5.706  1.00  0.00    -0.200 F 
ATOM     63  C   UNL     1     -12.195  15.723   5.449  1.00  0.00     0.200 A 
ATOM     64  F   UNL     1     -10.927  17.701   5.217  1.00  0.00    -0.200 F 
ATOM     65  F   UNL     1     -13.060  16.152   4.519  1.00  0.00    -0.200 F 
ENDBRANCH  41  55
BRANCH  42  66
ATOM     66  C   UNL     1      -3.776  11.570  14.150  1.00  0.00     0.064 A 
ATOM     67  C   UNL     1      -4.203  11.052  15.382  1.00  0.00     0.173 A 
ATOM     68  C   UNL     1      -2.394  11.657  13.926  1.00  0.00     0.173 A 
ATOM     69  F   UNL     1      -5.514  10.965  15.653  1.00  0.00    -0.203 F 
ATOM     70  C   UNL     1      -3.288  10.674  16.362  1.00  0.00     0.198 A 
ATOM     71  C   UNL     1      -1.480  11.246  14.894  1.00  0.00     0.198 A 
ATOM     72  F   UNL     1      -1.931  12.138  12.763  1.00  0.00    -0.203 F 
ATOM     73  F   UNL     1      -3.726  10.243  17.553  1.00  0.00    -0.200 F 
ATOM     74  C   UNL     1      -1.927  10.767  16.116  1.00  0.00     0.200 A 
ATOM     75  F   UNL     1      -0.165  11.323  14.646  1.00  0.00    -0.200 F 
ATOM     76  F   UNL     1      -1.048  10.406  17.060  1.00  0.00    -0.200 F 
ENDBRANCH  42  66
BRANCH  54  77
ATOM     77  C   UNL     1      -8.459  16.713  14.094  1.00  0.00     0.064 A 
ATOM     78  C   UNL     1      -7.592  17.740  14.500  1.00  0.00     0.173 A 
ATOM     79  C   UNL     1      -9.724  16.649  14.698  1.00  0.00     0.173 A 
ATOM     80  F   UNL     1      -6.366  17.840  13.963  1.00  0.00    -0.203 F 
ATOM     81  C   UNL     1      -7.956  18.630  15.507  1.00  0.00     0.198 A 
ATOM     82  C   UNL     1     -10.100  17.564  15.678  1.00  0.00     0.198 A 
ATOM     83  F   UNL     1     -10.597  15.695  14.341  1.00  0.00    -0.203 F 
ATOM     84  F   UNL     1      -7.082  19.552  15.931  1.00  0.00    -0.200 F 
ATOM     85  C   UNL     1      -9.211  18.544  16.092  1.00  0.00     0.200 A 
ATOM     86  F   UNL     1     -11.319  17.490  16.230  1.00  0.00    -0.200 F 
ATOM     87  F   UNL     1      -9.557  19.397  17.065  1.00  0.00    -0.200 F 
ENDBRANCH  54  77
ENDBRANCH  28  29
ENDBRANCH  20  23
ENDBRANCH  18  19
ENDBRANCH  17  18
ENDBRANCH   1  17
TORSDOF 14
