REMARK SMILES CSc1nc(N)cc(Nc2cccc(C(=O)NCCCCNC(=O)c3ccc(-c4c5nc(c(-c6c(F)c(F)c(F)c(F)c6F)c6ccc([nH]6)c(-c6c(F)c(F)c(F)c(F)c6F)c6nc(c(-c7c(F)c(F)c(F)c(F)c7F)c7ccc4[nH]7)C=C6)C=C5)cc3)c2)n1
REMARK SMILES IDX 19 1 18 2 17 3 15 4 16 5 14 7 10 8 11 9 88 10 12 11 13 12
REMARK SMILES IDX 9 13 8 15 3 16 4 17 89 18 5 19 7 20 2 21 1 22 6 23 20 26
REMARK SMILES IDX 21 27 22 28 23 29 24 31 25 32 26 33 87 34 27 35 86 36 28 37
REMARK SMILES IDX 29 38 30 39 80 40 31 41 85 42 79 43 81 44 32 45 84 46 78 47
REMARK SMILES IDX 77 48 33 50 65 51 45 52 64 53 46 54 49 55 63 56 82 57 47 58
REMARK SMILES IDX 48 59 62 61 83 62 50 63 34 64 35 65 43 66 36 67 37 68 41 69
REMARK SMILES IDX 44 70 38 71 39 72 42 73 40 74 66 75 67 76 75 77 68 78 69 79
REMARK SMILES IDX 73 80 76 81 70 82 71 83 74 84 72 85 51 86 52 87 60 88 53 89
REMARK SMILES IDX 54 90 58 91 61 92 55 93 56 94 59 95 57 96
REMARK H PARENT 17 6 9 14 6 24 6 25 22 30 81 49 49 60
REMARK Flexibility Score: inf
ROOT
ATOM      1  C   UNL     1       4.064   4.318  -0.547  1.00  0.00     0.023 C 
ENDROOT
BRANCH   1   2
ATOM      2  C   UNL     1       2.641   3.778  -0.597  1.00  0.00     0.116 C 
BRANCH   2   3
ATOM      3  N   UNL     1       1.723   4.395   0.348  1.00  0.00    -0.352 N 
ATOM      4  C   UNL     1       0.442   4.877   0.172  1.00  0.00     0.251 C 
ATOM      5  O   UNL     1      -0.136   5.385   1.131  1.00  0.00    -0.269 OA
ATOM      6  H   UNL     1       2.074   4.485   1.264  1.00  0.00     0.163 HD
BRANCH   4   7
ATOM      7  C   UNL     1      -0.227   4.856  -1.155  1.00  0.00     0.041 A 
ATOM      8  C   UNL     1      -0.466   3.903  -3.387  1.00  0.00     0.040 A 
ATOM      9  C   UNL     1      -1.229   5.020  -3.751  1.00  0.00     0.026 A 
ATOM     10  C   UNL     1      -0.050   3.804  -2.056  1.00  0.00     0.040 A 
ATOM     11  C   UNL     1      -1.542   6.014  -2.816  1.00  0.00     0.003 A 
ATOM     12  C   UNL     1      -1.024   5.942  -1.524  1.00  0.00     0.014 A 
BRANCH   8  13
ATOM     13  N   UNL     1      -0.067   2.975  -4.365  1.00  0.00    -0.340 N 
ATOM     14  H   UNL     1      -0.219   3.262  -5.295  1.00  0.00     0.168 HD
BRANCH  13  15
ATOM     15  C   UNL     1       0.514   1.699  -4.225  1.00  0.00     0.137 A 
ATOM     16  C   UNL     1       0.894  -0.224  -3.039  1.00  0.00     0.191 A 
ATOM     17  N   UNL     1       1.702  -0.744  -3.969  1.00  0.00    -0.206 NA
ATOM     18  N   UNL     1       0.303   0.976  -3.115  1.00  0.00    -0.205 NA
ATOM     19  C   UNL     1       1.912  -0.004  -5.057  1.00  0.00     0.130 A 
ATOM     20  C   UNL     1       1.345   1.238  -5.229  1.00  0.00     0.093 A 
BRANCH  16  21
ATOM     21  S   UNL     1       0.551  -1.229  -1.618  1.00  0.00    -0.090 SA
ATOM     22  C   UNL     1       0.987  -0.046  -0.326  1.00  0.00     0.094 C 
ENDBRANCH  16  21
BRANCH  19  23
ATOM     23  N   UNL     1       2.790  -0.521  -5.991  1.00  0.00    -0.383 N 
ATOM     24  H   UNL     1       3.187  -1.411  -5.854  1.00  0.00     0.158 HD
ATOM     25  H   UNL     1       3.019   0.002  -6.793  1.00  0.00     0.158 HD
ENDBRANCH  19  23
ENDBRANCH  13  15
ENDBRANCH   8  13
ENDBRANCH   4   7
ENDBRANCH   2   3
ENDBRANCH   1   2
BRANCH   1  26
ATOM     26  C   UNL     1       4.822   4.114   0.758  1.00  0.00     0.023 C 
BRANCH  26  27
ATOM     27  C   UNL     1       4.824   2.697   1.321  1.00  0.00     0.116 C 
BRANCH  27  28
ATOM     28  N   UNL     1       5.348   1.694   0.406  1.00  0.00    -0.352 N 
ATOM     29  C   UNL     1       6.325   0.744   0.603  1.00  0.00     0.251 C 
ATOM     30  H   UNL     1       4.941   1.694  -0.491  1.00  0.00     0.163 HD
ATOM     31  O   UNL     1       6.683   0.027  -0.323  1.00  0.00    -0.269 OA
BRANCH  29  32
ATOM     32  C   UNL     1       6.983   0.620   1.923  1.00  0.00     0.039 A 
ATOM     33  C   UNL     1       8.378   0.539   1.971  1.00  0.00     0.014 A 
ATOM     34  C   UNL     1       6.241   0.617   3.105  1.00  0.00     0.014 A 
ATOM     35  C   UNL     1       9.032   0.554   3.205  1.00  0.00     0.010 A 
ATOM     36  C   UNL     1       6.894   0.718   4.330  1.00  0.00     0.010 A 
ATOM     37  C   UNL     1       8.297   0.696   4.393  1.00  0.00    -0.014 A 
BRANCH  37  38
ATOM     38  C   UNL     1       8.972   0.845   5.708  1.00  0.00     0.031 A 
ATOM     39  C   UNL     1       8.764  -0.180   6.786  1.00  0.00     0.074 A 
ATOM     40  C   UNL     1       9.699   1.951   5.962  1.00  0.00     0.049 A 
ATOM     41  N   UNL     1       9.192  -0.180   8.024  1.00  0.00    -0.248 NA
ATOM     42  C   UNL     1       7.935  -1.344   6.438  1.00  0.00     0.031 C 
ATOM     43  C   UNL     1       9.919   3.053   5.024  1.00  0.00     0.029 A 
ATOM     44  N   UNL     1      10.371   2.341   7.094  1.00  0.00    -0.354 N 
ATOM     45  C   UNL     1       8.664  -1.325   8.605  1.00  0.00     0.074 A 
ATOM     46  C   UNL     1       7.845  -1.970   7.601  1.00  0.00     0.031 C 
ATOM     47  C   UNL     1      10.684   3.986   5.612  1.00  0.00     0.029 A 
ATOM     48  C   UNL     1      10.981   3.567   6.979  1.00  0.00     0.049 A 
ATOM     49  H   UNL     1      10.412   1.794   7.912  1.00  0.00     0.167 HD
ATOM     50  C   UNL     1       8.862  -1.806   9.856  1.00  0.00     0.037 A 
ATOM     51  C   UNL     1      11.692   4.276   7.875  1.00  0.00     0.037 A 
ATOM     52  C   UNL     1       9.708  -1.183  10.838  1.00  0.00     0.049 A 
ATOM     53  C   UNL     1      11.927   3.704   9.246  1.00  0.00     0.074 A 
ATOM     54  C   UNL     1      10.045  -1.639  12.101  1.00  0.00     0.029 A 
ATOM     55  N   UNL     1      10.350   0.035  10.668  1.00  0.00    -0.354 N 
ATOM     56  N   UNL     1      11.495   2.577   9.757  1.00  0.00    -0.248 NA
ATOM     57  C   UNL     1      12.757   4.498  10.163  1.00  0.00     0.031 C 
ATOM     58  C   UNL     1      10.856  -0.676  12.711  1.00  0.00     0.029 A 
ATOM     59  C   UNL     1      11.063   0.358  11.812  1.00  0.00     0.049 A 
ATOM     60  H   UNL     1      10.305   0.589   9.855  1.00  0.00     0.167 HD
ATOM     61  C   UNL     1      12.017   2.514  11.041  1.00  0.00     0.074 A 
ATOM     62  C   UNL     1      12.811   3.711  11.228  1.00  0.00     0.031 C 
ATOM     63  C   UNL     1      11.851   1.552  11.982  1.00  0.00     0.037 A 
BRANCH  50  64
ATOM     64  C   UNL     1       8.150  -3.074  10.230  1.00  0.00     0.064 A 
ATOM     65  C   UNL     1       8.502  -4.310   9.668  1.00  0.00     0.173 A 
ATOM     66  C   UNL     1       7.119  -3.055  11.181  1.00  0.00     0.173 A 
ATOM     67  F   UNL     1       9.474  -4.381   8.746  1.00  0.00    -0.203 F 
ATOM     68  C   UNL     1       7.824  -5.476  10.018  1.00  0.00     0.198 A 
ATOM     69  C   UNL     1       6.464  -4.227  11.552  1.00  0.00     0.198 A 
ATOM     70  F   UNL     1       6.747  -1.901  11.754  1.00  0.00    -0.203 F 
ATOM     71  F   UNL     1       8.142  -6.636   9.427  1.00  0.00    -0.200 F 
ATOM     72  C   UNL     1       6.811  -5.434  10.964  1.00  0.00     0.200 A 
ATOM     73  F   UNL     1       5.494  -4.188  12.475  1.00  0.00    -0.200 F 
ATOM     74  F   UNL     1       6.163  -6.557  11.302  1.00  0.00    -0.200 F 
ENDBRANCH  50  64
BRANCH  51  75
ATOM     75  C   UNL     1      12.256   5.596   7.492  1.00  0.00     0.064 A 
ATOM     76  C   UNL     1      13.634   5.762   7.300  1.00  0.00     0.173 A 
ATOM     77  C   UNL     1      11.430   6.714   7.300  1.00  0.00     0.173 A 
ATOM     78  F   UNL     1      14.465   4.727   7.492  1.00  0.00    -0.203 F 
ATOM     79  C   UNL     1      14.168   7.000   6.947  1.00  0.00     0.198 A 
ATOM     80  C   UNL     1      11.963   7.944   6.921  1.00  0.00     0.198 A 
ATOM     81  F   UNL     1      10.104   6.605   7.465  1.00  0.00    -0.203 F 
ATOM     82  F   UNL     1      15.493   7.140   6.808  1.00  0.00    -0.200 F 
ATOM     83  C   UNL     1      13.332   8.088   6.751  1.00  0.00     0.200 A 
ATOM     84  F   UNL     1      11.150   8.990   6.719  1.00  0.00    -0.200 F 
ATOM     85  F   UNL     1      13.845   9.276   6.404  1.00  0.00    -0.200 F 
ENDBRANCH  51  75
BRANCH  63  86
ATOM     86  C   UNL     1      12.563   1.739  13.289  1.00  0.00     0.064 A 
ATOM     87  C   UNL     1      12.141   2.693  14.226  1.00  0.00     0.173 A 
ATOM     88  C   UNL     1      13.654   0.923  13.627  1.00  0.00     0.173 A 
ATOM     89  F   UNL     1      11.112   3.507  13.944  1.00  0.00    -0.203 F 
ATOM     90  C   UNL     1      12.799   2.840  15.444  1.00  0.00     0.198 A 
ATOM     91  C   UNL     1      14.292   1.053  14.857  1.00  0.00     0.198 A 
ATOM     92  F   UNL     1      14.093  -0.008  12.767  1.00  0.00    -0.203 F 
ATOM     93  F   UNL     1      12.406   3.788  16.306  1.00  0.00    -0.200 F 
ATOM     94  C   UNL     1      13.868   2.015  15.761  1.00  0.00     0.200 A 
ATOM     95  F   UNL     1      15.317   0.248  15.166  1.00  0.00    -0.200 F 
ATOM     96  F   UNL     1      14.496   2.152  16.938  1.00  0.00    -0.200 F 
ENDBRANCH  63  86
ENDBRANCH  37  38
ENDBRANCH  29  32
ENDBRANCH  27  28
ENDBRANCH  26  27
ENDBRANCH   1  26
TORSDOF 15
