REMARK SMILES COc1cccc(CSc2nc3ccccc3c(=O)n2CCC(=O)NCCCCNC(=O)c2ccc(-c3c4nc(c(-c5c(F)c(F)c(F)c(F)c5F)c5ccc([nH]5)c(-c5c(F)c(F)c(F)c(F)c5F)c5nc(c(-c6c(F)c(F)c(F)c(F)c6F)c6ccc3[nH]6)C=C5)C=C4)cc2)c1
REMARK SMILES IDX 23 1 24 2 25 3 22 5 21 6 20 7 10 8 11 9 12 10 18 11 13 12
REMARK SMILES IDX 17 13 19 14 14 15 16 16 15 17 9 18 8 19 7 20 3 21 4 22 96 23
REMARK SMILES IDX 5 24 6 25 2 26 1 27 26 28 27 29 28 30 29 31 30 32 31 33
REMARK SMILES IDX 32 35 33 36 34 37 95 38 35 39 94 40 36 41 37 42 38 43 88 44
REMARK SMILES IDX 39 45 93 46 87 47 89 48 40 49 92 50 86 51 85 52 41 54 73 55
REMARK SMILES IDX 53 56 72 57 54 58 57 59 71 60 90 61 55 62 56 63 70 65 91 66
REMARK SMILES IDX 58 67 42 68 43 69 51 70 44 71 45 72 49 73 52 74 46 75 47 76
REMARK SMILES IDX 50 77 48 78 74 79 75 80 83 81 76 82 77 83 81 84 84 85 78 86
REMARK SMILES IDX 79 87 82 88 80 89 59 90 60 91 68 92 61 93 62 94 66 95 69 96
REMARK SMILES IDX 63 97 64 98 67 99 65 100
REMARK H PARENT 25 4 30 34 89 53 57 64
REMARK Flexibility Score: inf
ROOT
ATOM      1  C   UNL     1       5.931  -2.438   1.691  1.00  0.00     0.221 C 
ATOM      2  O   UNL     1       5.567  -2.720   0.549  1.00  0.00    -0.275 OA
ATOM      3  N   UNL     1       6.953  -3.153   2.250  1.00  0.00    -0.356 N 
ATOM      4  H   UNL     1       7.402  -3.796   1.655  1.00  0.00     0.163 HD
ENDROOT
BRANCH   1   5
ATOM      5  C   UNL     1       5.265  -1.316   2.471  1.00  0.00     0.122 C 
BRANCH   5   6
ATOM      6  C   UNL     1       3.733  -1.454   2.425  1.00  0.00     0.138 C 
BRANCH   6   7
ATOM      7  N   UNL     1       3.154  -1.713   3.747  1.00  0.00    -0.287 N 
ATOM      8  C   UNL     1       3.116  -2.931   4.404  1.00  0.00     0.171 A 
ATOM      9  N   UNL     1       3.230  -3.006   5.697  1.00  0.00    -0.224 NA
ATOM     10  C   UNL     1       3.373  -1.829   6.439  1.00  0.00     0.079 A 
ATOM     11  C   UNL     1       2.804  -0.555   4.453  1.00  0.00     0.262 A 
ATOM     12  C   UNL     1       3.898  -1.867   7.734  1.00  0.00     0.029 A 
ATOM     13  C   UNL     1       3.021  -0.597   5.905  1.00  0.00     0.066 A 
ATOM     14  O   UNL     1       2.442   0.495   3.928  1.00  0.00    -0.269 OA
ATOM     15  C   UNL     1       4.020  -0.693   8.487  1.00  0.00     0.002 A 
ATOM     16  C   UNL     1       3.074   0.576   6.668  1.00  0.00     0.016 A 
ATOM     17  C   UNL     1       3.575   0.523   7.967  1.00  0.00     0.001 A 
BRANCH   8  18
ATOM     18  S   UNL     1       3.068  -4.517   3.655  1.00  0.00    -0.083 SA
BRANCH  18  19
ATOM     19  C   UNL     1       2.478  -4.505   1.968  1.00  0.00     0.113 C 
BRANCH  19  20
ATOM     20  C   UNL     1       1.108  -3.926   1.770  1.00  0.00    -0.034 A 
ATOM     21  C   UNL     1      -0.328  -2.179   0.875  1.00  0.00     0.119 A 
ATOM     22  C   UNL     1      -1.425  -2.784   1.487  1.00  0.00     0.046 A 
ATOM     23  C   UNL     1       0.923  -2.783   0.976  1.00  0.00     0.051 A 
ATOM     24  C   UNL     1      -1.272  -3.965   2.213  1.00  0.00     0.004 A 
ATOM     25  C   UNL     1      -0.008  -4.528   2.363  1.00  0.00     0.005 A 
BRANCH  21  26
ATOM     26  O   UNL     1      -0.592  -1.014   0.209  1.00  0.00    -0.497 OA
ATOM     27  C   UNL     1       0.534  -0.219  -0.151  1.00  0.00     0.278 C 
ENDBRANCH  21  26
ENDBRANCH  19  20
ENDBRANCH  18  19
ENDBRANCH   8  18
ENDBRANCH   6   7
ENDBRANCH   5   6
ENDBRANCH   1   5
BRANCH   3  28
ATOM     28  C   UNL     1       7.461  -3.086   3.611  1.00  0.00     0.116 C 
BRANCH  28  29
ATOM     29  C   UNL     1       6.394  -3.546   4.592  1.00  0.00     0.023 C 
BRANCH  29  30
ATOM     30  C   UNL     1       6.548  -4.939   5.182  1.00  0.00     0.023 C 
BRANCH  30  31
ATOM     31  C   UNL     1       7.521  -4.993   6.341  1.00  0.00     0.116 C 
BRANCH  31  32
ATOM     32  N   UNL     1       7.212  -4.063   7.422  1.00  0.00    -0.352 N 
ATOM     33  C   UNL     1       7.618  -4.080   8.737  1.00  0.00     0.251 C 
ATOM     34  H   UNL     1       6.625  -3.312   7.174  1.00  0.00     0.163 HD
ATOM     35  O   UNL     1       7.246  -3.211   9.509  1.00  0.00    -0.269 OA
BRANCH  33  36
ATOM     36  C   UNL     1       8.411  -5.231   9.224  1.00  0.00     0.039 A 
ATOM     37  C   UNL     1       8.027  -5.833  10.424  1.00  0.00     0.014 A 
ATOM     38  C   UNL     1       9.410  -5.802   8.439  1.00  0.00     0.014 A 
ATOM     39  C   UNL     1       8.547  -7.081  10.761  1.00  0.00     0.010 A 
ATOM     40  C   UNL     1       9.820  -7.098   8.703  1.00  0.00     0.010 A 
ATOM     41  C   UNL     1       9.382  -7.758   9.859  1.00  0.00    -0.014 A 
BRANCH  41  42
ATOM     42  C   UNL     1       9.793  -9.165  10.083  1.00  0.00     0.031 A 
ATOM     43  C   UNL     1      11.252  -9.515  10.129  1.00  0.00     0.074 A 
ATOM     44  C   UNL     1       8.855 -10.132  10.127  1.00  0.00     0.049 A 
ATOM     45  N   UNL     1      11.822 -10.692  10.170  1.00  0.00    -0.248 NA
ATOM     46  C   UNL     1      12.203  -8.393  10.058  1.00  0.00     0.031 C 
ATOM     47  C   UNL     1       7.410  -9.925   9.992  1.00  0.00     0.029 A 
ATOM     48  N   UNL     1       8.977 -11.489  10.288  1.00  0.00    -0.354 N 
ATOM     49  C   UNL     1      13.185 -10.450  10.079  1.00  0.00     0.074 A 
ATOM     50  C   UNL     1      13.357  -9.024   9.917  1.00  0.00     0.031 C 
ATOM     51  C   UNL     1       6.779 -11.102  10.126  1.00  0.00     0.029 A 
ATOM     52  C   UNL     1       7.774 -12.151  10.317  1.00  0.00     0.049 A 
ATOM     53  H   UNL     1       9.845 -11.945  10.375  1.00  0.00     0.167 HD
ATOM     54  C   UNL     1      14.205 -11.337  10.158  1.00  0.00     0.037 A 
ATOM     55  C   UNL     1       7.509 -13.459  10.489  1.00  0.00     0.037 A 
ATOM     56  C   UNL     1      14.025 -12.741  10.402  1.00  0.00     0.049 A 
ATOM     57  C   UNL     1       8.658 -14.410  10.680  1.00  0.00     0.074 A 
ATOM     58  C   UNL     1      14.985 -13.717  10.592  1.00  0.00     0.029 A 
ATOM     59  N   UNL     1      12.789 -13.363  10.514  1.00  0.00    -0.354 N 
ATOM     60  N   UNL     1       9.946 -14.163  10.659  1.00  0.00    -0.248 NA
ATOM     61  C   UNL     1       8.319 -15.817  10.929  1.00  0.00     0.031 C 
ATOM     62  C   UNL     1      14.330 -14.935  10.805  1.00  0.00     0.029 A 
ATOM     63  C   UNL     1      12.962 -14.711  10.775  1.00  0.00     0.049 A 
ATOM     64  H   UNL     1      11.919 -12.913  10.421  1.00  0.00     0.167 HD
ATOM     65  C   UNL     1      10.570 -15.375  10.911  1.00  0.00     0.074 A 
ATOM     66  C   UNL     1       9.519 -16.354  11.100  1.00  0.00     0.031 C 
ATOM     67  C   UNL     1      11.894 -15.656  10.974  1.00  0.00     0.037 A 
BRANCH  54  68
ATOM     68  C   UNL     1      15.597 -10.797  10.007  1.00  0.00     0.064 A 
ATOM     69  C   UNL     1      16.176  -9.973  10.985  1.00  0.00     0.173 A 
ATOM     70  C   UNL     1      16.359 -11.097   8.868  1.00  0.00     0.173 A 
ATOM     71  F   UNL     1      15.482  -9.641  12.084  1.00  0.00    -0.203 F 
ATOM     72  C   UNL     1      17.446  -9.433  10.807  1.00  0.00     0.198 A 
ATOM     73  C   UNL     1      17.643 -10.582   8.709  1.00  0.00     0.198 A 
ATOM     74  F   UNL     1      15.855 -11.882   7.904  1.00  0.00    -0.203 F 
ATOM     75  F   UNL     1      17.948  -8.592  11.722  1.00  0.00    -0.200 F 
ATOM     76  C   UNL     1      18.180  -9.741   9.672  1.00  0.00     0.200 A 
ATOM     77  F   UNL     1      18.355 -10.886   7.615  1.00  0.00    -0.200 F 
ATOM     78  F   UNL     1      19.401  -9.216   9.500  1.00  0.00    -0.200 F 
ENDBRANCH  54  68
BRANCH  55  79
ATOM     79  C   UNL     1       6.103 -13.934  10.550  1.00  0.00     0.064 A 
ATOM     80  C   UNL     1       5.541 -14.342  11.769  1.00  0.00     0.173 A 
ATOM     81  C   UNL     1       5.293 -13.989   9.408  1.00  0.00     0.173 A 
ATOM     82  F   UNL     1       6.283 -14.323  12.886  1.00  0.00    -0.203 F 
ATOM     83  C   UNL     1       4.230 -14.807  11.839  1.00  0.00     0.198 A 
ATOM     84  C   UNL     1       3.973 -14.433   9.483  1.00  0.00     0.198 A 
ATOM     85  F   UNL     1       5.780 -13.601   8.220  1.00  0.00    -0.203 F 
ATOM     86  F   UNL     1       3.733 -15.230  13.009  1.00  0.00    -0.200 F 
ATOM     87  C   UNL     1       3.446 -14.849  10.697  1.00  0.00     0.200 A 
ATOM     88  F   UNL     1       3.214 -14.461   8.379  1.00  0.00    -0.200 F 
ATOM     89  F   UNL     1       2.184 -15.296  10.764  1.00  0.00    -0.200 F 
ENDBRANCH  55  79
BRANCH  67  90
ATOM     90  C   UNL     1      12.275 -17.070  11.289  1.00  0.00     0.064 A 
ATOM     91  C   UNL     1      12.165 -18.086  10.330  1.00  0.00     0.173 A 
ATOM     92  C   UNL     1      12.799 -17.399  12.547  1.00  0.00     0.173 A 
ATOM     93  F   UNL     1      11.654 -17.819   9.119  1.00  0.00    -0.203 F 
ATOM     94  C   UNL     1      12.552 -19.390  10.627  1.00  0.00     0.198 A 
ATOM     95  C   UNL     1      13.207 -18.698  12.832  1.00  0.00     0.198 A 
ATOM     96  F   UNL     1      12.927 -16.457  13.494  1.00  0.00    -0.203 F 
ATOM     97  F   UNL     1      12.405 -20.355   9.709  1.00  0.00    -0.200 F 
ATOM     98  C   UNL     1      13.078 -19.692  11.874  1.00  0.00     0.200 A 
ATOM     99  F   UNL     1      13.725 -18.988  14.034  1.00  0.00    -0.200 F 
ATOM    100  F   UNL     1      13.457 -20.947  12.155  1.00  0.00    -0.200 F 
ENDBRANCH  67  90
ENDBRANCH  41  42
ENDBRANCH  33  36
ENDBRANCH  31  32
ENDBRANCH  30  31
ENDBRANCH  29  30
ENDBRANCH  28  29
ENDBRANCH   3  28
TORSDOF 17
