REMARK SMILES O=C(NCCCCNC(=O)c1cc(-c2ccc(C(F)(F)F)cc2)cc([N+](=O)[O-])c1)c1ccc(-c2c3nc(c(-c4c(F)c(F)c(F)c(F)c4F)c4ccc([nH]4)c(-c4c(F)c(F)c(F)c(F)c4F)c4nc(c(-c5c(F)c(F)c(F)c(F)c5F)c5ccc2[nH]5)C=C4)C=C3)cc1
REMARK SMILES IDX 5 1 4 2 3 3 1 4 2 5 30 7 31 8 92 9 32 10 91 11 33 12 34 13
REMARK SMILES IDX 35 14 85 15 36 16 90 17 84 18 86 19 37 20 89 21 83 22 82 23
REMARK SMILES IDX 38 25 70 26 50 27 69 28 51 29 54 30 68 31 87 32 52 33 53 34
REMARK SMILES IDX 67 36 88 37 55 38 39 39 40 40 48 41 41 42 42 43 46 44 49 45
REMARK SMILES IDX 43 46 44 47 47 48 45 49 71 50 72 51 80 52 73 53 74 54 78 55
REMARK SMILES IDX 81 56 75 57 76 58 79 59 77 60 56 61 57 62 65 63 58 64 59 65
REMARK SMILES IDX 63 66 66 67 60 68 61 69 64 70 62 71 6 72 7 73 8 74 9 75
REMARK SMILES IDX 10 77 11 78 12 79 29 80 13 81 25 82 24 83 14 84 15 85 23 86
REMARK SMILES IDX 16 87 22 88 17 89 18 90 19 91 20 92 21 93 26 94 27 95 28 96
REMARK H PARENT 3 6 86 24 54 35 8 76
REMARK Flexibility Score: inf
ROOT
ATOM      1  C   UNL     1       4.915  -1.044  -2.336  1.00  0.00     0.023 C 
ENDROOT
BRANCH   1   2
ATOM      2  C   UNL     1       4.567   0.037  -1.324  1.00  0.00     0.116 C 
BRANCH   2   3
ATOM      3  N   UNL     1       3.132   0.219  -1.154  1.00  0.00    -0.352 N 
ATOM      4  O   UNL     1       1.149   0.147  -0.071  1.00  0.00    -0.269 OA
ATOM      5  C   UNL     1       2.374   0.104  -0.013  1.00  0.00     0.251 C 
ATOM      6  H   UNL     1       2.636   0.457  -1.970  1.00  0.00     0.163 HD
BRANCH   5   7
ATOM      7  C   UNL     1       3.049  -0.103   1.285  1.00  0.00     0.039 A 
ATOM      8  C   UNL     1       4.170   0.657   1.621  1.00  0.00     0.014 A 
ATOM      9  C   UNL     1       2.579  -1.089   2.155  1.00  0.00     0.014 A 
ATOM     10  C   UNL     1       4.924   0.311   2.733  1.00  0.00     0.010 A 
ATOM     11  C   UNL     1       3.276  -1.357   3.337  1.00  0.00     0.010 A 
ATOM     12  C   UNL     1       4.475  -0.683   3.618  1.00  0.00    -0.014 A 
BRANCH  12  13
ATOM     13  C   UNL     1       5.245  -0.937   4.861  1.00  0.00     0.031 A 
ATOM     14  C   UNL     1       5.884  -2.270   5.132  1.00  0.00     0.074 A 
ATOM     15  C   UNL     1       5.395   0.077   5.736  1.00  0.00     0.049 A 
ATOM     16  N   UNL     1       6.600  -2.646   6.163  1.00  0.00    -0.248 NA
ATOM     17  C   UNL     1       5.693  -3.322   4.122  1.00  0.00     0.031 C 
ATOM     18  C   UNL     1       4.812   1.413   5.581  1.00  0.00     0.029 A 
ATOM     19  N   UNL     1       6.092   0.157   6.913  1.00  0.00    -0.354 N 
ATOM     20  C   UNL     1       6.938  -3.973   5.931  1.00  0.00     0.074 A 
ATOM     21  C   UNL     1       6.316  -4.351   4.680  1.00  0.00     0.031 C 
ATOM     22  C   UNL     1       5.215   2.191   6.594  1.00  0.00     0.029 A 
ATOM     23  C   UNL     1       6.016   1.391   7.510  1.00  0.00     0.049 A 
ATOM     24  H   UNL     1       6.598  -0.598   7.293  1.00  0.00     0.167 HD
ATOM     25  C   UNL     1       7.708  -4.792   6.689  1.00  0.00     0.037 A 
ATOM     26  C   UNL     1       6.513   1.826   8.682  1.00  0.00     0.037 A 
ATOM     27  C   UNL     1       8.321  -4.405   7.936  1.00  0.00     0.049 A 
ATOM     28  C   UNL     1       7.314   0.876   9.525  1.00  0.00     0.074 A 
ATOM     29  C   UNL     1       9.125  -5.159   8.774  1.00  0.00     0.029 A 
ATOM     30  N   UNL     1       8.192  -3.156   8.528  1.00  0.00    -0.354 N 
ATOM     31  N   UNL     1       7.650  -0.367   9.280  1.00  0.00    -0.248 NA
ATOM     32  C   UNL     1       7.804   1.390  10.810  1.00  0.00     0.031 C 
ATOM     33  C   UNL     1       9.438  -4.385   9.897  1.00  0.00     0.029 A 
ATOM     34  C   UNL     1       8.883  -3.127   9.730  1.00  0.00     0.049 A 
ATOM     35  H   UNL     1       7.684  -2.402   8.150  1.00  0.00     0.167 HD
ATOM     36  C   UNL     1       8.412  -0.775  10.365  1.00  0.00     0.074 A 
ATOM     37  C   UNL     1       8.508   0.361  11.258  1.00  0.00     0.031 C 
ATOM     38  C   UNL     1       8.976  -1.985  10.604  1.00  0.00     0.037 A 
BRANCH  25  39
ATOM     39  C   UNL     1       7.927  -6.197   6.200  1.00  0.00     0.064 A 
ATOM     40  C   UNL     1       8.714  -6.471   5.071  1.00  0.00     0.173 A 
ATOM     41  C   UNL     1       7.390  -7.289   6.902  1.00  0.00     0.173 A 
ATOM     42  F   UNL     1       9.245  -5.466   4.359  1.00  0.00    -0.203 F 
ATOM     43  C   UNL     1       8.934  -7.781   4.649  1.00  0.00     0.198 A 
ATOM     44  C   UNL     1       7.638  -8.598   6.495  1.00  0.00     0.198 A 
ATOM     45  F   UNL     1       6.637  -7.087   7.993  1.00  0.00    -0.203 F 
ATOM     46  F   UNL     1       9.652  -8.014   3.542  1.00  0.00    -0.200 F 
ATOM     47  C   UNL     1       8.403  -8.843   5.365  1.00  0.00     0.200 A 
ATOM     48  F   UNL     1       7.137  -9.623   7.198  1.00  0.00    -0.200 F 
ATOM     49  F   UNL     1       8.625 -10.102   4.964  1.00  0.00    -0.200 F 
ENDBRANCH  25  39
BRANCH  26  50
ATOM     50  C   UNL     1       6.245   3.217   9.132  1.00  0.00     0.064 A 
ATOM     51  C   UNL     1       7.284   4.148   9.267  1.00  0.00     0.173 A 
ATOM     52  C   UNL     1       4.945   3.640   9.450  1.00  0.00     0.173 A 
ATOM     53  F   UNL     1       8.546   3.788   8.990  1.00  0.00    -0.203 F 
ATOM     54  C   UNL     1       7.037   5.438   9.732  1.00  0.00     0.198 A 
ATOM     55  C   UNL     1       4.694   4.941   9.877  1.00  0.00     0.198 A 
ATOM     56  F   UNL     1       3.913   2.791   9.330  1.00  0.00    -0.203 F 
ATOM     57  F   UNL     1       8.056   6.289   9.908  1.00  0.00    -0.200 F 
ATOM     58  C   UNL     1       5.742   5.835  10.031  1.00  0.00     0.200 A 
ATOM     59  F   UNL     1       3.439   5.326  10.143  1.00  0.00    -0.200 F 
ATOM     60  F   UNL     1       5.506   7.076  10.476  1.00  0.00    -0.200 F 
ENDBRANCH  26  50
BRANCH  38  61
ATOM     61  C   UNL     1       9.785  -2.122  11.863  1.00  0.00     0.064 A 
ATOM     62  C   UNL     1       9.186  -2.116  13.132  1.00  0.00     0.173 A 
ATOM     63  C   UNL     1      11.178  -2.274  11.795  1.00  0.00     0.173 A 
ATOM     64  F   UNL     1       7.859  -1.955  13.252  1.00  0.00    -0.203 F 
ATOM     65  C   UNL     1       9.956  -2.221  14.287  1.00  0.00     0.198 A 
ATOM     66  C   UNL     1      11.941  -2.416  12.951  1.00  0.00     0.198 A 
ATOM     67  F   UNL     1      11.800  -2.292  10.607  1.00  0.00    -0.203 F 
ATOM     68  F   UNL     1       9.369  -2.149  15.489  1.00  0.00    -0.200 F 
ATOM     69  C   UNL     1      11.331  -2.379  14.195  1.00  0.00     0.200 A 
ATOM     70  F   UNL     1      13.267  -2.583  12.860  1.00  0.00    -0.200 F 
ATOM     71  F   UNL     1      12.070  -2.483  15.308  1.00  0.00    -0.200 F 
ENDBRANCH  38  61
ENDBRANCH  12  13
ENDBRANCH   5   7
ENDBRANCH   2   3
ENDBRANCH   1   2
BRANCH   1  72
ATOM     72  C   UNL     1       4.441  -0.765  -3.756  1.00  0.00     0.023 C 
BRANCH  72  73
ATOM     73  C   UNL     1       4.844   0.596  -4.310  1.00  0.00     0.116 C 
BRANCH  73  74
ATOM     74  N   UNL     1       6.287   0.773  -4.366  1.00  0.00    -0.352 N 
ATOM     75  C   UNL     1       7.078   1.089  -5.439  1.00  0.00     0.251 C 
ATOM     76  H   UNL     1       6.762   0.647  -3.513  1.00  0.00     0.163 HD
ATOM     77  O   UNL     1       8.302   1.042  -5.348  1.00  0.00    -0.269 OA
BRANCH  75  78
ATOM     78  C   UNL     1       6.452   1.473  -6.720  1.00  0.00     0.047 A 
ATOM     79  C   UNL     1       6.922   0.894  -7.903  1.00  0.00     0.023 A 
ATOM     80  C   UNL     1       5.428   2.422  -6.751  1.00  0.00     0.099 A 
ATOM     81  C   UNL     1       6.336   1.221  -9.135  1.00  0.00    -0.011 A 
ATOM     82  C   UNL     1       4.790   2.691  -7.961  1.00  0.00     0.270 A 
ATOM     83  C   UNL     1       5.233   2.093  -9.148  1.00  0.00     0.094 A 
BRANCH  81  84
ATOM     84  C   UNL     1       6.918   0.744 -10.395  1.00  0.00    -0.018 A 
ATOM     85  C   UNL     1       7.037  -0.618 -10.702  1.00  0.00     0.009 A 
ATOM     86  C   UNL     1       7.408   1.682 -11.319  1.00  0.00     0.009 A 
ATOM     87  C   UNL     1       7.631  -1.028 -11.902  1.00  0.00     0.014 A 
ATOM     88  C   UNL     1       8.004   1.277 -12.512  1.00  0.00     0.014 A 
ATOM     89  C   UNL     1       8.123  -0.084 -12.818  1.00  0.00     0.056 A 
BRANCH  89  90
ATOM     90  C   UNL     1       8.777  -0.530 -14.102  1.00  0.00     0.416 C 
ATOM     91  F   UNL     1       9.880  -1.299 -13.885  1.00  0.00    -0.166 F 
ATOM     92  F   UNL     1       7.945  -1.278 -14.878  1.00  0.00    -0.166 F 
ATOM     93  F   UNL     1       9.192   0.502 -14.888  1.00  0.00    -0.166 F 
ENDBRANCH  89  90
ENDBRANCH  81  84
BRANCH  82  94
ATOM     94  N   UNL     1       3.640   3.600  -7.982  1.00  0.00     0.062 N 
ATOM     95  O   UNL     1       3.135   3.867  -9.081  1.00  0.00    -0.258 OA
ATOM     96  O   UNL     1       3.233   4.031  -6.894  1.00  0.00    -0.258 OA
ENDBRANCH  82  94
ENDBRANCH  75  78
ENDBRANCH  73  74
ENDBRANCH  72  73
ENDBRANCH   1  72
TORSDOF 14
