REMARK SMILES N#C/C(=C\c1ccc(-c2cc(C(=O)NCCCCNC(=O)c3ccc(-c4c5nc(c(-c6c(F)c(F)c(F)c(F)c6F)c6ccc([nH]6)c(-c6c(F)c(F)c(F)c(F)c6F)c6nc(c(-c7c(F)c(F)c(F)c(F)c7F)c7ccc4[nH]7)C=C6)C=C5)cc3)ccc2Cl)o1)C(=O)N1CCOCC1
REMARK SMILES IDX 16 1 15 2 14 3 12 4 13 5 11 7 9 8 10 9 87 10 86 11 88 12
REMARK SMILES IDX 85 13 8 14 5 15 6 16 89 17 7 18 4 19 3 20 2 21 1 22 90 23
REMARK SMILES IDX 91 24 92 25 93 26 97 27 94 28 96 29 95 30 17 31 18 32 19 33
REMARK SMILES IDX 20 34 21 36 22 37 23 38 84 39 24 40 83 41 25 42 26 43 27 44
REMARK SMILES IDX 77 45 28 46 82 47 76 48 78 49 29 50 81 51 75 52 74 53 30 55
REMARK SMILES IDX 62 56 42 57 61 58 43 59 46 60 60 61 79 62 44 63 45 64 59 66
REMARK SMILES IDX 80 67 47 68 31 69 32 70 40 71 33 72 34 73 38 74 41 75 35 76
REMARK SMILES IDX 36 77 39 78 37 79 63 80 64 81 72 82 65 83 66 84 70 85 73 86
REMARK SMILES IDX 67 87 68 88 71 89 69 90 48 91 49 92 57 93 50 94 51 95 55 96
REMARK SMILES IDX 58 97 52 98 53 99 56 100 54 101
REMARK H PARENT 14 6 19 35 78 54 46 65
REMARK Flexibility Score: inf
ROOT
ATOM      1  C   UNL     1       3.354  -5.112  10.550  1.00  0.00     0.023 C 
ENDROOT
BRANCH   1   2
ATOM      2  C   UNL     1       2.094  -4.572   9.868  1.00  0.00     0.116 C 
BRANCH   2   3
ATOM      3  N   UNL     1       2.336  -3.265   9.290  1.00  0.00    -0.352 N 
ATOM      4  C   UNL     1       2.681  -2.850   8.027  1.00  0.00     0.251 C 
ATOM      5  O   UNL     1       2.766  -1.635   7.844  1.00  0.00    -0.269 OA
ATOM      6  H   UNL     1       2.232  -2.526   9.931  1.00  0.00     0.163 HD
BRANCH   4   7
ATOM      7  C   UNL     1       2.924  -3.770   6.873  1.00  0.00     0.040 A 
ATOM      8  C   UNL     1       3.025  -4.003   4.425  1.00  0.00     0.037 A 
ATOM      9  C   UNL     1       2.818  -3.221   5.578  1.00  0.00     0.027 A 
ATOM     10  C   UNL     1       3.330  -5.363   4.582  1.00  0.00     0.052 A 
ATOM     11  C   UNL     1       3.471  -5.908   5.858  1.00  0.00     0.022 A 
ATOM     12  Cl  UNL     1       3.590  -6.428   3.243  1.00  0.00    -0.084 Cl
ATOM     13  C   UNL     1       3.294  -5.111   6.991  1.00  0.00     0.015 A 
BRANCH   8  14
ATOM     14  C   UNL     1       2.897  -3.397   3.109  1.00  0.00     0.136 A 
ATOM     15  C   UNL     1       3.525  -1.966   1.518  1.00  0.00     0.129 A 
ATOM     16  C   UNL     1       2.536  -2.799   0.998  1.00  0.00     0.051 A 
ATOM     17  O   UNL     1       3.752  -2.373   2.819  1.00  0.00    -0.457 OA
ATOM     18  C   UNL     1       2.107  -3.672   2.020  1.00  0.00     0.051 A 
BRANCH  15  19
ATOM     19  C   UNL     1       4.246  -0.884   0.910  1.00  0.00     0.072 C 
ATOM     20  C   UNL     1       3.692   0.002   0.045  1.00  0.00     0.121 C 
BRANCH  20  21
ATOM     21  C   UNL     1       2.172   0.002   0.045  1.00  0.00     0.105 C 
ATOM     22  N   UNL     1       0.911   0.002   0.045  1.00  0.00    -0.192 NA
ENDBRANCH  20  21
BRANCH  20  23
ATOM     23  C   UNL     1       4.441   1.195  -0.428  1.00  0.00     0.264 C 
ATOM     24  O   UNL     1       3.841   2.266  -0.512  1.00  0.00    -0.268 OA
ATOM     25  N   UNL     1       5.798   1.097  -0.701  1.00  0.00    -0.333 N 
ATOM     26  C   UNL     1       6.606  -0.108  -0.948  1.00  0.00     0.148 C 
ATOM     27  C   UNL     1       6.599   2.324  -0.747  1.00  0.00     0.148 C 
ATOM     28  C   UNL     1       7.791  -0.158   0.030  1.00  0.00     0.181 C 
ATOM     29  C   UNL     1       7.763   2.206   0.246  1.00  0.00     0.181 C 
ATOM     30  O   UNL     1       8.569   1.048  -0.041  1.00  0.00    -0.378 OA
ENDBRANCH  20  23
ENDBRANCH  15  19
ENDBRANCH   8  14
ENDBRANCH   4   7
ENDBRANCH   2   3
ENDBRANCH   1   2
BRANCH   1  31
ATOM     31  C   UNL     1       3.609  -4.550  11.952  1.00  0.00     0.023 C 
BRANCH  31  32
ATOM     32  C   UNL     1       2.544  -4.886  12.992  1.00  0.00     0.116 C 
BRANCH  32  33
ATOM     33  N   UNL     1       2.313  -6.315  13.147  1.00  0.00    -0.352 N 
ATOM     34  C   UNL     1       1.981  -7.012  14.285  1.00  0.00     0.251 C 
ATOM     35  H   UNL     1       2.407  -6.854  12.328  1.00  0.00     0.163 HD
ATOM     36  O   UNL     1       1.904  -8.233  14.270  1.00  0.00    -0.269 OA
BRANCH  34  37
ATOM     37  C   UNL     1       1.764  -6.269  15.542  1.00  0.00     0.039 A 
ATOM     38  C   UNL     1       2.475  -6.655  16.681  1.00  0.00     0.014 A 
ATOM     39  C   UNL     1       0.905  -5.168  15.579  1.00  0.00     0.014 A 
ATOM     40  C   UNL     1       2.392  -5.881  17.839  1.00  0.00     0.010 A 
ATOM     41  C   UNL     1       0.868  -4.365  16.714  1.00  0.00     0.010 A 
ATOM     42  C   UNL     1       1.623  -4.705  17.848  1.00  0.00    -0.014 A 
BRANCH  42  43
ATOM     43  C   UNL     1       1.623  -3.794  19.018  1.00  0.00     0.031 A 
ATOM     44  C   UNL     1       0.364  -3.579  19.807  1.00  0.00     0.074 A 
ATOM     45  C   UNL     1       2.735  -3.091  19.307  1.00  0.00     0.049 A 
ATOM     46  N   UNL     1       0.137  -2.744  20.789  1.00  0.00    -0.248 NA
ATOM     47  C   UNL     1      -0.802  -4.388  19.421  1.00  0.00     0.031 C 
ATOM     48  C   UNL     1       4.001  -3.173  18.578  1.00  0.00     0.029 A 
ATOM     49  N   UNL     1       2.971  -2.150  20.278  1.00  0.00    -0.354 N 
ATOM     50  C   UNL     1      -1.200  -2.912  21.123  1.00  0.00     0.074 A 
ATOM     51  C   UNL     1      -1.744  -3.899  20.215  1.00  0.00     0.031 C 
ATOM     52  C   UNL     1       4.883  -2.324  19.130  1.00  0.00     0.029 A 
ATOM     53  C   UNL     1       4.235  -1.613  20.228  1.00  0.00     0.049 A 
ATOM     54  H   UNL     1       2.300  -1.884  20.947  1.00  0.00     0.167 HD
ATOM     55  C   UNL     1      -1.903  -2.308  22.111  1.00  0.00     0.037 A 
ATOM     56  C   UNL     1       4.802  -0.647  20.975  1.00  0.00     0.037 A 
ATOM     57  C   UNL     1      -1.348  -1.353  23.033  1.00  0.00     0.049 A 
ATOM     58  C   UNL     1       4.002  -0.006  22.076  1.00  0.00     0.074 A 
ATOM     59  C   UNL     1      -1.957  -0.749  24.119  1.00  0.00     0.029 A 
ATOM     60  N   UNL     1      -0.053  -0.861  22.976  1.00  0.00    -0.354 N 
ATOM     61  N   UNL     1       2.761  -0.229  22.433  1.00  0.00    -0.248 NA
ATOM     62  C   UNL     1       4.684   1.018  22.880  1.00  0.00     0.031 C 
ATOM     63  C   UNL     1      -1.043   0.139  24.695  1.00  0.00     0.029 A 
ATOM     64  C   UNL     1       0.150   0.056  23.994  1.00  0.00     0.049 A 
ATOM     65  H   UNL     1       0.623  -1.125  22.311  1.00  0.00     0.167 HD
ATOM     66  C   UNL     1       2.519   0.608  23.514  1.00  0.00     0.074 A 
ATOM     67  C   UNL     1       3.748   1.331  23.765  1.00  0.00     0.031 C 
ATOM     68  C   UNL     1       1.381   0.764  24.232  1.00  0.00     0.037 A 
BRANCH  55  69
ATOM     69  C   UNL     1      -3.352  -2.667  22.250  1.00  0.00     0.064 A 
ATOM     70  C   UNL     1      -3.756  -3.918  22.739  1.00  0.00     0.173 A 
ATOM     71  C   UNL     1      -4.349  -1.731  21.935  1.00  0.00     0.173 A 
ATOM     72  F   UNL     1      -2.841  -4.851  23.044  1.00  0.00    -0.203 F 
ATOM     73  C   UNL     1      -5.105  -4.228  22.886  1.00  0.00     0.198 A 
ATOM     74  C   UNL     1      -5.697  -2.036  22.108  1.00  0.00     0.198 A 
ATOM     75  F   UNL     1      -4.016  -0.519  21.468  1.00  0.00    -0.203 F 
ATOM     76  F   UNL     1      -5.468  -5.445  23.315  1.00  0.00    -0.200 F 
ATOM     77  C   UNL     1      -6.074  -3.285  22.577  1.00  0.00     0.200 A 
ATOM     78  F   UNL     1      -6.631  -1.120  21.819  1.00  0.00    -0.200 F 
ATOM     79  F   UNL     1      -7.372  -3.583  22.726  1.00  0.00    -0.200 F 
ENDBRANCH  55  69
BRANCH  56  80
ATOM     80  C   UNL     1       6.205  -0.235  20.716  1.00  0.00     0.064 A 
ATOM     81  C   UNL     1       7.226  -0.551  21.622  1.00  0.00     0.173 A 
ATOM     82  C   UNL     1       6.553   0.487  19.565  1.00  0.00     0.173 A 
ATOM     83  F   UNL     1       6.938  -1.223  22.747  1.00  0.00    -0.203 F 
ATOM     84  C   UNL     1       8.539  -0.141  21.398  1.00  0.00     0.198 A 
ATOM     85  C   UNL     1       7.870   0.874  19.329  1.00  0.00     0.198 A 
ATOM     86  F   UNL     1       5.613   0.810  18.665  1.00  0.00    -0.203 F 
ATOM     87  F   UNL     1       9.488  -0.418  22.303  1.00  0.00    -0.200 F 
ATOM     88  C   UNL     1       8.861   0.566  20.250  1.00  0.00     0.200 A 
ATOM     89  F   UNL     1       8.180   1.546  18.212  1.00  0.00    -0.200 F 
ATOM     90  F   UNL     1      10.124   0.958  20.034  1.00  0.00    -0.200 F 
ENDBRANCH  56  80
BRANCH  68  91
ATOM     91  C   UNL     1       1.418   1.737  25.373  1.00  0.00     0.064 A 
ATOM     92  C   UNL     1       1.431   3.122  25.154  1.00  0.00     0.173 A 
ATOM     93  C   UNL     1       1.401   1.278  26.698  1.00  0.00     0.173 A 
ATOM     94  F   UNL     1       1.465   3.608  23.904  1.00  0.00    -0.203 F 
ATOM     95  C   UNL     1       1.446   4.013  26.223  1.00  0.00     0.198 A 
ATOM     96  C   UNL     1       1.389   2.173  27.764  1.00  0.00     0.198 A 
ATOM     97  F   UNL     1       1.384  -0.037  26.959  1.00  0.00    -0.203 F 
ATOM     98  F   UNL     1       1.500   5.332  25.992  1.00  0.00    -0.200 F 
ATOM     99  C   UNL     1       1.417   3.539  27.526  1.00  0.00     0.200 A 
ATOM    100  F   UNL     1       1.350   1.713  29.023  1.00  0.00    -0.200 F 
ATOM    101  F   UNL     1       1.424   4.399  28.554  1.00  0.00    -0.200 F 
ENDBRANCH  68  91
ENDBRANCH  42  43
ENDBRANCH  34  37
ENDBRANCH  32  33
ENDBRANCH  31  32
ENDBRANCH   1  31
TORSDOF 15
