REMARK SMILES O=C1CC[C@H](CNC(=O)N[C@@H]2C=C[C@@H](C(=O)NCCCCNC(=O)c3ccc(-c4c5nc(c(-c6c(F)c(F)c(F)c(F)c6F)c6ccc([nH]6)c(-c6c(F)c(F)c(F)c(F)c6F)c6nc(c(-c7c(F)c(F)c(F)c(F)c7F)c7ccc4[nH]7)C=C6)C=C5)cc3)C2)N1
REMARK SMILES IDX 19 1 18 2 17 3 15 4 16 5 14 7 11 8 12 9 88 10 13 11 10 12
REMARK SMILES IDX 7 13 8 14 9 16 6 18 5 19 1 20 2 21 3 22 89 23 4 24 20 26
REMARK SMILES IDX 21 27 22 28 23 29 24 31 25 32 26 33 87 34 27 35 86 36 28 37
REMARK SMILES IDX 29 38 30 39 80 40 31 41 85 42 79 43 81 44 32 45 84 46 78 47
REMARK SMILES IDX 77 48 33 50 65 51 45 52 64 53 46 54 49 55 63 56 82 57 47 58
REMARK SMILES IDX 48 59 62 61 83 62 50 63 34 64 35 65 43 66 36 67 37 68 41 69
REMARK SMILES IDX 44 70 38 71 39 72 42 73 40 74 66 75 67 76 75 77 68 78 69 79
REMARK SMILES IDX 73 80 76 81 70 82 71 83 74 84 72 85 51 86 52 87 60 88 53 89
REMARK SMILES IDX 54 90 58 91 61 92 55 93 56 94 59 95 57 96
REMARK H PARENT 17 6 7 15 10 17 89 25 22 30 81 49 49 60
REMARK Flexibility Score: inf
ROOT
ATOM      1  C   UNL     1      -4.837  -4.817   4.992  1.00  0.00     0.023 C 
ENDROOT
BRANCH   1   2
ATOM      2  C   UNL     1      -3.643  -3.991   5.465  1.00  0.00     0.116 C 
BRANCH   2   3
ATOM      3  N   UNL     1      -2.506  -4.806   5.838  1.00  0.00    -0.356 N 
ATOM      4  C   UNL     1      -1.259  -4.915   5.303  1.00  0.00     0.227 C 
ATOM      5  O   UNL     1      -0.447  -5.609   5.924  1.00  0.00    -0.274 OA
ATOM      6  H   UNL     1      -2.662  -5.385   6.620  1.00  0.00     0.163 HD
BRANCH   4   7
ATOM      7  C   UNL     1      -0.860  -4.302   3.952  1.00  0.00     0.103 C 
ATOM      8  C   UNL     1      -2.383  -3.694   2.106  1.00  0.00     0.107 C 
ATOM      9  C   UNL     1      -1.740  -2.496   2.732  1.00  0.00    -0.006 C 
ATOM     10  C   UNL     1      -1.686  -4.870   2.801  1.00  0.00     0.047 C 
ATOM     11  C   UNL     1      -0.967  -2.822   3.776  1.00  0.00    -0.016 C 
BRANCH   8  12
ATOM     12  N   UNL     1      -2.194  -3.687   0.675  1.00  0.00    -0.332 N 
ATOM     13  N   UNL     1      -3.458  -5.533  -0.117  1.00  0.00    -0.336 N 
ATOM     14  C   UNL     1      -2.649  -4.475  -0.314  1.00  0.00     0.315 C 
ATOM     15  H   UNL     1      -3.732  -5.990  -0.945  1.00  0.00     0.165 HD
ATOM     16  O   UNL     1      -2.300  -4.225  -1.468  1.00  0.00    -0.249 OA
ATOM     17  H   UNL     1      -1.614  -2.956   0.360  1.00  0.00     0.165 HD
BRANCH  13  18
ATOM     18  C   UNL     1      -3.996  -6.118   1.089  1.00  0.00     0.142 C 
BRANCH  18  19
ATOM     19  C   UNL     1      -5.226  -7.025   0.917  1.00  0.00     0.101 C 
ATOM     20  O   UNL     1      -5.832  -8.460   4.067  1.00  0.00    -0.275 OA
ATOM     21  C   UNL     1      -5.531  -8.244   2.902  1.00  0.00     0.220 C 
ATOM     22  C   UNL     1      -4.622  -9.073   2.034  1.00  0.00     0.102 C 
ATOM     23  N   UNL     1      -5.921  -7.138   2.180  1.00  0.00    -0.352 N 
ATOM     24  C   UNL     1      -4.857  -8.479   0.642  1.00  0.00     0.036 C 
ATOM     25  H   UNL     1      -6.598  -6.494   2.490  1.00  0.00     0.163 HD
ENDBRANCH  18  19
ENDBRANCH  13  18
ENDBRANCH   8  12
ENDBRANCH   4   7
ENDBRANCH   2   3
ENDBRANCH   1   2
BRANCH   1  26
ATOM     26  C   UNL     1      -5.503  -5.688   6.059  1.00  0.00     0.023 C 
BRANCH  26  27
ATOM     27  C   UNL     1      -5.918  -4.966   7.335  1.00  0.00     0.116 C 
BRANCH  27  28
ATOM     28  N   UNL     1      -6.824  -3.853   7.101  1.00  0.00    -0.352 N 
ATOM     29  C   UNL     1      -7.896  -3.432   7.850  1.00  0.00     0.251 C 
ATOM     30  H   UNL     1      -6.643  -3.325   6.290  1.00  0.00     0.163 HD
ATOM     31  O   UNL     1      -8.615  -2.530   7.429  1.00  0.00    -0.269 OA
BRANCH  29  32
ATOM     32  C   UNL     1      -8.209  -4.079   9.145  1.00  0.00     0.039 A 
ATOM     33  C   UNL     1      -9.548  -4.328   9.461  1.00  0.00     0.014 A 
ATOM     34  C   UNL     1      -7.205  -4.427  10.051  1.00  0.00     0.014 A 
ATOM     35  C   UNL     1      -9.872  -4.966  10.661  1.00  0.00     0.010 A 
ATOM     36  C   UNL     1      -7.522  -5.142  11.203  1.00  0.00     0.010 A 
ATOM     37  C   UNL     1      -8.860  -5.402  11.531  1.00  0.00    -0.014 A 
BRANCH  37  38
ATOM     38  C   UNL     1      -9.194  -6.109  12.793  1.00  0.00     0.031 A 
ATOM     39  C   UNL     1      -8.840  -5.502  14.123  1.00  0.00     0.074 A 
ATOM     40  C   UNL     1      -9.771  -7.324  12.743  1.00  0.00     0.049 A 
ATOM     41  N   UNL     1      -9.054  -5.965  15.330  1.00  0.00    -0.248 NA
ATOM     42  C   UNL     1      -8.118  -4.221  14.095  1.00  0.00     0.031 C 
ATOM     43  C   UNL     1     -10.087  -8.058  11.516  1.00  0.00     0.029 A 
ATOM     44  N   UNL     1     -10.188  -8.160  13.748  1.00  0.00    -0.354 N 
ATOM     45  C   UNL     1      -8.478  -5.045  16.196  1.00  0.00     0.074 A 
ATOM     46  C   UNL     1      -7.850  -4.032  15.377  1.00  0.00     0.031 C 
ATOM     47  C   UNL     1     -10.671  -9.222  11.839  1.00  0.00     0.029 A 
ATOM     48  C   UNL     1     -10.747  -9.329  13.294  1.00  0.00     0.049 A 
ATOM     49  H   UNL     1     -10.096  -7.942  14.703  1.00  0.00     0.167 HD
ATOM     50  C   UNL     1      -8.495  -5.030  17.551  1.00  0.00     0.037 A 
ATOM     51  C   UNL     1     -11.266 -10.369  13.973  1.00  0.00     0.037 A 
ATOM     52  C   UNL     1      -9.144  -6.029  18.360  1.00  0.00     0.049 A 
ATOM     53  C   UNL     1     -11.321 -10.310  15.475  1.00  0.00     0.074 A 
ATOM     54  C   UNL     1      -9.294  -6.064  19.735  1.00  0.00     0.029 A 
ATOM     55  N   UNL     1      -9.744  -7.178  17.864  1.00  0.00    -0.354 N 
ATOM     56  N   UNL     1     -10.867  -9.383  16.284  1.00  0.00    -0.248 NA
ATOM     57  C   UNL     1     -11.981 -11.431  16.156  1.00  0.00     0.031 C 
ATOM     58  C   UNL     1      -9.935  -7.261  20.075  1.00  0.00     0.029 A 
ATOM     59  C   UNL     1     -10.242  -7.942  18.908  1.00  0.00     0.049 A 
ATOM     60  H   UNL     1      -9.806  -7.415  16.911  1.00  0.00     0.167 HD
ATOM     61  C   UNL     1     -11.204  -9.795  17.566  1.00  0.00     0.074 A 
ATOM     62  C   UNL     1     -11.921 -11.047  17.424  1.00  0.00     0.031 C 
ATOM     63  C   UNL     1     -10.945  -9.192  18.753  1.00  0.00     0.037 A 
BRANCH  50  64
ATOM     64  C   UNL     1      -7.781  -3.898  18.237  1.00  0.00     0.064 A 
ATOM     65  C   UNL     1      -8.230  -2.571  18.143  1.00  0.00     0.173 A 
ATOM     66  C   UNL     1      -6.630  -4.143  19.001  1.00  0.00     0.173 A 
ATOM     67  F   UNL     1      -9.320  -2.276  17.417  1.00  0.00    -0.203 F 
ATOM     68  C   UNL     1      -7.527  -1.529  18.744  1.00  0.00     0.198 A 
ATOM     69  C   UNL     1      -5.950  -3.104  19.632  1.00  0.00     0.198 A 
ATOM     70  F   UNL     1      -6.158  -5.392  19.134  1.00  0.00    -0.203 F 
ATOM     71  F   UNL     1      -7.936  -0.264  18.577  1.00  0.00    -0.200 F 
ATOM     72  C   UNL     1      -6.391  -1.797  19.492  1.00  0.00     0.200 A 
ATOM     73  F   UNL     1      -4.861  -3.366  20.367  1.00  0.00    -0.200 F 
ATOM     74  F   UNL     1      -5.715  -0.793  20.067  1.00  0.00    -0.200 F 
ENDBRANCH  50  64
BRANCH  51  75
ATOM     75  C   UNL     1     -11.812 -11.531  13.226  1.00  0.00     0.064 A 
ATOM     76  C   UNL     1     -13.192 -11.767  13.161  1.00  0.00     0.173 A 
ATOM     77  C   UNL     1     -10.966 -12.411  12.535  1.00  0.00     0.173 A 
ATOM     78  F   UNL     1     -14.040 -10.964  13.819  1.00  0.00    -0.203 F 
ATOM     79  C   UNL     1     -13.705 -12.847  12.444  1.00  0.00     0.198 A 
ATOM     80  C   UNL     1     -11.481 -13.473  11.795  1.00  0.00     0.198 A 
ATOM     81  F   UNL     1      -9.638 -12.223  12.559  1.00  0.00    -0.203 F 
ATOM     82  F   UNL     1     -15.026 -13.071  12.428  1.00  0.00    -0.200 F 
ATOM     83  C   UNL     1     -12.850 -13.694  11.755  1.00  0.00     0.200 A 
ATOM     84  F   UNL     1     -10.653 -14.279  11.117  1.00  0.00    -0.200 F 
ATOM     85  F   UNL     1     -13.344 -14.724  11.055  1.00  0.00    -0.200 F 
ENDBRANCH  51  75
BRANCH  63  86
ATOM     86  C   UNL     1     -11.465  -9.866  19.992  1.00  0.00     0.064 A 
ATOM     87  C   UNL     1     -10.930 -11.078  20.454  1.00  0.00     0.173 A 
ATOM     88  C   UNL     1     -12.502  -9.282  20.735  1.00  0.00     0.173 A 
ATOM     89  F   UNL     1      -9.945 -11.685  19.774  1.00  0.00    -0.203 F 
ATOM     90  C   UNL     1     -11.441 -11.699  21.591  1.00  0.00     0.198 A 
ATOM     91  C   UNL     1     -12.987  -9.888  21.890  1.00  0.00     0.198 A 
ATOM     92  F   UNL     1     -13.044  -8.119  20.343  1.00  0.00    -0.203 F 
ATOM     93  F   UNL     1     -10.956 -12.888  21.977  1.00  0.00    -0.200 F 
ATOM     94  C   UNL     1     -12.464 -11.102  22.311  1.00  0.00     0.200 A 
ATOM     95  F   UNL     1     -13.965  -9.301  22.593  1.00  0.00    -0.200 F 
ATOM     96  F   UNL     1     -12.955 -11.701  23.405  1.00  0.00    -0.200 F 
ENDBRANCH  63  86
ENDBRANCH  37  38
ENDBRANCH  29  32
ENDBRANCH  27  28
ENDBRANCH  26  27
ENDBRANCH   1  26
TORSDOF 14
