REMARK SMILES C[N@H+]1[C@H]2CC[C@@H]1C[N@@H+]([C@H](C(=O)NCCCCNC(=O)c1ccc(-c3c4nc(c(-c5c(F)c(F)c(F)c(F)c5F)c5ccc([nH]5)c(-c5c(F)c(F)c(F)c(F)c5F)c5nc(c(-c6c(F)c(F)c(F)c(F)c6F)c6ccc3[nH]6)C=C5)C=C4)cc1)c1ccccc1)CC2
REMARK SMILES IDX 14 1 13 2 12 3 10 4 11 5 9 7 8 8 7 10 6 11 1 12 2 13 3 14
REMARK SMILES IDX 4 16 5 18 89 19 90 20 83 22 84 23 88 24 85 25 87 26 86 27
REMARK SMILES IDX 15 28 16 29 17 30 18 31 19 33 20 34 21 35 82 36 22 37 81 38
REMARK SMILES IDX 23 39 24 40 25 41 75 42 26 43 80 44 74 45 76 46 27 47 79 48
REMARK SMILES IDX 73 49 72 50 28 52 60 53 40 54 59 55 41 56 44 57 58 58 77 59
REMARK SMILES IDX 42 60 43 61 57 63 78 64 45 65 29 66 30 67 38 68 31 69 32 70
REMARK SMILES IDX 36 71 39 72 33 73 34 74 37 75 35 76 61 77 62 78 70 79 63 80
REMARK SMILES IDX 64 81 68 82 71 83 65 84 66 85 69 86 67 87 46 88 47 89 55 90
REMARK SMILES IDX 48 91 49 92 53 93 56 94 50 95 51 96 54 97 52 98
REMARK H PARENT 12 6 8 9 2 15 17 32 76 51 44 62
REMARK Flexibility Score: 90.00
ROOT
ATOM      1  C   UNL     1      -3.071   2.170  -1.156  1.00  0.00     0.023 C 
ENDROOT
BRANCH   1   2
ATOM      2  C   UNL     1      -2.004   2.084  -0.073  1.00  0.00     0.116 C 
BRANCH   2   3
ATOM      3  N   UNL     1      -1.380   3.331   0.306  1.00  0.00    -0.351 N 
ATOM      4  C   UNL     1      -0.669   3.563   1.468  1.00  0.00     0.283 C 
ATOM      5  O   UNL     1       0.046   4.569   1.480  1.00  0.00    -0.268 OA
ATOM      6  H   UNL     1      -1.469   4.084  -0.322  1.00  0.00     0.163 HD
BRANCH   4   7
ATOM      7  C   UNL     1      -0.872   2.620   2.718  1.00  0.00     0.305 C 
BRANCH   7   8
ATOM      8  N   UNL     1      -0.592   1.194   2.351  1.00  0.00    -0.316 N 
ATOM      9  H   UNL     1      -1.085   1.057   1.469  1.00  0.00     0.349 HD
BRANCH   8  10
ATOM     10  C   UNL     1      -1.178   0.238   3.313  1.00  0.00     0.328 C 
BRANCH  10  11
ATOM     11  C   UNL     1      -1.288  -1.249   2.869  1.00  0.00     0.240 C 
ATOM     12  C   UNL     1       0.024  -3.287   2.682  1.00  0.00     0.333 C 
ATOM     13  N   UNL     1       0.020  -1.835   2.492  1.00  0.00    -0.328 N 
ATOM     14  C   UNL     1       0.190  -1.489   1.071  1.00  0.00     0.190 CG0
ATOM     15  H   UNL     1       0.780  -1.476   3.070  1.00  0.00     0.348 HD
ATOM     16  C   UNL     1      -1.218  -1.473   0.466  1.00  0.00     0.071 C 
ATOM     17  G   UNL     1       0.956  -0.164   0.903  1.00  0.00     0.000 G0
ATOM     18  C   UNL     1      -2.178  -1.413   1.640  1.00  0.00     0.077 C 
ENDBRANCH  10  11
ENDBRANCH   8  10
BRANCH   8  19
ATOM     19  C   UNL     1       0.795   0.899   2.000  1.00  0.00     0.269 C 
BRANCH  19  20
ATOM     20  C   UNL     1       0.956  -0.164   0.903  1.00  0.00     0.126 CG0
ATOM     21  G   UNL     1       0.190  -1.489   1.071  1.00  0.00     0.000 G0
ENDBRANCH  19  20
ENDBRANCH   8  19
ENDBRANCH   7   8
BRANCH   7  22
ATOM     22  C   UNL     1      -0.289   3.198   4.025  1.00  0.00     0.019 A 
ATOM     23  C   UNL     1       0.623   2.539   4.864  1.00  0.00     0.010 A 
ATOM     24  C   UNL     1      -0.743   4.462   4.459  1.00  0.00     0.010 A 
ATOM     25  C   UNL     1       1.041   3.091   6.081  1.00  0.00     0.001 A 
ATOM     26  C   UNL     1      -0.315   5.026   5.667  1.00  0.00     0.001 A 
ATOM     27  C   UNL     1       0.571   4.334   6.484  1.00  0.00     0.000 A 
ENDBRANCH   7  22
ENDBRANCH   4   7
ENDBRANCH   2   3
ENDBRANCH   1   2
BRANCH   1  28
ATOM     28  C   UNL     1      -2.614   2.673  -2.524  1.00  0.00     0.023 C 
BRANCH  28  29
ATOM     29  C   UNL     1      -1.413   1.964  -3.145  1.00  0.00     0.116 C 
BRANCH  29  30
ATOM     30  N   UNL     1      -1.641   0.556  -3.439  1.00  0.00    -0.352 N 
ATOM     31  C   UNL     1      -1.658  -0.123  -4.639  1.00  0.00     0.251 C 
ATOM     32  H   UNL     1      -1.813  -0.005  -2.648  1.00  0.00     0.163 HD
ATOM     33  O   UNL     1      -1.957  -1.311  -4.661  1.00  0.00    -0.269 OA
BRANCH  31  34
ATOM     34  C   UNL     1      -1.370   0.580  -5.912  1.00  0.00     0.039 A 
ATOM     35  C   UNL     1      -2.216   0.362  -7.004  1.00  0.00     0.014 A 
ATOM     36  C   UNL     1      -0.291   1.456  -6.037  1.00  0.00     0.014 A 
ATOM     37  C   UNL     1      -2.052   1.110  -8.174  1.00  0.00     0.010 A 
ATOM     38  C   UNL     1      -0.177   2.259  -7.171  1.00  0.00     0.010 A 
ATOM     39  C   UNL     1      -1.071   2.113  -8.242  1.00  0.00    -0.014 A 
BRANCH  39  40
ATOM     40  C   UNL     1      -1.008   3.058  -9.390  1.00  0.00     0.031 A 
ATOM     41  C   UNL     1       0.213   3.127 -10.264  1.00  0.00     0.074 A 
ATOM     42  C   UNL     1      -2.020   3.927  -9.587  1.00  0.00     0.049 A 
ATOM     43  N   UNL     1       0.484   3.952 -11.244  1.00  0.00    -0.248 NA
ATOM     44  C   UNL     1       1.282   2.157  -9.983  1.00  0.00     0.031 C 
ATOM     45  C   UNL     1      -3.237   4.004  -8.777  1.00  0.00     0.029 A 
ATOM     46  N   UNL     1      -2.181   4.924 -10.518  1.00  0.00    -0.354 N 
ATOM     47  C   UNL     1       1.757   3.613 -11.684  1.00  0.00     0.074 A 
ATOM     48  C   UNL     1       2.223   2.537 -10.835  1.00  0.00     0.031 C 
ATOM     49  C   UNL     1      -4.024   4.980  -9.254  1.00  0.00     0.029 A 
ATOM     50  C   UNL     1      -3.352   5.628 -10.376  1.00  0.00     0.049 A 
ATOM     51  H   UNL     1      -1.518   5.117 -11.221  1.00  0.00     0.167 HD
ATOM     52  C   UNL     1       2.463   4.138 -12.715  1.00  0.00     0.037 A 
ATOM     53  C   UNL     1      -3.827   6.687 -11.060  1.00  0.00     0.037 A 
ATOM     54  C   UNL     1       1.990   5.193 -13.573  1.00  0.00     0.049 A 
ATOM     55  C   UNL     1      -3.018   7.256 -12.193  1.00  0.00     0.074 A 
ATOM     56  C   UNL     1       2.602   5.736 -14.690  1.00  0.00     0.029 A 
ATOM     57  N   UNL     1       0.791   5.871 -13.406  1.00  0.00    -0.354 N 
ATOM     58  N   UNL     1      -1.851   6.875 -12.649  1.00  0.00    -0.248 NA
ATOM     59  C   UNL     1      -3.595   8.404 -12.907  1.00  0.00     0.031 C 
ATOM     60  C   UNL     1       1.798   6.777 -15.168  1.00  0.00     0.029 A 
ATOM     61  C   UNL     1       0.661   6.849 -14.381  1.00  0.00     0.049 A 
ATOM     62  H   UNL     1       0.131   5.686 -12.700  1.00  0.00     0.167 HD
ATOM     63  C   UNL     1      -1.562   7.718 -13.712  1.00  0.00     0.074 A 
ATOM     64  C   UNL     1      -2.687   8.620 -13.848  1.00  0.00     0.031 C 
ATOM     65  C   UNL     1      -0.461   7.744 -14.503  1.00  0.00     0.037 A 
BRANCH  52  66
ATOM     66  C   UNL     1       3.832   3.576 -12.976  1.00  0.00     0.064 A 
ATOM     67  C   UNL     1       4.010   2.282 -13.487  1.00  0.00     0.173 A 
ATOM     68  C   UNL     1       4.976   4.357 -12.755  1.00  0.00     0.173 A 
ATOM     69  F   UNL     1       2.950   1.491 -13.709  1.00  0.00    -0.203 F 
ATOM     70  C   UNL     1       5.285   1.780 -13.739  1.00  0.00     0.198 A 
ATOM     71  C   UNL     1       6.247   3.863 -13.036  1.00  0.00     0.198 A 
ATOM     72  F   UNL     1       4.862   5.605 -12.275  1.00  0.00    -0.203 F 
ATOM     73  F   UNL     1       5.433   0.524 -14.182  1.00  0.00    -0.200 F 
ATOM     74  C   UNL     1       6.401   2.573 -13.520  1.00  0.00     0.200 A 
ATOM     75  F   UNL     1       7.324   4.636 -12.838  1.00  0.00    -0.200 F 
ATOM     76  F   UNL     1       7.626   2.091 -13.771  1.00  0.00    -0.200 F 
ENDBRANCH  52  66
BRANCH  53  77
ATOM     77  C   UNL     1      -5.145   7.272 -10.698  1.00  0.00     0.064 A 
ATOM     78  C   UNL     1      -6.249   7.140 -11.551  1.00  0.00     0.173 A 
ATOM     79  C   UNL     1      -5.328   7.973  -9.497  1.00  0.00     0.173 A 
ATOM     80  F   UNL     1      -6.117   6.497 -12.721  1.00  0.00    -0.203 F 
ATOM     81  C   UNL     1      -7.482   7.701 -11.226  1.00  0.00     0.198 A 
ATOM     82  C   UNL     1      -6.569   8.510  -9.160  1.00  0.00     0.198 A 
ATOM     83  F   UNL     1      -4.305   8.125  -8.644  1.00  0.00    -0.203 F 
ATOM     84  F   UNL     1      -8.509   7.597 -12.080  1.00  0.00    -0.200 F 
ATOM     85  C   UNL     1      -7.643   8.380 -10.028  1.00  0.00     0.200 A 
ATOM     86  F   UNL     1      -6.724   9.152  -7.994  1.00  0.00    -0.200 F 
ATOM     87  F   UNL     1      -8.830   8.914  -9.712  1.00  0.00    -0.200 F 
ENDBRANCH  53  77
BRANCH  65  88
ATOM     88  C   UNL     1      -0.427   8.770 -15.599  1.00  0.00     0.064 A 
ATOM     89  C   UNL     1      -0.254  10.134 -15.323  1.00  0.00     0.173 A 
ATOM     90  C   UNL     1      -0.536   8.381 -16.943  1.00  0.00     0.173 A 
ATOM     91  F   UNL     1      -0.162  10.559 -14.054  1.00  0.00    -0.203 F 
ATOM     92  C   UNL     1      -0.215  11.073 -16.350  1.00  0.00     0.198 A 
ATOM     93  C   UNL     1      -0.467   9.319 -17.969  1.00  0.00     0.198 A 
ATOM     94  F   UNL     1      -0.699   7.088 -17.262  1.00  0.00    -0.203 F 
ATOM     95  F   UNL     1      -0.097  12.376 -16.060  1.00  0.00    -0.200 F 
ATOM     96  C   UNL     1      -0.314  10.665 -17.672  1.00  0.00     0.200 A 
ATOM     97  F   UNL     1      -0.550   8.921 -19.246  1.00  0.00    -0.200 F 
ATOM     98  F   UNL     1      -0.270  11.569 -18.660  1.00  0.00    -0.200 F 
ENDBRANCH  65  88
ENDBRANCH  39  40
ENDBRANCH  31  34
ENDBRANCH  29  30
ENDBRANCH  28  29
ENDBRANCH   1  28
TORSDOF 13
