REMARK SMILES C[C@]12C[C@@H](O)[C@@H]3[C@@H](CCC4=CC(=O)CC[C@]43C)[C@H]1CC[C@]2(O)C(=O)COC(=O)CCC(=O)NCCCCNC(=O)c1ccc(-c2c3nc(c(-c4c(F)c(F)c(F)c(F)c4F)c4ccc([nH]4)c(-c4c(F)c(F)c(F)c(F)c4F)c4nc(c(-c5c(F)c(F)c(F)c(F)c5F)c5ccc2[nH]5)C=C4)C=C3)cc1
REMARK SMILES IDX 31 1 32 2 33 3 30 5 29 6 27 7 28 8 26 9 25 10 23 11 24 12
REMARK SMILES IDX 21 13 17 14 16 15 15 16 10 17 6 18 14 19 11 20 9 21 7 22
REMARK SMILES IDX 4 23 12 24 8 25 18 26 3 27 13 28 2 29 19 30 1 31 20 32 5 33
REMARK SMILES IDX 22 35 34 37 35 38 36 39 37 40 38 41 39 42 40 44 41 45 42 46
REMARK SMILES IDX 103 47 43 48 102 49 44 50 45 51 46 52 96 53 47 54 101 55
REMARK SMILES IDX 95 56 97 57 48 58 100 59 94 60 93 61 49 63 81 64 61 65 80 66
REMARK SMILES IDX 62 67 65 68 79 69 98 70 63 71 64 72 78 74 99 75 66 76 50 77
REMARK SMILES IDX 51 78 59 79 52 80 53 81 57 82 60 83 54 84 55 85 58 86 56 87
REMARK SMILES IDX 82 88 83 89 91 90 84 91 85 92 89 93 92 94 86 95 87 96 90 97
REMARK SMILES IDX 88 98 67 99 68 100 76 101 69 102 70 103 74 104 77 105 71 106
REMARK SMILES IDX 72 107 75 108 73 109
REMARK H PARENT 33 4 5 34 22 36 38 43 97 62 65 73
REMARK Flexibility Score: inf
ROOT
ATOM      1  C   UNL     1       4.946   5.792   0.450  1.00  0.00     0.220 C 
ATOM      2  O   UNL     1       5.230   5.940  -0.743  1.00  0.00    -0.275 OA
ATOM      3  N   UNL     1       4.225   6.787   1.030  1.00  0.00    -0.356 N 
ATOM      4  H   UNL     1       4.339   7.660   0.590  1.00  0.00     0.163 HD
ENDROOT
BRANCH   1   5
ATOM      5  C   UNL     1       5.373   4.529   1.164  1.00  0.00     0.111 C 
BRANCH   5   6
ATOM      6  C   UNL     1       6.069   4.748   2.493  1.00  0.00     0.132 C 
BRANCH   6   7
ATOM      7  C   UNL     1       5.194   4.193   3.574  1.00  0.00     0.306 C 
ATOM      8  O   UNL     1       4.963   2.999   3.758  1.00  0.00    -0.252 OA
BRANCH   7   9
ATOM      9  O   UNL     1       4.578   5.197   4.222  1.00  0.00    -0.458 OA
BRANCH   9  10
ATOM     10  C   UNL     1       3.717   4.851   5.279  1.00  0.00     0.311 C 
BRANCH  10  11
ATOM     11  C   UNL     1       2.180   4.998   5.165  1.00  0.00     0.202 C 
ATOM     12  O   UNL     1       1.691   5.576   6.143  1.00  0.00    -0.293 OA
BRANCH  11  13
ATOM     13  C   UNL     1       1.248   4.166   4.224  1.00  0.00     0.132 C 
ATOM     14  C   UNL     1       0.619  -0.209  -0.643  1.00  0.00     0.016 C 
ATOM     15  C   UNL     1       0.208  -0.039   0.850  1.00  0.00    -0.005 C 
ATOM     16  C   UNL     1      -1.071  -0.902   1.051  1.00  0.00     0.020 C 
ATOM     17  C   UNL     1       1.173  -0.683   1.853  1.00  0.00    -0.060 C 
ATOM     18  C   UNL     1       0.021   1.513   1.132  1.00  0.00     0.031 C 
ATOM     19  C   UNL     1      -0.740  -2.416   1.177  1.00  0.00     0.081 C 
ATOM     20  C   UNL     1       1.724  -1.886   1.628  1.00  0.00     0.047 C 
ATOM     21  C   UNL     1       1.022  -0.312   3.302  1.00  0.00     0.032 C 
ATOM     22  C   UNL     1      -0.342   1.759   2.600  1.00  0.00    -0.000 C 
ATOM     23  C   UNL     1       1.187   2.483   0.689  1.00  0.00     0.119 C 
ATOM     24  C   UNL     1       0.738  -2.762   0.939  1.00  0.00     0.155 C 
ATOM     25  C   UNL     1       0.749   1.148   3.461  1.00  0.00     0.009 C 
ATOM     26  C   UNL     1      -0.591   3.267   2.790  1.00  0.00     0.002 C 
ATOM     27  C   UNL     1       1.579   3.714   1.566  1.00  0.00     0.042 C 
ATOM     28  O   UNL     1       1.111  -3.775   0.359  1.00  0.00    -0.295 OA
ATOM     29  C   UNL     1       0.653   4.212   2.699  1.00  0.00     0.009 C 
ATOM     30  C   UNL     1      -1.221   3.630   4.121  1.00  0.00     0.008 C 
ATOM     31  C   UNL     1       0.015   5.550   2.212  1.00  0.00     0.015 C 
ATOM     32  C   UNL     1      -0.071   3.959   5.056  1.00  0.00     0.044 C 
BRANCH  23  33
ATOM     33  O   UNL     1       2.422   1.791   0.506  1.00  0.00    -0.393 OA
ATOM     34  H   UNL     1       2.754   1.488   1.366  1.00  0.00     0.210 HD
ENDBRANCH  23  33
BRANCH  13  35
ATOM     35  O   UNL     1       2.077   3.014   4.438  1.00  0.00    -0.381 OA
ATOM     36  H   UNL     1       1.722   2.263   3.937  1.00  0.00     0.212 HD
ENDBRANCH  13  35
ENDBRANCH  11  13
ENDBRANCH  10  11
ENDBRANCH   9  10
ENDBRANCH   7   9
ENDBRANCH   6   7
ENDBRANCH   5   6
ENDBRANCH   1   5
BRANCH   3  37
ATOM     37  C   UNL     1       3.321   6.826   2.166  1.00  0.00     0.116 C 
BRANCH  37  38
ATOM     38  C   UNL     1       3.638   7.892   3.230  1.00  0.00     0.023 C 
BRANCH  38  39
ATOM     39  C   UNL     1       2.453   8.802   3.618  1.00  0.00     0.023 C 
BRANCH  39  40
ATOM     40  C   UNL     1       1.216   8.176   4.268  1.00  0.00     0.116 C 
BRANCH  40  41
ATOM     41  N   UNL     1       1.286   7.943   5.699  1.00  0.00    -0.352 N 
ATOM     42  C   UNL     1       0.273   7.788   6.631  1.00  0.00     0.251 C 
ATOM     43  H   UNL     1       2.198   7.887   6.065  1.00  0.00     0.163 HD
ATOM     44  O   UNL     1       0.509   7.378   7.766  1.00  0.00    -0.269 OA
BRANCH  42  45
ATOM     45  C   UNL     1      -1.083   8.267   6.346  1.00  0.00     0.039 A 
ATOM     46  C   UNL     1      -1.613   9.116   7.318  1.00  0.00     0.014 A 
ATOM     47  C   UNL     1      -1.729   8.077   5.127  1.00  0.00     0.014 A 
ATOM     48  C   UNL     1      -2.652   9.959   6.981  1.00  0.00     0.010 A 
ATOM     49  C   UNL     1      -2.716   8.976   4.756  1.00  0.00     0.010 A 
ATOM     50  C   UNL     1      -3.118   9.968   5.662  1.00  0.00    -0.014 A 
BRANCH  50  51
ATOM     51  C   UNL     1      -3.925  11.109   5.201  1.00  0.00     0.031 A 
ATOM     52  C   UNL     1      -5.348  10.905   4.818  1.00  0.00     0.074 A 
ATOM     53  C   UNL     1      -3.321  12.311   5.101  1.00  0.00     0.049 A 
ATOM     54  N   UNL     1      -6.215  11.785   4.397  1.00  0.00    -0.248 NA
ATOM     55  C   UNL     1      -5.861   9.528   4.889  1.00  0.00     0.031 C 
ATOM     56  C   UNL     1      -1.907  12.575   5.393  1.00  0.00     0.029 A 
ATOM     57  N   UNL     1      -3.812  13.533   4.729  1.00  0.00    -0.354 N 
ATOM     58  C   UNL     1      -7.375  11.070   4.151  1.00  0.00     0.074 A 
ATOM     59  C   UNL     1      -7.088   9.678   4.413  1.00  0.00     0.031 C 
ATOM     60  C   UNL     1      -1.655  13.881   5.215  1.00  0.00     0.029 A 
ATOM     61  C   UNL     1      -2.874  14.537   4.761  1.00  0.00     0.049 A 
ATOM     62  H   UNL     1      -4.749  13.680   4.464  1.00  0.00     0.167 HD
ATOM     63  C   UNL     1      -8.575  11.553   3.761  1.00  0.00     0.037 A 
ATOM     64  C   UNL     1      -2.993  15.841   4.449  1.00  0.00     0.037 A 
ATOM     65  C   UNL     1      -8.831  12.949   3.524  1.00  0.00     0.049 A 
ATOM     66  C   UNL     1      -4.346  16.345   4.024  1.00  0.00     0.074 A 
ATOM     67  C   UNL     1     -10.025  13.561   3.196  1.00  0.00     0.029 A 
ATOM     68  N   UNL     1      -7.867  13.948   3.581  1.00  0.00    -0.354 N 
ATOM     69  N   UNL     1      -5.469  15.680   3.888  1.00  0.00    -0.248 NA
ATOM     70  C   UNL     1      -4.454  17.776   3.718  1.00  0.00     0.031 C 
ATOM     71  C   UNL     1      -9.772  14.921   2.991  1.00  0.00     0.029 A 
ATOM     72  C   UNL     1      -8.434  15.168   3.257  1.00  0.00     0.049 A 
ATOM     73  H   UNL     1      -6.921  13.808   3.816  1.00  0.00     0.167 HD
ATOM     74  C   UNL     1      -6.421  16.612   3.505  1.00  0.00     0.074 A 
ATOM     75  C   UNL     1      -5.747  17.894   3.453  1.00  0.00     0.031 C 
ATOM     76  C   UNL     1      -7.733  16.428   3.217  1.00  0.00     0.037 A 
BRANCH  63  77
ATOM     77  C   UNL     1      -9.689  10.571   3.560  1.00  0.00     0.064 A 
ATOM     78  C   UNL     1     -10.274   9.886   4.636  1.00  0.00     0.173 A 
ATOM     79  C   UNL     1     -10.204  10.340   2.276  1.00  0.00     0.173 A 
ATOM     80  F   UNL     1      -9.805  10.056   5.882  1.00  0.00    -0.203 F 
ATOM     81  C   UNL     1     -11.321   8.992   4.431  1.00  0.00     0.198 A 
ATOM     82  C   UNL     1     -11.272   9.470   2.079  1.00  0.00     0.198 A 
ATOM     83  F   UNL     1      -9.675  10.964   1.213  1.00  0.00    -0.203 F 
ATOM     84  F   UNL     1     -11.834   8.314   5.467  1.00  0.00    -0.200 F 
ATOM     85  C   UNL     1     -11.826   8.793   3.155  1.00  0.00     0.200 A 
ATOM     86  F   UNL     1     -11.764   9.286   0.846  1.00  0.00    -0.200 F 
ATOM     87  F   UNL     1     -12.843   7.942   2.960  1.00  0.00    -0.200 F 
ENDBRANCH  63  77
BRANCH  64  88
ATOM     88  C   UNL     1      -1.816  16.746   4.528  1.00  0.00     0.064 A 
ATOM     89  C   UNL     1      -1.761  17.789   5.464  1.00  0.00     0.173 A 
ATOM     90  C   UNL     1      -0.724  16.597   3.659  1.00  0.00     0.173 A 
ATOM     91  F   UNL     1      -2.783  17.983   6.310  1.00  0.00    -0.203 F 
ATOM     92  C   UNL     1      -0.678  18.666   5.504  1.00  0.00     0.198 A 
ATOM     93  C   UNL     1       0.373  17.454   3.723  1.00  0.00     0.198 A 
ATOM     94  F   UNL     1      -0.718  15.610   2.751  1.00  0.00    -0.203 F 
ATOM     95  F   UNL     1      -0.680  19.689   6.370  1.00  0.00    -0.200 F 
ATOM     96  C   UNL     1       0.389  18.496   4.637  1.00  0.00     0.200 A 
ATOM     97  F   UNL     1       1.411  17.273   2.894  1.00  0.00    -0.200 F 
ATOM     98  F   UNL     1       1.429  19.340   4.675  1.00  0.00    -0.200 F 
ENDBRANCH  64  88
BRANCH  76  99
ATOM     99  C   UNL     1      -8.526  17.646   2.846  1.00  0.00     0.064 A 
ATOM    100  C   UNL     1      -8.338  18.301   1.620  1.00  0.00     0.173 A 
ATOM    101  C   UNL     1      -9.523  18.131   3.706  1.00  0.00     0.173 A 
ATOM    102  F   UNL     1      -7.387  17.883   0.770  1.00  0.00    -0.203 F 
ATOM    103  C   UNL     1      -9.101  19.414   1.281  1.00  0.00     0.198 A 
ATOM    104  C   UNL     1     -10.308  19.221   3.348  1.00  0.00     0.198 A 
ATOM    105  F   UNL     1      -9.747  17.533   4.886  1.00  0.00    -0.203 F 
ATOM    106  F   UNL     1      -8.869  20.056   0.128  1.00  0.00    -0.200 F 
ATOM    107  C   UNL     1     -10.091  19.866   2.140  1.00  0.00     0.200 A 
ATOM    108  F   UNL     1     -11.278  19.645   4.170  1.00  0.00    -0.200 F 
ATOM    109  F   UNL     1     -10.834  20.930   1.806  1.00  0.00    -0.200 F 
ENDBRANCH  76  99
ENDBRANCH  50  51
ENDBRANCH  42  45
ENDBRANCH  40  41
ENDBRANCH  39  40
ENDBRANCH  38  39
ENDBRANCH  37  38
ENDBRANCH   3  37
TORSDOF 19
