REMARK SMILES CC(C)CSc1cc2c(cc1Cl)C=C(C(=O)NCCCCNC(=O)c1ccc(-c3c4nc(c(-c5c(F)c(F)c(F)c(F)c5F)c5ccc([nH]5)c(-c5c(F)c(F)c(F)c(F)c5F)c5nc(c(-c6c(F)c(F)c(F)c(F)c6F)c6ccc3[nH]6)C=C5)C=C4)cc1)[C@@H](C(F)(F)F)O2
REMARK SMILES IDX 19 1 18 2 17 3 15 4 16 5 14 7 6 8 7 9 11 10 8 11 10 12 12 13
REMARK SMILES IDX 9 14 93 15 13 16 88 17 5 18 4 19 2 20 1 21 3 22 89 23 90 24
REMARK SMILES IDX 91 25 92 26 20 27 21 28 22 29 23 30 24 32 25 33 26 34 87 35
REMARK SMILES IDX 27 36 86 37 28 38 29 39 30 40 80 41 31 42 85 43 79 44 81 45
REMARK SMILES IDX 32 46 84 47 78 48 77 49 33 51 65 52 45 53 64 54 46 55 49 56
REMARK SMILES IDX 63 57 82 58 47 59 48 60 62 62 83 63 50 64 34 65 35 66 43 67
REMARK SMILES IDX 36 68 37 69 41 70 44 71 38 72 39 73 42 74 40 75 66 76 67 77
REMARK SMILES IDX 75 78 68 79 69 80 73 81 76 82 70 83 71 84 74 85 72 86 51 87
REMARK SMILES IDX 52 88 60 89 53 90 54 91 58 92 61 93 55 94 56 95 59 96 57 97
REMARK H PARENT 17 6 22 31 81 50 49 61
REMARK Flexibility Score: inf
ROOT
ATOM      1  C   UNL     1       2.770   2.428  -7.076  1.00  0.00     0.023 C 
ENDROOT
BRANCH   1   2
ATOM      2  C   UNL     1       1.398   1.820  -7.352  1.00  0.00     0.116 C 
BRANCH   2   3
ATOM      3  N   UNL     1       1.455   0.375  -7.495  1.00  0.00    -0.352 N 
ATOM      4  C   UNL     1       1.062  -0.707  -6.781  1.00  0.00     0.251 C 
ATOM      5  O   UNL     1       1.307  -1.799  -7.304  1.00  0.00    -0.270 OA
ATOM      6  H   UNL     1       1.897   0.112  -8.334  1.00  0.00     0.163 HD
BRANCH   4   7
ATOM      7  C   UNL     1       0.388  -0.664  -5.448  1.00  0.00     0.067 C 
ATOM      8  C   UNL     1      -1.177  -1.852  -0.786  1.00  0.00     0.030 A 
ATOM      9  C   UNL     1      -1.150  -0.684  -1.552  1.00  0.00     0.063 A 
ATOM     10  C   UNL     1      -0.832  -3.062  -1.419  1.00  0.00     0.055 A 
ATOM     11  C   UNL     1      -0.663  -0.695  -2.858  1.00  0.00     0.129 A 
ATOM     12  C   UNL     1      -0.383  -3.073  -2.750  1.00  0.00     0.033 A 
ATOM     13  Cl  UNL     1      -0.894  -4.590  -0.606  1.00  0.00    -0.083 Cl
ATOM     14  C   UNL     1      -0.263  -1.879  -3.462  1.00  0.00     0.019 A 
ATOM     15  O   UNL     1      -0.539   0.528  -3.442  1.00  0.00    -0.475 OA
ATOM     16  C   UNL     1       0.336  -1.837  -4.788  1.00  0.00     0.025 C 
ATOM     17  C   UNL     1      -0.223   0.576  -4.856  1.00  0.00     0.314 C 
BRANCH   8  18
ATOM     18  S   UNL     1      -1.598  -1.775   0.957  1.00  0.00    -0.124 SA
BRANCH  18  19
ATOM     19  C   UNL     1      -0.896  -0.172   1.522  1.00  0.00     0.078 C 
BRANCH  19  20
ATOM     20  C   UNL     1       0.631  -0.120   1.731  1.00  0.00    -0.007 C 
ATOM     21  C   UNL     1       1.454  -0.196   0.444  1.00  0.00     0.008 C 
ATOM     22  C   UNL     1       0.986   1.187   2.455  1.00  0.00     0.008 C 
ENDBRANCH  19  20
ENDBRANCH  18  19
ENDBRANCH   8  18
BRANCH  17  23
ATOM     23  C   UNL     1      -1.486   1.038  -5.603  1.00  0.00     0.429 C 
ATOM     24  F   UNL     1      -1.797   2.312  -5.255  1.00  0.00    -0.167 F 
ATOM     25  F   UNL     1      -1.334   1.036  -6.947  1.00  0.00    -0.167 F 
ATOM     26  F   UNL     1      -2.560   0.267  -5.322  1.00  0.00    -0.167 F 
ENDBRANCH  17  23
ENDBRANCH   4   7
ENDBRANCH   2   3
ENDBRANCH   1   2
BRANCH   1  27
ATOM     27  C   UNL     1       3.608   2.684  -8.330  1.00  0.00     0.023 C 
BRANCH  27  28
ATOM     28  C   UNL     1       2.938   3.536  -9.405  1.00  0.00     0.116 C 
BRANCH  28  29
ATOM     29  N   UNL     1       2.413   4.808  -8.926  1.00  0.00    -0.352 N 
ATOM     30  C   UNL     1       2.256   5.976  -9.638  1.00  0.00     0.251 C 
ATOM     31  H   UNL     1       2.138   4.835  -7.981  1.00  0.00     0.163 HD
ATOM     32  O   UNL     1       1.854   6.999  -9.097  1.00  0.00    -0.269 OA
BRANCH  30  33
ATOM     33  C   UNL     1       2.645   5.984 -11.061  1.00  0.00     0.039 A 
ATOM     34  C   UNL     1       2.130   5.022 -11.931  1.00  0.00     0.014 A 
ATOM     35  C   UNL     1       3.625   6.883 -11.487  1.00  0.00     0.014 A 
ATOM     36  C   UNL     1       2.722   4.844 -13.174  1.00  0.00     0.010 A 
ATOM     37  C   UNL     1       4.170   6.747 -12.765  1.00  0.00     0.010 A 
ATOM     38  C   UNL     1       3.765   5.688 -13.592  1.00  0.00    -0.014 A 
BRANCH  38  39
ATOM     39  C   UNL     1       4.449   5.415 -14.880  1.00  0.00     0.031 A 
ATOM     40  C   UNL     1       5.880   4.950 -14.901  1.00  0.00     0.074 A 
ATOM     41  C   UNL     1       3.755   5.517 -16.028  1.00  0.00     0.049 A 
ATOM     42  N   UNL     1       6.640   4.663 -15.928  1.00  0.00    -0.248 NA
ATOM     43  C   UNL     1       6.548   4.786 -13.600  1.00  0.00     0.031 C 
ATOM     44  C   UNL     1       2.354   5.928 -16.128  1.00  0.00     0.029 A 
ATOM     45  N   UNL     1       4.121   5.254 -17.322  1.00  0.00    -0.354 N 
ATOM     46  C   UNL     1       7.875   4.309 -15.401  1.00  0.00     0.074 A 
ATOM     47  C   UNL     1       7.773   4.431 -13.963  1.00  0.00     0.031 C 
ATOM     48  C   UNL     1       1.962   5.837 -17.408  1.00  0.00     0.029 A 
ATOM     49  C   UNL     1       3.099   5.419 -18.223  1.00  0.00     0.049 A 
ATOM     50  H   UNL     1       5.029   4.974 -17.581  1.00  0.00     0.167 HD
ATOM     51  C   UNL     1       8.989   3.910 -16.059  1.00  0.00     0.037 A 
ATOM     52  C   UNL     1       3.082   5.261 -19.559  1.00  0.00     0.037 A 
ATOM     53  C   UNL     1       9.080   3.759 -17.488  1.00  0.00     0.049 A 
ATOM     54  C   UNL     1       4.339   4.847 -20.265  1.00  0.00     0.074 A 
ATOM     55  C   UNL     1      10.165   3.354 -18.247  1.00  0.00     0.029 A 
ATOM     56  N   UNL     1       8.039   3.995 -18.373  1.00  0.00    -0.354 N 
ATOM     57  N   UNL     1       5.510   4.547 -19.758  1.00  0.00    -0.248 NA
ATOM     58  C   UNL     1       4.279   4.767 -21.731  1.00  0.00     0.031 C 
ATOM     59  C   UNL     1       9.789   3.373 -19.594  1.00  0.00     0.029 A 
ATOM     60  C   UNL     1       8.460   3.757 -19.671  1.00  0.00     0.049 A 
ATOM     61  H   UNL     1       7.135   4.290 -18.117  1.00  0.00     0.167 HD
ATOM     62  C   UNL     1       6.325   4.243 -20.838  1.00  0.00     0.074 A 
ATOM     63  C   UNL     1       5.509   4.371 -22.028  1.00  0.00     0.031 C 
ATOM     64  C   UNL     1       7.635   3.898 -20.842  1.00  0.00     0.037 A 
BRANCH  51  65
ATOM     65  C   UNL     1      10.215   3.615 -15.247  1.00  0.00     0.064 A 
ATOM     66  C   UNL     1      10.335   2.431 -14.506  1.00  0.00     0.173 A 
ATOM     67  C   UNL     1      11.308   4.494 -15.266  1.00  0.00     0.173 A 
ATOM     68  F   UNL     1       9.312   1.566 -14.444  1.00  0.00    -0.203 F 
ATOM     69  C   UNL     1      11.504   2.142 -13.805  1.00  0.00     0.198 A 
ATOM     70  C   UNL     1      12.482   4.193 -14.582  1.00  0.00     0.198 A 
ATOM     71  F   UNL     1      11.242   5.638 -15.964  1.00  0.00    -0.203 F 
ATOM     72  F   UNL     1      11.589   1.017 -13.082  1.00  0.00    -0.200 F 
ATOM     73  C   UNL     1      12.579   3.018 -13.851  1.00  0.00     0.200 A 
ATOM     74  F   UNL     1      13.522   5.036 -14.634  1.00  0.00    -0.200 F 
ATOM     75  F   UNL     1      13.707   2.732 -13.187  1.00  0.00    -0.200 F 
ENDBRANCH  51  65
BRANCH  52  76
ATOM     76  C   UNL     1       1.821   5.497 -20.305  1.00  0.00     0.064 A 
ATOM     77  C   UNL     1       1.101   4.427 -20.850  1.00  0.00     0.173 A 
ATOM     78  C   UNL     1       1.293   6.788 -20.450  1.00  0.00     0.173 A 
ATOM     79  F   UNL     1       1.579   3.178 -20.752  1.00  0.00    -0.203 F 
ATOM     80  C   UNL     1      -0.105   4.640 -21.514  1.00  0.00     0.198 A 
ATOM     81  C   UNL     1       0.076   6.997 -21.092  1.00  0.00     0.198 A 
ATOM     82  F   UNL     1       1.947   7.842 -19.940  1.00  0.00    -0.203 F 
ATOM     83  F   UNL     1      -0.766   3.603 -22.046  1.00  0.00    -0.200 F 
ATOM     84  C   UNL     1      -0.621   5.923 -21.626  1.00  0.00     0.200 A 
ATOM     85  F   UNL     1      -0.426   8.235 -21.186  1.00  0.00    -0.200 F 
ATOM     86  F   UNL     1      -1.789   6.125 -22.251  1.00  0.00    -0.200 F 
ENDBRANCH  52  76
BRANCH  64  87
ATOM     87  C   UNL     1       8.268   3.636 -22.174  1.00  0.00     0.064 A 
ATOM     88  C   UNL     1       8.623   4.689 -23.028  1.00  0.00     0.173 A 
ATOM     89  C   UNL     1       8.568   2.327 -22.577  1.00  0.00     0.173 A 
ATOM     90  F   UNL     1       8.343   5.957 -22.689  1.00  0.00    -0.203 F 
ATOM     91  C   UNL     1       9.245   4.439 -24.248  1.00  0.00     0.198 A 
ATOM     92  C   UNL     1       9.208   2.082 -23.788  1.00  0.00     0.198 A 
ATOM     93  F   UNL     1       8.251   1.288 -21.790  1.00  0.00    -0.203 F 
ATOM     94  F   UNL     1       9.548   5.458 -25.064  1.00  0.00    -0.200 F 
ATOM     95  C   UNL     1       9.542   3.138 -24.624  1.00  0.00     0.200 A 
ATOM     96  F   UNL     1       9.502   0.825 -24.147  1.00  0.00    -0.200 F 
ATOM     97  F   UNL     1      10.147   2.900 -25.796  1.00  0.00    -0.200 F 
ENDBRANCH  64  87
ENDBRANCH  38  39
ENDBRANCH  30  33
ENDBRANCH  28  29
ENDBRANCH  27  28
ENDBRANCH   1  27
TORSDOF 15
