REMARK SMILES O=C(CCN1C(=O)[C@@H]2[C@@H](C1=O)[C@H]1c3ccccc3[C@]2(Br)c2ccccc21)NCCCCNC(=O)c1ccc(-c2c3nc(c(-c4c(F)c(F)c(F)c(F)c4F)c4ccc([nH]4)c(-c4c(F)c(F)c(F)c(F)c4F)c4nc(c(-c5c(F)c(F)c(F)c(F)c5F)c5ccc2[nH]5)C=C4)C=C3)cc1
REMARK SMILES IDX 29 1 28 2 27 3 1 4 2 5 3 7 4 8 5 9 6 10 10 11 7 12 8 13 9 14
REMARK SMILES IDX 11 15 19 16 12 17 21 18 20 19 18 20 26 21 13 22 22 23 17 24
REMARK SMILES IDX 25 25 14 26 23 27 16 28 24 29 15 30 30 31 31 32 32 33 33 34
REMARK SMILES IDX 34 36 35 37 36 38 97 39 37 40 96 41 38 42 39 43 40 44 90 45
REMARK SMILES IDX 41 46 95 47 89 48 91 49 42 50 94 51 88 52 87 53 43 55 75 56
REMARK SMILES IDX 55 57 74 58 56 59 59 60 73 61 92 62 57 63 58 64 72 66 93 67
REMARK SMILES IDX 60 68 44 69 45 70 53 71 46 72 47 73 51 74 54 75 48 76 49 77
REMARK SMILES IDX 52 78 50 79 76 80 77 81 85 82 78 83 79 84 83 85 86 86 80 87
REMARK SMILES IDX 81 88 84 89 82 90 61 91 62 92 70 93 63 94 64 95 68 96 71 97
REMARK SMILES IDX 65 98 66 99 69 100 67 101
REMARK H PARENT 27 6 32 35 91 54 59 65
REMARK Flexibility Score: inf
ROOT
ATOM      1  C   UNL     1       1.798   3.163  -2.225  1.00  0.00     0.023 C 
ENDROOT
BRANCH   1   2
ATOM      2  C   UNL     1       1.417   1.749  -1.763  1.00  0.00     0.116 C 
BRANCH   2   3
ATOM      3  N   UNL     1       2.215   1.247  -0.651  1.00  0.00    -0.356 N 
ATOM      4  O   UNL     1       0.916  -0.625  -0.341  1.00  0.00    -0.275 OA
ATOM      5  C   UNL     1       1.930   0.020  -0.084  1.00  0.00     0.221 C 
ATOM      6  H   UNL     1       2.961   1.786  -0.302  1.00  0.00     0.163 HD
BRANCH   5   7
ATOM      7  C   UNL     1       2.989  -0.524   0.859  1.00  0.00     0.122 C 
BRANCH   7   8
ATOM      8  C   UNL     1       3.821  -1.617   0.176  1.00  0.00     0.138 C 
BRANCH   8   9
ATOM      9  N   UNL     1       4.958  -1.057  -0.540  1.00  0.00    -0.281 N 
ATOM     10  C   UNL     1       6.283  -1.086  -0.078  1.00  0.00     0.235 C 
ATOM     11  C   UNL     1       4.844  -0.416  -1.762  1.00  0.00     0.234 C 
ATOM     12  O   UNL     1       6.738  -1.729   0.846  1.00  0.00    -0.274 OA
ATOM     13  C   UNL     1       6.938   0.031  -0.834  1.00  0.00     0.118 C 
ATOM     14  C   UNL     1       6.238  -0.167  -2.178  1.00  0.00     0.105 C 
ATOM     15  O   UNL     1       3.865  -0.213  -2.453  1.00  0.00    -0.274 OA
ATOM     16  C   UNL     1       8.383   0.527  -1.124  1.00  0.00     0.088 C 
ATOM     17  C   UNL     1       6.677   0.940  -3.127  1.00  0.00     0.063 C 
ATOM     18  C   UNL     1       8.052   2.039  -1.337  1.00  0.00    -0.022 A 
ATOM     19  Br  UNL     1       9.547   0.183   0.360  1.00  0.00    -0.074 Br
ATOM     20  C   UNL     1       8.918   0.065  -2.506  1.00  0.00    -0.022 A 
ATOM     21  C   UNL     1       7.054   2.219  -2.348  1.00  0.00    -0.035 A 
ATOM     22  C   UNL     1       8.003   0.313  -3.583  1.00  0.00    -0.035 A 
ATOM     23  C   UNL     1       8.499   3.133  -0.596  1.00  0.00     0.006 A 
ATOM     24  C   UNL     1      10.166  -0.462  -2.819  1.00  0.00     0.006 A 
ATOM     25  C   UNL     1       6.497   3.474  -2.536  1.00  0.00     0.005 A 
ATOM     26  C   UNL     1       8.276  -0.070  -4.893  1.00  0.00     0.005 A 
ATOM     27  C   UNL     1       7.923   4.387  -0.814  1.00  0.00     0.000 A 
ATOM     28  C   UNL     1      10.462  -0.792  -4.150  1.00  0.00     0.000 A 
ATOM     29  C   UNL     1       6.917   4.554  -1.765  1.00  0.00     0.000 A 
ATOM     30  C   UNL     1       9.521  -0.618  -5.173  1.00  0.00     0.000 A 
ENDBRANCH   8   9
ENDBRANCH   7   8
ENDBRANCH   5   7
ENDBRANCH   2   3
ENDBRANCH   1   2
BRANCH   1  31
ATOM     31  C   UNL     1       3.186   3.294  -2.875  1.00  0.00     0.023 C 
BRANCH  31  32
ATOM     32  C   UNL     1       3.305   2.871  -4.351  1.00  0.00     0.116 C 
BRANCH  32  33
ATOM     33  N   UNL     1       3.268   3.994  -5.292  1.00  0.00    -0.352 N 
ATOM     34  C   UNL     1       4.196   4.773  -5.953  1.00  0.00     0.251 C 
ATOM     35  H   UNL     1       2.346   4.261  -5.508  1.00  0.00     0.163 HD
ATOM     36  O   UNL     1       3.754   5.686  -6.655  1.00  0.00    -0.269 OA
BRANCH  34  37
ATOM     37  C   UNL     1       5.682   4.650  -5.850  1.00  0.00     0.039 A 
ATOM     38  C   UNL     1       6.379   3.450  -5.803  1.00  0.00     0.014 A 
ATOM     39  C   UNL     1       6.444   5.833  -5.874  1.00  0.00     0.014 A 
ATOM     40  C   UNL     1       7.778   3.449  -5.586  1.00  0.00     0.010 A 
ATOM     41  C   UNL     1       7.850   5.820  -5.737  1.00  0.00     0.010 A 
ATOM     42  C   UNL     1       8.545   4.627  -5.509  1.00  0.00    -0.014 A 
BRANCH  42  43
ATOM     43  C   UNL     1      10.020   4.595  -5.157  1.00  0.00     0.031 A 
ATOM     44  C   UNL     1      10.588   5.418  -4.005  1.00  0.00     0.074 A 
ATOM     45  C   UNL     1      10.895   3.805  -5.821  1.00  0.00     0.049 A 
ATOM     46  N   UNL     1      11.829   5.509  -3.572  1.00  0.00    -0.248 NA
ATOM     47  C   UNL     1       9.648   6.250  -3.241  1.00  0.00     0.031 C 
ATOM     48  C   UNL     1      10.572   2.937  -6.951  1.00  0.00     0.029 A 
ATOM     49  N   UNL     1      12.250   3.600  -5.633  1.00  0.00    -0.354 N 
ATOM     50  C   UNL     1      11.808   6.396  -2.499  1.00  0.00     0.074 A 
ATOM     51  C   UNL     1      10.441   6.846  -2.362  1.00  0.00     0.031 C 
ATOM     52  C   UNL     1      11.672   2.262  -7.322  1.00  0.00     0.029 A 
ATOM     53  C   UNL     1      12.805   2.693  -6.505  1.00  0.00     0.049 A 
ATOM     54  H   UNL     1      12.770   4.062  -4.936  1.00  0.00     0.167 HD
ATOM     55  C   UNL     1      12.816   6.798  -1.685  1.00  0.00     0.037 A 
ATOM     56  C   UNL     1      14.075   2.264  -6.667  1.00  0.00     0.037 A 
ATOM     57  C   UNL     1      14.190   6.374  -1.764  1.00  0.00     0.049 A 
ATOM     58  C   UNL     1      15.194   2.797  -5.812  1.00  0.00     0.074 A 
ATOM     59  C   UNL     1      15.246   6.727  -0.937  1.00  0.00     0.029 A 
ATOM     60  N   UNL     1      14.704   5.517  -2.718  1.00  0.00    -0.354 N 
ATOM     61  N   UNL     1      15.141   3.619  -4.796  1.00  0.00    -0.248 NA
ATOM     62  C   UNL     1      16.559   2.352  -6.145  1.00  0.00     0.031 C 
ATOM     63  C   UNL     1      16.410   6.121  -1.419  1.00  0.00     0.029 A 
ATOM     64  C   UNL     1      16.069   5.358  -2.521  1.00  0.00     0.049 A 
ATOM     65  H   UNL     1      14.181   5.085  -3.432  1.00  0.00     0.167 HD
ATOM     66  C   UNL     1      16.453   3.777  -4.364  1.00  0.00     0.074 A 
ATOM     67  C   UNL     1      17.283   2.955  -5.212  1.00  0.00     0.031 C 
ATOM     68  C   UNL     1      16.916   4.548  -3.352  1.00  0.00     0.037 A 
BRANCH  55  69
ATOM     69  C   UNL     1      12.490   7.770  -0.587  1.00  0.00     0.064 A 
ATOM     70  C   UNL     1      11.893   7.340   0.606  1.00  0.00     0.173 A 
ATOM     71  C   UNL     1      12.912   9.105  -0.673  1.00  0.00     0.173 A 
ATOM     72  F   UNL     1      11.469   6.074   0.732  1.00  0.00    -0.203 F 
ATOM     73  C   UNL     1      11.736   8.214   1.679  1.00  0.00     0.198 A 
ATOM     74  C   UNL     1      12.769   9.971   0.408  1.00  0.00     0.198 A 
ATOM     75  F   UNL     1      13.502   9.557  -1.790  1.00  0.00    -0.203 F 
ATOM     76  F   UNL     1      11.161   7.785   2.811  1.00  0.00    -0.200 F 
ATOM     77  C   UNL     1      12.185   9.524   1.584  1.00  0.00     0.200 A 
ATOM     78  F   UNL     1      13.216  11.231   0.320  1.00  0.00    -0.200 F 
ATOM     79  F   UNL     1      12.058  10.354   2.628  1.00  0.00    -0.200 F 
ENDBRANCH  55  69
BRANCH  56  80
ATOM     80  C   UNL     1      14.385   1.271  -7.729  1.00  0.00     0.064 A 
ATOM     81  C   UNL     1      14.763  -0.039  -7.402  1.00  0.00     0.173 A 
ATOM     82  C   UNL     1      14.345   1.622  -9.086  1.00  0.00     0.173 A 
ATOM     83  F   UNL     1      14.850  -0.410  -6.116  1.00  0.00    -0.203 F 
ATOM     84  C   UNL     1      15.098  -0.958  -8.394  1.00  0.00     0.198 A 
ATOM     85  C   UNL     1      14.653   0.695 -10.078  1.00  0.00     0.198 A 
ATOM     86  F   UNL     1      14.002   2.867  -9.447  1.00  0.00    -0.203 F 
ATOM     87  F   UNL     1      15.499  -2.190  -8.055  1.00  0.00    -0.200 F 
ATOM     88  C   UNL     1      15.036  -0.592  -9.731  1.00  0.00     0.200 A 
ATOM     89  F   UNL     1      14.584   1.049 -11.368  1.00  0.00    -0.200 F 
ATOM     90  F   UNL     1      15.354  -1.478 -10.685  1.00  0.00    -0.200 F 
ENDBRANCH  56  80
BRANCH  68  91
ATOM     91  C   UNL     1      18.391   4.548  -3.077  1.00  0.00     0.064 A 
ATOM     92  C   UNL     1      19.291   5.218  -3.920  1.00  0.00     0.173 A 
ATOM     93  C   UNL     1      18.907   3.928  -1.929  1.00  0.00     0.173 A 
ATOM     94  F   UNL     1      18.851   5.816  -5.037  1.00  0.00    -0.203 F 
ATOM     95  C   UNL     1      20.653   5.257  -3.628  1.00  0.00     0.198 A 
ATOM     96  C   UNL     1      20.266   3.988  -1.629  1.00  0.00     0.198 A 
ATOM     97  F   UNL     1      18.090   3.279  -1.085  1.00  0.00    -0.203 F 
ATOM     98  F   UNL     1      21.497   5.879  -4.463  1.00  0.00    -0.200 F 
ATOM     99  C   UNL     1      21.138   4.649  -2.480  1.00  0.00     0.200 A 
ATOM    100  F   UNL     1      20.732   3.410  -0.512  1.00  0.00    -0.200 F 
ATOM    101  F   UNL     1      22.447   4.698  -2.196  1.00  0.00    -0.200 F 
ENDBRANCH  68  91
ENDBRANCH  42  43
ENDBRANCH  34  37
ENDBRANCH  32  33
ENDBRANCH  31  32
ENDBRANCH   1  31
TORSDOF 13
