REMARK SMILES Cc1sc(-c2ccco2)nc1C(=O)N[C@@H](C(=O)NCCCCNC(=O)c1ccc(-c2c3nc(c(-c4c(F)c(F)c(F)c(F)c4F)c4ccc([nH]4)c(-c4c(F)c(F)c(F)c(F)c4F)c4nc(c(-c5c(F)c(F)c(F)c(F)c5F)c5ccc2[nH]5)C=C4)C=C3)cc1)C(C)C
REMARK SMILES IDX 20 1 19 2 18 3 16 4 17 5 15 7 14 8 12 9 13 10 11 12 1 13
REMARK SMILES IDX 2 14 3 15 4 16 10 17 5 18 6 19 9 20 7 21 8 22 89 23 90 24
REMARK SMILES IDX 91 25 21 26 22 27 23 28 24 29 25 31 26 32 27 33 88 34 28 35
REMARK SMILES IDX 87 36 29 37 30 38 31 39 81 40 32 41 86 42 80 43 82 44 33 45
REMARK SMILES IDX 85 46 79 47 78 48 34 50 66 51 46 52 65 53 47 54 50 55 64 56
REMARK SMILES IDX 83 57 48 58 49 59 63 61 84 62 51 63 35 64 36 65 44 66 37 67
REMARK SMILES IDX 38 68 42 69 45 70 39 71 40 72 43 73 41 74 67 75 68 76 76 77
REMARK SMILES IDX 69 78 70 79 74 80 77 81 71 82 72 83 75 84 73 85 52 86 53 87
REMARK SMILES IDX 61 88 54 89 55 90 59 91 62 92 56 93 57 94 60 95 58 96
REMARK H PARENT 18 6 14 11 23 30 82 49 50 60
REMARK Flexibility Score: inf
ROOT
ATOM      1  C   UNL     1       0.976  -3.227   3.388  1.00  0.00     0.023 C 
ENDROOT
BRANCH   1   2
ATOM      2  C   UNL     1       1.854  -2.159   2.746  1.00  0.00     0.116 C 
BRANCH   2   3
ATOM      3  N   UNL     1       3.140  -2.697   2.350  1.00  0.00    -0.354 N 
ATOM      4  C   UNL     1       3.645  -2.977   1.109  1.00  0.00     0.242 C 
ATOM      5  O   UNL     1       4.766  -3.488   1.073  1.00  0.00    -0.273 OA
ATOM      6  H   UNL     1       3.751  -2.894   3.096  1.00  0.00     0.163 HD
BRANCH   4   7
ATOM      7  C   UNL     1       2.902  -2.508  -0.172  1.00  0.00     0.174 C 
BRANCH   7   8
ATOM      8  N   UNL     1       1.549  -3.026  -0.221  1.00  0.00    -0.339 N 
ATOM      9  C   UNL     1       0.303  -2.453  -0.238  1.00  0.00     0.271 C 
ATOM     10  O   UNL     1      -0.604  -3.294  -0.254  1.00  0.00    -0.267 OA
ATOM     11  H   UNL     1       1.518  -4.010  -0.248  1.00  0.00     0.164 HD
BRANCH   9  12
ATOM     12  C   UNL     1      -0.035  -0.994  -0.213  1.00  0.00     0.142 A 
ATOM     13  C   UNL     1       2.093   0.626   0.172  1.00  0.00     0.059 C 
ATOM     14  C   UNL     1       0.689   0.205  -0.104  1.00  0.00     0.035 A 
ATOM     15  S   UNL     1      -0.372   1.554  -0.371  1.00  0.00    -0.115 S 
ATOM     16  C   UNL     1      -1.713   0.530  -0.261  1.00  0.00     0.160 A 
ATOM     17  N   UNL     1      -1.433  -0.745  -0.197  1.00  0.00    -0.227 NA
BRANCH  16  18
ATOM     18  C   UNL     1      -3.029   1.077  -0.163  1.00  0.00     0.162 A 
ATOM     19  C   UNL     1      -4.006   0.801   0.780  1.00  0.00     0.053 A 
ATOM     20  O   UNL     1      -3.484   2.077  -0.987  1.00  0.00    -0.462 OA
ATOM     21  C   UNL     1      -5.084   1.686   0.533  1.00  0.00     0.043 A 
ATOM     22  C   UNL     1      -4.724   2.424  -0.567  1.00  0.00     0.196 A 
ENDBRANCH  16  18
ENDBRANCH   9  12
ENDBRANCH   7   8
BRANCH   7  23
ATOM     23  C   UNL     1       3.693  -2.768  -1.477  1.00  0.00     0.015 C 
ATOM     24  C   UNL     1       2.828  -2.574  -2.730  1.00  0.00     0.010 C 
ATOM     25  C   UNL     1       4.888  -1.804  -1.568  1.00  0.00     0.010 C 
ENDBRANCH   7  23
ENDBRANCH   4   7
ENDBRANCH   2   3
ENDBRANCH   1   2
BRANCH   1  26
ATOM     26  C   UNL     1       1.397  -3.571   4.817  1.00  0.00     0.023 C 
BRANCH  26  27
ATOM     27  C   UNL     1       1.331  -2.404   5.797  1.00  0.00     0.116 C 
BRANCH  27  28
ATOM     28  N   UNL     1      -0.014  -1.875   5.967  1.00  0.00    -0.352 N 
ATOM     29  C   UNL     1      -0.650  -1.519   7.131  1.00  0.00     0.251 C 
ATOM     30  H   UNL     1      -0.535  -1.757   5.140  1.00  0.00     0.163 HD
ATOM     31  O   UNL     1      -1.838  -1.209   7.126  1.00  0.00    -0.269 OA
BRANCH  29  32
ATOM     32  C   UNL     1       0.102  -1.548   8.402  1.00  0.00     0.039 A 
ATOM     33  C   UNL     1      -0.456  -2.204   9.501  1.00  0.00     0.014 A 
ATOM     34  C   UNL     1       1.371  -0.968   8.492  1.00  0.00     0.014 A 
ATOM     35  C   UNL     1       0.290  -2.339  10.672  1.00  0.00     0.010 A 
ATOM     36  C   UNL     1       2.142  -1.174   9.631  1.00  0.00     0.010 A 
ATOM     37  C   UNL     1       1.610  -1.860  10.734  1.00  0.00    -0.014 A 
BRANCH  37  38
ATOM     38  C   UNL     1       2.449  -2.072  11.941  1.00  0.00     0.031 A 
ATOM     39  C   UNL     1       2.945  -0.894  12.732  1.00  0.00     0.074 A 
ATOM     40  C   UNL     1       2.813  -3.322  12.290  1.00  0.00     0.049 A 
ATOM     41  N   UNL     1       3.734  -0.871  13.778  1.00  0.00    -0.248 NA
ATOM     42  C   UNL     1       2.523   0.437  12.271  1.00  0.00     0.031 C 
ATOM     43  C   UNL     1       2.438  -4.543  11.575  1.00  0.00     0.029 A 
ATOM     44  N   UNL     1       3.588  -3.772  13.330  1.00  0.00    -0.354 N 
ATOM     45  C   UNL     1       3.907   0.470  14.090  1.00  0.00     0.074 A 
ATOM     46  C   UNL     1       3.196   1.234  13.088  1.00  0.00     0.031 C 
ATOM     47  C   UNL     1       2.961  -5.603  12.210  1.00  0.00     0.029 A 
ATOM     48  C   UNL     1       3.743  -5.136  13.351  1.00  0.00     0.049 A 
ATOM     49  H   UNL     1       3.996  -3.173  13.996  1.00  0.00     0.167 HD
ATOM     50  C   UNL     1       4.578   1.016  15.133  1.00  0.00     0.037 A 
ATOM     51  C   UNL     1       4.444  -5.922  14.192  1.00  0.00     0.037 A 
ATOM     52  C   UNL     1       5.270   0.252  16.137  1.00  0.00     0.049 A 
ATOM     53  C   UNL     1       5.194  -5.289  15.333  1.00  0.00     0.074 A 
ATOM     54  C   UNL     1       5.932   0.708  17.264  1.00  0.00     0.029 A 
ATOM     55  N   UNL     1       5.395  -1.130  16.133  1.00  0.00    -0.354 N 
ATOM     56  N   UNL     1       5.291  -4.024  15.661  1.00  0.00    -0.248 NA
ATOM     57  C   UNL     1       5.927  -6.197  16.227  1.00  0.00     0.031 C 
ATOM     58  C   UNL     1       6.506  -0.392  17.909  1.00  0.00     0.029 A 
ATOM     59  C   UNL     1       6.147  -1.540  17.222  1.00  0.00     0.049 A 
ATOM     60  H   UNL     1       5.007  -1.730  15.456  1.00  0.00     0.167 HD
ATOM     61  C   UNL     1       6.066  -3.985  16.812  1.00  0.00     0.074 A 
ATOM     62  C   UNL     1       6.400  -5.356  17.135  1.00  0.00     0.031 C 
ATOM     63  C   UNL     1       6.466  -2.910  17.536  1.00  0.00     0.037 A 
BRANCH  50  64
ATOM     64  C   UNL     1       4.593   2.515  15.241  1.00  0.00     0.064 A 
ATOM     65  C   UNL     1       3.433   3.244  15.543  1.00  0.00     0.173 A 
ATOM     66  C   UNL     1       5.790   3.228  15.075  1.00  0.00     0.173 A 
ATOM     67  F   UNL     1       2.260   2.613  15.701  1.00  0.00    -0.203 F 
ATOM     68  C   UNL     1       3.464   4.633  15.642  1.00  0.00     0.198 A 
ATOM     69  C   UNL     1       5.824   4.614  15.209  1.00  0.00     0.198 A 
ATOM     70  F   UNL     1       6.930   2.582  14.790  1.00  0.00    -0.203 F 
ATOM     71  F   UNL     1       2.332   5.311  15.877  1.00  0.00    -0.200 F 
ATOM     72  C   UNL     1       4.660   5.316  15.483  1.00  0.00     0.200 A 
ATOM     73  F   UNL     1       6.983   5.271  15.070  1.00  0.00    -0.200 F 
ATOM     74  F   UNL     1       4.689   6.652  15.587  1.00  0.00    -0.200 F 
ENDBRANCH  50  64
BRANCH  51  75
ATOM     75  C   UNL     1       4.454  -7.397  13.998  1.00  0.00     0.064 A 
ATOM     76  C   UNL     1       3.832  -8.250  14.920  1.00  0.00     0.173 A 
ATOM     77  C   UNL     1       5.093  -7.984  12.896  1.00  0.00     0.173 A 
ATOM     78  F   UNL     1       3.225  -7.738  16.002  1.00  0.00    -0.203 F 
ATOM     79  C   UNL     1       3.870  -9.634  14.762  1.00  0.00     0.198 A 
ATOM     80  C   UNL     1       5.103  -9.366  12.722  1.00  0.00     0.198 A 
ATOM     81  F   UNL     1       5.699  -7.213  11.981  1.00  0.00    -0.203 F 
ATOM     82  F   UNL     1       3.313 -10.427  15.687  1.00  0.00    -0.200 F 
ATOM     83  C   UNL     1       4.501 -10.191  13.660  1.00  0.00     0.200 A 
ATOM     84  F   UNL     1       5.699  -9.899  11.646  1.00  0.00    -0.200 F 
ATOM     85  F   UNL     1       4.535 -11.521  13.506  1.00  0.00    -0.200 F 
ENDBRANCH  51  75
BRANCH  63  86
ATOM     86  C   UNL     1       7.276  -3.175  18.774  1.00  0.00     0.064 A 
ATOM     87  C   UNL     1       8.598  -3.638  18.708  1.00  0.00     0.173 A 
ATOM     88  C   UNL     1       6.731  -2.924  20.043  1.00  0.00     0.173 A 
ATOM     89  F   UNL     1       9.161  -3.907  17.520  1.00  0.00    -0.203 F 
ATOM     90  C   UNL     1       9.334  -3.870  19.867  1.00  0.00     0.198 A 
ATOM     91  C   UNL     1       7.481  -3.123  21.198  1.00  0.00     0.198 A 
ATOM     92  F   UNL     1       5.474  -2.472  20.163  1.00  0.00    -0.203 F 
ATOM     93  F   UNL     1      10.577  -4.364  19.782  1.00  0.00    -0.200 F 
ATOM     94  C   UNL     1       8.778  -3.604  21.110  1.00  0.00     0.200 A 
ATOM     95  F   UNL     1       6.948  -2.849  22.397  1.00  0.00    -0.200 F 
ATOM     96  F   UNL     1       9.492  -3.819  22.224  1.00  0.00    -0.200 F 
ENDBRANCH  63  86
ENDBRANCH  37  38
ENDBRANCH  29  32
ENDBRANCH  27  28
ENDBRANCH  26  27
ENDBRANCH   1  26
TORSDOF 15
