REMARK SMILES Cc1nc2ccc(Cl)cc2cc1C(=O)N1CCC(C(=O)NCCCCNC(=O)c2ccc(-c3c4nc(c(-c5c(F)c(F)c(F)c(F)c5F)c5ccc([nH]5)c(-c5c(F)c(F)c(F)c(F)c5F)c5nc(c(-c6c(F)c(F)c(F)c(F)c6F)c6ccc3[nH]6)C=C5)C=C4)cc2)CC1
REMARK SMILES IDX 24 1 23 2 22 3 21 4 19 5 20 6 18 8 13 9 14 10 15 11 16 12
REMARK SMILES IDX 93 13 17 14 92 15 12 16 1 17 2 18 3 19 4 20 11 21 5 22 10 23
REMARK SMILES IDX 6 24 9 25 7 26 8 27 25 28 26 29 27 30 28 32 29 33 30 34
REMARK SMILES IDX 91 35 31 36 90 37 32 38 33 39 34 40 84 41 35 42 89 43 83 44
REMARK SMILES IDX 85 45 36 46 88 47 82 48 81 49 37 51 69 52 49 53 68 54 50 55
REMARK SMILES IDX 53 56 67 57 86 58 51 59 52 60 66 62 87 63 54 64 38 65 39 66
REMARK SMILES IDX 47 67 40 68 41 69 45 70 48 71 42 72 43 73 46 74 44 75 70 76
REMARK SMILES IDX 71 77 79 78 72 79 73 80 77 81 80 82 74 83 75 84 78 85 76 86
REMARK SMILES IDX 55 87 56 88 64 89 57 90 58 91 62 92 65 93 59 94 60 95 63 96
REMARK SMILES IDX 61 97
REMARK H PARENT 21 7 26 31 85 50 53 61
REMARK Flexibility Score: inf
ROOT
ATOM      1  C   UNL     1      -7.691  -8.346   0.900  1.00  0.00     0.023 C 
ENDROOT
BRANCH   1   2
ATOM      2  C   UNL     1      -6.824  -7.149   0.523  1.00  0.00     0.023 C 
BRANCH   2   3
ATOM      3  C   UNL     1      -5.717  -6.837   1.527  1.00  0.00     0.116 C 
BRANCH   3   4
ATOM      4  N   UNL     1      -4.707  -7.882   1.561  1.00  0.00    -0.356 N 
ATOM      5  C   UNL     1      -3.399  -7.860   1.185  1.00  0.00     0.223 C 
ATOM      6  O   UNL     1      -2.747  -8.901   1.286  1.00  0.00    -0.275 OA
ATOM      7  H   UNL     1      -5.020  -8.747   1.913  1.00  0.00     0.163 HD
BRANCH   5   8
ATOM      8  C   UNL     1      -2.748  -6.587   0.667  1.00  0.00     0.082 C 
ATOM      9  C   UNL     1      -3.511  -2.509  -0.247  1.00  0.00     0.255 C 
ATOM     10  O   UNL     1      -4.566  -2.328  -0.846  1.00  0.00    -0.269 OA
ATOM     11  N   UNL     1      -3.043  -3.795   0.046  1.00  0.00    -0.339 N 
ATOM     12  C   UNL     1      -3.010  -4.736  -1.059  1.00  0.00     0.120 C 
ATOM     13  C   UNL     1      -2.278  -4.153   1.238  1.00  0.00     0.120 C 
ATOM     14  C   UNL     1      -3.389  -6.141  -0.652  1.00  0.00     0.035 C 
ATOM     15  C   UNL     1      -2.679  -5.519   1.772  1.00  0.00     0.035 C 
BRANCH   9  16
ATOM     16  C   UNL     1      -2.587  -1.362  -0.019  1.00  0.00     0.061 A 
ATOM     17  C   UNL     1      -4.439   0.390   0.199  1.00  0.00     0.067 C 
ATOM     18  C   UNL     1      -3.002  -0.040   0.143  1.00  0.00     0.051 A 
ATOM     19  N   UNL     1      -2.109   0.997   0.197  1.00  0.00    -0.252 NA
ATOM     20  C   UNL     1      -0.790   0.750   0.096  1.00  0.00     0.071 A 
ATOM     21  C   UNL     1      -1.213  -1.593  -0.147  1.00  0.00     0.026 A 
ATOM     22  C   UNL     1       0.132   1.788   0.121  1.00  0.00     0.030 A 
ATOM     23  C   UNL     1      -0.293  -0.554  -0.056  1.00  0.00     0.002 A 
ATOM     24  C   UNL     1       1.511   1.552   0.035  1.00  0.00     0.023 A 
ATOM     25  C   UNL     1       1.085  -0.807  -0.135  1.00  0.00     0.030 A 
ATOM     26  C   UNL     1       1.982   0.250  -0.079  1.00  0.00     0.041 A 
ATOM     27  Cl  UNL     1       3.670  -0.061  -0.151  1.00  0.00    -0.084 Cl
ENDBRANCH   9  16
ENDBRANCH   5   8
ENDBRANCH   3   4
ENDBRANCH   2   3
ENDBRANCH   1   2
BRANCH   1  28
ATOM     28  C   UNL     1      -8.298  -8.272   2.292  1.00  0.00     0.116 C 
BRANCH  28  29
ATOM     29  N   UNL     1      -9.109  -7.081   2.496  1.00  0.00    -0.352 N 
ATOM     30  C   UNL     1     -10.346  -6.979   3.079  1.00  0.00     0.251 C 
ATOM     31  H   UNL     1      -8.717  -6.237   2.173  1.00  0.00     0.163 HD
ATOM     32  O   UNL     1     -10.964  -5.919   3.052  1.00  0.00    -0.269 OA
BRANCH  30  33
ATOM     33  C   UNL     1     -10.942  -8.168   3.718  1.00  0.00     0.039 A 
ATOM     34  C   UNL     1     -12.276  -8.482   3.452  1.00  0.00     0.014 A 
ATOM     35  C   UNL     1     -10.175  -8.983   4.554  1.00  0.00     0.014 A 
ATOM     36  C   UNL     1     -12.829  -9.641   3.996  1.00  0.00     0.010 A 
ATOM     37  C   UNL     1     -10.697 -10.186   5.011  1.00  0.00     0.010 A 
ATOM     38  C   UNL     1     -12.037 -10.514   4.760  1.00  0.00    -0.014 A 
BRANCH  38  39
ATOM     39  C   UNL     1     -12.608 -11.748   5.352  1.00  0.00     0.031 A 
ATOM     40  C   UNL     1     -12.654 -11.907   6.846  1.00  0.00     0.074 A 
ATOM     41  C   UNL     1     -13.034 -12.743   4.552  1.00  0.00     0.049 A 
ATOM     42  N   UNL     1     -13.075 -12.919   7.562  1.00  0.00    -0.248 NA
ATOM     43  C   UNL     1     -12.121 -10.791   7.644  1.00  0.00     0.031 C 
ATOM     44  C   UNL     1     -12.986 -12.732   3.090  1.00  0.00     0.029 A 
ATOM     45  N   UNL     1     -13.587 -13.960   4.859  1.00  0.00    -0.354 N 
ATOM     46  C   UNL     1     -12.842 -12.567   8.885  1.00  0.00     0.074 A 
ATOM     47  C   UNL     1     -12.172 -11.286   8.870  1.00  0.00     0.031 C 
ATOM     48  C   UNL     1     -13.512 -13.876   2.626  1.00  0.00     0.029 A 
ATOM     49  C   UNL     1     -13.904 -14.713   3.756  1.00  0.00     0.049 A 
ATOM     50  H   UNL     1     -13.741 -14.265   5.783  1.00  0.00     0.167 HD
ATOM     51  C   UNL     1     -13.184 -13.234  10.013  1.00  0.00     0.037 A 
ATOM     52  C   UNL     1     -14.449 -15.941   3.670  1.00  0.00     0.037 A 
ATOM     53  C   UNL     1     -13.866 -14.502  10.019  1.00  0.00     0.049 A 
ATOM     54  C   UNL     1     -14.832 -16.663   4.933  1.00  0.00     0.074 A 
ATOM     55  C   UNL     1     -14.306 -15.241  11.102  1.00  0.00     0.029 A 
ATOM     56  N   UNL     1     -14.200 -15.222   8.880  1.00  0.00    -0.354 N 
ATOM     57  N   UNL     1     -14.676 -16.291   6.181  1.00  0.00    -0.248 NA
ATOM     58  C   UNL     1     -15.485 -17.969   4.774  1.00  0.00     0.031 C 
ATOM     59  C   UNL     1     -14.856 -16.434  10.621  1.00  0.00     0.029 A 
ATOM     60  C   UNL     1     -14.823 -16.408   9.236  1.00  0.00     0.049 A 
ATOM     61  H   UNL     1     -14.021 -14.933   7.957  1.00  0.00     0.167 HD
ATOM     62  C   UNL     1     -15.240 -17.297   6.954  1.00  0.00     0.074 A 
ATOM     63  C   UNL     1     -15.752 -18.290   6.032  1.00  0.00     0.031 C 
ATOM     64  C   UNL     1     -15.332 -17.386   8.305  1.00  0.00     0.037 A 
BRANCH  51  65
ATOM     65  C   UNL     1     -12.814 -12.600  11.325  1.00  0.00     0.064 A 
ATOM     66  C   UNL     1     -13.389 -11.391  11.752  1.00  0.00     0.173 A 
ATOM     67  C   UNL     1     -11.861 -13.198  12.162  1.00  0.00     0.173 A 
ATOM     68  F   UNL     1     -14.297 -10.766  10.986  1.00  0.00    -0.203 F 
ATOM     69  C   UNL     1     -12.984 -10.781  12.936  1.00  0.00     0.198 A 
ATOM     70  C   UNL     1     -11.489 -12.606  13.366  1.00  0.00     0.198 A 
ATOM     71  F   UNL     1     -11.282 -14.357  11.810  1.00  0.00    -0.203 F 
ATOM     72  F   UNL     1     -13.489  -9.588  13.280  1.00  0.00    -0.200 F 
ATOM     73  C   UNL     1     -12.039 -11.391  13.745  1.00  0.00     0.200 A 
ATOM     74  F   UNL     1     -10.585 -13.205  14.154  1.00  0.00    -0.200 F 
ATOM     75  F   UNL     1     -11.647 -10.802  14.883  1.00  0.00    -0.200 F 
ENDBRANCH  51  65
BRANCH  52  76
ATOM     76  C   UNL     1     -14.703 -16.538   2.333  1.00  0.00     0.064 A 
ATOM     77  C   UNL     1     -16.008 -16.686   1.844  1.00  0.00     0.173 A 
ATOM     78  C   UNL     1     -13.646 -16.948   1.506  1.00  0.00     0.173 A 
ATOM     79  F   UNL     1     -17.053 -16.324   2.604  1.00  0.00    -0.203 F 
ATOM     80  C   UNL     1     -16.248 -17.235   0.586  1.00  0.00     0.198 A 
ATOM     81  C   UNL     1     -13.886 -17.470   0.237  1.00  0.00     0.198 A 
ATOM     82  F   UNL     1     -12.379 -16.819   1.924  1.00  0.00    -0.203 F 
ATOM     83  F   UNL     1     -17.508 -17.401   0.159  1.00  0.00    -0.200 F 
ATOM     84  C   UNL     1     -15.187 -17.620  -0.219  1.00  0.00     0.200 A 
ATOM     85  F   UNL     1     -12.857 -17.823  -0.545  1.00  0.00    -0.200 F 
ATOM     86  F   UNL     1     -15.418 -18.137  -1.434  1.00  0.00    -0.200 F 
ENDBRANCH  52  76
BRANCH  64  87
ATOM     87  C   UNL     1     -16.058 -18.575   8.869  1.00  0.00     0.064 A 
ATOM     88  C   UNL     1     -15.533 -19.874   8.793  1.00  0.00     0.173 A 
ATOM     89  C   UNL     1     -17.290 -18.404   9.520  1.00  0.00     0.173 A 
ATOM     90  F   UNL     1     -14.364 -20.095   8.172  1.00  0.00    -0.203 F 
ATOM     91  C   UNL     1     -16.231 -20.960   9.315  1.00  0.00     0.198 A 
ATOM     92  C   UNL     1     -17.967 -19.487  10.072  1.00  0.00     0.198 A 
ATOM     93  F   UNL     1     -17.834 -17.183   9.630  1.00  0.00    -0.203 F 
ATOM     94  F   UNL     1     -15.739 -22.199   9.176  1.00  0.00    -0.200 F 
ATOM     95  C   UNL     1     -17.444 -20.765   9.959  1.00  0.00     0.200 A 
ATOM     96  F   UNL     1     -19.130 -19.293  10.711  1.00  0.00    -0.200 F 
ATOM     97  F   UNL     1     -18.112 -21.811  10.464  1.00  0.00    -0.200 F 
ENDBRANCH  64  87
ENDBRANCH  38  39
ENDBRANCH  30  33
ENDBRANCH  28  29
ENDBRANCH   1  28
TORSDOF 12
