REMARK SMILES CCC(=O)Nc1ccc(NC(=O)[C@@H]2CC=CC[C@@H]2C(=O)NCCCCNC(=O)c2ccc(-c3c4nc(c(-c5c(F)c(F)c(F)c(F)c5F)c5ccc([nH]5)c(-c5c(F)c(F)c(F)c(F)c5F)c5nc(c(-c6c(F)c(F)c(F)c(F)c6F)c6ccc3[nH]6)C=C5)C=C4)cc2)cc1
REMARK SMILES IDX 22 1 21 2 19 3 20 4 18 6 13 7 14 8 15 9 17 10 16 11 11 12
REMARK SMILES IDX 10 13 12 15 9 16 6 17 7 18 93 19 8 20 92 21 5 22 3 23 4 24
REMARK SMILES IDX 2 26 1 27 23 28 24 29 25 30 26 31 27 32 28 34 29 35 30 36
REMARK SMILES IDX 91 37 31 38 90 39 32 40 33 41 34 42 84 43 35 44 89 45 83 46
REMARK SMILES IDX 85 47 36 48 88 49 82 50 81 51 37 53 69 54 49 55 68 56 50 57
REMARK SMILES IDX 53 58 67 59 86 60 51 61 52 62 66 64 87 65 54 66 38 67 39 68
REMARK SMILES IDX 47 69 40 70 41 71 45 72 48 73 42 74 43 75 46 76 44 77 70 78
REMARK SMILES IDX 71 79 79 80 72 81 73 82 77 83 80 84 74 85 75 86 78 87 76 88
REMARK SMILES IDX 55 89 56 90 64 91 57 92 58 93 62 94 65 95 59 96 60 97 63 98
REMARK SMILES IDX 61 99
REMARK H PARENT 21 5 10 14 5 25 26 33 85 52 53 63
REMARK Flexibility Score: inf
ROOT
ATOM      1  C   UNL     1      10.525  -0.508   6.280  1.00  0.00     0.116 C 
ENDROOT
BRANCH   1   2
ATOM      2  N   UNL     1      10.002   0.775   5.843  1.00  0.00    -0.356 N 
ATOM      3  C   UNL     1       9.034   1.068   4.922  1.00  0.00     0.224 C 
ATOM      4  O   UNL     1       8.789   2.253   4.721  1.00  0.00    -0.275 OA
ATOM      5  H   UNL     1      10.410   1.559   6.279  1.00  0.00     0.163 HD
BRANCH   3   6
ATOM      6  C   UNL     1       8.324  -0.086   4.217  1.00  0.00     0.095 C 
ATOM      7  C   UNL     1       7.516   0.299   2.961  1.00  0.00     0.095 C 
ATOM      8  C   UNL     1       6.360   1.256   3.288  1.00  0.00     0.041 C 
ATOM      9  C   UNL     1       5.566   0.755   4.465  1.00  0.00    -0.030 C 
ATOM     10  C   UNL     1       7.383  -0.806   5.207  1.00  0.00     0.041 C 
ATOM     11  C   UNL     1       6.014  -0.190   5.305  1.00  0.00    -0.030 C 
BRANCH   7  12
ATOM     12  C   UNL     1       8.380   0.795   1.822  1.00  0.00     0.228 C 
ATOM     13  N   UNL     1       9.051  -0.061   0.996  1.00  0.00    -0.326 N 
ATOM     14  H   UNL     1       9.524   0.420   0.279  1.00  0.00     0.169 HD
ATOM     15  O   UNL     1       8.481   1.996   1.560  1.00  0.00    -0.274 OA
BRANCH  13  16
ATOM     16  C   UNL     1       9.242  -1.452   0.905  1.00  0.00     0.041 A 
ATOM     17  C   UNL     1       9.979  -4.166   0.614  1.00  0.00     0.041 A 
ATOM     18  C   UNL     1       9.166  -3.767   1.666  1.00  0.00     0.028 A 
ATOM     19  C   UNL     1      10.308  -3.237  -0.364  1.00  0.00     0.028 A 
ATOM     20  C   UNL     1       8.806  -2.420   1.808  1.00  0.00     0.028 A 
ATOM     21  C   UNL     1       9.962  -1.891  -0.211  1.00  0.00     0.028 A 
BRANCH  17  22
ATOM     22  N   UNL     1      10.375  -5.504   0.546  1.00  0.00    -0.326 N 
ATOM     23  C   UNL     1      11.578  -6.039   0.173  1.00  0.00     0.224 C 
ATOM     24  O   UNL     1      11.655  -7.256  -0.009  1.00  0.00    -0.275 OA
ATOM     25  H   UNL     1       9.687  -6.159   0.805  1.00  0.00     0.169 HD
BRANCH  23  26
ATOM     26  C   UNL     1      12.828  -5.173   0.150  1.00  0.00     0.097 C 
ATOM     27  C   UNL     1      13.148  -4.538  -1.188  1.00  0.00     0.014 C 
ENDBRANCH  23  26
ENDBRANCH  17  22
ENDBRANCH  13  16
ENDBRANCH   7  12
ENDBRANCH   3   6
ENDBRANCH   1   2
BRANCH   1  28
ATOM     28  C   UNL     1      12.044  -0.586   6.154  1.00  0.00     0.023 C 
BRANCH  28  29
ATOM     29  C   UNL     1      12.814   0.476   6.940  1.00  0.00     0.023 C 
BRANCH  29  30
ATOM     30  C   UNL     1      12.475   0.564   8.423  1.00  0.00     0.116 C 
BRANCH  30  31
ATOM     31  N   UNL     1      12.808  -0.650   9.152  1.00  0.00    -0.352 N 
ATOM     32  C   UNL     1      13.561  -0.804  10.290  1.00  0.00     0.251 C 
ATOM     33  H   UNL     1      12.441  -1.482   8.774  1.00  0.00     0.163 HD
ATOM     34  O   UNL     1      13.862  -1.930  10.681  1.00  0.00    -0.269 OA
BRANCH  32  35
ATOM     35  C   UNL     1      14.043   0.383  11.029  1.00  0.00     0.039 A 
ATOM     36  C   UNL     1      15.372   0.415  11.458  1.00  0.00     0.014 A 
ATOM     37  C   UNL     1      13.197   1.465  11.289  1.00  0.00     0.014 A 
ATOM     38  C   UNL     1      15.873   1.562  12.078  1.00  0.00     0.010 A 
ATOM     39  C   UNL     1      13.718   2.636  11.833  1.00  0.00     0.010 A 
ATOM     40  C   UNL     1      15.062   2.699  12.231  1.00  0.00    -0.014 A 
BRANCH  40  41
ATOM     41  C   UNL     1      15.612   3.966  12.779  1.00  0.00     0.031 A 
ATOM     42  C   UNL     1      15.075   4.544  14.057  1.00  0.00     0.074 A 
ATOM     43  C   UNL     1      16.550   4.638  12.083  1.00  0.00     0.049 A 
ATOM     44  N   UNL     1      15.392   5.663  14.659  1.00  0.00    -0.248 NA
ATOM     45  C   UNL     1      14.022   3.775  14.735  1.00  0.00     0.031 C 
ATOM     46  C   UNL     1      17.110   4.215  10.799  1.00  0.00     0.029 A 
ATOM     47  N   UNL     1      17.186   5.825  12.349  1.00  0.00    -0.354 N 
ATOM     48  C   UNL     1      14.572   5.736  15.777  1.00  0.00     0.074 A 
ATOM     49  C   UNL     1      13.700   4.582  15.734  1.00  0.00     0.031 C 
ATOM     50  C   UNL     1      18.017   5.118  10.397  1.00  0.00     0.029 A 
ATOM     51  C   UNL     1      18.073   6.204  11.372  1.00  0.00     0.049 A 
ATOM     52  H   UNL     1      17.021   6.354  13.162  1.00  0.00     0.167 HD
ATOM     53  C   UNL     1      14.562   6.668  16.762  1.00  0.00     0.037 A 
ATOM     54  C   UNL     1      18.837   7.308  11.263  1.00  0.00     0.037 A 
ATOM     55  C   UNL     1      15.433   7.815  16.799  1.00  0.00     0.049 A 
ATOM     56  C   UNL     1      18.802   8.338  12.357  1.00  0.00     0.074 A 
ATOM     57  C   UNL     1      15.547   8.781  17.783  1.00  0.00     0.029 A 
ATOM     58  N   UNL     1      16.330   8.160  15.797  1.00  0.00    -0.354 N 
ATOM     59  N   UNL     1      18.085   8.354  13.455  1.00  0.00    -0.248 NA
ATOM     60  C   UNL     1      19.688   9.499  12.202  1.00  0.00     0.031 C 
ATOM     61  C   UNL     1      16.464   9.745  17.347  1.00  0.00     0.029 A 
ATOM     62  C   UNL     1      16.974   9.345  16.122  1.00  0.00     0.049 A 
ATOM     63  H   UNL     1      16.486   7.640  14.976  1.00  0.00     0.167 HD
ATOM     64  C   UNL     1      18.443   9.513  14.130  1.00  0.00     0.074 A 
ATOM     65  C   UNL     1      19.458  10.164  13.326  1.00  0.00     0.031 C 
ATOM     66  C   UNL     1      17.974   9.993  15.309  1.00  0.00     0.037 A 
BRANCH  53  67
ATOM     67  C   UNL     1      13.563   6.485  17.871  1.00  0.00     0.064 A 
ATOM     68  C   UNL     1      13.644   5.409  18.771  1.00  0.00     0.173 A 
ATOM     69  C   UNL     1      12.508   7.396  18.038  1.00  0.00     0.173 A 
ATOM     70  F   UNL     1      14.627   4.504  18.654  1.00  0.00    -0.203 F 
ATOM     71  C   UNL     1      12.679   5.224  19.758  1.00  0.00     0.198 A 
ATOM     72  C   UNL     1      11.567   7.228  19.052  1.00  0.00     0.198 A 
ATOM     73  F   UNL     1      12.385   8.448  17.216  1.00  0.00    -0.203 F 
ATOM     74  F   UNL     1      12.738   4.147  20.555  1.00  0.00    -0.200 F 
ATOM     75  C   UNL     1      11.645   6.135  19.901  1.00  0.00     0.200 A 
ATOM     76  F   UNL     1      10.577   8.120  19.198  1.00  0.00    -0.200 F 
ATOM     77  F   UNL     1      10.715   5.953  20.849  1.00  0.00    -0.200 F 
ENDBRANCH  53  67
BRANCH  54  78
ATOM     78  C   UNL     1      19.710   7.475  10.072  1.00  0.00     0.064 A 
ATOM     79  C   UNL     1      21.103   7.371  10.176  1.00  0.00     0.173 A 
ATOM     80  C   UNL     1      19.165   7.704   8.799  1.00  0.00     0.173 A 
ATOM     81  F   UNL     1      21.672   7.172  11.374  1.00  0.00    -0.203 F 
ATOM     82  C   UNL     1      21.919   7.496   9.053  1.00  0.00     0.198 A 
ATOM     83  C   UNL     1      19.980   7.799   7.674  1.00  0.00     0.198 A 
ATOM     84  F   UNL     1      17.836   7.804   8.646  1.00  0.00    -0.203 F 
ATOM     85  F   UNL     1      23.251   7.423   9.184  1.00  0.00    -0.200 F 
ATOM     86  C   UNL     1      21.356   7.700   7.802  1.00  0.00     0.200 A 
ATOM     87  F   UNL     1      19.430   7.976   6.465  1.00  0.00    -0.200 F 
ATOM     88  F   UNL     1      22.141   7.801   6.720  1.00  0.00    -0.200 F 
ENDBRANCH  54  78
BRANCH  66  89
ATOM     89  C   UNL     1      18.565  11.279  15.814  1.00  0.00     0.064 A 
ATOM     90  C   UNL     1      18.304  12.508  15.189  1.00  0.00     0.173 A 
ATOM     91  C   UNL     1      19.374  11.287  16.961  1.00  0.00     0.173 A 
ATOM     92  F   UNL     1      17.550  12.555  14.080  1.00  0.00    -0.203 F 
ATOM     93  C   UNL     1      18.853  13.691  15.677  1.00  0.00     0.198 A 
ATOM     94  C   UNL     1      19.892  12.476  17.467  1.00  0.00     0.198 A 
ATOM     95  F   UNL     1      19.651  10.142  17.602  1.00  0.00    -0.203 F 
ATOM     96  F   UNL     1      18.632  14.846  15.033  1.00  0.00    -0.200 F 
ATOM     97  C   UNL     1      19.639  13.676  16.820  1.00  0.00     0.200 A 
ATOM     98  F   UNL     1      20.638  12.461  18.580  1.00  0.00    -0.200 F 
ATOM     99  F   UNL     1      20.158  14.817  17.293  1.00  0.00    -0.200 F 
ENDBRANCH  66  89
ENDBRANCH  40  41
ENDBRANCH  32  35
ENDBRANCH  30  31
ENDBRANCH  29  30
ENDBRANCH  28  29
ENDBRANCH   1  28
TORSDOF 15
