REMARK SMILES Cc1nc(CN(CC(=O)NCCCCNC(=O)c2ccc(-c3c4nc(c(-c5c(F)c(F)c(F)c(F)c5F)c5ccc([nH]5)c(-c5c(F)c(F)c(F)c(F)c5F)c5nc(c(-c6c(F)c(F)c(F)c(F)c6F)c6ccc3[nH]6)C=C5)C=C4)cc2)c2cccc(Cl)c2)sc1C
REMARK SMILES IDX 12 1 11 2 10 3 8 4 9 5 7 7 6 8 5 9 4 10 1 11 2 12 3 13 89 14
REMARK SMILES IDX 88 15 90 16 81 17 82 18 87 19 83 20 85 21 84 22 86 23 13 24
REMARK SMILES IDX 14 25 15 26 16 27 17 29 18 30 19 31 80 32 20 33 79 34 21 35
REMARK SMILES IDX 22 36 23 37 73 38 24 39 78 40 72 41 74 42 25 43 77 44 71 45
REMARK SMILES IDX 70 46 26 48 58 49 38 50 57 51 39 52 42 53 56 54 75 55 40 56
REMARK SMILES IDX 41 57 55 59 76 60 43 61 27 62 28 63 36 64 29 65 30 66 34 67
REMARK SMILES IDX 37 68 31 69 32 70 35 71 33 72 59 73 60 74 68 75 61 76 62 77
REMARK SMILES IDX 66 78 69 79 63 80 64 81 67 82 65 83 44 84 45 85 53 86 46 87
REMARK SMILES IDX 47 88 51 89 54 90 48 91 49 92 52 93 50 94
REMARK H PARENT 10 6 15 28 74 47 42 58
REMARK Flexibility Score: inf
ROOT
ATOM      1  C   UNL     1      -4.953   3.869   0.665  1.00  0.00     0.023 C 
ENDROOT
BRANCH   1   2
ATOM      2  C   UNL     1      -4.044   4.942   0.066  1.00  0.00     0.116 C 
BRANCH   2   3
ATOM      3  N   UNL     1      -3.439   5.785   1.070  1.00  0.00    -0.355 N 
ATOM      4  C   UNL     1      -2.184   5.719   1.609  1.00  0.00     0.239 C 
ATOM      5  O   UNL     1      -1.873   6.604   2.413  1.00  0.00    -0.273 OA
ATOM      6  H   UNL     1      -4.010   6.508   1.415  1.00  0.00     0.163 HD
BRANCH   4   7
ATOM      7  C   UNL     1      -1.187   4.621   1.200  1.00  0.00     0.217 C 
BRANCH   7   8
ATOM      8  N   UNL     1      -1.647   3.232   1.425  1.00  0.00    -0.355 N 
BRANCH   8   9
ATOM      9  C   UNL     1      -1.777   2.363   0.227  1.00  0.00     0.184 C 
BRANCH   9  10
ATOM     10  C   UNL     1      -0.761   1.284  -0.044  1.00  0.00     0.112 A 
ATOM     11  C   UNL     1       2.663   0.201  -0.056  1.00  0.00     0.068 C 
ATOM     12  C   UNL     1       1.179   0.217  -0.126  1.00  0.00     0.051 A 
ATOM     13  N   UNL     1       0.545   1.450  -0.078  1.00  0.00    -0.244 NA
ATOM     14  C   UNL     1       0.326  -0.874  -0.184  1.00  0.00     0.025 A 
ATOM     15  S   UNL     1      -1.296  -0.337  -0.277  1.00  0.00    -0.122 S 
ATOM     16  C   UNL     1       0.638  -2.328  -0.152  1.00  0.00     0.058 C 
ENDBRANCH   9  10
ENDBRANCH   8   9
BRANCH   8  17
ATOM     17  C   UNL     1      -1.674   2.727   2.722  1.00  0.00     0.039 A 
ATOM     18  C   UNL     1      -2.264   3.439   3.781  1.00  0.00     0.026 A 
ATOM     19  C   UNL     1      -1.105   1.492   3.070  1.00  0.00     0.046 A 
ATOM     20  C   UNL     1      -2.293   2.951   5.096  1.00  0.00     0.004 A 
ATOM     21  C   UNL     1      -1.135   0.993   4.377  1.00  0.00     0.043 A 
ATOM     22  C   UNL     1      -1.729   1.719   5.396  1.00  0.00     0.020 A 
ATOM     23  Cl  UNL     1      -0.413  -0.533   4.720  1.00  0.00    -0.084 Cl
ENDBRANCH   8  17
ENDBRANCH   7   8
ENDBRANCH   4   7
ENDBRANCH   2   3
ENDBRANCH   1   2
BRANCH   1  24
ATOM     24  C   UNL     1      -6.239   4.396   1.304  1.00  0.00     0.023 C 
BRANCH  24  25
ATOM     25  C   UNL     1      -7.108   5.265   0.402  1.00  0.00     0.116 C 
BRANCH  25  26
ATOM     26  N   UNL     1      -7.495   4.604  -0.835  1.00  0.00    -0.352 N 
ATOM     27  C   UNL     1      -8.701   4.626  -1.491  1.00  0.00     0.251 C 
ATOM     28  H   UNL     1      -6.792   4.062  -1.262  1.00  0.00     0.163 HD
ATOM     29  O   UNL     1      -8.880   3.908  -2.470  1.00  0.00    -0.269 OA
BRANCH  27  30
ATOM     30  C   UNL     1      -9.798   5.485  -0.996  1.00  0.00     0.039 A 
ATOM     31  C   UNL     1     -11.084   4.946  -0.915  1.00  0.00     0.014 A 
ATOM     32  C   UNL     1      -9.565   6.805  -0.601  1.00  0.00     0.014 A 
ATOM     33  C   UNL     1     -12.121   5.707  -0.372  1.00  0.00     0.010 A 
ATOM     34  C   UNL     1     -10.581   7.535   0.012  1.00  0.00     0.010 A 
ATOM     35  C   UNL     1     -11.869   6.993   0.135  1.00  0.00    -0.014 A 
BRANCH  35  36
ATOM     36  C   UNL     1     -12.940   7.764   0.818  1.00  0.00     0.031 A 
ATOM     37  C   UNL     1     -13.433   9.063   0.244  1.00  0.00     0.074 A 
ATOM     38  C   UNL     1     -13.436   7.311   1.986  1.00  0.00     0.049 A 
ATOM     39  N   UNL     1     -14.351   9.876   0.706  1.00  0.00    -0.248 NA
ATOM     40  C   UNL     1     -12.796   9.525  -0.999  1.00  0.00     0.031 C 
ATOM     41  C   UNL     1     -13.002   6.093   2.672  1.00  0.00     0.029 A 
ATOM     42  N   UNL     1     -14.413   7.821   2.804  1.00  0.00    -0.354 N 
ATOM     43  C   UNL     1     -14.393  10.943  -0.181  1.00  0.00     0.074 A 
ATOM     44  C   UNL     1     -13.373  10.704  -1.178  1.00  0.00     0.031 C 
ATOM     45  C   UNL     1     -13.733   5.930   3.786  1.00  0.00     0.029 A 
ATOM     46  C   UNL     1     -14.659   7.051   3.916  1.00  0.00     0.049 A 
ATOM     47  H   UNL     1     -14.893   8.659   2.613  1.00  0.00     0.167 HD
ATOM     48  C   UNL     1     -15.224  12.013  -0.176  1.00  0.00     0.037 A 
ATOM     49  C   UNL     1     -15.531   7.230   4.926  1.00  0.00     0.037 A 
ATOM     50  C   UNL     1     -16.252  12.237   0.808  1.00  0.00     0.049 A 
ATOM     51  C   UNL     1     -16.432   8.436   4.911  1.00  0.00     0.074 A 
ATOM     52  C   UNL     1     -17.191  13.252   0.859  1.00  0.00     0.029 A 
ATOM     53  N   UNL     1     -16.470  11.437   1.921  1.00  0.00    -0.354 N 
ATOM     54  N   UNL     1     -16.524   9.391   4.018  1.00  0.00    -0.248 NA
ATOM     55  C   UNL     1     -17.356   8.582   6.044  1.00  0.00     0.031 C 
ATOM     56  C   UNL     1     -17.936  13.102   2.033  1.00  0.00     0.029 A 
ATOM     57  C   UNL     1     -17.506  11.956   2.682  1.00  0.00     0.049 A 
ATOM     58  H   UNL     1     -15.963  10.621   2.138  1.00  0.00     0.167 HD
ATOM     59  C   UNL     1     -17.534  10.233   4.464  1.00  0.00     0.074 A 
ATOM     60  C   UNL     1     -18.038   9.663   5.696  1.00  0.00     0.031 C 
ATOM     61  C   UNL     1     -18.000  11.378   3.905  1.00  0.00     0.037 A 
BRANCH  48  62
ATOM     62  C   UNL     1     -15.058  13.032  -1.268  1.00  0.00     0.064 A 
ATOM     63  C   UNL     1     -15.387  12.745  -2.602  1.00  0.00     0.173 A 
ATOM     64  C   UNL     1     -14.613  14.329  -0.969  1.00  0.00     0.173 A 
ATOM     65  F   UNL     1     -15.808  11.518  -2.945  1.00  0.00    -0.203 F 
ATOM     66  C   UNL     1     -15.250  13.708  -3.599  1.00  0.00     0.198 A 
ATOM     67  C   UNL     1     -14.509  15.299  -1.962  1.00  0.00     0.198 A 
ATOM     68  F   UNL     1     -14.291  14.660   0.290  1.00  0.00    -0.203 F 
ATOM     69  F   UNL     1     -15.524  13.395  -4.873  1.00  0.00    -0.200 F 
ATOM     70  C   UNL     1     -14.820  14.986  -3.277  1.00  0.00     0.200 A 
ATOM     71  F   UNL     1     -14.108  16.538  -1.647  1.00  0.00    -0.200 F 
ATOM     72  F   UNL     1     -14.700  15.915  -4.235  1.00  0.00    -0.200 F 
ENDBRANCH  48  62
BRANCH  49  73
ATOM     73  C   UNL     1     -15.616   6.233   6.026  1.00  0.00     0.064 A 
ATOM     74  C   UNL     1     -16.763   5.442   6.193  1.00  0.00     0.173 A 
ATOM     75  C   UNL     1     -14.570   6.064   6.944  1.00  0.00     0.173 A 
ATOM     76  F   UNL     1     -17.799   5.581   5.353  1.00  0.00    -0.203 F 
ATOM     77  C   UNL     1     -16.870   4.542   7.251  1.00  0.00     0.198 A 
ATOM     78  C   UNL     1     -14.666   5.140   7.983  1.00  0.00     0.198 A 
ATOM     79  F   UNL     1     -13.449   6.791   6.828  1.00  0.00    -0.203 F 
ATOM     80  F   UNL     1     -18.000   3.842   7.419  1.00  0.00    -0.200 F 
ATOM     81  C   UNL     1     -15.820   4.388   8.142  1.00  0.00     0.200 A 
ATOM     82  F   UNL     1     -13.642   4.982   8.833  1.00  0.00    -0.200 F 
ATOM     83  F   UNL     1     -15.924   3.523   9.160  1.00  0.00    -0.200 F 
ENDBRANCH  49  73
BRANCH  61  84
ATOM     84  C   UNL     1     -19.135  12.070   4.605  1.00  0.00     0.064 A 
ATOM     85  C   UNL     1     -18.962  12.708   5.842  1.00  0.00     0.173 A 
ATOM     86  C   UNL     1     -20.410  12.113   4.019  1.00  0.00     0.173 A 
ATOM     87  F   UNL     1     -17.767  12.684   6.453  1.00  0.00    -0.203 F 
ATOM     88  C   UNL     1     -20.030  13.331   6.484  1.00  0.00     0.198 A 
ATOM     89  C   UNL     1     -21.467  12.768   4.646  1.00  0.00     0.198 A 
ATOM     90  F   UNL     1     -20.630  11.526   2.833  1.00  0.00    -0.203 F 
ATOM     91  F   UNL     1     -19.854  13.880   7.694  1.00  0.00    -0.200 F 
ATOM     92  C   UNL     1     -21.279  13.366   5.882  1.00  0.00     0.200 A 
ATOM     93  F   UNL     1     -22.669  12.816   4.055  1.00  0.00    -0.200 F 
ATOM     94  F   UNL     1     -22.304  13.969   6.499  1.00  0.00    -0.200 F 
ENDBRANCH  61  84
ENDBRANCH  35  36
ENDBRANCH  27  30
ENDBRANCH  25  26
ENDBRANCH  24  25
ENDBRANCH   1  24
TORSDOF 15
