REMARK SMILES Cc1nnc(SCC[C@H]2CCC[C@]2([NH3+])C(=O)NCCCCNC(=O)c2ccc(-c3c4nc(c(-c5c(F)c(F)c(F)c(F)c5F)c5ccc([nH]5)c(-c5c(F)c(F)c(F)c(F)c5F)c5nc(c(-c6c(F)c(F)c(F)c(F)c6F)c6ccc3[nH]6)C=C5)C=C4)cc2)o1
REMARK SMILES IDX 18 1 17 2 15 3 16 4 13 6 9 7 10 8 11 9 12 10 8 11 7 12 6 13
REMARK SMILES IDX 5 14 1 15 2 16 3 17 88 18 4 19 14 20 19 24 20 25 21 26 22 27
REMARK SMILES IDX 23 28 24 30 25 31 26 32 87 33 27 34 86 35 28 36 29 37 30 38
REMARK SMILES IDX 80 39 31 40 85 41 79 42 81 43 32 44 84 45 78 46 77 47 33 49
REMARK SMILES IDX 65 50 45 51 64 52 46 53 49 54 63 55 82 56 47 57 48 58 62 60
REMARK SMILES IDX 83 61 50 62 34 63 35 64 43 65 36 66 37 67 41 68 44 69 38 70
REMARK SMILES IDX 39 71 42 72 40 73 66 74 67 75 75 76 68 77 69 78 73 79 76 80
REMARK SMILES IDX 70 81 71 82 74 83 72 84 51 85 52 86 60 87 53 88 54 89 58 90
REMARK SMILES IDX 61 91 55 92 56 93 59 94 57 95
REMARK H PARENT 17 5 14 21 14 22 14 23 22 29 81 48 49 59
REMARK Flexibility Score: inf
ROOT
ATOM      1  C   UNL     1       5.947  -1.183   1.597  1.00  0.00     0.116 C 
ENDROOT
BRANCH   1   2
ATOM      2  N   UNL     1       5.311  -1.516   2.857  1.00  0.00    -0.351 N 
ATOM      3  C   UNL     1       4.089  -2.050   3.156  1.00  0.00     0.281 C 
ATOM      4  O   UNL     1       3.978  -2.501   4.306  1.00  0.00    -0.268 OA
ATOM      5  H   UNL     1       5.866  -1.321   3.647  1.00  0.00     0.163 HD
BRANCH   3   6
ATOM      6  C   UNL     1       2.904  -2.215   2.126  1.00  0.00     0.176 C 
ATOM      7  C   UNL     1       2.770  -1.067   1.103  1.00  0.00     0.061 C 
ATOM      8  C   UNL     1       1.582  -0.213   1.633  1.00  0.00     0.011 C 
ATOM      9  C   UNL     1       1.135  -0.816   2.960  1.00  0.00     0.008 C 
ATOM     10  C   UNL     1       1.540  -2.260   2.846  1.00  0.00     0.079 C 
BRANCH   7  11
ATOM     11  C   UNL     1       2.615  -1.478  -0.398  1.00  0.00     0.022 C 
BRANCH  11  12
ATOM     12  C   UNL     1       3.828  -2.069  -1.198  1.00  0.00     0.080 C 
BRANCH  12  13
ATOM     13  S   UNL     1       4.125  -3.881  -1.346  1.00  0.00    -0.065 SA
BRANCH  13  14
ATOM     14  C   UNL     1       5.234  -4.312  -0.062  1.00  0.00     0.276 A 
ATOM     15  C   UNL     1       5.698  -5.572   3.194  1.00  0.00     0.113 C 
ATOM     16  C   UNL     1       5.922  -5.061   1.823  1.00  0.00     0.214 A 
ATOM     17  N   UNL     1       6.915  -4.355   1.326  1.00  0.00    -0.112 NA
ATOM     18  O   UNL     1       4.893  -5.202   0.935  1.00  0.00    -0.416 OA
ATOM     19  N   UNL     1       6.471  -3.878   0.091  1.00  0.00    -0.101 NA
ENDBRANCH  13  14
ENDBRANCH  12  13
ENDBRANCH  11  12
ENDBRANCH   7  11
BRANCH   6  20
ATOM     20  N   UNL     1       3.000  -3.543   1.543  1.00  0.00    -0.345 N 
ATOM     21  H   UNL     1       2.244  -3.676   0.872  1.00  0.00     0.345 HD
ATOM     22  H   UNL     1       2.926  -4.244   2.281  1.00  0.00     0.345 HD
ATOM     23  H   UNL     1       3.898  -3.643   1.069  1.00  0.00     0.345 HD
ENDBRANCH   6  20
ENDBRANCH   3   6
ENDBRANCH   1   2
BRANCH   1  24
ATOM     24  C   UNL     1       6.607   0.192   1.554  1.00  0.00     0.023 C 
BRANCH  24  25
ATOM     25  C   UNL     1       7.981   0.224   2.225  1.00  0.00     0.023 C 
BRANCH  25  26
ATOM     26  C   UNL     1       9.028  -0.723   1.633  1.00  0.00     0.116 C 
BRANCH  26  27
ATOM     27  N   UNL     1       9.434  -0.374   0.279  1.00  0.00    -0.352 N 
ATOM     28  C   UNL     1      10.695  -0.145  -0.217  1.00  0.00     0.251 C 
ATOM     29  H   UNL     1       8.701  -0.292  -0.374  1.00  0.00     0.163 HD
ATOM     30  O   UNL     1      10.849   0.253  -1.372  1.00  0.00    -0.269 OA
BRANCH  28  31
ATOM     31  C   UNL     1      11.875  -0.333   0.655  1.00  0.00     0.039 A 
ATOM     32  C   UNL     1      12.843   0.672   0.710  1.00  0.00     0.014 A 
ATOM     33  C   UNL     1      12.013  -1.481   1.441  1.00  0.00     0.014 A 
ATOM     34  C   UNL     1      13.899   0.568   1.618  1.00  0.00     0.010 A 
ATOM     35  C   UNL     1      13.018  -1.544   2.403  1.00  0.00     0.010 A 
ATOM     36  C   UNL     1      13.969  -0.517   2.508  1.00  0.00    -0.014 A 
BRANCH  36  37
ATOM     37  C   UNL     1      15.021  -0.588   3.558  1.00  0.00     0.031 A 
ATOM     38  C   UNL     1      16.024  -1.709   3.551  1.00  0.00     0.074 A 
ATOM     39  C   UNL     1      15.043   0.327   4.548  1.00  0.00     0.049 A 
ATOM     40  N   UNL     1      16.971  -1.980   4.415  1.00  0.00    -0.248 NA
ATOM     41  C   UNL     1      15.941  -2.665   2.435  1.00  0.00     0.031 C 
ATOM     42  C   UNL     1      14.106   1.442   4.692  1.00  0.00     0.029 A 
ATOM     43  N   UNL     1      15.882   0.460   5.628  1.00  0.00    -0.354 N 
ATOM     44  C   UNL     1      17.592  -3.131   3.947  1.00  0.00     0.074 A 
ATOM     45  C   UNL     1      16.875  -3.546   2.761  1.00  0.00     0.031 C 
ATOM     46  C   UNL     1      14.436   2.159   5.779  1.00  0.00     0.029 A 
ATOM     47  C   UNL     1      15.578   1.531   6.435  1.00  0.00     0.049 A 
ATOM     48  H   UNL     1      16.630  -0.154   5.808  1.00  0.00     0.167 HD
ATOM     49  C   UNL     1      18.682  -3.765   4.441  1.00  0.00     0.037 A 
ATOM     50  C   UNL     1      16.149   1.951   7.581  1.00  0.00     0.037 A 
ATOM     51  C   UNL     1      19.401  -3.351   5.617  1.00  0.00     0.049 A 
ATOM     52  C   UNL     1      17.326   1.191   8.136  1.00  0.00     0.074 A 
ATOM     53  C   UNL     1      20.526  -3.921   6.187  1.00  0.00     0.029 A 
ATOM     54  N   UNL     1      19.062  -2.261   6.406  1.00  0.00    -0.354 N 
ATOM     55  N   UNL     1      17.939   0.138   7.652  1.00  0.00    -0.248 NA
ATOM     56  C   UNL     1      17.896   1.685   9.398  1.00  0.00     0.031 C 
ATOM     57  C   UNL     1      20.843  -3.203   7.345  1.00  0.00     0.029 A 
ATOM     58  C   UNL     1      19.949  -2.151   7.465  1.00  0.00     0.049 A 
ATOM     59  H   UNL     1      18.304  -1.656   6.238  1.00  0.00     0.167 HD
ATOM     60  C   UNL     1      18.986  -0.129   8.524  1.00  0.00     0.074 A 
ATOM     61  C   UNL     1      18.937   0.881   9.558  1.00  0.00     0.031 C 
ATOM     62  C   UNL     1      19.905  -1.125   8.474  1.00  0.00     0.037 A 
BRANCH  49  63
ATOM     63  C   UNL     1      19.180  -4.971   3.696  1.00  0.00     0.064 A 
ATOM     64  C   UNL     1      19.780  -4.851   2.432  1.00  0.00     0.173 A 
ATOM     65  C   UNL     1      19.108  -6.250   4.268  1.00  0.00     0.173 A 
ATOM     66  F   UNL     1      19.865  -3.652   1.836  1.00  0.00    -0.203 F 
ATOM     67  C   UNL     1      20.265  -5.969   1.760  1.00  0.00     0.198 A 
ATOM     68  C   UNL     1      19.624  -7.361   3.606  1.00  0.00     0.198 A 
ATOM     69  F   UNL     1      18.552  -6.421   5.477  1.00  0.00    -0.203 F 
ATOM     70  F   UNL     1      20.794  -5.835   0.535  1.00  0.00    -0.200 F 
ATOM     71  C   UNL     1      20.196  -7.221   2.351  1.00  0.00     0.200 A 
ATOM     72  F   UNL     1      19.571  -8.569   4.186  1.00  0.00    -0.200 F 
ATOM     73  F   UNL     1      20.677  -8.295   1.708  1.00  0.00    -0.200 F 
ENDBRANCH  49  63
BRANCH  50  74
ATOM     74  C   UNL     1      15.631   3.154   8.288  1.00  0.00     0.064 A 
ATOM     75  C   UNL     1      16.417   4.310   8.413  1.00  0.00     0.173 A 
ATOM     76  C   UNL     1      14.369   3.159   8.900  1.00  0.00     0.173 A 
ATOM     77  F   UNL     1      17.641   4.349   7.865  1.00  0.00    -0.203 F 
ATOM     78  C   UNL     1      15.979   5.405   9.154  1.00  0.00     0.198 A 
ATOM     79  C   UNL     1      13.916   4.269   9.611  1.00  0.00     0.198 A 
ATOM     80  F   UNL     1      13.574   2.083   8.810  1.00  0.00    -0.203 F 
ATOM     81  F   UNL     1      16.781   6.466   9.316  1.00  0.00    -0.200 F 
ATOM     82  C   UNL     1      14.727   5.385   9.750  1.00  0.00     0.200 A 
ATOM     83  F   UNL     1      12.700   4.251  10.173  1.00  0.00    -0.200 F 
ATOM     84  F   UNL     1      14.309   6.434  10.471  1.00  0.00    -0.200 F 
ENDBRANCH  50  74
BRANCH  62  85
ATOM     85  C   UNL     1      20.969  -1.136   9.534  1.00  0.00     0.064 A 
ATOM     86  C   UNL     1      20.681  -1.454  10.870  1.00  0.00     0.173 A 
ATOM     87  C   UNL     1      22.303  -0.857   9.200  1.00  0.00     0.173 A 
ATOM     88  F   UNL     1      19.419  -1.714  11.246  1.00  0.00    -0.203 F 
ATOM     89  C   UNL     1      21.684  -1.460  11.836  1.00  0.00     0.198 A 
ATOM     90  C   UNL     1      23.309  -0.899  10.162  1.00  0.00     0.198 A 
ATOM     91  F   UNL     1      22.635  -0.555   7.935  1.00  0.00    -0.203 F 
ATOM     92  F   UNL     1      21.376  -1.711  13.116  1.00  0.00    -0.200 F 
ATOM     93  C   UNL     1      22.997  -1.191  11.480  1.00  0.00     0.200 A 
ATOM     94  F   UNL     1      24.579  -0.655   9.812  1.00  0.00    -0.200 F 
ATOM     95  F   UNL     1      23.961  -1.205  12.411  1.00  0.00    -0.200 F 
ENDBRANCH  62  85
ENDBRANCH  36  37
ENDBRANCH  28  31
ENDBRANCH  26  27
ENDBRANCH  25  26
ENDBRANCH  24  25
ENDBRANCH   1  24
TORSDOF 16
