REMARK SMILES Cc1ccc(N2CC[C@H]([NH+]3CCOCC3)[C@H](CCC(=O)NCCCCNC(=O)c3ccc(-c4c5nc(c(-c6c(F)c(F)c(F)c(F)c6F)c6ccc([nH]6)c(-c6c(F)c(F)c(F)c(F)c6F)c6nc(c(-c7c(F)c(F)c(F)c(F)c7F)c7ccc4[nH]7)C=C6)C=C5)cc3)C2)nc1
REMARK SMILES IDX 23 1 22 2 21 3 19 4 20 5 18 7 17 8 16 9 6 10 7 11 92 12 8 13
REMARK SMILES IDX 9 14 5 15 1 16 2 17 3 18 94 19 4 20 93 21 10 22 11 23 15 24
REMARK SMILES IDX 12 26 14 27 13 28 24 29 25 30 26 31 27 32 28 34 29 35 30 36
REMARK SMILES IDX 91 37 31 38 90 39 32 40 33 41 34 42 84 43 35 44 89 45 83 46
REMARK SMILES IDX 85 47 36 48 88 49 82 50 81 51 37 53 69 54 49 55 68 56 50 57
REMARK SMILES IDX 53 58 67 59 86 60 51 61 52 62 66 64 87 65 54 66 38 67 39 68
REMARK SMILES IDX 47 69 40 70 41 71 45 72 48 73 42 74 43 75 46 76 44 77 70 78
REMARK SMILES IDX 71 79 79 80 72 81 73 82 77 83 80 84 74 85 75 86 78 87 76 88
REMARK SMILES IDX 55 89 56 90 64 91 57 92 58 93 62 94 65 95 59 96 60 97 63 98
REMARK SMILES IDX 61 99
REMARK H PARENT 21 6 10 25 26 33 85 52 53 63
REMARK Flexibility Score: inf
ROOT
ATOM      1  C   UNL     1      -6.821   1.308  -2.982  1.00  0.00     0.023 C 
ENDROOT
BRANCH   1   2
ATOM      2  C   UNL     1      -7.063   0.021  -3.784  1.00  0.00     0.116 C 
BRANCH   2   3
ATOM      3  N   UNL     1      -6.081  -0.080  -4.847  1.00  0.00    -0.356 N 
ATOM      4  C   UNL     1      -4.877  -0.724  -4.857  1.00  0.00     0.220 C 
ATOM      5  O   UNL     1      -4.098  -0.481  -5.780  1.00  0.00    -0.275 OA
ATOM      6  H   UNL     1      -6.317   0.383  -5.683  1.00  0.00     0.163 HD
BRANCH   4   7
ATOM      7  C   UNL     1      -4.539  -1.754  -3.791  1.00  0.00     0.100 C 
BRANCH   7   8
ATOM      8  C   UNL     1      -3.694  -1.250  -2.600  1.00  0.00     0.021 C 
BRANCH   8   9
ATOM      9  C   UNL     1      -4.508  -0.603  -1.460  1.00  0.00     0.067 C 
ATOM     10  N   UNL     1      -2.938   0.197   0.300  1.00  0.00    -0.356 N 
ATOM     11  C   UNL     1      -3.545  -0.619   1.333  1.00  0.00     0.124 C 
ATOM     12  C   UNL     1      -3.758   0.600  -0.828  1.00  0.00     0.127 C 
ATOM     13  C   UNL     1      -4.148  -1.881   0.730  1.00  0.00     0.087 C 
ATOM     14  C   UNL     1      -5.166  -1.489  -0.343  1.00  0.00     0.190 C 
BRANCH  10  15
ATOM     15  C   UNL     1      -1.569   0.102   0.147  1.00  0.00     0.128 A 
ATOM     16  C   UNL     1       2.672  -0.225  -0.043  1.00  0.00     0.046 C 
ATOM     17  C   UNL     1       1.188  -0.065   0.017  1.00  0.00    -0.033 A 
ATOM     18  C   UNL     1       0.569   1.166  -0.170  1.00  0.00     0.009 A 
ATOM     19  C   UNL     1       0.367  -1.159   0.247  1.00  0.00     0.117 A 
ATOM     20  C   UNL     1      -0.821   1.247  -0.115  1.00  0.00     0.047 A 
ATOM     21  N   UNL     1      -0.979  -1.095   0.333  1.00  0.00    -0.239 NA
ENDBRANCH  10  15
BRANCH  14  22
ATOM     22  N   UNL     1      -6.091  -2.547  -0.799  1.00  0.00    -0.328 N 
ATOM     23  C   UNL     1      -7.131  -2.909   0.197  1.00  0.00     0.291 C 
ATOM     24  C   UNL     1      -5.524  -3.777  -1.376  1.00  0.00     0.291 C 
ATOM     25  H   UNL     1      -6.509  -2.059  -1.591  1.00  0.00     0.348 HD
ATOM     26  C   UNL     1      -6.816  -4.109   1.113  1.00  0.00     0.221 C 
ATOM     27  C   UNL     1      -5.246  -4.933  -0.411  1.00  0.00     0.221 C 
ATOM     28  O   UNL     1      -6.405  -5.252   0.360  1.00  0.00    -0.370 OA
ENDBRANCH  14  22
ENDBRANCH   8   9
ENDBRANCH   7   8
ENDBRANCH   4   7
ENDBRANCH   2   3
ENDBRANCH   1   2
BRANCH   1  29
ATOM     29  C   UNL     1      -7.663   2.485  -3.434  1.00  0.00     0.023 C 
BRANCH  29  30
ATOM     30  C   UNL     1      -9.105   2.365  -2.975  1.00  0.00     0.116 C 
BRANCH  30  31
ATOM     31  N   UNL     1      -9.268   2.520  -1.532  1.00  0.00    -0.352 N 
ATOM     32  C   UNL     1     -10.194   3.288  -0.856  1.00  0.00     0.251 C 
ATOM     33  H   UNL     1      -8.639   2.012  -0.971  1.00  0.00     0.163 HD
ATOM     34  O   UNL     1     -10.174   3.399   0.356  1.00  0.00    -0.269 OA
BRANCH  32  35
ATOM     35  C   UNL     1     -11.183   4.026  -1.669  1.00  0.00     0.039 A 
ATOM     36  C   UNL     1     -11.221   5.417  -1.580  1.00  0.00     0.014 A 
ATOM     37  C   UNL     1     -11.915   3.343  -2.642  1.00  0.00     0.014 A 
ATOM     38  C   UNL     1     -11.910   6.139  -2.554  1.00  0.00     0.010 A 
ATOM     39  C   UNL     1     -12.509   4.066  -3.665  1.00  0.00     0.010 A 
ATOM     40  C   UNL     1     -12.498   5.471  -3.641  1.00  0.00    -0.014 A 
BRANCH  40  41
ATOM     41  C   UNL     1     -13.083   6.210  -4.787  1.00  0.00     0.031 A 
ATOM     42  C   UNL     1     -14.533   6.022  -5.126  1.00  0.00     0.074 A 
ATOM     43  C   UNL     1     -12.290   6.957  -5.581  1.00  0.00     0.049 A 
ATOM     44  N   UNL     1     -15.206   6.462  -6.158  1.00  0.00    -0.248 NA
ATOM     45  C   UNL     1     -15.324   5.192  -4.202  1.00  0.00     0.031 C 
ATOM     46  C   UNL     1     -10.852   7.164  -5.394  1.00  0.00     0.029 A 
ATOM     47  N   UNL     1     -12.580   7.668  -6.719  1.00  0.00    -0.354 N 
ATOM     48  C   UNL     1     -16.485   5.941  -6.020  1.00  0.00     0.074 A 
ATOM     49  C   UNL     1     -16.481   5.107  -4.839  1.00  0.00     0.031 C 
ATOM     50  C   UNL     1     -10.392   7.966  -6.368  1.00  0.00     0.029 A 
ATOM     51  C   UNL     1     -11.489   8.296  -7.271  1.00  0.00     0.049 A 
ATOM     52  H   UNL     1     -13.484   7.723  -7.104  1.00  0.00     0.167 HD
ATOM     53  C   UNL     1     -17.572   6.162  -6.795  1.00  0.00     0.037 A 
ATOM     54  C   UNL     1     -11.385   9.043  -8.388  1.00  0.00     0.037 A 
ATOM     55  C   UNL     1     -17.583   7.031  -7.940  1.00  0.00     0.049 A 
ATOM     56  C   UNL     1     -12.611   9.279  -9.227  1.00  0.00     0.074 A 
ATOM     57  C   UNL     1     -18.655   7.399  -8.732  1.00  0.00     0.029 A 
ATOM     58  N   UNL     1     -16.464   7.670  -8.454  1.00  0.00    -0.354 N 
ATOM     59  N   UNL     1     -13.835   8.848  -9.042  1.00  0.00    -0.248 NA
ATOM     60  C   UNL     1     -12.442  10.104 -10.432  1.00  0.00     0.031 C 
ATOM     61  C   UNL     1     -18.177   8.228  -9.752  1.00  0.00     0.029 A 
ATOM     62  C   UNL     1     -16.815   8.408  -9.571  1.00  0.00     0.049 A 
ATOM     63  H   UNL     1     -15.555   7.607  -8.080  1.00  0.00     0.167 HD
ATOM     64  C   UNL     1     -14.584   9.360 -10.093  1.00  0.00     0.074 A 
ATOM     65  C   UNL     1     -13.680  10.149 -10.904  1.00  0.00     0.031 C 
ATOM     66  C   UNL     1     -15.900   9.188 -10.363  1.00  0.00     0.037 A 
BRANCH  53  67
ATOM     67  C   UNL     1     -18.843   5.462  -6.417  1.00  0.00     0.064 A 
ATOM     68  C   UNL     1     -19.563   5.817  -5.266  1.00  0.00     0.173 A 
ATOM     69  C   UNL     1     -19.361   4.442  -7.228  1.00  0.00     0.173 A 
ATOM     70  F   UNL     1     -19.101   6.776  -4.450  1.00  0.00    -0.203 F 
ATOM     71  C   UNL     1     -20.739   5.156  -4.925  1.00  0.00     0.198 A 
ATOM     72  C   UNL     1     -20.554   3.803  -6.899  1.00  0.00     0.198 A 
ATOM     73  F   UNL     1     -18.712   4.066  -8.340  1.00  0.00    -0.203 F 
ATOM     74  F   UNL     1     -21.382   5.477  -3.794  1.00  0.00    -0.200 F 
ATOM     75  C   UNL     1     -21.237   4.154  -5.745  1.00  0.00     0.200 A 
ATOM     76  F   UNL     1     -21.039   2.842  -7.698  1.00  0.00    -0.200 F 
ATOM     77  F   UNL     1     -22.373   3.522  -5.418  1.00  0.00    -0.200 F 
ENDBRANCH  53  67
BRANCH  54  78
ATOM     78  C   UNL     1     -10.076   9.634  -8.769  1.00  0.00     0.064 A 
ATOM     79  C   UNL     1      -9.860  11.016  -8.676  1.00  0.00     0.173 A 
ATOM     80  C   UNL     1      -9.020   8.838  -9.235  1.00  0.00     0.173 A 
ATOM     81  F   UNL     1     -10.848  11.821  -8.257  1.00  0.00    -0.203 F 
ATOM     82  C   UNL     1      -8.642  11.581  -9.049  1.00  0.00     0.198 A 
ATOM     83  C   UNL     1      -7.794   9.401  -9.584  1.00  0.00     0.198 A 
ATOM     84  F   UNL     1      -9.175   7.510  -9.339  1.00  0.00    -0.203 F 
ATOM     85  F   UNL     1      -8.476  12.909  -8.988  1.00  0.00    -0.200 F 
ATOM     86  C   UNL     1      -7.608  10.773  -9.497  1.00  0.00     0.200 A 
ATOM     87  F   UNL     1      -6.793   8.616 -10.005  1.00  0.00    -0.200 F 
ATOM     88  F   UNL     1      -6.436  11.316  -9.852  1.00  0.00    -0.200 F 
ENDBRANCH  54  78
BRANCH  66  89
ATOM     89  C   UNL     1     -16.449   9.876 -11.577  1.00  0.00     0.064 A 
ATOM     90  C   UNL     1     -16.175   9.405 -12.869  1.00  0.00     0.173 A 
ATOM     91  C   UNL     1     -17.307  10.978 -11.444  1.00  0.00     0.173 A 
ATOM     92  F   UNL     1     -15.347   8.364 -13.046  1.00  0.00    -0.203 F 
ATOM     93  C   UNL     1     -16.731  10.021 -13.986  1.00  0.00     0.198 A 
ATOM     94  C   UNL     1     -17.882  11.575 -12.562  1.00  0.00     0.198 A 
ATOM     95  F   UNL     1     -17.604  11.461 -10.228  1.00  0.00    -0.203 F 
ATOM     96  F   UNL     1     -16.430   9.576 -15.214  1.00  0.00    -0.200 F 
ATOM     97  C   UNL     1     -17.591  11.099 -13.831  1.00  0.00     0.200 A 
ATOM     98  F   UNL     1     -18.723  12.607 -12.410  1.00  0.00    -0.200 F 
ATOM     99  F   UNL     1     -18.137  11.681 -14.908  1.00  0.00    -0.200 F 
ENDBRANCH  66  89
ENDBRANCH  40  41
ENDBRANCH  32  35
ENDBRANCH  30  31
ENDBRANCH  29  30
ENDBRANCH   1  29
TORSDOF 15
