REMARK SMILES Cc1ccc(C(=O)CCCC(=O)NCCCCNC(=O)c2ccc(-c3c4nc(c(-c5c(F)c(F)c(F)c(F)c5F)c5ccc([nH]5)c(-c5c(F)c(F)c(F)c(F)c5F)c5nc(c(-c6c(F)c(F)c(F)c(F)c6F)c6ccc3[nH]6)C=C5)C=C4)cc2)s1
REMARK SMILES IDX 14 1 13 2 11 3 12 4 10 6 9 7 8 8 6 9 7 10 5 11 1 12 2 13
REMARK SMILES IDX 3 14 84 15 4 16 15 17 16 18 17 19 18 20 19 21 20 23 21 24
REMARK SMILES IDX 22 25 83 26 23 27 82 28 24 29 25 30 26 31 76 32 27 33 81 34
REMARK SMILES IDX 75 35 77 36 28 37 80 38 74 39 73 40 29 42 61 43 41 44 60 45
REMARK SMILES IDX 42 46 45 47 59 48 78 49 43 50 44 51 58 53 79 54 46 55 30 56
REMARK SMILES IDX 31 57 39 58 32 59 33 60 37 61 40 62 34 63 35 64 38 65 36 66
REMARK SMILES IDX 62 67 63 68 71 69 64 70 65 71 69 72 72 73 66 74 67 75 70 76
REMARK SMILES IDX 68 77 47 78 48 79 56 80 49 81 50 82 54 83 57 84 51 85 52 86
REMARK SMILES IDX 55 87 53 88
REMARK H PARENT 13 5 18 22 77 41 45 52
REMARK Flexibility Score: inf
ROOT
ATOM      1  C   UNL     1      -3.333  -1.588   1.827  1.00  0.00     0.116 C 
ENDROOT
BRANCH   1   2
ATOM      2  N   UNL     1      -3.868  -2.752   1.159  1.00  0.00    -0.356 N 
ATOM      3  C   UNL     1      -4.037  -3.097  -0.140  1.00  0.00     0.220 C 
ATOM      4  O   UNL     1      -4.522  -4.219  -0.332  1.00  0.00    -0.275 OA
ATOM      5  H   UNL     1      -4.177  -3.447   1.785  1.00  0.00     0.163 HD
BRANCH   3   6
ATOM      6  C   UNL     1      -3.591  -2.265  -1.339  1.00  0.00     0.100 C 
BRANCH   6   7
ATOM      7  C   UNL     1      -4.201  -0.897  -1.619  1.00  0.00     0.018 C 
BRANCH   7   8
ATOM      8  C   UNL     1      -3.702   0.359  -0.910  1.00  0.00     0.082 C 
BRANCH   8   9
ATOM      9  C   UNL     1      -2.361   0.998  -1.293  1.00  0.00     0.172 C 
ATOM     10  O   UNL     1      -2.425   2.058  -1.926  1.00  0.00    -0.293 OA
BRANCH   9  11
ATOM     11  C   UNL     1      -1.075   0.446  -0.838  1.00  0.00     0.070 A 
ATOM     12  C   UNL     1       2.826   0.553  -0.175  1.00  0.00     0.056 C 
ATOM     13  C   UNL     1       1.373   0.277  -0.340  1.00  0.00     0.002 A 
ATOM     14  C   UNL     1       0.705  -0.889  -0.061  1.00  0.00     0.016 A 
ATOM     15  S   UNL     1       0.314   1.478  -0.929  1.00  0.00    -0.138 S 
ATOM     16  C   UNL     1      -0.690  -0.775  -0.317  1.00  0.00     0.024 A 
ENDBRANCH   9  11
ENDBRANCH   8   9
ENDBRANCH   7   8
ENDBRANCH   6   7
ENDBRANCH   3   6
ENDBRANCH   1   2
BRANCH   1  17
ATOM     17  C   UNL     1      -4.432  -0.755   2.488  1.00  0.00     0.023 C 
BRANCH  17  18
ATOM     18  C   UNL     1      -4.616  -1.068   3.970  1.00  0.00     0.023 C 
BRANCH  18  19
ATOM     19  C   UNL     1      -3.440  -0.648   4.848  1.00  0.00     0.116 C 
BRANCH  19  20
ATOM     20  N   UNL     1      -3.226   0.792   4.899  1.00  0.00    -0.352 N 
ATOM     21  C   UNL     1      -2.865   1.556   5.985  1.00  0.00     0.251 C 
ATOM     22  H   UNL     1      -3.356   1.278   4.053  1.00  0.00     0.163 HD
ATOM     23  O   UNL     1      -2.794   2.777   5.905  1.00  0.00    -0.269 OA
BRANCH  21  24
ATOM     24  C   UNL     1      -2.614   0.880   7.273  1.00  0.00     0.039 A 
ATOM     25  C   UNL     1      -3.326   1.291   8.401  1.00  0.00     0.014 A 
ATOM     26  C   UNL     1      -1.755  -0.220   7.335  1.00  0.00     0.014 A 
ATOM     27  C   UNL     1      -3.242   0.542   9.575  1.00  0.00     0.010 A 
ATOM     28  C   UNL     1      -1.737  -1.010   8.478  1.00  0.00     0.010 A 
ATOM     29  C   UNL     1      -2.485  -0.641   9.607  1.00  0.00    -0.014 A 
BRANCH  29  30
ATOM     30  C   UNL     1      -2.469  -1.511  10.810  1.00  0.00     0.031 A 
ATOM     31  C   UNL     1      -1.185  -1.738  11.556  1.00  0.00     0.074 A 
ATOM     32  C   UNL     1      -3.592  -2.155  11.184  1.00  0.00     0.049 A 
ATOM     33  N   UNL     1      -0.953  -2.508  12.588  1.00  0.00    -0.248 NA
ATOM     34  C   UNL     1       0.004  -1.032  11.054  1.00  0.00     0.031 C 
ATOM     35  C   UNL     1      -4.885  -2.073  10.500  1.00  0.00     0.029 A 
ATOM     36  N   UNL     1      -3.826  -3.013  12.230  1.00  0.00    -0.354 N 
ATOM     37  C   UNL     1       0.407  -2.396  12.842  1.00  0.00     0.074 A 
ATOM     38  C   UNL     1       0.959  -1.530  11.824  1.00  0.00     0.031 C 
ATOM     39  C   UNL     1      -5.781  -2.825  11.161  1.00  0.00     0.029 A 
ATOM     40  C   UNL     1      -5.122  -3.462  12.296  1.00  0.00     0.049 A 
ATOM     41  H   UNL     1      -3.129  -3.281  12.872  1.00  0.00     0.167 HD
ATOM     42  C   UNL     1       1.127  -2.941  13.851  1.00  0.00     0.037 A 
ATOM     43  C   UNL     1      -5.712  -4.291  13.179  1.00  0.00     0.037 A 
ATOM     44  C   UNL     1       0.567  -3.767  14.888  1.00  0.00     0.049 A 
ATOM     45  C   UNL     1      -4.900  -4.850  14.316  1.00  0.00     0.074 A 
ATOM     46  C   UNL     1       1.198  -4.313  15.992  1.00  0.00     0.029 A 
ATOM     47  N   UNL     1      -0.762  -4.158  14.951  1.00  0.00    -0.354 N 
ATOM     48  N   UNL     1      -3.630  -4.675  14.590  1.00  0.00    -0.248 NA
ATOM     49  C   UNL     1      -5.608  -5.710  15.275  1.00  0.00     0.031 C 
ATOM     50  C   UNL     1       0.257  -5.062  16.706  1.00  0.00     0.029 A 
ATOM     51  C   UNL     1      -0.969  -4.947  16.070  1.00  0.00     0.049 A 
ATOM     52  H   UNL     1      -1.455  -3.912  14.296  1.00  0.00     0.167 HD
ATOM     53  C   UNL     1      -3.394  -5.375  15.765  1.00  0.00     0.074 A 
ATOM     54  C   UNL     1      -4.654  -5.969  16.159  1.00  0.00     0.031 C 
ATOM     55  C   UNL     1      -2.236  -5.513  16.456  1.00  0.00     0.037 A 
BRANCH  42  56
ATOM     56  C   UNL     1       2.597  -2.647  13.888  1.00  0.00     0.064 A 
ATOM     57  C   UNL     1       3.081  -1.367  14.202  1.00  0.00     0.173 A 
ATOM     58  C   UNL     1       3.534  -3.657  13.628  1.00  0.00     0.173 A 
ATOM     59  F   UNL     1       2.226  -0.363  14.444  1.00  0.00    -0.203 F 
ATOM     60  C   UNL     1       4.448  -1.103  14.223  1.00  0.00     0.198 A 
ATOM     61  C   UNL     1       4.901  -3.397  13.679  1.00  0.00     0.198 A 
ATOM     62  F   UNL     1       3.125  -4.899  13.326  1.00  0.00    -0.203 F 
ATOM     63  F   UNL     1       4.884   0.139  14.472  1.00  0.00    -0.200 F 
ATOM     64  C   UNL     1       5.356  -2.119  13.968  1.00  0.00     0.200 A 
ATOM     65  F   UNL     1       5.779  -4.382  13.442  1.00  0.00    -0.200 F 
ATOM     66  F   UNL     1       6.672  -1.864  13.991  1.00  0.00    -0.200 F 
ENDBRANCH  42  56
BRANCH  43  67
ATOM     67  C   UNL     1      -7.159  -4.602  13.053  1.00  0.00     0.064 A 
ATOM     68  C   UNL     1      -8.086  -4.082  13.968  1.00  0.00     0.173 A 
ATOM     69  C   UNL     1      -7.645  -5.423  12.026  1.00  0.00     0.173 A 
ATOM     70  F   UNL     1      -7.665  -3.308  14.979  1.00  0.00    -0.203 F 
ATOM     71  C   UNL     1      -9.441  -4.389  13.873  1.00  0.00     0.198 A 
ATOM     72  C   UNL     1      -9.005  -5.708  11.918  1.00  0.00     0.198 A 
ATOM     73  F   UNL     1      -6.801  -5.939  11.122  1.00  0.00    -0.203 F 
ATOM     74  F   UNL     1     -10.299  -3.913  14.787  1.00  0.00    -0.200 F 
ATOM     75  C   UNL     1      -9.901  -5.198  12.845  1.00  0.00     0.200 A 
ATOM     76  F   UNL     1      -9.448  -6.480  10.916  1.00  0.00    -0.200 F 
ATOM     77  F   UNL     1     -11.205  -5.491  12.753  1.00  0.00    -0.200 F 
ENDBRANCH  43  67
BRANCH  55  78
ATOM     78  C   UNL     1      -2.286  -6.300  17.731  1.00  0.00     0.064 A 
ATOM     79  C   UNL     1      -2.406  -7.696  17.730  1.00  0.00     0.173 A 
ATOM     80  C   UNL     1      -2.167  -5.648  18.968  1.00  0.00     0.173 A 
ATOM     81  F   UNL     1      -2.537  -8.362  16.573  1.00  0.00    -0.203 F 
ATOM     82  C   UNL     1      -2.427  -8.412  18.925  1.00  0.00     0.198 A 
ATOM     83  C   UNL     1      -2.162  -6.369  20.159  1.00  0.00     0.198 A 
ATOM     84  F   UNL     1      -2.044  -4.313  19.021  1.00  0.00    -0.203 F 
ATOM     85  F   UNL     1      -2.584  -9.742  18.903  1.00  0.00    -0.200 F 
ATOM     86  C   UNL     1      -2.298  -7.749  20.136  1.00  0.00     0.200 A 
ATOM     87  F   UNL     1      -2.025  -5.728  21.328  1.00  0.00    -0.200 F 
ATOM     88  F   UNL     1      -2.311  -8.440  21.284  1.00  0.00    -0.200 F 
ENDBRANCH  55  78
ENDBRANCH  29  30
ENDBRANCH  21  24
ENDBRANCH  19  20
ENDBRANCH  18  19
ENDBRANCH  17  18
ENDBRANCH   1  17
TORSDOF 15
