REMARK SMILES CCc1ccc(C(=O)NC[C@@H](CC(C)C)C(=O)NCCCCNC(=O)c2ccc(-c3c4nc(c(-c5c(F)c(F)c(F)c(F)c5F)c5ccc([nH]5)c(-c5c(F)c(F)c(F)c(F)c5F)c5nc(c(-c6c(F)c(F)c(F)c(F)c6F)c6ccc3[nH]6)C=C5)C=C4)cc2)s1
REMARK SMILES IDX 19 1 18 2 16 3 17 4 11 6 10 7 9 8 7 9 8 10 6 12 3 13 4 14
REMARK SMILES IDX 89 15 5 16 2 17 1 18 12 19 13 20 14 21 15 22 20 23 21 24
REMARK SMILES IDX 22 25 23 26 24 27 25 29 26 30 27 31 88 32 28 33 87 34 29 35
REMARK SMILES IDX 30 36 31 37 81 38 32 39 86 40 80 41 82 42 33 43 85 44 79 45
REMARK SMILES IDX 78 46 34 48 66 49 46 50 65 51 47 52 50 53 64 54 83 55 48 56
REMARK SMILES IDX 49 57 63 59 84 60 51 61 35 62 36 63 44 64 37 65 38 66 42 67
REMARK SMILES IDX 45 68 39 69 40 70 43 71 41 72 67 73 68 74 76 75 69 76 70 77
REMARK SMILES IDX 74 78 77 79 71 80 72 81 75 82 73 83 52 84 53 85 61 86 54 87
REMARK SMILES IDX 55 88 59 89 62 90 56 91 57 92 60 93 58 94
REMARK H PARENT 18 5 9 11 23 28 82 47 50 58
REMARK Flexibility Score: inf
ROOT
ATOM      1  C   UNL     1       5.089  -4.075   6.203  1.00  0.00     0.116 C 
ENDROOT
BRANCH   1   2
ATOM      2  N   UNL     1       3.949  -3.226   6.487  1.00  0.00    -0.356 N 
ATOM      3  C   UNL     1       2.622  -3.506   6.566  1.00  0.00     0.224 C 
ATOM      4  O   UNL     1       1.896  -2.612   7.013  1.00  0.00    -0.275 OA
ATOM      5  H   UNL     1       4.176  -2.282   6.650  1.00  0.00     0.163 HD
BRANCH   3   6
ATOM      6  C   UNL     1       2.015  -4.844   6.156  1.00  0.00     0.098 C 
BRANCH   6   7
ATOM      7  C   UNL     1       2.564  -5.399   4.834  1.00  0.00     0.129 C 
BRANCH   7   8
ATOM      8  N   UNL     1       1.545  -5.994   3.990  1.00  0.00    -0.351 N 
ATOM      9  C   UNL     1       0.983  -5.581   2.803  1.00  0.00     0.261 C 
ATOM     10  O   UNL     1       0.335  -6.455   2.220  1.00  0.00    -0.268 OA
ATOM     11  H   UNL     1       1.191  -6.848   4.328  1.00  0.00     0.163 HD
BRANCH   9  12
ATOM     12  C   UNL     1       1.136  -4.220   2.292  1.00  0.00     0.092 A 
ATOM     13  C   UNL     1       0.941  -2.248   0.757  1.00  0.00     0.005 A 
ATOM     14  C   UNL     1       1.460  -1.912   1.988  1.00  0.00     0.016 A 
ATOM     15  S   UNL     1       0.662  -3.935   0.656  1.00  0.00    -0.135 S 
ATOM     16  C   UNL     1       1.544  -3.033   2.872  1.00  0.00     0.026 A 
BRANCH  13  17
ATOM     17  C   UNL     1       0.576  -1.386  -0.422  1.00  0.00     0.043 C 
ATOM     18  C   UNL     1       0.969   0.076  -0.274  1.00  0.00     0.010 C 
ENDBRANCH  13  17
ENDBRANCH   9  12
ENDBRANCH   7   8
ENDBRANCH   6   7
BRANCH   6  19
ATOM     19  C   UNL     1       1.937  -5.880   7.307  1.00  0.00     0.018 C 
BRANCH  19  20
ATOM     20  C   UNL     1       3.260  -6.311   7.976  1.00  0.00    -0.017 C 
ATOM     21  C   UNL     1       3.617  -5.419   9.172  1.00  0.00     0.007 C 
ATOM     22  C   UNL     1       3.188  -7.761   8.464  1.00  0.00     0.007 C 
ENDBRANCH  19  20
ENDBRANCH   6  19
ENDBRANCH   3   6
ENDBRANCH   1   2
BRANCH   1  23
ATOM     23  C   UNL     1       6.227  -3.333   5.519  1.00  0.00     0.023 C 
BRANCH  23  24
ATOM     24  C   UNL     1       6.971  -2.352   6.419  1.00  0.00     0.023 C 
BRANCH  24  25
ATOM     25  C   UNL     1       7.411  -2.910   7.767  1.00  0.00     0.116 C 
BRANCH  25  26
ATOM     26  N   UNL     1       8.203  -4.128   7.656  1.00  0.00    -0.352 N 
ATOM     27  C   UNL     1       9.442  -4.412   8.175  1.00  0.00     0.251 C 
ATOM     28  H   UNL     1       7.790  -4.853   7.133  1.00  0.00     0.163 HD
ATOM     29  O   UNL     1      10.016  -5.454   7.877  1.00  0.00    -0.269 OA
BRANCH  27  30
ATOM     30  C   UNL     1      10.092  -3.438   9.072  1.00  0.00     0.039 A 
ATOM     31  C   UNL     1      11.431  -3.106   8.854  1.00  0.00     0.014 A 
ATOM     32  C   UNL     1       9.373  -2.836  10.108  1.00  0.00     0.014 A 
ATOM     33  C   UNL     1      12.032  -2.125   9.644  1.00  0.00     0.010 A 
ATOM     34  C   UNL     1       9.942  -1.790  10.823  1.00  0.00     0.010 A 
ATOM     35  C   UNL     1      11.284  -1.441  10.616  1.00  0.00    -0.014 A 
BRANCH  35  36
ATOM     36  C   UNL     1      11.905  -0.391  11.460  1.00  0.00     0.031 A 
ATOM     37  C   UNL     1      11.995  -0.585  12.949  1.00  0.00     0.074 A 
ATOM     38  C   UNL     1      12.338   0.755  10.902  1.00  0.00     0.049 A 
ATOM     39  N   UNL     1      12.474   0.220  13.864  1.00  0.00    -0.248 NA
ATOM     40  C   UNL     1      11.435  -1.835  13.486  1.00  0.00     0.031 C 
ATOM     41  C   UNL     1      12.240   1.093   9.481  1.00  0.00     0.029 A 
ATOM     42  N   UNL     1      12.940   1.851  11.465  1.00  0.00    -0.354 N 
ATOM     43  C   UNL     1      12.259  -0.421  15.077  1.00  0.00     0.074 A 
ATOM     44  C   UNL     1      11.534  -1.639  14.790  1.00  0.00     0.031 C 
ATOM     45  C   UNL     1      12.787   2.303   9.280  1.00  0.00     0.029 A 
ATOM     46  C   UNL     1      13.250   2.834  10.559  1.00  0.00     0.049 A 
ATOM     47  H   UNL     1      13.132   1.925  12.428  1.00  0.00     0.167 HD
ATOM     48  C   UNL     1      12.660  -0.049  16.316  1.00  0.00     0.037 A 
ATOM     49  C   UNL     1      13.846   4.028  10.741  1.00  0.00     0.037 A 
ATOM     50  C   UNL     1      13.398   1.154  16.594  1.00  0.00     0.049 A 
ATOM     51  C   UNL     1      14.313   4.411  12.119  1.00  0.00     0.074 A 
ATOM     52  C   UNL     1      13.899   1.603  17.802  1.00  0.00     0.029 A 
ATOM     53  N   UNL     1      13.738   2.106  15.642  1.00  0.00    -0.354 N 
ATOM     54  N   UNL     1      14.178   3.762  13.250  1.00  0.00    -0.248 NA
ATOM     55  C   UNL     1      15.036   5.684  12.241  1.00  0.00     0.031 C 
ATOM     56  C   UNL     1      14.502   2.849  17.590  1.00  0.00     0.029 A 
ATOM     57  C   UNL     1      14.430   3.147  16.238  1.00  0.00     0.049 A 
ATOM     58  H   UNL     1      13.519   2.049  14.684  1.00  0.00     0.167 HD
ATOM     59  C   UNL     1      14.824   4.527  14.211  1.00  0.00     0.074 A 
ATOM     60  C   UNL     1      15.362   5.685  13.526  1.00  0.00     0.031 C 
ATOM     61  C   UNL     1      14.963   4.291  15.540  1.00  0.00     0.037 A 
BRANCH  48  62
ATOM     62  C   UNL     1      12.302  -0.965  17.454  1.00  0.00     0.064 A 
ATOM     63  C   UNL     1      12.846  -2.255  17.562  1.00  0.00     0.173 A 
ATOM     64  C   UNL     1      11.388  -0.558  18.437  1.00  0.00     0.173 A 
ATOM     65  F   UNL     1      13.715  -2.702  16.642  1.00  0.00    -0.203 F 
ATOM     66  C   UNL     1      12.448  -3.120  18.578  1.00  0.00     0.198 A 
ATOM     67  C   UNL     1      11.022  -1.412  19.474  1.00  0.00     0.198 A 
ATOM     68  F   UNL     1      10.840   0.666  18.388  1.00  0.00    -0.203 F 
ATOM     69  F   UNL     1      12.921  -4.374  18.611  1.00  0.00    -0.200 F 
ATOM     70  C   UNL     1      11.540  -2.697  19.535  1.00  0.00     0.200 A 
ATOM     71  F   UNL     1      10.153  -0.997  20.407  1.00  0.00    -0.200 F 
ATOM     72  F   UNL     1      11.152  -3.533  20.509  1.00  0.00    -0.200 F 
ENDBRANCH  48  62
BRANCH  49  73
ATOM     73  C   UNL     1      14.078   4.916   9.573  1.00  0.00     0.064 A 
ATOM     74  C   UNL     1      15.367   5.112   9.059  1.00  0.00     0.173 A 
ATOM     75  C   UNL     1      13.013   5.561   8.928  1.00  0.00     0.173 A 
ATOM     76  F   UNL     1      16.419   4.528   9.652  1.00  0.00    -0.203 F 
ATOM     77  C   UNL     1      15.585   5.931   7.954  1.00  0.00     0.198 A 
ATOM     78  C   UNL     1      13.229   6.359   7.806  1.00  0.00     0.198 A 
ATOM     79  F   UNL     1      11.759   5.398   9.374  1.00  0.00    -0.203 F 
ATOM     80  F   UNL     1      16.832   6.129   7.505  1.00  0.00    -0.200 F 
ATOM     81  C   UNL     1      14.515   6.548   7.323  1.00  0.00     0.200 A 
ATOM     82  F   UNL     1      12.190   6.938   7.188  1.00  0.00    -0.200 F 
ATOM     83  F   UNL     1      14.724   7.325   6.252  1.00  0.00    -0.200 F 
ENDBRANCH  49  73
BRANCH  61  84
ATOM     84  C   UNL     1      15.768   5.281  16.333  1.00  0.00     0.064 A 
ATOM     85  C   UNL     1      15.301   6.578  16.596  1.00  0.00     0.173 A 
ATOM     86  C   UNL     1      17.016   4.915  16.860  1.00  0.00     0.173 A 
ATOM     87  F   UNL     1      14.119   6.982  16.105  1.00  0.00    -0.203 F 
ATOM     88  C   UNL     1      16.069   7.481  17.326  1.00  0.00     0.198 A 
ATOM     89  C   UNL     1      17.766   5.809  17.618  1.00  0.00     0.198 A 
ATOM     90  F   UNL     1      17.506   3.684  16.647  1.00  0.00    -0.203 F 
ATOM     91  F   UNL     1      15.629   8.733  17.514  1.00  0.00    -0.200 F 
ATOM     92  C   UNL     1      17.297   7.095  17.841  1.00  0.00     0.200 A 
ATOM     93  F   UNL     1      18.945   5.428  18.129  1.00  0.00    -0.200 F 
ATOM     94  F   UNL     1      18.034   7.965  18.545  1.00  0.00    -0.200 F 
ENDBRANCH  61  84
ENDBRANCH  35  36
ENDBRANCH  27  30
ENDBRANCH  25  26
ENDBRANCH  24  25
ENDBRANCH  23  24
ENDBRANCH   1  23
TORSDOF 17
