REMARK SMILES COc1cc2c(cc1OC)-c1c(c(C(=O)Nc3ccc(C(=O)NCCCCNC(=O)c4ccc(-c5c6nc(c(-c7c(F)c(F)c(F)c(F)c7F)c7ccc([nH]7)c(-c7c(F)c(F)c(F)c(F)c7F)c7nc(c(-c8c(F)c(F)c(F)c(F)c8F)c8ccc5[nH]8)C=C7)C=C6)cc4)cc3)nn1-c1ccc(F)cc1)C2
REMARK SMILES IDX 25 1 24 2 23 3 21 4 22 5 20 7 17 8 18 9 95 10 19 11 94 12
REMARK SMILES IDX 16 13 14 14 15 15 13 17 3 18 4 19 8 20 5 21 7 22 6 23 105 24
REMARK SMILES IDX 11 25 12 26 97 27 96 28 2 29 1 30 9 31 10 32 98 33 99 34
REMARK SMILES IDX 104 35 100 36 103 37 101 38 102 39 26 40 27 41 28 42 29 43
REMARK SMILES IDX 30 45 31 46 32 47 93 48 33 49 92 50 34 51 35 52 36 53 86 54
REMARK SMILES IDX 37 55 91 56 85 57 87 58 38 59 90 60 84 61 83 62 39 64 71 65
REMARK SMILES IDX 51 66 70 67 52 68 55 69 69 70 88 71 53 72 54 73 68 75 89 76
REMARK SMILES IDX 56 77 40 78 41 79 49 80 42 81 43 82 47 83 50 84 44 85 45 86
REMARK SMILES IDX 48 87 46 88 72 89 73 90 81 91 74 92 75 93 79 94 82 95 76 96
REMARK SMILES IDX 77 97 80 98 78 99 57 100 58 101 66 102 59 103 60 104 64 105
REMARK SMILES IDX 67 106 61 107 62 108 65 109 63 110
REMARK H PARENT 23 6 16 16 28 44 87 63 55 74
REMARK Flexibility Score: inf
ROOT
ATOM      1  C   UNL     1      -3.201   4.021   6.210  1.00  0.00     0.023 C 
ENDROOT
BRANCH   1   2
ATOM      2  C   UNL     1      -3.834   2.648   6.404  1.00  0.00     0.116 C 
BRANCH   2   3
ATOM      3  N   UNL     1      -3.889   1.799   5.229  1.00  0.00    -0.352 N 
ATOM      4  C   UNL     1      -3.990   0.428   5.104  1.00  0.00     0.251 C 
ATOM      5  O   UNL     1      -4.153  -0.029   3.971  1.00  0.00    -0.269 OA
ATOM      6  H   UNL     1      -3.848   2.284   4.373  1.00  0.00     0.163 HD
BRANCH   4   7
ATOM      7  C   UNL     1      -3.735  -0.515   6.238  1.00  0.00     0.039 A 
ATOM      8  C   UNL     1      -2.221  -1.891   8.117  1.00  0.00     0.041 A 
ATOM      9  C   UNL     1      -2.387  -2.440   6.856  1.00  0.00     0.027 A 
ATOM     10  C   UNL     1      -3.076  -0.868   8.530  1.00  0.00     0.027 A 
ATOM     11  C   UNL     1      -3.159  -1.752   5.912  1.00  0.00     0.016 A 
ATOM     12  C   UNL     1      -3.846  -0.184   7.585  1.00  0.00     0.016 A 
BRANCH   8  13
ATOM     13  N   UNL     1      -1.244  -2.319   9.008  1.00  0.00    -0.321 N 
ATOM     14  C   UNL     1       0.042  -2.796   8.848  1.00  0.00     0.276 C 
ATOM     15  O   UNL     1       0.485  -3.376   9.849  1.00  0.00    -0.267 OA
ATOM     16  H   UNL     1      -1.528  -2.272   9.949  1.00  0.00     0.170 HD
BRANCH  14  17
ATOM     17  C   UNL     1       0.932  -2.508   7.678  1.00  0.00     0.155 A 
ATOM     18  C   UNL     1       1.470   0.141   2.283  1.00  0.00     0.161 A 
ATOM     19  C   UNL     1       0.528   0.122   3.329  1.00  0.00     0.055 A 
ATOM     20  C   UNL     1       2.736  -0.464   2.433  1.00  0.00     0.161 A 
ATOM     21  C   UNL     1       0.861  -0.520   4.515  1.00  0.00    -0.030 A 
ATOM     22  C   UNL     1       3.041  -1.127   3.628  1.00  0.00     0.061 A 
ATOM     23  C   UNL     1       2.120  -1.125   4.653  1.00  0.00     0.008 A 
ATOM     24  C   UNL     1      -0.061  -0.804   5.712  1.00  0.00     0.076 C 
ATOM     25  C   UNL     1       2.084  -1.767   5.926  1.00  0.00     0.079 A 
ATOM     26  C   UNL     1       0.850  -1.680   6.518  1.00  0.00     0.016 A 
ATOM     27  N   UNL     1       2.891  -2.518   6.708  1.00  0.00    -0.232 N 
ATOM     28  N   UNL     1       2.164  -3.103   7.690  1.00  0.00    -0.162 NA
BRANCH  18  29
ATOM     29  O   UNL     1       1.126   0.807   1.136  1.00  0.00    -0.493 OA
ATOM     30  C   UNL     1       0.279   0.007   0.307  1.00  0.00     0.278 C 
ENDBRANCH  18  29
BRANCH  20  31
ATOM     31  O   UNL     1       3.773  -0.530   1.542  1.00  0.00    -0.493 OA
ATOM     32  C   UNL     1       3.642   0.084   0.273  1.00  0.00     0.278 C 
ENDBRANCH  20  31
BRANCH  27  33
ATOM     33  C   UNL     1       4.283  -2.710   6.561  1.00  0.00     0.065 A 
ATOM     34  C   UNL     1       4.843  -3.968   6.798  1.00  0.00     0.031 A 
ATOM     35  C   UNL     1       5.085  -1.649   6.105  1.00  0.00     0.031 A 
ATOM     36  C   UNL     1       6.182  -4.187   6.463  1.00  0.00     0.041 A 
ATOM     37  C   UNL     1       6.424  -1.871   5.793  1.00  0.00     0.041 A 
ATOM     38  C   UNL     1       6.953  -3.145   5.952  1.00  0.00     0.123 A 
ATOM     39  F   UNL     1       8.225  -3.374   5.598  1.00  0.00    -0.207 F 
ENDBRANCH  27  33
ENDBRANCH  14  17
ENDBRANCH   8  13
ENDBRANCH   4   7
ENDBRANCH   2   3
ENDBRANCH   1   2
BRANCH   1  40
ATOM     40  C   UNL     1      -3.704   4.906   5.074  1.00  0.00     0.023 C 
BRANCH  40  41
ATOM     41  C   UNL     1      -5.217   5.041   4.889  1.00  0.00     0.116 C 
BRANCH  41  42
ATOM     42  N   UNL     1      -5.991   5.240   6.099  1.00  0.00    -0.352 N 
ATOM     43  C   UNL     1      -6.455   6.324   6.794  1.00  0.00     0.251 C 
ATOM     44  H   UNL     1      -6.245   4.389   6.523  1.00  0.00     0.163 HD
ATOM     45  O   UNL     1      -7.300   6.084   7.660  1.00  0.00    -0.269 OA
BRANCH  43  46
ATOM     46  C   UNL     1      -5.996   7.732   6.625  1.00  0.00     0.039 A 
ATOM     47  C   UNL     1      -4.980   8.142   5.771  1.00  0.00     0.014 A 
ATOM     48  C   UNL     1      -6.596   8.704   7.453  1.00  0.00     0.014 A 
ATOM     49  C   UNL     1      -4.518   9.456   5.800  1.00  0.00     0.010 A 
ATOM     50  C   UNL     1      -6.156  10.032   7.465  1.00  0.00     0.010 A 
ATOM     51  C   UNL     1      -5.086  10.406   6.661  1.00  0.00    -0.014 A 
BRANCH  51  52
ATOM     52  C   UNL     1      -4.535  11.764   6.592  1.00  0.00     0.031 A 
ATOM     53  C   UNL     1      -4.551  12.399   5.245  1.00  0.00     0.074 A 
ATOM     54  C   UNL     1      -4.057  12.494   7.622  1.00  0.00     0.049 A 
ATOM     55  N   UNL     1      -3.537  12.751   4.522  1.00  0.00    -0.248 NA
ATOM     56  C   UNL     1      -5.856  12.637   4.613  1.00  0.00     0.031 C 
ATOM     57  C   UNL     1      -4.237  12.253   9.052  1.00  0.00     0.029 A 
ATOM     58  N   UNL     1      -3.350  13.672   7.584  1.00  0.00    -0.354 N 
ATOM     59  C   UNL     1      -4.067  13.409   3.415  1.00  0.00     0.074 A 
ATOM     60  C   UNL     1      -5.496  13.226   3.471  1.00  0.00     0.031 C 
ATOM     61  C   UNL     1      -3.834  13.346   9.739  1.00  0.00     0.029 A 
ATOM     62  C   UNL     1      -3.220  14.289   8.815  1.00  0.00     0.049 A 
ATOM     63  H   UNL     1      -2.970  14.043   6.755  1.00  0.00     0.167 HD
ATOM     64  C   UNL     1      -3.306  14.245   2.659  1.00  0.00     0.037 A 
ATOM     65  C   UNL     1      -2.673  15.498   9.080  1.00  0.00     0.037 A 
ATOM     66  C   UNL     1      -1.899  14.079   2.893  1.00  0.00     0.049 A 
ATOM     67  C   UNL     1      -1.698  15.855   8.023  1.00  0.00     0.074 A 
ATOM     68  C   UNL     1      -0.858  13.334   2.389  1.00  0.00     0.029 A 
ATOM     69  N   UNL     1      -1.448  14.684   4.027  1.00  0.00    -0.354 N 
ATOM     70  N   UNL     1      -0.573  15.227   7.819  1.00  0.00    -0.248 NA
ATOM     71  C   UNL     1      -2.049  16.853   7.014  1.00  0.00     0.031 C 
ATOM     72  C   UNL     1       0.224  13.453   3.317  1.00  0.00     0.029 A 
ATOM     73  C   UNL     1      -0.191  14.262   4.366  1.00  0.00     0.049 A 
ATOM     74  H   UNL     1      -1.965  15.346   4.541  1.00  0.00     0.167 HD
ATOM     75  C   UNL     1      -0.290  15.462   6.492  1.00  0.00     0.074 A 
ATOM     76  C   UNL     1      -1.109  16.598   6.102  1.00  0.00     0.031 C 
ATOM     77  C   UNL     1       0.267  14.494   5.713  1.00  0.00     0.037 A 
BRANCH  64  78
ATOM     78  C   UNL     1      -3.811  15.521   2.025  1.00  0.00     0.064 A 
ATOM     79  C   UNL     1      -2.998  16.205   1.097  1.00  0.00     0.173 A 
ATOM     80  C   UNL     1      -4.897  16.258   2.544  1.00  0.00     0.173 A 
ATOM     81  F   UNL     1      -1.921  15.609   0.563  1.00  0.00    -0.203 F 
ATOM     82  C   UNL     1      -3.226  17.542   0.759  1.00  0.00     0.198 A 
ATOM     83  C   UNL     1      -5.152  17.576   2.164  1.00  0.00     0.198 A 
ATOM     84  F   UNL     1      -5.676  15.771   3.519  1.00  0.00    -0.203 F 
ATOM     85  F   UNL     1      -2.363  18.184  -0.041  1.00  0.00    -0.200 F 
ATOM     86  C   UNL     1      -4.302  18.227   1.294  1.00  0.00     0.200 A 
ATOM     87  F   UNL     1      -6.184  18.232   2.712  1.00  0.00    -0.200 F 
ATOM     88  F   UNL     1      -4.494  19.522   1.010  1.00  0.00    -0.200 F 
ENDBRANCH  64  78
BRANCH  65  89
ATOM     89  C   UNL     1      -3.063  16.470  10.129  1.00  0.00     0.064 A 
ATOM     90  C   UNL     1      -2.197  17.506  10.516  1.00  0.00     0.173 A 
ATOM     91  C   UNL     1      -4.398  16.570  10.564  1.00  0.00     0.173 A 
ATOM     92  F   UNL     1      -0.919  17.508  10.110  1.00  0.00    -0.203 F 
ATOM     93  C   UNL     1      -2.650  18.598  11.261  1.00  0.00     0.198 A 
ATOM     94  C   UNL     1      -4.845  17.653  11.320  1.00  0.00     0.198 A 
ATOM     95  F   UNL     1      -5.315  15.668  10.182  1.00  0.00    -0.203 F 
ATOM     96  F   UNL     1      -1.813  19.605  11.545  1.00  0.00    -0.200 F 
ATOM     97  C   UNL     1      -3.976  18.675  11.652  1.00  0.00     0.200 A 
ATOM     98  F   UNL     1      -6.138  17.732  11.666  1.00  0.00    -0.200 F 
ATOM     99  F   UNL     1      -4.425  19.752  12.311  1.00  0.00    -0.200 F 
ENDBRANCH  65  89
BRANCH  77 100
ATOM    100  C   UNL     1       1.172  13.505   6.363  1.00  0.00     0.064 A 
ATOM    101  C   UNL     1       0.748  12.551   7.299  1.00  0.00     0.173 A 
ATOM    102  C   UNL     1       2.523  13.501   5.989  1.00  0.00     0.173 A 
ATOM    103  F   UNL     1      -0.544  12.449   7.642  1.00  0.00    -0.203 F 
ATOM    104  C   UNL     1       1.656  11.661   7.872  1.00  0.00     0.198 A 
ATOM    105  C   UNL     1       3.419  12.591   6.538  1.00  0.00     0.198 A 
ATOM    106  F   UNL     1       2.969  14.369   5.067  1.00  0.00    -0.203 F 
ATOM    107  F   UNL     1       1.239  10.770   8.784  1.00  0.00    -0.200 F 
ATOM    108  C   UNL     1       2.989  11.680   7.489  1.00  0.00     0.200 A 
ATOM    109  F   UNL     1       4.698  12.589   6.137  1.00  0.00    -0.200 F 
ATOM    110  F   UNL     1       3.855  10.807   8.023  1.00  0.00    -0.200 F 
ENDBRANCH  77 100
ENDBRANCH  51  52
ENDBRANCH  43  46
ENDBRANCH  41  42
ENDBRANCH  40  41
ENDBRANCH   1  40
TORSDOF 16
