REMARK SMILES Cc1ccc(Cl)c(Nc2ccccc2C(=O)NCCCCNC(=O)c2ccc(-c3c4nc(c(-c5c(F)c(F)c(F)c(F)c5F)c5ccc([nH]5)c(-c5c(F)c(F)c(F)c(F)c5F)c5nc(c(-c6c(F)c(F)c(F)c(F)c6F)c6ccc3[nH]6)C=C5)C=C4)cc2)c1Cl
REMARK SMILES IDX 19 1 18 2 17 3 15 4 16 5 14 7 9 8 10 9 11 10 13 11 12 12
REMARK SMILES IDX 8 13 7 15 1 16 2 17 3 18 88 19 4 20 89 21 5 22 6 23 20 24
REMARK SMILES IDX 21 25 22 26 23 27 24 29 25 30 26 31 87 32 27 33 86 34 28 35
REMARK SMILES IDX 29 36 30 37 80 38 31 39 85 40 79 41 81 42 32 43 84 44 78 45
REMARK SMILES IDX 77 46 33 48 65 49 45 50 64 51 46 52 49 53 63 54 82 55 47 56
REMARK SMILES IDX 48 57 62 59 83 60 50 61 34 62 35 63 43 64 36 65 37 66 41 67
REMARK SMILES IDX 44 68 38 69 39 70 42 71 40 72 66 73 67 74 75 75 68 76 69 77
REMARK SMILES IDX 73 78 76 79 70 80 71 81 74 82 72 83 51 84 52 85 60 86 53 87
REMARK SMILES IDX 54 88 58 89 61 90 55 91 56 92 59 93 57 94
REMARK H PARENT 17 6 8 14 22 28 81 47 49 58
REMARK Flexibility Score: inf
ROOT
ATOM      1  C   UNL     1      -2.490  -1.585   2.396  1.00  0.00     0.023 C 
ENDROOT
BRANCH   1   2
ATOM      2  C   UNL     1      -1.266  -1.630   1.492  1.00  0.00     0.116 C 
BRANCH   2   3
ATOM      3  N   UNL     1       0.008  -1.539   2.163  1.00  0.00    -0.352 N 
ATOM      4  C   UNL     1       1.228  -2.069   1.806  1.00  0.00     0.253 C 
ATOM      5  O   UNL     1       2.201  -1.747   2.492  1.00  0.00    -0.269 OA
ATOM      6  H   UNL     1       0.005  -1.021   3.000  1.00  0.00     0.163 HD
BRANCH   4   7
ATOM      7  C   UNL     1       1.407  -3.100   0.735  1.00  0.00     0.063 A 
ATOM      8  C   UNL     1       0.886  -3.091  -0.576  1.00  0.00     0.051 A 
ATOM      9  C   UNL     1       1.114  -4.228  -1.387  1.00  0.00     0.027 A 
ATOM     10  C   UNL     1       1.892  -5.304  -0.960  1.00  0.00     0.002 A 
ATOM     11  C   UNL     1       2.219  -4.186   1.140  1.00  0.00     0.016 A 
ATOM     12  C   UNL     1       2.468  -5.272   0.300  1.00  0.00     0.001 A 
BRANCH   8  13
ATOM     13  N   UNL     1       0.245  -2.021  -1.234  1.00  0.00    -0.352 N 
ATOM     14  H   UNL     1      -0.467  -2.318  -1.846  1.00  0.00     0.167 HD
BRANCH  13  15
ATOM     15  C   UNL     1       0.400  -0.614  -1.210  1.00  0.00     0.077 A 
ATOM     16  C   UNL     1       2.806   2.182  -0.135  1.00  0.00     0.046 C 
ATOM     17  C   UNL     1       1.575   1.458  -0.610  1.00  0.00    -0.030 A 
ATOM     18  C   UNL     1       0.400   2.192  -0.835  1.00  0.00     0.006 A 
ATOM     19  C   UNL     1       1.579   0.063  -0.836  1.00  0.00     0.069 A 
ATOM     20  C   UNL     1      -0.747   1.558  -1.298  1.00  0.00     0.023 A 
ATOM     21  Cl  UNL     1       3.110  -0.766  -0.807  1.00  0.00    -0.082 Cl
ATOM     22  C   UNL     1      -0.743   0.178  -1.486  1.00  0.00     0.066 A 
ATOM     23  Cl  UNL     1      -2.225  -0.566  -2.005  1.00  0.00    -0.082 Cl
ENDBRANCH  13  15
ENDBRANCH   8  13
ENDBRANCH   4   7
ENDBRANCH   2   3
ENDBRANCH   1   2
BRANCH   1  24
ATOM     24  C   UNL     1      -2.776  -0.261   3.110  1.00  0.00     0.023 C 
BRANCH  24  25
ATOM     25  C   UNL     1      -2.714   1.028   2.289  1.00  0.00     0.116 C 
BRANCH  25  26
ATOM     26  N   UNL     1      -3.533   1.042   1.088  1.00  0.00    -0.352 N 
ATOM     27  C   UNL     1      -4.274   2.073   0.546  1.00  0.00     0.251 C 
ATOM     28  H   UNL     1      -3.563   0.194   0.588  1.00  0.00     0.163 HD
ATOM     29  O   UNL     1      -4.885   1.914  -0.500  1.00  0.00    -0.269 OA
BRANCH  27  30
ATOM     30  C   UNL     1      -4.374   3.368   1.259  1.00  0.00     0.039 A 
ATOM     31  C   UNL     1      -5.645   3.906   1.489  1.00  0.00     0.014 A 
ATOM     32  C   UNL     1      -3.239   4.032   1.729  1.00  0.00     0.014 A 
ATOM     33  C   UNL     1      -5.783   5.047   2.284  1.00  0.00     0.010 A 
ATOM     34  C   UNL     1      -3.382   5.133   2.573  1.00  0.00     0.010 A 
ATOM     35  C   UNL     1      -4.657   5.636   2.880  1.00  0.00    -0.014 A 
BRANCH  35  36
ATOM     36  C   UNL     1      -4.799   6.737   3.870  1.00  0.00     0.031 A 
ATOM     37  C   UNL     1      -4.241   8.103   3.584  1.00  0.00     0.074 A 
ATOM     38  C   UNL     1      -5.358   6.477   5.070  1.00  0.00     0.049 A 
ATOM     39  N   UNL     1      -4.207   9.161   4.356  1.00  0.00    -0.248 NA
ATOM     40  C   UNL     1      -3.611   8.300   2.270  1.00  0.00     0.031 C 
ATOM     41  C   UNL     1      -5.874   5.175   5.498  1.00  0.00     0.029 A 
ATOM     42  N   UNL     1      -5.567   7.288   6.159  1.00  0.00    -0.354 N 
ATOM     43  C   UNL     1      -3.537  10.138   3.632  1.00  0.00     0.074 A 
ATOM     44  C   UNL     1      -3.148   9.538   2.373  1.00  0.00     0.031 C 
ATOM     45  C   UNL     1      -6.348   5.278   6.751  1.00  0.00     0.029 A 
ATOM     46  C   UNL     1      -6.144   6.642   7.227  1.00  0.00     0.049 A 
ATOM     47  H   UNL     1      -5.327   8.243   6.173  1.00  0.00     0.167 HD
ATOM     48  C   UNL     1      -3.285  11.422   3.979  1.00  0.00     0.037 A 
ATOM     49  C   UNL     1      -6.466   7.096   8.454  1.00  0.00     0.037 A 
ATOM     50  C   UNL     1      -3.708  12.029   5.215  1.00  0.00     0.049 A 
ATOM     51  C   UNL     1      -6.216   8.541   8.792  1.00  0.00     0.074 A 
ATOM     52  C   UNL     1      -3.571  13.346   5.620  1.00  0.00     0.029 A 
ATOM     53  N   UNL     1      -4.351  11.359   6.245  1.00  0.00    -0.354 N 
ATOM     54  N   UNL     1      -5.666   9.479   8.060  1.00  0.00    -0.248 NA
ATOM     55  C   UNL     1      -6.647   8.996  10.122  1.00  0.00     0.031 C 
ATOM     56  C   UNL     1      -4.094  13.464   6.912  1.00  0.00     0.029 A 
ATOM     57  C   UNL     1      -4.602  12.233   7.291  1.00  0.00     0.049 A 
ATOM     58  H   UNL     1      -4.593  10.405   6.235  1.00  0.00     0.167 HD
ATOM     59  C   UNL     1      -5.717  10.637   8.823  1.00  0.00     0.074 A 
ATOM     60  C   UNL     1      -6.364  10.290  10.070  1.00  0.00     0.031 C 
ATOM     61  C   UNL     1      -5.268  11.879   8.517  1.00  0.00     0.037 A 
BRANCH  48  62
ATOM     62  C   UNL     1      -2.522  12.275   3.009  1.00  0.00     0.064 A 
ATOM     63  C   UNL     1      -3.104  12.732   1.817  1.00  0.00     0.173 A 
ATOM     64  C   UNL     1      -1.220  12.702   3.310  1.00  0.00     0.173 A 
ATOM     65  F   UNL     1      -4.343  12.346   1.479  1.00  0.00    -0.203 F 
ATOM     66  C   UNL     1      -2.403  13.571   0.955  1.00  0.00     0.198 A 
ATOM     67  C   UNL     1      -0.532  13.562   2.459  1.00  0.00     0.198 A 
ATOM     68  F   UNL     1      -0.621  12.299   4.441  1.00  0.00    -0.203 F 
ATOM     69  F   UNL     1      -2.966  13.968  -0.195  1.00  0.00    -0.200 F 
ATOM     70  C   UNL     1      -1.123  13.993   1.280  1.00  0.00     0.200 A 
ATOM     71  F   UNL     1       0.700  13.979   2.781  1.00  0.00    -0.200 F 
ATOM     72  F   UNL     1      -0.456  14.813   0.456  1.00  0.00    -0.200 F 
ENDBRANCH  48  62
BRANCH  49  73
ATOM     73  C   UNL     1      -7.082   6.182   9.453  1.00  0.00     0.064 A 
ATOM     74  C   UNL     1      -8.416   6.343   9.852  1.00  0.00     0.173 A 
ATOM     75  C   UNL     1      -6.342   5.151  10.050  1.00  0.00     0.173 A 
ATOM     76  F   UNL     1      -9.159   7.327   9.324  1.00  0.00    -0.203 F 
ATOM     77  C   UNL     1      -8.978   5.529  10.834  1.00  0.00     0.198 A 
ATOM     78  C   UNL     1      -6.914   4.319  11.011  1.00  0.00     0.198 A 
ATOM     79  F   UNL     1      -5.064   4.951   9.699  1.00  0.00    -0.203 F 
ATOM     80  F   UNL     1     -10.237   5.744  11.239  1.00  0.00    -0.200 F 
ATOM     81  C   UNL     1      -8.227   4.516  11.411  1.00  0.00     0.200 A 
ATOM     82  F   UNL     1      -6.190   3.332  11.556  1.00  0.00    -0.200 F 
ATOM     83  F   UNL     1      -8.765   3.737  12.359  1.00  0.00    -0.200 F 
ENDBRANCH  49  73
BRANCH  61  84
ATOM     84  C   UNL     1      -5.508  12.966   9.522  1.00  0.00     0.064 A 
ATOM     85  C   UNL     1      -4.797  13.027  10.730  1.00  0.00     0.173 A 
ATOM     86  C   UNL     1      -6.438  13.982   9.255  1.00  0.00     0.173 A 
ATOM     87  F   UNL     1      -3.908  12.071  11.038  1.00  0.00    -0.203 F 
ATOM     88  C   UNL     1      -5.029  14.050  11.645  1.00  0.00     0.198 A 
ATOM     89  C   UNL     1      -6.646  15.020  10.159  1.00  0.00     0.198 A 
ATOM     90  F   UNL     1      -7.139  13.974   8.111  1.00  0.00    -0.203 F 
ATOM     91  F   UNL     1      -4.373  14.062  12.814  1.00  0.00    -0.200 F 
ATOM     92  C   UNL     1      -5.947  15.049  11.356  1.00  0.00     0.200 A 
ATOM     93  F   UNL     1      -7.524  15.991   9.872  1.00  0.00    -0.200 F 
ATOM     94  F   UNL     1      -6.164  16.036  12.235  1.00  0.00    -0.200 F 
ENDBRANCH  61  84
ENDBRANCH  35  36
ENDBRANCH  27  30
ENDBRANCH  25  26
ENDBRANCH  24  25
ENDBRANCH   1  24
TORSDOF 13
