REMARK SMILES COC[C@H](C)CNC(=O)N[C@@H]1CCCCC[C@@H]1C(=O)NCCCCNC(=O)c1ccc(-c2c3nc(c(-c4c(F)c(F)c(F)c(F)c4F)c4ccc([nH]4)c(-c4c(F)c(F)c(F)c(F)c4F)c4nc(c(-c5c(F)c(F)c(F)c(F)c5F)c5ccc2[nH]5)C=C4)C=C3)cc1
REMARK SMILES IDX 18 1 19 2 20 3 17 5 11 6 10 7 7 8 8 9 9 11 6 13 4 14 5 15
REMARK SMILES IDX 3 16 2 17 1 18 12 19 13 20 14 21 16 23 15 24 21 26 22 27
REMARK SMILES IDX 23 28 24 29 25 30 26 31 27 33 28 34 29 35 90 36 30 37 89 38
REMARK SMILES IDX 31 39 32 40 33 41 83 42 34 43 88 44 82 45 84 46 35 47 87 48
REMARK SMILES IDX 81 49 80 50 36 52 68 53 48 54 67 55 49 56 52 57 66 58 85 59
REMARK SMILES IDX 50 60 51 61 65 63 86 64 53 65 37 66 38 67 46 68 39 69 40 70
REMARK SMILES IDX 44 71 47 72 41 73 42 74 45 75 43 76 69 77 70 78 78 79 71 80
REMARK SMILES IDX 72 81 76 82 79 83 73 84 74 85 77 86 75 87 54 88 55 89 63 90
REMARK SMILES IDX 56 91 57 92 61 93 64 94 58 95 59 96 62 97 60 98
REMARK H PARENT 20 4 7 10 10 12 25 32 84 51 52 62
REMARK Flexibility Score: 90.00
ROOT
ATOM      1  C   UNL     1      -2.710  -4.431  -4.402  1.00  0.00     0.225 C 
ATOM      2  O   UNL     1      -3.161  -5.058  -5.365  1.00  0.00    -0.275 OA
ATOM      3  N   UNL     1      -3.365  -4.542  -3.214  1.00  0.00    -0.356 N 
ATOM      4  H   UNL     1      -4.230  -5.010  -3.256  1.00  0.00     0.163 HD
ENDROOT
BRANCH   1   5
ATOM      5  C   UNL     1      -1.452  -3.579  -4.560  1.00  0.00     0.101 C 
BRANCH   5   6
ATOM      6  C   UNL     1      -0.131  -4.312  -4.189  1.00  0.00     0.096 C 
BRANCH   6   7
ATOM      7  N   UNL     1      -0.256  -5.373  -3.165  1.00  0.00    -0.335 N 
ATOM      8  N   UNL     1       0.646  -5.027  -0.973  1.00  0.00    -0.338 N 
ATOM      9  C   UNL     1      -0.062  -5.674  -1.887  1.00  0.00     0.315 C 
ATOM     10  H   UNL     1       0.450  -5.377  -0.074  1.00  0.00     0.165 HD
ATOM     11  O   UNL     1      -0.642  -6.692  -1.488  1.00  0.00    -0.249 OA
ATOM     12  H   UNL     1      -0.631  -6.170  -3.605  1.00  0.00     0.165 HD
BRANCH   8  13
ATOM     13  C   UNL     1       1.627  -3.953  -0.900  1.00  0.00     0.123 C 
BRANCH  13  14
ATOM     14  C   UNL     1       0.983  -2.631  -0.452  1.00  0.00     0.031 C 
ATOM     15  C   UNL     1       0.675  -2.668   1.051  1.00  0.00     0.012 C 
BRANCH  14  16
ATOM     16  C   UNL     1       1.865  -1.419  -0.785  1.00  0.00     0.164 C 
BRANCH  16  17
ATOM     17  O   UNL     1       3.074  -1.438  -0.031  1.00  0.00    -0.384 OA
ATOM     18  C   UNL     1       3.275  -0.225   0.686  1.00  0.00     0.194 C 
ENDBRANCH  16  17
ENDBRANCH  14  16
ENDBRANCH  13  14
ENDBRANCH   8  13
ENDBRANCH   6   7
BRANCH   6  19
ATOM     19  C   UNL     1       1.072  -3.398  -4.029  1.00  0.00     0.026 C 
BRANCH  19  20
ATOM     20  C   UNL     1       1.260  -2.330  -5.105  1.00  0.00     0.002 C 
BRANCH  20  21
ATOM     21  C   UNL     1       0.550  -1.024  -4.753  1.00  0.00     0.000 CG0
ATOM     22  G   UNL     1      -0.964  -1.073  -4.885  1.00  0.00     0.000 G0
ENDBRANCH  20  21
ENDBRANCH  19  20
ENDBRANCH   6  19
ENDBRANCH   5   6
BRANCH   5  23
ATOM     23  C   UNL     1      -1.646  -2.147  -4.038  1.00  0.00     0.015 C 
BRANCH  23  24
ATOM     24  C   UNL     1      -0.964  -1.073  -4.885  1.00  0.00     0.001 CG0
ATOM     25  G   UNL     1       0.550  -1.024  -4.753  1.00  0.00     0.000 G0
ENDBRANCH  23  24
ENDBRANCH   5  23
ENDBRANCH   1   5
BRANCH   3  26
ATOM     26  C   UNL     1      -2.981  -4.074  -1.897  1.00  0.00     0.116 C 
BRANCH  26  27
ATOM     27  C   UNL     1      -3.760  -2.847  -1.433  1.00  0.00     0.023 C 
BRANCH  27  28
ATOM     28  C   UNL     1      -5.257  -3.065  -1.250  1.00  0.00     0.023 C 
BRANCH  28  29
ATOM     29  C   UNL     1      -5.622  -4.186  -0.291  1.00  0.00     0.116 C 
BRANCH  29  30
ATOM     30  N   UNL     1      -5.081  -3.999   1.050  1.00  0.00    -0.352 N 
ATOM     31  C   UNL     1      -5.703  -4.247   2.251  1.00  0.00     0.251 C 
ATOM     32  H   UNL     1      -4.160  -3.655   1.101  1.00  0.00     0.163 HD
ATOM     33  O   UNL     1      -5.174  -3.955   3.317  1.00  0.00    -0.269 OA
BRANCH  31  34
ATOM     34  C   UNL     1      -7.054  -4.836   2.220  1.00  0.00     0.039 A 
ATOM     35  C   UNL     1      -8.108  -4.153   2.828  1.00  0.00     0.014 A 
ATOM     36  C   UNL     1      -7.281  -5.994   1.473  1.00  0.00     0.014 A 
ATOM     37  C   UNL     1      -9.416  -4.588   2.613  1.00  0.00     0.010 A 
ATOM     38  C   UNL     1      -8.585  -6.376   1.196  1.00  0.00     0.010 A 
ATOM     39  C   UNL     1      -9.665  -5.672   1.756  1.00  0.00    -0.014 A 
BRANCH  39  40
ATOM     40  C   UNL     1     -11.041  -6.111   1.423  1.00  0.00     0.031 A 
ATOM     41  C   UNL     1     -11.486  -7.489   1.817  1.00  0.00     0.074 A 
ATOM     42  C   UNL     1     -11.841  -5.322   0.681  1.00  0.00     0.049 A 
ATOM     43  N   UNL     1     -12.572  -8.138   1.484  1.00  0.00    -0.248 NA
ATOM     44  C   UNL     1     -10.563  -8.255   2.670  1.00  0.00     0.031 C 
ATOM     45  C   UNL     1     -11.509  -3.977   0.211  1.00  0.00     0.029 A 
ATOM     46  N   UNL     1     -13.096  -5.550   0.173  1.00  0.00    -0.354 N 
ATOM     47  C   UNL     1     -12.445  -9.396   2.058  1.00  0.00     0.074 A 
ATOM     48  C   UNL     1     -11.159  -9.436   2.718  1.00  0.00     0.031 C 
ATOM     49  C   UNL     1     -12.541  -3.491  -0.497  1.00  0.00     0.029 A 
ATOM     50  C   UNL     1     -13.587  -4.507  -0.572  1.00  0.00     0.049 A 
ATOM     51  H   UNL     1     -13.596  -6.384   0.329  1.00  0.00     0.167 HD
ATOM     52  C   UNL     1     -13.332 -10.418   2.051  1.00  0.00     0.037 A 
ATOM     53  C   UNL     1     -14.746  -4.392  -1.249  1.00  0.00     0.037 A 
ATOM     54  C   UNL     1     -14.626 -10.357   1.427  1.00  0.00     0.049 A 
ATOM     55  C   UNL     1     -15.710  -5.548  -1.253  1.00  0.00     0.074 A 
ATOM     56  C   UNL     1     -15.628 -11.310   1.420  1.00  0.00     0.029 A 
ATOM     57  N   UNL     1     -15.096  -9.274   0.698  1.00  0.00    -0.354 N 
ATOM     58  N   UNL     1     -15.607  -6.713  -0.663  1.00  0.00    -0.248 NA
ATOM     59  C   UNL     1     -16.950  -5.373  -2.022  1.00  0.00     0.031 C 
ATOM     60  C   UNL     1     -16.691 -10.819   0.655  1.00  0.00     0.029 A 
ATOM     61  C   UNL     1     -16.368  -9.543   0.221  1.00  0.00     0.049 A 
ATOM     62  H   UNL     1     -14.599  -8.438   0.542  1.00  0.00     0.167 HD
ATOM     63  C   UNL     1     -16.779  -7.396  -0.957  1.00  0.00     0.074 A 
ATOM     64  C   UNL     1     -17.581  -6.514  -1.780  1.00  0.00     0.031 C 
ATOM     65  C   UNL     1     -17.158  -8.640  -0.576  1.00  0.00     0.037 A 
BRANCH  52  66
ATOM     66  C   UNL     1     -12.925 -11.686   2.742  1.00  0.00     0.064 A 
ATOM     67  C   UNL     1     -12.800 -11.756   4.138  1.00  0.00     0.173 A 
ATOM     68  C   UNL     1     -12.658 -12.846   1.999  1.00  0.00     0.173 A 
ATOM     69  F   UNL     1     -13.030 -10.670   4.891  1.00  0.00    -0.203 F 
ATOM     70  C   UNL     1     -12.385 -12.929   4.761  1.00  0.00     0.198 A 
ATOM     71  C   UNL     1     -12.274 -14.027   2.630  1.00  0.00     0.198 A 
ATOM     72  F   UNL     1     -12.767 -12.834   0.662  1.00  0.00    -0.203 F 
ATOM     73  F   UNL     1     -12.213 -12.954   6.090  1.00  0.00    -0.200 F 
ATOM     74  C   UNL     1     -12.127 -14.064   4.008  1.00  0.00     0.200 A 
ATOM     75  F   UNL     1     -12.037 -15.126   1.901  1.00  0.00    -0.200 F 
ATOM     76  F   UNL     1     -11.727 -15.193   4.610  1.00  0.00    -0.200 F 
ENDBRANCH  52  66
BRANCH  53  77
ATOM     77  C   UNL     1     -15.074  -3.125  -1.951  1.00  0.00     0.064 A 
ATOM     78  C   UNL     1     -16.080  -2.280  -1.460  1.00  0.00     0.173 A 
ATOM     79  C   UNL     1     -14.400  -2.729  -3.115  1.00  0.00     0.173 A 
ATOM     80  F   UNL     1     -16.767  -2.628  -0.362  1.00  0.00    -0.203 F 
ATOM     81  C   UNL     1     -16.408  -1.095  -2.114  1.00  0.00     0.198 A 
ATOM     82  C   UNL     1     -14.713  -1.531  -3.755  1.00  0.00     0.198 A 
ATOM     83  F   UNL     1     -13.428  -3.501  -3.623  1.00  0.00    -0.203 F 
ATOM     84  F   UNL     1     -17.399  -0.325  -1.643  1.00  0.00    -0.200 F 
ATOM     85  C   UNL     1     -15.720  -0.718  -3.257  1.00  0.00     0.200 A 
ATOM     86  F   UNL     1     -14.038  -1.164  -4.853  1.00  0.00    -0.200 F 
ATOM     87  F   UNL     1     -16.033   0.424  -3.884  1.00  0.00    -0.200 F 
ENDBRANCH  53  77
BRANCH  65  88
ATOM     88  C   UNL     1     -18.520  -9.106  -0.996  1.00  0.00     0.064 A 
ATOM     89  C   UNL     1     -18.787  -9.507  -2.312  1.00  0.00     0.173 A 
ATOM     90  C   UNL     1     -19.550  -9.217  -0.049  1.00  0.00     0.173 A 
ATOM     91  F   UNL     1     -17.839  -9.403  -3.255  1.00  0.00    -0.203 F 
ATOM     92  C   UNL     1     -20.042  -9.993  -2.668  1.00  0.00     0.198 A 
ATOM     93  C   UNL     1     -20.795  -9.727  -0.403  1.00  0.00     0.198 A 
ATOM     94  F   UNL     1     -19.340  -8.850   1.224  1.00  0.00    -0.203 F 
ATOM     95  F   UNL     1     -20.287 -10.343  -3.938  1.00  0.00    -0.200 F 
ATOM     96  C   UNL     1     -21.041 -10.112  -1.712  1.00  0.00     0.200 A 
ATOM     97  F   UNL     1     -21.754  -9.852   0.524  1.00  0.00    -0.200 F 
ATOM     98  F   UNL     1     -22.243 -10.595  -2.054  1.00  0.00    -0.200 F 
ENDBRANCH  65  88
ENDBRANCH  39  40
ENDBRANCH  31  34
ENDBRANCH  29  30
ENDBRANCH  28  29
ENDBRANCH  27  28
ENDBRANCH  26  27
ENDBRANCH   3  26
TORSDOF 16
