REMARK SMILES O=C(NCCCCNC(=O)[C@H]1CCCN(C(=O)C2CC[NH+](Cc3ccco3)CC2)C1)c1ccc(-c2c3nc(c(-c4c(F)c(F)c(F)c(F)c4F)c4ccc([nH]4)c(-c4c(F)c(F)c(F)c(F)c4F)c4nc(c(-c5c(F)c(F)c(F)c(F)c5F)c5ccc2[nH]5)C=C4)C=C3)cc1
REMARK SMILES IDX 6 1 5 2 4 3 3 4 1 5 2 6 31 8 32 9 93 10 33 11 92 12 34 13
REMARK SMILES IDX 35 14 36 15 86 16 37 17 91 18 85 19 87 20 38 21 90 22 84 23
REMARK SMILES IDX 83 24 39 26 71 27 51 28 70 29 52 30 55 31 69 32 88 33 53 34
REMARK SMILES IDX 54 35 68 37 89 38 56 39 40 40 41 41 49 42 42 43 43 44 47 45
REMARK SMILES IDX 50 46 44 47 45 48 48 49 46 50 72 51 73 52 81 53 74 54 75 55
REMARK SMILES IDX 79 56 82 57 76 58 77 59 80 60 78 61 57 62 58 63 66 64 59 65
REMARK SMILES IDX 60 66 64 67 67 68 61 69 62 70 65 71 63 72 7 73 8 74 9 75
REMARK SMILES IDX 10 77 11 78 12 79 30 80 13 81 15 82 14 83 16 84 17 85 18 86
REMARK SMILES IDX 19 87 29 88 20 89 28 90 21 91 22 93 23 94 24 95 27 96 25 97
REMARK SMILES IDX 26 98
REMARK H PARENT 3 7 87 25 55 36 8 76 21 92
REMARK Flexibility Score: inf
ROOT
ATOM      1  C   UNL     1       9.782  -5.276  -7.447  1.00  0.00     0.023 C 
ENDROOT
BRANCH   1   2
ATOM      2  C   UNL     1      10.063  -5.314  -8.944  1.00  0.00     0.023 C 
BRANCH   2   3
ATOM      3  C   UNL     1      11.154  -4.367  -9.397  1.00  0.00     0.116 C 
BRANCH   3   4
ATOM      4  N   UNL     1      12.395  -4.497  -8.647  1.00  0.00    -0.352 N 
ATOM      5  O   UNL     1      14.647  -4.380  -8.391  1.00  0.00    -0.269 OA
ATOM      6  C   UNL     1      13.664  -4.179  -9.078  1.00  0.00     0.251 C 
ATOM      7  H   UNL     1      12.319  -4.852  -7.732  1.00  0.00     0.163 HD
BRANCH   6   8
ATOM      8  C   UNL     1      13.787  -3.633 -10.442  1.00  0.00     0.039 A 
ATOM      9  C   UNL     1      13.020  -2.528 -10.812  1.00  0.00     0.014 A 
ATOM     10  C   UNL     1      14.549  -4.332 -11.379  1.00  0.00     0.014 A 
ATOM     11  C   UNL     1      12.882  -2.224 -12.155  1.00  0.00     0.010 A 
ATOM     12  C   UNL     1      14.485  -3.958 -12.721  1.00  0.00     0.010 A 
ATOM     13  C   UNL     1      13.617  -2.931 -13.123  1.00  0.00    -0.014 A 
BRANCH  13  14
ATOM     14  C   UNL     1      13.483  -2.543 -14.546  1.00  0.00     0.031 A 
ATOM     15  C   UNL     1      12.896  -3.482 -15.559  1.00  0.00     0.074 A 
ATOM     16  C   UNL     1      13.859  -1.300 -14.899  1.00  0.00     0.049 A 
ATOM     17  N   UNL     1      12.690  -3.288 -16.838  1.00  0.00    -0.248 NA
ATOM     18  C   UNL     1      12.496  -4.817 -15.086  1.00  0.00     0.031 C 
ATOM     19  C   UNL     1      14.447  -0.312 -13.991  1.00  0.00     0.029 A 
ATOM     20  N   UNL     1      13.777  -0.643 -16.098  1.00  0.00    -0.354 N 
ATOM     21  C   UNL     1      12.177  -4.481 -17.328  1.00  0.00     0.074 A 
ATOM     22  C   UNL     1      12.107  -5.400 -16.212  1.00  0.00     0.031 C 
ATOM     23  C   UNL     1      14.607   0.846 -14.646  1.00  0.00     0.029 A 
ATOM     24  C   UNL     1      14.200   0.660 -16.033  1.00  0.00     0.049 A 
ATOM     25  H   UNL     1      13.446  -1.064 -16.924  1.00  0.00     0.167 HD
ATOM     26  C   UNL     1      11.801  -4.776 -18.596  1.00  0.00     0.037 A 
ATOM     27  C   UNL     1      14.262   1.602 -16.990  1.00  0.00     0.037 A 
ATOM     28  C   UNL     1      11.839  -3.839 -19.690  1.00  0.00     0.049 A 
ATOM     29  C   UNL     1      13.817   1.252 -18.378  1.00  0.00     0.074 A 
ATOM     30  C   UNL     1      11.443  -4.026 -21.003  1.00  0.00     0.029 A 
ATOM     31  N   UNL     1      12.296  -2.532 -19.594  1.00  0.00    -0.354 N 
ATOM     32  N   UNL     1      13.324   0.123 -18.826  1.00  0.00    -0.248 NA
ATOM     33  C   UNL     1      13.947   2.302 -19.394  1.00  0.00     0.031 C 
ATOM     34  C   UNL     1      11.693  -2.844 -21.709  1.00  0.00     0.029 A 
ATOM     35  C   UNL     1      12.206  -1.906 -20.827  1.00  0.00     0.049 A 
ATOM     36  H   UNL     1      12.634  -2.111 -18.770  1.00  0.00     0.167 HD
ATOM     37  C   UNL     1      13.073   0.328 -20.174  1.00  0.00     0.074 A 
ATOM     38  C   UNL     1      13.448   1.698 -20.463  1.00  0.00     0.031 C 
ATOM     39  C   UNL     1      12.584  -0.542 -21.090  1.00  0.00     0.037 A 
BRANCH  26  40
ATOM     40  C   UNL     1      11.338  -6.175 -18.881  1.00  0.00     0.064 A 
ATOM     41  C   UNL     1      10.088  -6.645 -18.455  1.00  0.00     0.173 A 
ATOM     42  C   UNL     1      12.142  -7.044 -19.637  1.00  0.00     0.173 A 
ATOM     43  F   UNL     1       9.287  -5.859 -17.719  1.00  0.00    -0.203 F 
ATOM     44  C   UNL     1       9.666  -7.938 -18.758  1.00  0.00     0.198 A 
ATOM     45  C   UNL     1      11.707  -8.327 -19.959  1.00  0.00     0.198 A 
ATOM     46  F   UNL     1      13.345  -6.643 -20.074  1.00  0.00    -0.203 F 
ATOM     47  F   UNL     1       8.482  -8.377 -18.309  1.00  0.00    -0.200 F 
ATOM     48  C   UNL     1      10.472  -8.775 -19.515  1.00  0.00     0.200 A 
ATOM     49  F   UNL     1      12.484  -9.131 -20.699  1.00  0.00    -0.200 F 
ATOM     50  F   UNL     1      10.061 -10.015 -19.812  1.00  0.00    -0.200 F 
ENDBRANCH  26  40
BRANCH  27  51
ATOM     51  C   UNL     1      14.753   2.960 -16.650  1.00  0.00     0.064 A 
ATOM     52  C   UNL     1      13.877   4.053 -16.620  1.00  0.00     0.173 A 
ATOM     53  C   UNL     1      16.095   3.186 -16.310  1.00  0.00     0.173 A 
ATOM     54  F   UNL     1      12.588   3.887 -16.951  1.00  0.00    -0.203 F 
ATOM     55  C   UNL     1      14.327   5.324 -16.270  1.00  0.00     0.198 A 
ATOM     56  C   UNL     1      16.538   4.450 -15.933  1.00  0.00     0.198 A 
ATOM     57  F   UNL     1      16.969   2.168 -16.315  1.00  0.00    -0.203 F 
ATOM     58  F   UNL     1      13.476   6.358 -16.278  1.00  0.00    -0.200 F 
ATOM     59  C   UNL     1      15.655   5.520 -15.919  1.00  0.00     0.200 A 
ATOM     60  F   UNL     1      17.816   4.631 -15.576  1.00  0.00    -0.200 F 
ATOM     61  F   UNL     1      16.084   6.740 -15.569  1.00  0.00    -0.200 F 
ENDBRANCH  27  51
BRANCH  39  62
ATOM     62  C   UNL     1      12.408  -0.020 -22.484  1.00  0.00     0.064 A 
ATOM     63  C   UNL     1      13.507   0.203 -23.326  1.00  0.00     0.173 A 
ATOM     64  C   UNL     1      11.126   0.251 -22.983  1.00  0.00     0.173 A 
ATOM     65  F   UNL     1      14.753  -0.024 -22.884  1.00  0.00    -0.203 F 
ATOM     66  C   UNL     1      13.329   0.707 -24.611  1.00  0.00     0.198 A 
ATOM     67  C   UNL     1      10.951   0.731 -24.277  1.00  0.00     0.198 A 
ATOM     68  F   UNL     1      10.044   0.050 -22.215  1.00  0.00    -0.203 F 
ATOM     69  F   UNL     1      14.395   0.962 -25.382  1.00  0.00    -0.200 F 
ATOM     70  C   UNL     1      12.052   0.966 -25.087  1.00  0.00     0.200 A 
ATOM     71  F   UNL     1       9.716   0.974 -24.738  1.00  0.00    -0.200 F 
ATOM     72  F   UNL     1      11.883   1.455 -26.323  1.00  0.00    -0.200 F 
ENDBRANCH  39  62
ENDBRANCH  13  14
ENDBRANCH   6   8
ENDBRANCH   3   4
ENDBRANCH   2   3
ENDBRANCH   1   2
BRANCH   1  73
ATOM     73  C   UNL     1       9.527  -3.879  -6.872  1.00  0.00     0.116 C 
BRANCH  73  74
ATOM     74  N   UNL     1       8.269  -3.342  -7.348  1.00  0.00    -0.356 N 
ATOM     75  C   UNL     1       7.051  -3.354  -6.740  1.00  0.00     0.224 C 
ATOM     76  H   UNL     1       8.299  -2.909  -8.231  1.00  0.00     0.163 HD
ATOM     77  O   UNL     1       6.096  -2.905  -7.377  1.00  0.00    -0.275 OA
BRANCH  75  78
ATOM     78  C   UNL     1       6.914  -3.884  -5.316  1.00  0.00     0.098 C 
ATOM     79  C   UNL     1       5.518  -3.526  -4.767  1.00  0.00     0.017 C 
ATOM     80  C   UNL     1       7.172  -5.400  -5.266  1.00  0.00     0.133 C 
ATOM     81  C   UNL     1       5.239  -4.229  -3.447  1.00  0.00     0.022 C 
ATOM     82  N   UNL     1       6.806  -6.000  -3.987  1.00  0.00    -0.342 N 
ATOM     83  C   UNL     1       5.436  -5.721  -3.642  1.00  0.00     0.119 C 
BRANCH  82  84
ATOM     84  C   UNL     1       7.735  -6.739  -3.278  1.00  0.00     0.226 C 
ATOM     85  O   UNL     1       8.871  -6.902  -3.751  1.00  0.00    -0.275 OA
BRANCH  84  86
ATOM     86  C   UNL     1       7.445  -7.442  -1.932  1.00  0.00     0.090 C 
ATOM     87  C   UNL     1       6.880  -8.848  -2.084  1.00  0.00     0.075 C 
ATOM     88  C   UNL     1       6.770  -6.673  -0.800  1.00  0.00     0.075 C 
ATOM     89  C   UNL     1       5.369  -8.845  -2.205  1.00  0.00     0.263 C 
ATOM     90  C   UNL     1       5.272  -6.942  -0.564  1.00  0.00     0.263 C 
ATOM     91  N   UNL     1       4.697  -8.178  -1.096  1.00  0.00    -0.329 N 
ATOM     92  H   UNL     1       4.905  -8.829  -0.339  1.00  0.00     0.348 HD
BRANCH  91  93
ATOM     93  C   UNL     1       3.225  -8.107  -1.255  1.00  0.00     0.338 C 
BRANCH  93  94
ATOM     94  C   UNL     1       2.723  -7.521  -2.545  1.00  0.00     0.157 A 
ATOM     95  C   UNL     1       2.525  -8.048  -3.809  1.00  0.00     0.052 A 
ATOM     96  O   UNL     1       2.361  -6.202  -2.542  1.00  0.00    -0.463 OA
ATOM     97  C   UNL     1       2.043  -6.994  -4.622  1.00  0.00     0.042 A 
ATOM     98  C   UNL     1       1.942  -5.897  -3.800  1.00  0.00     0.195 A 
ENDBRANCH  93  94
ENDBRANCH  91  93
ENDBRANCH  84  86
ENDBRANCH  82  84
ENDBRANCH  75  78
ENDBRANCH  73  74
ENDBRANCH   1  73
TORSDOF 15
