REMARK SMILES C#CC[N@@H+](CC(=O)NCCCCNC(=O)c1ccc(-c2c3nc(c(-c4c(F)c(F)c(F)c(F)c4F)c4ccc([nH]4)c(-c4c(F)c(F)c(F)c(F)c4F)c4nc(c(-c5c(F)c(F)c(F)c(F)c5F)c5ccc2[nH]5)C=C4)C=C3)cc1)[C@@H]1CCO[C@@](C)(CC)C1
REMARK SMILES IDX 10 1 9 2 8 3 6 4 7 5 5 7 4 8 3 10 2 11 1 12 79 13 80 14
REMARK SMILES IDX 87 15 81 16 83 17 82 18 84 19 85 20 86 21 11 22 12 23 13 24
REMARK SMILES IDX 14 25 15 27 16 28 17 29 78 30 18 31 77 32 19 33 20 34 21 35
REMARK SMILES IDX 71 36 22 37 76 38 70 39 72 40 23 41 75 42 69 43 68 44 24 46
REMARK SMILES IDX 56 47 36 48 55 49 37 50 40 51 54 52 73 53 38 54 39 55 53 57
REMARK SMILES IDX 74 58 41 59 25 60 26 61 34 62 27 63 28 64 32 65 35 66 29 67
REMARK SMILES IDX 30 68 33 69 31 70 57 71 58 72 66 73 59 74 60 75 64 76 67 77
REMARK SMILES IDX 61 78 62 79 65 80 63 81 42 82 43 83 51 84 44 85 45 86 49 87
REMARK SMILES IDX 52 88 46 89 47 90 50 91 48 92
REMARK H PARENT 8 6 4 9 13 26 72 45 40 56
REMARK Flexibility Score: inf
ROOT
ATOM      1  C   UNL     1      -2.389  -1.902  -2.286  1.00  0.00     0.023 C 
ENDROOT
BRANCH   1   2
ATOM      2  C   UNL     1      -3.641  -1.022  -1.996  1.00  0.00     0.116 C 
BRANCH   2   3
ATOM      3  N   UNL     1      -4.441  -1.359  -0.813  1.00  0.00    -0.351 N 
ATOM      4  C   UNL     1      -4.661  -0.818   0.425  1.00  0.00     0.275 C 
ATOM      5  O   UNL     1      -5.628  -1.298   1.037  1.00  0.00    -0.269 OA
ATOM      6  H   UNL     1      -4.953  -2.190  -0.944  1.00  0.00     0.163 HD
BRANCH   4   7
ATOM      7  C   UNL     1      -3.866   0.333   1.083  1.00  0.00     0.364 C 
BRANCH   7   8
ATOM      8  N   UNL     1      -2.428   0.087   1.352  1.00  0.00    -0.314 N 
ATOM      9  H   UNL     1      -1.953   0.877   1.788  1.00  0.00     0.349 HD
BRANCH   8  10
ATOM     10  C   UNL     1      -1.763  -0.045   0.065  1.00  0.00     0.354 C 
BRANCH  10  11
ATOM     11  C   UNL     1      -0.243  -0.045   0.065  1.00  0.00    -0.047 C 
ATOM     12  C   UNL     1       1.061  -0.045   0.065  1.00  0.00     0.010 C 
ENDBRANCH  10  11
ENDBRANCH   8  10
BRANCH   8  13
ATOM     13  C   UNL     1      -2.086  -0.736   2.559  1.00  0.00     0.190 C 
ATOM     14  C   UNL     1      -0.610  -1.132   2.776  1.00  0.00     0.093 C 
ATOM     15  C   UNL     1      -2.904  -1.988   3.025  1.00  0.00     0.100 C 
ATOM     16  C   UNL     1      -0.253  -2.429   2.060  1.00  0.00     0.167 C 
ATOM     17  C   UNL     1      -2.456  -3.359   2.451  1.00  0.00     0.071 C 
ATOM     18  O   UNL     1      -1.035  -3.517   2.533  1.00  0.00    -0.375 OA
ATOM     19  C   UNL     1      -2.930  -3.518   1.015  1.00  0.00     0.042 C 
BRANCH  17  20
ATOM     20  C   UNL     1      -3.086  -4.569   3.202  1.00  0.00     0.032 C 
ATOM     21  C   UNL     1      -2.275  -5.140   4.357  1.00  0.00     0.007 C 
ENDBRANCH  17  20
ENDBRANCH   8  13
ENDBRANCH   7   8
ENDBRANCH   4   7
ENDBRANCH   2   3
ENDBRANCH   1   2
BRANCH   1  22
ATOM     22  C   UNL     1      -2.664  -3.380  -2.445  1.00  0.00     0.023 C 
BRANCH  22  23
ATOM     23  C   UNL     1      -3.392  -3.658  -3.725  1.00  0.00     0.116 C 
BRANCH  23  24
ATOM     24  N   UNL     1      -2.659  -3.131  -4.876  1.00  0.00    -0.352 N 
ATOM     25  C   UNL     1      -2.021  -3.824  -5.877  1.00  0.00     0.251 C 
ATOM     26  H   UNL     1      -2.617  -2.150  -4.942  1.00  0.00     0.163 HD
ATOM     27  O   UNL     1      -1.196  -3.294  -6.593  1.00  0.00    -0.269 OA
BRANCH  25  28
ATOM     28  C   UNL     1      -2.390  -5.239  -6.037  1.00  0.00     0.039 A 
ATOM     29  C   UNL     1      -1.410  -6.204  -6.252  1.00  0.00     0.014 A 
ATOM     30  C   UNL     1      -3.726  -5.592  -5.850  1.00  0.00     0.014 A 
ATOM     31  C   UNL     1      -1.782  -7.545  -6.222  1.00  0.00     0.010 A 
ATOM     32  C   UNL     1      -4.044  -6.909  -5.610  1.00  0.00     0.010 A 
ATOM     33  C   UNL     1      -3.094  -7.902  -5.865  1.00  0.00    -0.014 A 
BRANCH  33  34
ATOM     34  C   UNL     1      -3.557  -9.304  -5.849  1.00  0.00     0.031 A 
ATOM     35  C   UNL     1      -4.725  -9.686  -6.722  1.00  0.00     0.074 A 
ATOM     36  C   UNL     1      -2.989 -10.191  -5.013  1.00  0.00     0.049 A 
ATOM     37  N   UNL     1      -5.375 -10.818  -6.788  1.00  0.00    -0.248 NA
ATOM     38  C   UNL     1      -5.282  -8.633  -7.595  1.00  0.00     0.031 C 
ATOM     39  C   UNL     1      -1.903  -9.903  -4.072  1.00  0.00     0.029 A 
ATOM     40  N   UNL     1      -3.251 -11.521  -4.821  1.00  0.00    -0.354 N 
ATOM     41  C   UNL     1      -6.420 -10.593  -7.674  1.00  0.00     0.074 A 
ATOM     42  C   UNL     1      -6.389  -9.199  -8.039  1.00  0.00     0.031 C 
ATOM     43  C   UNL     1      -1.558 -11.037  -3.441  1.00  0.00     0.029 A 
ATOM     44  C   UNL     1      -2.427 -12.116  -3.898  1.00  0.00     0.049 A 
ATOM     45  H   UNL     1      -3.963 -12.005  -5.299  1.00  0.00     0.167 HD
ATOM     46  C   UNL     1      -7.297 -11.486  -8.185  1.00  0.00     0.037 A 
ATOM     47  C   UNL     1      -2.386 -13.394  -3.480  1.00  0.00     0.037 A 
ATOM     48  C   UNL     1      -7.271 -12.884  -7.864  1.00  0.00     0.049 A 
ATOM     49  C   UNL     1      -3.358 -14.375  -4.081  1.00  0.00     0.074 A 
ATOM     50  C   UNL     1      -8.056 -13.901  -8.370  1.00  0.00     0.029 A 
ATOM     51  N   UNL     1      -6.395 -13.460  -6.954  1.00  0.00    -0.354 N 
ATOM     52  N   UNL     1      -4.294 -14.172  -4.979  1.00  0.00    -0.248 NA
ATOM     53  C   UNL     1      -3.263 -15.764  -3.617  1.00  0.00     0.031 C 
ATOM     54  C   UNL     1      -7.688 -15.088  -7.730  1.00  0.00     0.029 A 
ATOM     55  C   UNL     1      -6.634 -14.819  -6.869  1.00  0.00     0.049 A 
ATOM     56  H   UNL     1      -5.707 -12.973  -6.445  1.00  0.00     0.167 HD
ATOM     57  C   UNL     1      -4.877 -15.410  -5.209  1.00  0.00     0.074 A 
ATOM     58  C   UNL     1      -4.175 -16.361  -4.371  1.00  0.00     0.031 C 
ATOM     59  C   UNL     1      -5.903 -15.737  -6.034  1.00  0.00     0.037 A 
BRANCH  46  60
ATOM     60  C   UNL     1      -8.323 -10.978  -9.156  1.00  0.00     0.064 A 
ATOM     61  C   UNL     1      -7.965 -10.494 -10.425  1.00  0.00     0.173 A 
ATOM     62  C   UNL     1      -9.685 -10.986  -8.820  1.00  0.00     0.173 A 
ATOM     63  F   UNL     1      -6.675 -10.443 -10.790  1.00  0.00    -0.203 F 
ATOM     64  C   UNL     1      -8.927 -10.006 -11.305  1.00  0.00     0.198 A 
ATOM     65  C   UNL     1     -10.648 -10.532  -9.718  1.00  0.00     0.198 A 
ATOM     66  F   UNL     1     -10.083 -11.433  -7.619  1.00  0.00    -0.203 F 
ATOM     67  F   UNL     1      -8.553  -9.490 -12.484  1.00  0.00    -0.200 F 
ATOM     68  C   UNL     1     -10.268 -10.035 -10.955  1.00  0.00     0.200 A 
ATOM     69  F   UNL     1     -11.944 -10.570  -9.382  1.00  0.00    -0.200 F 
ATOM     70  F   UNL     1     -11.194  -9.573 -11.807  1.00  0.00    -0.200 F 
ENDBRANCH  46  60
BRANCH  47  71
ATOM     71  C   UNL     1      -1.375 -13.824  -2.480  1.00  0.00     0.064 A 
ATOM     72  C   UNL     1      -0.339 -14.700  -2.835  1.00  0.00     0.173 A 
ATOM     73  C   UNL     1      -1.424 -13.382  -1.150  1.00  0.00     0.173 A 
ATOM     74  F   UNL     1      -0.255 -15.162  -4.092  1.00  0.00    -0.203 F 
ATOM     75  C   UNL     1       0.587 -15.144  -1.893  1.00  0.00     0.198 A 
ATOM     76  C   UNL     1      -0.478 -13.800  -0.215  1.00  0.00     0.198 A 
ATOM     77  F   UNL     1      -2.387 -12.534  -0.759  1.00  0.00    -0.203 F 
ATOM     78  F   UNL     1       1.531 -16.025  -2.249  1.00  0.00    -0.200 F 
ATOM     79  C   UNL     1       0.519 -14.690  -0.585  1.00  0.00     0.200 A 
ATOM     80  F   UNL     1      -0.537 -13.346   1.044  1.00  0.00    -0.200 F 
ATOM     81  F   UNL     1       1.408 -15.118   0.322  1.00  0.00    -0.200 F 
ENDBRANCH  47  71
BRANCH  59  82
ATOM     82  C   UNL     1      -6.296 -17.183  -6.098  1.00  0.00     0.064 A 
ATOM     83  C   UNL     1      -6.947 -17.816  -5.030  1.00  0.00     0.173 A 
ATOM     84  C   UNL     1      -6.062 -17.926  -7.265  1.00  0.00     0.173 A 
ATOM     85  F   UNL     1      -7.181 -17.148  -3.890  1.00  0.00    -0.203 F 
ATOM     86  C   UNL     1      -7.323 -19.152  -5.117  1.00  0.00     0.198 A 
ATOM     87  C   UNL     1      -6.473 -19.251  -7.361  1.00  0.00     0.198 A 
ATOM     88  F   UNL     1      -5.454 -17.361  -8.318  1.00  0.00    -0.203 F 
ATOM     89  F   UNL     1      -7.897 -19.754  -4.066  1.00  0.00    -0.200 F 
ATOM     90  C   UNL     1      -7.095 -19.866  -6.285  1.00  0.00     0.200 A 
ATOM     91  F   UNL     1      -6.269 -19.933  -8.497  1.00  0.00    -0.200 F 
ATOM     92  F   UNL     1      -7.468 -21.150  -6.370  1.00  0.00    -0.200 F 
ENDBRANCH  59  82
ENDBRANCH  33  34
ENDBRANCH  25  28
ENDBRANCH  23  24
ENDBRANCH  22  23
ENDBRANCH   1  22
TORSDOF 16
