REMARK SMILES CC[C@@H]1CCCN(S(=O)(=O)c2cc(C(=O)NCCCCNC(=O)c3ccc(-c4c5nc(c(-c6c(F)c(F)c(F)c(F)c6F)c6ccc([nH]6)c(-c6c(F)c(F)c(F)c(F)c6F)c6nc(c(-c7c(F)c(F)c(F)c(F)c7F)c7ccc4[nH]7)C=C6)C=C5)cc3)ccc2F)C1
REMARK SMILES IDX 18 1 17 2 16 3 14 4 15 5 13 7 11 8 12 9 89 10 88 11 90 12
REMARK SMILES IDX 87 13 8 14 9 15 10 16 7 17 3 18 4 19 91 20 5 21 6 22 2 23
REMARK SMILES IDX 1 24 19 25 20 26 21 27 22 28 23 30 24 31 25 32 86 33 26 34
REMARK SMILES IDX 85 35 27 36 28 37 29 38 79 39 30 40 84 41 78 42 80 43 31 44
REMARK SMILES IDX 83 45 77 46 76 47 32 49 64 50 44 51 63 52 45 53 48 54 62 55
REMARK SMILES IDX 81 56 46 57 47 58 61 60 82 61 49 62 33 63 34 64 42 65 35 66
REMARK SMILES IDX 36 67 40 68 43 69 37 70 38 71 41 72 39 73 65 74 66 75 74 76
REMARK SMILES IDX 67 77 68 78 72 79 75 80 69 81 70 82 73 83 71 84 50 85 51 86
REMARK SMILES IDX 59 87 52 88 53 89 57 90 60 91 54 92 55 93 58 94 56 95
REMARK H PARENT 16 6 21 29 80 48 48 59
REMARK Flexibility Score: inf
ROOT
ATOM      1  C   UNL     1      -9.238   1.876   4.670  1.00  0.00     0.023 C 
ENDROOT
BRANCH   1   2
ATOM      2  C   UNL     1      -8.572   1.677   3.305  1.00  0.00     0.116 C 
BRANCH   2   3
ATOM      3  N   UNL     1      -7.542   2.667   3.070  1.00  0.00    -0.352 N 
ATOM      4  C   UNL     1      -6.180   2.654   3.237  1.00  0.00     0.251 C 
ATOM      5  O   UNL     1      -5.566   3.649   2.850  1.00  0.00    -0.269 OA
ATOM      6  H   UNL     1      -7.887   3.520   2.720  1.00  0.00     0.163 HD
BRANCH   4   7
ATOM      7  C   UNL     1      -5.407   1.527   3.846  1.00  0.00     0.041 A 
ATOM      8  C   UNL     1      -3.202   0.541   4.233  1.00  0.00     0.119 A 
ATOM      9  C   UNL     1      -4.016   1.507   3.618  1.00  0.00     0.038 A 
ATOM     10  C   UNL     1      -3.769  -0.399   5.080  1.00  0.00     0.143 A 
ATOM     11  C   UNL     1      -5.139  -0.411   5.297  1.00  0.00     0.041 A 
ATOM     12  F   UNL     1      -3.029  -1.323   5.706  1.00  0.00    -0.206 F 
ATOM     13  C   UNL     1      -5.949   0.561   4.702  1.00  0.00     0.017 A 
BRANCH   8  14
ATOM     14  S   UNL     1      -1.444   0.659   4.127  1.00  0.00     0.246 S 
ATOM     15  O   UNL     1      -0.893   0.361   5.437  1.00  0.00    -0.207 OA
ATOM     16  O   UNL     1      -1.133   1.917   3.488  1.00  0.00    -0.207 OA
BRANCH  14  17
ATOM     17  N   UNL     1      -0.931  -0.592   3.044  1.00  0.00    -0.197 NA
ATOM     18  C   UNL     1       1.044  -1.471   1.760  1.00  0.00     0.004 C 
ATOM     19  C   UNL     1       0.651  -2.897   2.166  1.00  0.00     0.006 C 
ATOM     20  C   UNL     1       0.555  -0.485   2.829  1.00  0.00     0.106 C 
ATOM     21  C   UNL     1      -0.843  -3.007   2.439  1.00  0.00     0.017 C 
ATOM     22  C   UNL     1      -1.306  -1.974   3.463  1.00  0.00     0.102 C 
BRANCH  18  23
ATOM     23  C   UNL     1       0.547  -1.135   0.339  1.00  0.00     0.001 C 
ATOM     24  C   UNL     1       1.076   0.191  -0.190  1.00  0.00     0.004 C 
ENDBRANCH  18  23
ENDBRANCH  14  17
ENDBRANCH   8  14
ENDBRANCH   4   7
ENDBRANCH   2   3
ENDBRANCH   1   2
BRANCH   1  25
ATOM     25  C   UNL     1     -10.305   2.972   4.712  1.00  0.00     0.023 C 
BRANCH  25  26
ATOM     26  C   UNL     1     -11.501   2.760   3.788  1.00  0.00     0.116 C 
BRANCH  26  27
ATOM     27  N   UNL     1     -12.169   1.483   3.983  1.00  0.00    -0.352 N 
ATOM     28  C   UNL     1     -13.498   1.175   3.815  1.00  0.00     0.251 C 
ATOM     29  H   UNL     1     -11.593   0.740   4.275  1.00  0.00     0.163 HD
ATOM     30  O   UNL     1     -13.919   0.060   4.106  1.00  0.00    -0.269 OA
BRANCH  28  31
ATOM     31  C   UNL     1     -14.427   2.214   3.328  1.00  0.00     0.039 A 
ATOM     32  C   UNL     1     -15.600   2.453   4.049  1.00  0.00     0.014 A 
ATOM     33  C   UNL     1     -14.125   2.974   2.195  1.00  0.00     0.014 A 
ATOM     34  C   UNL     1     -16.430   3.513   3.682  1.00  0.00     0.010 A 
ATOM     35  C   UNL     1     -14.922   4.066   1.866  1.00  0.00     0.010 A 
ATOM     36  C   UNL     1     -16.072   4.355   2.616  1.00  0.00    -0.014 A 
BRANCH  36  37
ATOM     37  C   UNL     1     -16.864   5.571   2.303  1.00  0.00     0.031 A 
ATOM     38  C   UNL     1     -17.598   5.685   0.999  1.00  0.00     0.074 A 
ATOM     39  C   UNL     1     -16.859   6.601   3.172  1.00  0.00     0.049 A 
ATOM     40  N   UNL     1     -18.275   6.699   0.521  1.00  0.00    -0.248 NA
ATOM     41  C   UNL     1     -17.550   4.519   0.103  1.00  0.00     0.031 C 
ATOM     42  C   UNL     1     -16.142   6.626   4.448  1.00  0.00     0.029 A 
ATOM     43  N   UNL     1     -17.465   7.832   3.110  1.00  0.00    -0.354 N 
ATOM     44  C   UNL     1     -18.721   6.298  -0.730  1.00  0.00     0.074 A 
ATOM     45  C   UNL     1     -18.208   4.965  -0.959  1.00  0.00     0.031 C 
ATOM     46  C   UNL     1     -16.363   7.802   5.056  1.00  0.00     0.029 A 
ATOM     47  C   UNL     1     -17.206   8.630   4.198  1.00  0.00     0.049 A 
ATOM     48  H   UNL     1     -18.032   8.115   2.356  1.00  0.00     0.167 HD
ATOM     49  C   UNL     1     -19.508   6.976  -1.597  1.00  0.00     0.037 A 
ATOM     50  C   UNL     1     -17.596   9.890   4.470  1.00  0.00     0.037 A 
ATOM     51  C   UNL     1     -20.048   8.287  -1.350  1.00  0.00     0.049 A 
ATOM     52  C   UNL     1     -18.471  10.617   3.486  1.00  0.00     0.074 A 
ATOM     53  C   UNL     1     -20.916   9.021  -2.140  1.00  0.00     0.029 A 
ATOM     54  N   UNL     1     -19.776   9.056  -0.230  1.00  0.00    -0.354 N 
ATOM     55  N   UNL     1     -18.941  10.200   2.336  1.00  0.00    -0.248 NA
ATOM     56  C   UNL     1     -18.873  11.987   3.837  1.00  0.00     0.031 C 
ATOM     57  C   UNL     1     -21.137  10.252  -1.519  1.00  0.00     0.029 A 
ATOM     58  C   UNL     1     -20.442  10.268  -0.320  1.00  0.00     0.049 A 
ATOM     59  H   UNL     1     -19.196   8.783   0.517  1.00  0.00     0.167 HD
ATOM     60  C   UNL     1     -19.705  11.245   1.835  1.00  0.00     0.074 A 
ATOM     61  C   UNL     1     -19.652  12.310   2.814  1.00  0.00     0.031 C 
ATOM     62  C   UNL     1     -20.385  11.315   0.666  1.00  0.00     0.037 A 
BRANCH  49  63
ATOM     63  C   UNL     1     -19.866   6.315  -2.894  1.00  0.00     0.064 A 
ATOM     64  C   UNL     1     -19.351   6.799  -4.105  1.00  0.00     0.173 A 
ATOM     65  C   UNL     1     -20.806   5.275  -2.945  1.00  0.00     0.173 A 
ATOM     66  F   UNL     1     -18.454   7.796  -4.109  1.00  0.00    -0.203 F 
ATOM     67  C   UNL     1     -19.781   6.279  -5.323  1.00  0.00     0.198 A 
ATOM     68  C   UNL     1     -21.216   4.743  -4.164  1.00  0.00     0.198 A 
ATOM     69  F   UNL     1     -21.320   4.774  -1.812  1.00  0.00    -0.203 F 
ATOM     70  F   UNL     1     -19.305   6.783  -6.471  1.00  0.00    -0.200 F 
ATOM     71  C   UNL     1     -20.714   5.253  -5.351  1.00  0.00     0.200 A 
ATOM     72  F   UNL     1     -22.105   3.740  -4.189  1.00  0.00    -0.200 F 
ATOM     73  F   UNL     1     -21.131   4.758  -6.524  1.00  0.00    -0.200 F 
ENDBRANCH  49  63
BRANCH  50  74
ATOM     74  C   UNL     1     -17.173  10.539   5.738  1.00  0.00     0.064 A 
ATOM     75  C   UNL     1     -15.839  10.911   5.959  1.00  0.00     0.173 A 
ATOM     76  C   UNL     1     -18.099  10.794   6.758  1.00  0.00     0.173 A 
ATOM     77  F   UNL     1     -14.913  10.685   5.015  1.00  0.00    -0.203 F 
ATOM     78  C   UNL     1     -15.446  11.505   7.157  1.00  0.00     0.198 A 
ATOM     79  C   UNL     1     -17.710  11.412   7.945  1.00  0.00     0.198 A 
ATOM     80  F   UNL     1     -19.390  10.474   6.586  1.00  0.00    -0.203 F 
ATOM     81  F   UNL     1     -14.161  11.827   7.352  1.00  0.00    -0.200 F 
ATOM     82  C   UNL     1     -16.384  11.761   8.146  1.00  0.00     0.200 A 
ATOM     83  F   UNL     1     -18.624  11.681   8.888  1.00  0.00    -0.200 F 
ATOM     84  F   UNL     1     -16.009  12.349   9.290  1.00  0.00    -0.200 F 
ENDBRANCH  50  74
BRANCH  62  85
ATOM     85  C   UNL     1     -21.142  12.576   0.375  1.00  0.00     0.064 A 
ATOM     86  C   UNL     1     -22.545  12.584   0.394  1.00  0.00     0.173 A 
ATOM     87  C   UNL     1     -20.481  13.751  -0.006  1.00  0.00     0.173 A 
ATOM     88  F   UNL     1     -23.223  11.480   0.745  1.00  0.00    -0.203 F 
ATOM     89  C   UNL     1     -23.259  13.719   0.023  1.00  0.00     0.198 A 
ATOM     90  C   UNL     1     -21.198  14.893  -0.352  1.00  0.00     0.198 A 
ATOM     91  F   UNL     1     -19.141  13.795  -0.027  1.00  0.00    -0.203 F 
ATOM     92  F   UNL     1     -24.599  13.693   0.013  1.00  0.00    -0.200 F 
ATOM     93  C   UNL     1     -22.585  14.873  -0.347  1.00  0.00     0.200 A 
ATOM     94  F   UNL     1     -20.546  16.014  -0.689  1.00  0.00    -0.200 F 
ATOM     95  F   UNL     1     -23.273  15.967  -0.700  1.00  0.00    -0.200 F 
ENDBRANCH  62  85
ENDBRANCH  36  37
ENDBRANCH  28  31
ENDBRANCH  26  27
ENDBRANCH  25  26
ENDBRANCH   1  25
TORSDOF 14
