REMARK SMILES Cc1ccccc1CN1C(=O)[C@H](CC(=O)NCCCCNC(=O)c2ccc(-c3c4nc(c(-c5c(F)c(F)c(F)c(F)c5F)c5ccc([nH]5)c(-c5c(F)c(F)c(F)c(F)c5F)c5nc(c(-c6c(F)c(F)c(F)c(F)c6F)c6ccc3[nH]6)C=C5)C=C4)cc2)n2c(nc3ccccc32)[C@H]1C
REMARK SMILES IDX 18 1 17 2 16 3 14 4 15 5 13 7 12 8 9 9 10 10 96 11 11 12
REMARK SMILES IDX 88 13 97 14 87 15 89 16 95 17 90 18 94 19 91 20 93 21 92 22
REMARK SMILES IDX 8 23 7 24 1 25 2 26 3 27 4 28 6 29 5 30 19 31 20 32 21 33
REMARK SMILES IDX 22 34 23 36 24 37 25 38 86 39 26 40 85 41 27 42 28 43 29 44
REMARK SMILES IDX 79 45 30 46 84 47 78 48 80 49 31 50 83 51 77 52 76 53 32 55
REMARK SMILES IDX 64 56 44 57 63 58 45 59 48 60 62 61 81 62 46 63 47 64 61 66
REMARK SMILES IDX 82 67 49 68 33 69 34 70 42 71 35 72 36 73 40 74 43 75 37 76
REMARK SMILES IDX 38 77 41 78 39 79 65 80 66 81 74 82 67 83 68 84 72 85 75 86
REMARK SMILES IDX 69 87 70 88 73 89 71 90 50 91 51 92 59 93 52 94 53 95 57 96
REMARK SMILES IDX 60 97 54 98 55 99 58 100 56 101
REMARK H PARENT 16 6 21 35 80 54 48 65
REMARK Flexibility Score: inf
ROOT
ATOM      1  C   UNL     1       4.361   5.098  -1.117  1.00  0.00     0.023 C 
ENDROOT
BRANCH   1   2
ATOM      2  C   UNL     1       4.293   5.370  -2.626  1.00  0.00     0.116 C 
BRANCH   2   3
ATOM      3  N   UNL     1       4.379   4.143  -3.413  1.00  0.00    -0.356 N 
ATOM      4  C   UNL     1       3.432   3.449  -4.103  1.00  0.00     0.222 C 
ATOM      5  O   UNL     1       3.759   2.373  -4.610  1.00  0.00    -0.275 OA
ATOM      6  H   UNL     1       5.280   3.748  -3.451  1.00  0.00     0.163 HD
BRANCH   4   7
ATOM      7  C   UNL     1       2.010   3.957  -4.269  1.00  0.00     0.135 C 
BRANCH   7   8
ATOM      8  C   UNL     1       1.039   3.008  -3.546  1.00  0.00     0.187 C 
ATOM      9  N   UNL     1      -0.029   2.909  -1.320  1.00  0.00    -0.327 N 
ATOM     10  C   UNL     1       1.060   3.320  -2.055  1.00  0.00     0.247 C 
ATOM     11  C   UNL     1      -1.277   3.542  -1.758  1.00  0.00     0.149 C 
ATOM     12  O   UNL     1       2.010   3.881  -1.494  1.00  0.00    -0.272 OA
ATOM     13  C   UNL     1      -1.424   3.298  -3.235  1.00  0.00     0.133 A 
ATOM     14  C   UNL     1      -2.549   3.160  -1.013  1.00  0.00     0.040 C 
ATOM     15  N   UNL     1      -0.333   3.050  -4.042  1.00  0.00    -0.313 N 
ATOM     16  N   UNL     1      -2.539   3.289  -3.935  1.00  0.00    -0.231 NA
ATOM     17  C   UNL     1      -0.799   2.691  -5.284  1.00  0.00     0.069 A 
ATOM     18  C   UNL     1      -2.177   2.884  -5.193  1.00  0.00     0.089 A 
ATOM     19  C   UNL     1      -0.188   2.218  -6.452  1.00  0.00     0.028 A 
ATOM     20  C   UNL     1      -2.993   2.638  -6.306  1.00  0.00     0.030 A 
ATOM     21  C   UNL     1      -1.021   1.968  -7.552  1.00  0.00     0.002 A 
ATOM     22  C   UNL     1      -2.399   2.179  -7.486  1.00  0.00     0.002 A 
BRANCH   9  23
ATOM     23  C   UNL     1       0.208   2.504   0.071  1.00  0.00     0.156 C 
BRANCH  23  24
ATOM     24  C   UNL     1      -0.055   1.020   0.254  1.00  0.00    -0.026 A 
ATOM     25  C   UNL     1       2.313   0.247  -0.439  1.00  0.00     0.044 C 
ATOM     26  C   UNL     1       0.869   0.006  -0.085  1.00  0.00    -0.046 A 
ATOM     27  C   UNL     1       0.453  -1.340  -0.041  1.00  0.00     0.004 A 
ATOM     28  C   UNL     1      -0.840  -1.687   0.344  1.00  0.00     0.000 A 
ATOM     29  C   UNL     1      -1.327   0.637   0.718  1.00  0.00     0.006 A 
ATOM     30  C   UNL     1      -1.724  -0.697   0.745  1.00  0.00     0.000 A 
ENDBRANCH  23  24
ENDBRANCH   9  23
ENDBRANCH   7   8
ENDBRANCH   4   7
ENDBRANCH   2   3
ENDBRANCH   1   2
BRANCH   1  31
ATOM     31  C   UNL     1       5.675   5.479  -0.434  1.00  0.00     0.023 C 
BRANCH  31  32
ATOM     32  C   UNL     1       5.905   6.990  -0.294  1.00  0.00     0.116 C 
BRANCH  32  33
ATOM     33  N   UNL     1       4.906   7.602   0.569  1.00  0.00    -0.352 N 
ATOM     34  C   UNL     1       4.749   8.899   0.992  1.00  0.00     0.251 C 
ATOM     35  H   UNL     1       4.225   6.978   0.909  1.00  0.00     0.163 HD
ATOM     36  O   UNL     1       4.265   9.057   2.115  1.00  0.00    -0.269 OA
BRANCH  34  37
ATOM     37  C   UNL     1       5.097  10.111   0.190  1.00  0.00     0.039 A 
ATOM     38  C   UNL     1       5.294  11.308   0.897  1.00  0.00     0.014 A 
ATOM     39  C   UNL     1       5.120  10.173  -1.205  1.00  0.00     0.014 A 
ATOM     40  C   UNL     1       5.587  12.513   0.235  1.00  0.00     0.010 A 
ATOM     41  C   UNL     1       5.417  11.389  -1.869  1.00  0.00     0.010 A 
ATOM     42  C   UNL     1       5.696  12.565  -1.162  1.00  0.00    -0.014 A 
BRANCH  42  43
ATOM     43  C   UNL     1       6.465  13.718  -1.722  1.00  0.00     0.031 A 
ATOM     44  C   UNL     1       7.900  13.287  -1.933  1.00  0.00     0.074 A 
ATOM     45  C   UNL     1       6.178  14.694  -2.633  1.00  0.00     0.049 A 
ATOM     46  N   UNL     1       8.218  12.525  -2.934  1.00  0.00    -0.248 NA
ATOM     47  C   UNL     1       9.015  13.531  -1.023  1.00  0.00     0.031 C 
ATOM     48  C   UNL     1       6.913  15.969  -2.637  1.00  0.00     0.029 A 
ATOM     49  N   UNL     1       5.270  14.858  -3.683  1.00  0.00    -0.354 N 
ATOM     50  C   UNL     1       9.597  12.415  -2.958  1.00  0.00     0.074 A 
ATOM     51  C   UNL     1      10.033  12.933  -1.675  1.00  0.00     0.031 C 
ATOM     52  C   UNL     1       6.508  16.741  -3.665  1.00  0.00     0.029 A 
ATOM     53  C   UNL     1       5.565  15.989  -4.487  1.00  0.00     0.049 A 
ATOM     54  H   UNL     1       4.510  14.254  -3.848  1.00  0.00     0.167 HD
ATOM     55  C   UNL     1      10.236  12.156  -4.147  1.00  0.00     0.037 A 
ATOM     56  C   UNL     1       5.308  16.289  -5.801  1.00  0.00     0.037 A 
ATOM     57  C   UNL     1       9.327  12.483  -5.219  1.00  0.00     0.049 A 
ATOM     58  C   UNL     1       4.790  15.110  -6.565  1.00  0.00     0.074 A 
ATOM     59  C   UNL     1       9.082  13.785  -5.566  1.00  0.00     0.029 A 
ATOM     60  N   UNL     1       8.347  11.673  -5.783  1.00  0.00    -0.354 N 
ATOM     61  N   UNL     1       5.583  14.393  -7.307  1.00  0.00    -0.248 NA
ATOM     62  C   UNL     1       3.480  14.486  -6.379  1.00  0.00     0.031 C 
ATOM     63  C   UNL     1       7.776  13.751  -5.988  1.00  0.00     0.029 A 
ATOM     64  C   UNL     1       7.315  12.481  -6.273  1.00  0.00     0.049 A 
ATOM     65  H   UNL     1       8.375  10.690  -5.831  1.00  0.00     0.167 HD
ATOM     66  C   UNL     1       5.147  13.098  -7.115  1.00  0.00     0.074 A 
ATOM     67  C   UNL     1       3.724  13.245  -6.835  1.00  0.00     0.031 C 
ATOM     68  C   UNL     1       5.973  12.064  -6.717  1.00  0.00     0.037 A 
BRANCH  55  69
ATOM     69  C   UNL     1      11.713  12.216  -4.459  1.00  0.00     0.064 A 
ATOM     70  C   UNL     1      12.158  12.625  -5.751  1.00  0.00     0.173 A 
ATOM     71  C   UNL     1      12.723  11.849  -3.566  1.00  0.00     0.173 A 
ATOM     72  F   UNL     1      11.306  12.939  -6.737  1.00  0.00    -0.203 F 
ATOM     73  C   UNL     1      13.501  12.713  -6.097  1.00  0.00     0.198 A 
ATOM     74  C   UNL     1      14.077  11.928  -3.923  1.00  0.00     0.198 A 
ATOM     75  F   UNL     1      12.422  11.382  -2.346  1.00  0.00    -0.203 F 
ATOM     76  F   UNL     1      13.844  13.124  -7.326  1.00  0.00    -0.200 F 
ATOM     77  C   UNL     1      14.464  12.365  -5.181  1.00  0.00     0.200 A 
ATOM     78  F   UNL     1      15.017  11.566  -3.039  1.00  0.00    -0.200 F 
ATOM     79  F   UNL     1      15.759  12.429  -5.517  1.00  0.00    -0.200 F 
ENDBRANCH  55  69
BRANCH  56  80
ATOM     80  C   UNL     1       6.034  17.352  -6.603  1.00  0.00     0.064 A 
ATOM     81  C   UNL     1       5.411  18.563  -6.917  1.00  0.00     0.173 A 
ATOM     82  C   UNL     1       7.317  17.176  -7.175  1.00  0.00     0.173 A 
ATOM     83  F   UNL     1       4.204  18.842  -6.404  1.00  0.00    -0.203 F 
ATOM     84  C   UNL     1       6.014  19.506  -7.770  1.00  0.00     0.198 A 
ATOM     85  C   UNL     1       7.905  18.093  -8.046  1.00  0.00     0.198 A 
ATOM     86  F   UNL     1       8.083  16.129  -6.892  1.00  0.00    -0.203 F 
ATOM     87  F   UNL     1       5.388  20.659  -8.039  1.00  0.00    -0.200 F 
ATOM     88  C   UNL     1       7.250  19.260  -8.349  1.00  0.00     0.200 A 
ATOM     89  F   UNL     1       9.110  17.832  -8.574  1.00  0.00    -0.200 F 
ATOM     90  F   UNL     1       7.814  20.148  -9.180  1.00  0.00    -0.200 F 
ENDBRANCH  56  80
BRANCH  68  91
ATOM     91  C   UNL     1       5.366  10.712  -6.493  1.00  0.00     0.064 A 
ATOM     92  C   UNL     1       4.423  10.176  -7.392  1.00  0.00     0.173 A 
ATOM     93  C   UNL     1       5.667   9.921  -5.377  1.00  0.00     0.173 A 
ATOM     94  F   UNL     1       4.126  10.824  -8.529  1.00  0.00    -0.203 F 
ATOM     95  C   UNL     1       3.742   8.987  -7.123  1.00  0.00     0.198 A 
ATOM     96  C   UNL     1       4.994   8.731  -5.112  1.00  0.00     0.198 A 
ATOM     97  F   UNL     1       6.618  10.279  -4.508  1.00  0.00    -0.203 F 
ATOM     98  F   UNL     1       2.800   8.552  -7.971  1.00  0.00    -0.200 F 
ATOM     99  C   UNL     1       4.015   8.274  -5.971  1.00  0.00     0.200 A 
ATOM    100  F   UNL     1       5.291   8.044  -4.001  1.00  0.00    -0.200 F 
ATOM    101  F   UNL     1       3.342   7.151  -5.686  1.00  0.00    -0.200 F 
ENDBRANCH  68  91
ENDBRANCH  42  43
ENDBRANCH  34  37
ENDBRANCH  32  33
ENDBRANCH  31  32
ENDBRANCH   1  31
TORSDOF 14
