REMARK SMILES O=C(NCCCCNC(=O)c1cc(-c2ccn(C(F)F)c(=O)c2)ccc1O)c1ccc(-c2c3nc(c(-c4c(F)c(F)c(F)c(F)c4F)c4ccc([nH]4)c(-c4c(F)c(F)c(F)c(F)c4F)c4nc(c(-c5c(F)c(F)c(F)c(F)c5F)c5ccc2[nH]5)C=C4)C=C3)cc1
REMARK SMILES IDX 5 1 4 2 3 3 1 4 2 5 28 7 29 8 90 9 30 10 89 11 31 12 32 13
REMARK SMILES IDX 33 14 83 15 34 16 88 17 82 18 84 19 35 20 87 21 81 22 80 23
REMARK SMILES IDX 36 25 68 26 48 27 67 28 49 29 52 30 66 31 85 32 50 33 51 34
REMARK SMILES IDX 65 36 86 37 53 38 37 39 38 40 46 41 39 42 40 43 44 44 47 45
REMARK SMILES IDX 41 46 42 47 45 48 43 49 69 50 70 51 78 52 71 53 72 54 76 55
REMARK SMILES IDX 79 56 73 57 74 58 77 59 75 60 54 61 55 62 63 63 56 64 57 65
REMARK SMILES IDX 61 66 64 67 58 68 59 69 62 70 60 71 6 72 7 73 8 74 9 75
REMARK SMILES IDX 10 77 11 78 12 79 26 80 13 81 25 82 24 83 27 84 14 86 15 87
REMARK SMILES IDX 23 88 16 89 21 90 17 91 22 92 18 93 19 94 20 95
REMARK H PARENT 3 6 84 24 52 35 8 76 27 85
REMARK Flexibility Score: inf
ROOT
ATOM      1  C   UNL     1       4.969  -0.832  -2.445  1.00  0.00     0.023 C 
ENDROOT
BRANCH   1   2
ATOM      2  C   UNL     1       4.609   0.040  -1.250  1.00  0.00     0.116 C 
BRANCH   2   3
ATOM      3  N   UNL     1       3.173   0.190  -1.071  1.00  0.00    -0.352 N 
ATOM      4  O   UNL     1       1.169  -0.038  -0.067  1.00  0.00    -0.269 OA
ATOM      5  C   UNL     1       2.394  -0.093   0.023  1.00  0.00     0.251 C 
ATOM      6  H   UNL     1       2.688   0.547  -1.850  1.00  0.00     0.163 HD
BRANCH   5   7
ATOM      7  C   UNL     1       3.019  -0.480   1.306  1.00  0.00     0.039 A 
ATOM      8  C   UNL     1       2.438  -1.504   2.059  1.00  0.00     0.014 A 
ATOM      9  C   UNL     1       4.156   0.177   1.783  1.00  0.00     0.014 A 
ATOM     10  C   UNL     1       3.018  -1.890   3.270  1.00  0.00     0.010 A 
ATOM     11  C   UNL     1       4.790  -0.277   2.935  1.00  0.00     0.010 A 
ATOM     12  C   UNL     1       4.209  -1.291   3.711  1.00  0.00    -0.014 A 
BRANCH  12  13
ATOM     13  C   UNL     1       4.816  -1.649   5.019  1.00  0.00     0.031 A 
ATOM     14  C   UNL     1       4.931  -0.600   6.094  1.00  0.00     0.074 A 
ATOM     15  C   UNL     1       5.283  -2.894   5.237  1.00  0.00     0.049 A 
ATOM     16  N   UNL     1       5.480  -0.685   7.280  1.00  0.00    -0.248 NA
ATOM     17  C   UNL     1       4.382   0.733   5.789  1.00  0.00     0.031 C 
ATOM     18  C   UNL     1       5.258  -3.989   4.266  1.00  0.00     0.029 A 
ATOM     19  N   UNL     1       5.871  -3.449   6.347  1.00  0.00    -0.354 N 
ATOM     20  C   UNL     1       5.355   0.577   7.845  1.00  0.00     0.074 A 
ATOM     21  C   UNL     1       4.740   1.431   6.856  1.00  0.00     0.031 C 
ATOM     22  C   UNL     1       5.775  -5.091   4.833  1.00  0.00     0.029 A 
ATOM     23  C   UNL     1       6.207  -4.773   6.191  1.00  0.00     0.049 A 
ATOM     24  H   UNL     1       6.036  -2.946   7.177  1.00  0.00     0.167 HD
ATOM     25  C   UNL     1       5.690   0.980   9.092  1.00  0.00     0.037 A 
ATOM     26  C   UNL     1       6.802  -5.629   7.046  1.00  0.00     0.037 A 
ATOM     27  C   UNL     1       6.251   0.116  10.094  1.00  0.00     0.049 A 
ATOM     28  C   UNL     1       7.177  -5.148   8.424  1.00  0.00     0.074 A 
ATOM     29  C   UNL     1       6.563   0.416  11.408  1.00  0.00     0.029 A 
ATOM     30  N   UNL     1       6.575  -1.217   9.896  1.00  0.00    -0.354 N 
ATOM     31  N   UNL     1       6.997  -3.968   8.966  1.00  0.00    -0.248 NA
ATOM     32  C   UNL     1       7.837  -6.118   9.312  1.00  0.00     0.031 C 
ATOM     33  C   UNL     1       7.125  -0.720  11.991  1.00  0.00     0.029 A 
ATOM     34  C   UNL     1       7.110  -1.745  11.059  1.00  0.00     0.049 A 
ATOM     35  H   UNL     1       6.445  -1.713   9.056  1.00  0.00     0.167 HD
ATOM     36  C   UNL     1       7.495  -4.060  10.259  1.00  0.00     0.074 A 
ATOM     37  C   UNL     1       7.969  -5.417  10.430  1.00  0.00     0.031 C 
ATOM     38  C   UNL     1       7.560  -3.104  11.217  1.00  0.00     0.037 A 
BRANCH  25  39
ATOM     39  C   UNL     1       5.433   2.409   9.469  1.00  0.00     0.064 A 
ATOM     40  C   UNL     1       4.131   2.891   9.672  1.00  0.00     0.173 A 
ATOM     41  C   UNL     1       6.504   3.279   9.727  1.00  0.00     0.173 A 
ATOM     42  F   UNL     1       3.074   2.103   9.426  1.00  0.00    -0.203 F 
ATOM     43  C   UNL     1       3.910   4.192  10.114  1.00  0.00     0.198 A 
ATOM     44  C   UNL     1       6.279   4.570  10.199  1.00  0.00     0.198 A 
ATOM     45  F   UNL     1       7.768   2.867   9.552  1.00  0.00    -0.203 F 
ATOM     46  F   UNL     1       2.657   4.638  10.277  1.00  0.00    -0.200 F 
ATOM     47  C   UNL     1       4.984   5.025  10.391  1.00  0.00     0.200 A 
ATOM     48  F   UNL     1       7.318   5.368  10.481  1.00  0.00    -0.200 F 
ATOM     49  F   UNL     1       4.770   6.267  10.845  1.00  0.00    -0.200 F 
ENDBRANCH  25  39
BRANCH  26  50
ATOM     50  C   UNL     1       7.059  -7.035   6.633  1.00  0.00     0.064 A 
ATOM     51  C   UNL     1       6.375  -8.101   7.235  1.00  0.00     0.173 A 
ATOM     52  C   UNL     1       7.993  -7.344   5.633  1.00  0.00     0.173 A 
ATOM     53  F   UNL     1       5.488  -7.860   8.212  1.00  0.00    -0.203 F 
ATOM     54  C   UNL     1       6.629  -9.421   6.867  1.00  0.00     0.198 A 
ATOM     55  C   UNL     1       8.223  -8.662   5.243  1.00  0.00     0.198 A 
ATOM     56  F   UNL     1       8.675  -6.364   5.023  1.00  0.00    -0.203 F 
ATOM     57  F   UNL     1       5.995 -10.422   7.492  1.00  0.00    -0.200 F 
ATOM     58  C   UNL     1       7.546  -9.700   5.865  1.00  0.00     0.200 A 
ATOM     59  F   UNL     1       9.099  -8.927   4.264  1.00  0.00    -0.200 F 
ATOM     60  F   UNL     1       7.784 -10.969   5.507  1.00  0.00    -0.200 F 
ENDBRANCH  26  50
BRANCH  38  61
ATOM     61  C   UNL     1       8.141  -3.479  12.549  1.00  0.00     0.064 A 
ATOM     62  C   UNL     1       9.517  -3.685  12.714  1.00  0.00     0.173 A 
ATOM     63  C   UNL     1       7.326  -3.523  13.691  1.00  0.00     0.173 A 
ATOM     64  F   UNL     1      10.335  -3.662  11.651  1.00  0.00    -0.203 F 
ATOM     65  C   UNL     1      10.057  -3.929  13.973  1.00  0.00     0.198 A 
ATOM     66  C   UNL     1       7.874  -3.735  14.953  1.00  0.00     0.198 A 
ATOM     67  F   UNL     1       6.004  -3.319  13.588  1.00  0.00    -0.203 F 
ATOM     68  F   UNL     1      11.373  -4.148  14.105  1.00  0.00    -0.200 F 
ATOM     69  C   UNL     1       9.238  -3.940  15.093  1.00  0.00     0.200 A 
ATOM     70  F   UNL     1       7.083  -3.723  16.035  1.00  0.00    -0.200 F 
ATOM     71  F   UNL     1       9.764  -4.146  16.308  1.00  0.00    -0.200 F 
ENDBRANCH  38  61
ENDBRANCH  12  13
ENDBRANCH   5   7
ENDBRANCH   2   3
ENDBRANCH   1   2
BRANCH   1  72
ATOM     72  C   UNL     1       4.492  -0.306  -3.795  1.00  0.00     0.023 C 
BRANCH  72  73
ATOM     73  C   UNL     1       4.894   1.131  -4.105  1.00  0.00     0.116 C 
BRANCH  73  74
ATOM     74  N   UNL     1       6.335   1.314  -4.149  1.00  0.00    -0.352 N 
ATOM     75  C   UNL     1       7.086   1.883  -5.149  1.00  0.00     0.255 C 
ATOM     76  H   UNL     1       6.835   0.990  -3.365  1.00  0.00     0.163 HD
ATOM     77  O   UNL     1       8.311   1.909  -5.072  1.00  0.00    -0.269 OA
BRANCH  75  78
ATOM     78  C   UNL     1       6.415   2.384  -6.364  1.00  0.00     0.082 A 
ATOM     79  C   UNL     1       6.757   1.781  -7.582  1.00  0.00     0.026 A 
ATOM     80  C   UNL     1       5.444   3.393  -6.318  1.00  0.00     0.128 A 
ATOM     81  C   UNL     1       6.079   2.146  -8.748  1.00  0.00    -0.017 A 
ATOM     82  C   UNL     1       4.759   3.751  -7.475  1.00  0.00     0.047 A 
ATOM     83  C   UNL     1       5.069   3.119  -8.681  1.00  0.00     0.012 A 
BRANCH  80  84
ATOM     84  O   UNL     1       5.140   4.011  -5.138  1.00  0.00    -0.507 OA
ATOM     85  H   UNL     1       5.597   3.777  -4.354  1.00  0.00     0.293 HD
ENDBRANCH  80  84
BRANCH  81  86
ATOM     86  C   UNL     1       6.385   1.535 -10.054  1.00  0.00    -0.011 A 
ATOM     87  C   UNL     1       6.878   2.320 -11.169  1.00  0.00     0.027 A 
ATOM     88  C   UNL     1       6.112   0.232 -10.241  1.00  0.00     0.080 A 
ATOM     89  C   UNL     1       6.983   1.779 -12.388  1.00  0.00     0.095 A 
ATOM     90  C   UNL     1       6.251  -0.392 -11.588  1.00  0.00     0.255 A 
ATOM     91  N   UNL     1       6.658   0.455 -12.607  1.00  0.00    -0.258 N 
ATOM     92  O   UNL     1       5.973  -1.580 -11.713  1.00  0.00    -0.269 OA
BRANCH  91  93
ATOM     93  C   UNL     1       6.693  -0.093 -13.939  1.00  0.00     0.451 C 
ATOM     94  F   UNL     1       7.515  -1.167 -14.013  1.00  0.00    -0.185 F 
ATOM     95  F   UNL     1       5.455  -0.481 -14.330  1.00  0.00    -0.185 F 
ENDBRANCH  91  93
ENDBRANCH  81  86
ENDBRANCH  75  78
ENDBRANCH  73  74
ENDBRANCH  72  73
ENDBRANCH   1  72
TORSDOF 14
