REMARK SMILES Cc1nsc(N(C)S(=O)(=O)c2cn[nH]c2C)c1C(=O)NCCCCNC(=O)c1ccc(-c2c3nc(c(-c4c(F)c(F)c(F)c(F)c4F)c4ccc([nH]4)c(-c4c(F)c(F)c(F)c(F)c4F)c4nc(c(-c5c(F)c(F)c(F)c(F)c5F)c5ccc2[nH]5)C=C4)C=C3)cc1
REMARK SMILES IDX 22 1 21 2 20 3 18 4 19 5 17 7 1 8 2 9 3 10 4 11 5 12 6 13
REMARK SMILES IDX 7 14 8 15 9 16 10 17 11 18 12 19 15 20 13 21 14 22 16 23
REMARK SMILES IDX 23 25 24 26 25 27 26 28 27 30 28 31 29 32 90 33 30 34 89 35
REMARK SMILES IDX 31 36 32 37 33 38 83 39 34 40 88 41 82 42 84 43 35 44 87 45
REMARK SMILES IDX 81 46 80 47 36 49 68 50 48 51 67 52 49 53 52 54 66 55 85 56
REMARK SMILES IDX 50 57 51 58 65 60 86 61 53 62 37 63 38 64 46 65 39 66 40 67
REMARK SMILES IDX 44 68 47 69 41 70 42 71 45 72 43 73 69 74 70 75 78 76 71 77
REMARK SMILES IDX 72 78 76 79 79 80 73 81 74 82 77 83 75 84 54 85 55 86 63 87
REMARK SMILES IDX 56 88 57 89 61 90 64 91 58 92 59 93 62 94 60 95
REMARK H PARENT 20 6 14 24 25 29 84 48 52 59
REMARK Flexibility Score: inf
ROOT
ATOM      1  C   UNL     1       0.063   1.949  -1.400  1.00  0.00     0.023 C 
ENDROOT
BRANCH   1   2
ATOM      2  C   UNL     1       1.116   2.130  -0.292  1.00  0.00     0.116 C 
BRANCH   2   3
ATOM      3  N   UNL     1       0.553   2.454   1.008  1.00  0.00    -0.352 N 
ATOM      4  C   UNL     1      -0.426   1.730   1.659  1.00  0.00     0.256 C 
ATOM      5  O   UNL     1      -1.560   2.200   1.683  1.00  0.00    -0.269 OA
ATOM      6  H   UNL     1       0.898   3.257   1.462  1.00  0.00     0.163 HD
BRANCH   4   7
ATOM      7  C   UNL     1      -0.081   0.496   2.362  1.00  0.00     0.098 A 
ATOM      8  C   UNL     1       0.509  -1.043   0.251  1.00  0.00     0.069 C 
ATOM      9  C   UNL     1       0.337  -0.747   1.701  1.00  0.00     0.066 A 
ATOM     10  N   UNL     1       0.575  -1.790   2.486  1.00  0.00    -0.195 NA
ATOM     11  S   UNL     1       0.278  -1.383   4.026  1.00  0.00    -0.017 S 
ATOM     12  C   UNL     1      -0.246   0.251   3.744  1.00  0.00     0.138 A 
BRANCH  12  13
ATOM     13  N   UNL     1      -0.681   1.054   4.913  1.00  0.00    -0.258 N 
ATOM     14  C   UNL     1      -1.248   0.334   6.080  1.00  0.00     0.165 C 
BRANCH  13  15
ATOM     15  S   UNL     1      -1.276   2.634   4.687  1.00  0.00     0.268 S 
ATOM     16  O   UNL     1      -0.251   3.399   3.996  1.00  0.00    -0.201 OA
ATOM     17  O   UNL     1      -2.647   2.546   4.226  1.00  0.00    -0.201 OA
BRANCH  15  18
ATOM     18  C   UNL     1      -1.497   3.529   6.164  1.00  0.00     0.128 A 
ATOM     19  C   UNL     1      -2.112   3.065   7.344  1.00  0.00     0.157 A 
ATOM     20  C   UNL     1      -1.348   4.892   6.387  1.00  0.00     0.053 A 
ATOM     21  N   UNL     1      -2.222   4.008   8.283  1.00  0.00    -0.183 NA
ATOM     22  N   UNL     1      -1.773   5.111   7.671  1.00  0.00    -0.281 N 
ATOM     23  C   UNL     1      -0.928   6.027   5.534  1.00  0.00     0.067 C 
ATOM     24  H   UNL     1      -1.750   5.995   8.103  1.00  0.00     0.190 HD
ENDBRANCH  15  18
ENDBRANCH  13  15
ENDBRANCH  12  13
ENDBRANCH   4   7
ENDBRANCH   2   3
ENDBRANCH   1   2
BRANCH   1  25
ATOM     25  C   UNL     1      -0.477   3.229  -2.048  1.00  0.00     0.023 C 
BRANCH  25  26
ATOM     26  C   UNL     1       0.506   3.972  -2.948  1.00  0.00     0.116 C 
BRANCH  26  27
ATOM     27  N   UNL     1       1.013   3.153  -4.048  1.00  0.00    -0.352 N 
ATOM     28  C   UNL     1       2.179   3.313  -4.769  1.00  0.00     0.251 C 
ATOM     29  H   UNL     1       0.450   2.389  -4.309  1.00  0.00     0.163 HD
ATOM     30  O   UNL     1       2.329   2.792  -5.866  1.00  0.00    -0.269 OA
BRANCH  28  31
ATOM     31  C   UNL     1       3.255   4.131  -4.188  1.00  0.00     0.039 A 
ATOM     32  C   UNL     1       3.855   5.153  -4.926  1.00  0.00     0.014 A 
ATOM     33  C   UNL     1       3.605   3.901  -2.860  1.00  0.00     0.014 A 
ATOM     34  C   UNL     1       4.738   6.019  -4.284  1.00  0.00     0.010 A 
ATOM     35  C   UNL     1       4.391   4.820  -2.201  1.00  0.00     0.010 A 
ATOM     36  C   UNL     1       4.978   5.871  -2.909  1.00  0.00    -0.014 A 
BRANCH  36  37
ATOM     37  C   UNL     1       5.698   6.916  -2.172  1.00  0.00     0.031 A 
ATOM     38  C   UNL     1       5.107   8.286  -2.276  1.00  0.00     0.074 A 
ATOM     39  C   UNL     1       6.645   6.633  -1.249  1.00  0.00     0.049 A 
ATOM     40  N   UNL     1       5.691   9.386  -2.624  1.00  0.00    -0.248 NA
ATOM     41  C   UNL     1       3.662   8.442  -2.027  1.00  0.00     0.031 C 
ATOM     42  C   UNL     1       7.069   5.295  -0.816  1.00  0.00     0.029 A 
ATOM     43  N   UNL     1       7.323   7.457  -0.393  1.00  0.00    -0.354 N 
ATOM     44  C   UNL     1       4.744  10.400  -2.455  1.00  0.00     0.074 A 
ATOM     45  C   UNL     1       3.483   9.747  -2.241  1.00  0.00     0.031 C 
ATOM     46  C   UNL     1       7.709   5.387   0.368  1.00  0.00     0.029 A 
ATOM     47  C   UNL     1       7.902   6.790   0.681  1.00  0.00     0.049 A 
ATOM     48  H   UNL     1       7.394   8.430  -0.525  1.00  0.00     0.167 HD
ATOM     49  C   UNL     1       5.137  11.686  -2.229  1.00  0.00     0.037 A 
ATOM     50  C   UNL     1       8.490   7.330   1.774  1.00  0.00     0.037 A 
ATOM     51  C   UNL     1       6.522  11.864  -2.573  1.00  0.00     0.049 A 
ATOM     52  C   UNL     1       8.883   8.717   1.451  1.00  0.00     0.074 A 
ATOM     53  C   UNL     1       7.270  12.064  -3.710  1.00  0.00     0.029 A 
ATOM     54  N   UNL     1       7.383  11.507  -1.574  1.00  0.00    -0.354 N 
ATOM     55  N   UNL     1       9.807   9.021   0.583  1.00  0.00    -0.248 NA
ATOM     56  C   UNL     1       8.040   9.826   1.885  1.00  0.00     0.031 C 
ATOM     57  C   UNL     1       8.606  11.678  -3.384  1.00  0.00     0.029 A 
ATOM     58  C   UNL     1       8.640  11.271  -2.054  1.00  0.00     0.049 A 
ATOM     59  H   UNL     1       7.128  11.430  -0.626  1.00  0.00     0.167 HD
ATOM     60  C   UNL     1       9.384  10.220   0.052  1.00  0.00     0.074 A 
ATOM     61  C   UNL     1       8.428  10.757   1.009  1.00  0.00     0.031 C 
ATOM     62  C   UNL     1       9.570  10.496  -1.269  1.00  0.00     0.037 A 
BRANCH  49  63
ATOM     63  C   UNL     1       4.484  12.642  -1.239  1.00  0.00     0.064 A 
ATOM     64  C   UNL     1       5.027  13.941  -1.097  1.00  0.00     0.173 A 
ATOM     65  C   UNL     1       3.619  12.240  -0.200  1.00  0.00     0.173 A 
ATOM     66  F   UNL     1       5.859  14.442  -2.023  1.00  0.00    -0.203 F 
ATOM     67  C   UNL     1       4.810  14.719   0.046  1.00  0.00     0.198 A 
ATOM     68  C   UNL     1       3.367  13.040   0.917  1.00  0.00     0.198 A 
ATOM     69  F   UNL     1       3.068  11.023  -0.157  1.00  0.00    -0.203 F 
ATOM     70  F   UNL     1       5.458  15.883   0.194  1.00  0.00    -0.200 F 
ATOM     71  C   UNL     1       3.991  14.261   1.059  1.00  0.00     0.200 A 
ATOM     72  F   UNL     1       2.581  12.572   1.897  1.00  0.00    -0.200 F 
ATOM     73  F   UNL     1       3.838  14.968   2.187  1.00  0.00    -0.200 F 
ENDBRANCH  49  63
BRANCH  50  74
ATOM     74  C   UNL     1       8.602   6.774   3.141  1.00  0.00     0.064 A 
ATOM     75  C   UNL     1       9.587   7.229   4.031  1.00  0.00     0.173 A 
ATOM     76  C   UNL     1       7.579   5.977   3.688  1.00  0.00     0.173 A 
ATOM     77  F   UNL     1      10.578   8.020   3.594  1.00  0.00    -0.203 F 
ATOM     78  C   UNL     1       9.531   6.936   5.396  1.00  0.00     0.198 A 
ATOM     79  C   UNL     1       7.529   5.677   5.049  1.00  0.00     0.198 A 
ATOM     80  F   UNL     1       6.559   5.553   2.926  1.00  0.00    -0.203 F 
ATOM     81  F   UNL     1      10.451   7.445   6.227  1.00  0.00    -0.200 F 
ATOM     82  C   UNL     1       8.495   6.171   5.906  1.00  0.00     0.200 A 
ATOM     83  F   UNL     1       6.504   4.962   5.535  1.00  0.00    -0.200 F 
ATOM     84  F   UNL     1       8.404   5.946   7.224  1.00  0.00    -0.200 F 
ENDBRANCH  50  74
BRANCH  62  85
ATOM     85  C   UNL     1      10.686   9.793  -1.969  1.00  0.00     0.064 A 
ATOM     86  C   UNL     1      10.718   8.413  -2.223  1.00  0.00     0.173 A 
ATOM     87  C   UNL     1      11.746  10.569  -2.453  1.00  0.00     0.173 A 
ATOM     88  F   UNL     1       9.702   7.621  -1.859  1.00  0.00    -0.203 F 
ATOM     89  C   UNL     1      11.792   7.833  -2.893  1.00  0.00     0.198 A 
ATOM     90  C   UNL     1      12.799   9.993  -3.153  1.00  0.00     0.198 A 
ATOM     91  F   UNL     1      11.742  11.899  -2.271  1.00  0.00    -0.203 F 
ATOM     92  F   UNL     1      11.817   6.508  -3.104  1.00  0.00    -0.200 F 
ATOM     93  C   UNL     1      12.829   8.624  -3.362  1.00  0.00     0.200 A 
ATOM     94  F   UNL     1      13.778  10.768  -3.639  1.00  0.00    -0.200 F 
ATOM     95  F   UNL     1      13.849   8.070  -4.032  1.00  0.00    -0.200 F 
ENDBRANCH  62  85
ENDBRANCH  36  37
ENDBRANCH  28  31
ENDBRANCH  26  27
ENDBRANCH  25  26
ENDBRANCH   1  25
TORSDOF 14
