REMARK SMILES O=C(NCCCCNC(=O)c1cc(NC(=O)c2ccccc2Cl)ccc1N1CCC[C@H](C[NH+]2CCCC2)C1)c1ccc(-c2c3nc(c(-c4c(F)c(F)c(F)c(F)c4F)c4ccc([nH]4)c(-c4c(F)c(F)c(F)c(F)c4F)c4nc(c(-c5c(F)c(F)c(F)c(F)c5F)c5ccc2[nH]5)C=C4)C=C3)cc1
REMARK SMILES IDX 6 1 5 2 4 3 3 4 1 5 2 6 39 8 40 9 101 10 41 11 100 12 42 13
REMARK SMILES IDX 43 14 44 15 94 16 45 17 99 18 93 19 95 20 46 21 98 22 92 23
REMARK SMILES IDX 91 24 47 26 79 27 59 28 78 29 60 30 63 31 77 32 96 33 61 34
REMARK SMILES IDX 62 35 76 37 97 38 64 39 48 40 49 41 57 42 50 43 51 44 55 45
REMARK SMILES IDX 58 46 52 47 53 48 56 49 54 50 80 51 81 52 89 53 82 54 83 55
REMARK SMILES IDX 87 56 90 57 84 58 85 59 88 60 86 61 65 62 66 63 74 64 67 65
REMARK SMILES IDX 68 66 72 67 75 68 69 69 70 70 73 71 71 72 7 73 8 74 9 75
REMARK SMILES IDX 10 77 11 78 12 79 26 80 13 81 25 82 24 83 27 84 28 85 38 86
REMARK SMILES IDX 29 87 31 88 30 89 32 90 33 91 34 92 37 93 35 95 36 96 14 97
REMARK SMILES IDX 15 98 16 100 17 101 18 102 22 103 19 104 21 105 23 106
REMARK SMILES IDX 20 107
REMARK H PARENT 3 7 95 25 63 36 8 76 33 94 14 99
REMARK Flexibility Score: inf
ROOT
ATOM      1  C   UNL     1       4.862   3.824  -1.226  1.00  0.00     0.023 C 
ENDROOT
BRANCH   1   2
ATOM      2  C   UNL     1       5.226   2.341  -1.286  1.00  0.00     0.023 C 
BRANCH   2   3
ATOM      3  C   UNL     1       4.787   1.488  -0.099  1.00  0.00     0.116 C 
BRANCH   3   4
ATOM      4  N   UNL     1       3.344   1.336   0.012  1.00  0.00    -0.352 N 
ATOM      5  O   UNL     1       1.339   0.305  -0.090  1.00  0.00    -0.269 OA
ATOM      6  C   UNL     1       2.559   0.210  -0.119  1.00  0.00     0.251 C 
ATOM      7  H   UNL     1       2.852   2.165   0.211  1.00  0.00     0.163 HD
BRANCH   6   8
ATOM      8  C   UNL     1       3.189  -1.114  -0.332  1.00  0.00     0.039 A 
ATOM      9  C   UNL     1       4.268  -1.527   0.449  1.00  0.00     0.014 A 
ATOM     10  C   UNL     1       2.689  -1.955  -1.331  1.00  0.00     0.014 A 
ATOM     11  C   UNL     1       4.955  -2.690   0.118  1.00  0.00     0.010 A 
ATOM     12  C   UNL     1       3.325  -3.172  -1.602  1.00  0.00     0.010 A 
ATOM     13  C   UNL     1       4.489  -3.531  -0.906  1.00  0.00    -0.014 A 
BRANCH  13  14
ATOM     14  C   UNL     1       5.208  -4.802  -1.184  1.00  0.00     0.031 A 
ATOM     15  C   UNL     1       5.897  -5.041  -2.500  1.00  0.00     0.074 A 
ATOM     16  C   UNL     1       5.266  -5.735  -0.214  1.00  0.00     0.049 A 
ATOM     17  N   UNL     1       6.588  -6.085  -2.890  1.00  0.00    -0.248 NA
ATOM     18  C   UNL     1       5.797  -3.980  -3.514  1.00  0.00     0.031 C 
ATOM     19  C   UNL     1       4.623  -5.623   1.098  1.00  0.00     0.029 A 
ATOM     20  N   UNL     1       5.903  -6.949  -0.168  1.00  0.00    -0.354 N 
ATOM     21  C   UNL     1       6.986  -5.816  -4.193  1.00  0.00     0.074 A 
ATOM     22  C   UNL     1       6.445  -4.519  -4.539  1.00  0.00     0.031 C 
ATOM     23  C   UNL     1       4.935  -6.698   1.834  1.00  0.00     0.029 A 
ATOM     24  C   UNL     1       5.746  -7.604   1.029  1.00  0.00     0.049 A 
ATOM     25  H   UNL     1       6.423  -7.314  -0.919  1.00  0.00     0.167 HD
ATOM     26  C   UNL     1       7.740  -6.581  -5.020  1.00  0.00     0.037 A 
ATOM     27  C   UNL     1       6.187  -8.810   1.430  1.00  0.00     0.037 A 
ATOM     28  C   UNL     1       8.299  -7.861  -4.662  1.00  0.00     0.049 A 
ATOM     29  C   UNL     1       7.010  -9.638   0.485  1.00  0.00     0.074 A 
ATOM     30  C   UNL     1       9.118  -8.685  -5.416  1.00  0.00     0.029 A 
ATOM     31  N   UNL     1       8.096  -8.503  -3.450  1.00  0.00    -0.354 N 
ATOM     32  N   UNL     1       7.412  -9.352  -0.729  1.00  0.00    -0.248 NA
ATOM     33  C   UNL     1       7.437 -10.959   0.965  1.00  0.00     0.031 C 
ATOM     34  C   UNL     1       9.373  -9.845  -4.678  1.00  0.00     0.029 A 
ATOM     35  C   UNL     1       8.753  -9.724  -3.446  1.00  0.00     0.049 A 
ATOM     36  H   UNL     1       7.564  -8.144  -2.703  1.00  0.00     0.167 HD
ATOM     37  C   UNL     1       8.148 -10.448  -1.153  1.00  0.00     0.074 A 
ATOM     38  C   UNL     1       8.159 -11.394  -0.057  1.00  0.00     0.031 C 
ATOM     39  C   UNL     1       8.754 -10.654  -2.347  1.00  0.00     0.037 A 
BRANCH  26  40
ATOM     40  C   UNL     1       8.007  -6.072  -6.407  1.00  0.00     0.064 A 
ATOM     41  C   UNL     1       8.915  -5.031  -6.647  1.00  0.00     0.173 A 
ATOM     42  C   UNL     1       7.413  -6.695  -7.516  1.00  0.00     0.173 A 
ATOM     43  F   UNL     1       9.503  -4.397  -5.621  1.00  0.00    -0.203 F 
ATOM     44  C   UNL     1       9.211  -4.625  -7.947  1.00  0.00     0.198 A 
ATOM     45  C   UNL     1       7.729  -6.302  -8.814  1.00  0.00     0.198 A 
ATOM     46  F   UNL     1       6.544  -7.702  -7.341  1.00  0.00    -0.203 F 
ATOM     47  F   UNL     1      10.064  -3.611  -8.153  1.00  0.00    -0.200 F 
ATOM     48  C   UNL     1       8.626  -5.267  -9.029  1.00  0.00     0.200 A 
ATOM     49  F   UNL     1       7.173  -6.933  -9.858  1.00  0.00    -0.200 F 
ATOM     50  F   UNL     1       8.926  -4.886 -10.278  1.00  0.00    -0.200 F 
ENDBRANCH  26  40
BRANCH  27  51
ATOM     51  C   UNL     1       5.844  -9.309   2.786  1.00  0.00     0.064 A 
ATOM     52  C   UNL     1       6.828  -9.460   3.772  1.00  0.00     0.173 A 
ATOM     53  C   UNL     1       4.523  -9.642   3.123  1.00  0.00     0.173 A 
ATOM     54  F   UNL     1       8.107  -9.173   3.491  1.00  0.00    -0.203 F 
ATOM     55  C   UNL     1       6.506  -9.944   5.039  1.00  0.00     0.198 A 
ATOM     56  C   UNL     1       4.198 -10.095   4.399  1.00  0.00     0.198 A 
ATOM     57  F   UNL     1       3.545  -9.509   2.216  1.00  0.00    -0.203 F 
ATOM     58  F   UNL     1       7.472 -10.122   5.950  1.00  0.00    -0.200 F 
ATOM     59  C   UNL     1       5.191 -10.254   5.353  1.00  0.00     0.200 A 
ATOM     60  F   UNL     1       2.924 -10.376   4.703  1.00  0.00    -0.200 F 
ATOM     61  F   UNL     1       4.882 -10.712   6.573  1.00  0.00    -0.200 F 
ENDBRANCH  27  51
BRANCH  39  62
ATOM     62  C   UNL     1       9.496 -11.946  -2.518  1.00  0.00     0.064 A 
ATOM     63  C   UNL     1       8.819 -13.165  -2.670  1.00  0.00     0.173 A 
ATOM     64  C   UNL     1      10.898 -11.963  -2.550  1.00  0.00     0.173 A 
ATOM     65  F   UNL     1       7.478 -13.202  -2.628  1.00  0.00    -0.203 F 
ATOM     66  C   UNL     1       9.520 -14.358  -2.821  1.00  0.00     0.198 A 
ATOM     67  C   UNL     1      11.595 -13.154  -2.729  1.00  0.00     0.198 A 
ATOM     68  F   UNL     1      11.591 -10.822  -2.414  1.00  0.00    -0.203 F 
ATOM     69  F   UNL     1       8.854 -15.517  -2.914  1.00  0.00    -0.200 F 
ATOM     70  C   UNL     1      10.906 -14.351  -2.856  1.00  0.00     0.200 A 
ATOM     71  F   UNL     1      12.935 -13.144  -2.773  1.00  0.00    -0.200 F 
ATOM     72  F   UNL     1      11.580 -15.500  -3.002  1.00  0.00    -0.200 F 
ENDBRANCH  39  62
ENDBRANCH  13  14
ENDBRANCH   6   8
ENDBRANCH   3   4
ENDBRANCH   2   3
ENDBRANCH   1   2
BRANCH   1  73
ATOM     73  C   UNL     1       5.179   4.526   0.088  1.00  0.00     0.116 C 
BRANCH  73  74
ATOM     74  N   UNL     1       6.564   4.491   0.499  1.00  0.00    -0.352 N 
ATOM     75  C   UNL     1       7.162   5.302   1.441  1.00  0.00     0.253 C 
ATOM     76  H   UNL     1       7.139   3.822   0.063  1.00  0.00     0.163 HD
ATOM     77  O   UNL     1       8.304   5.052   1.819  1.00  0.00    -0.269 OA
BRANCH  75  78
ATOM     78  C   UNL     1       6.487   6.545   1.899  1.00  0.00     0.065 A 
ATOM     79  C   UNL     1       7.162   7.711   1.494  1.00  0.00     0.042 A 
ATOM     80  C   UNL     1       5.268   6.617   2.602  1.00  0.00     0.050 A 
ATOM     81  C   UNL     1       6.591   8.970   1.633  1.00  0.00     0.042 A 
ATOM     82  C   UNL     1       4.737   7.907   2.789  1.00  0.00     0.029 A 
ATOM     83  C   UNL     1       5.376   9.059   2.308  1.00  0.00     0.028 A 
BRANCH  80  84
ATOM     84  N   UNL     1       4.608   5.540   3.190  1.00  0.00    -0.370 N 
ATOM     85  C   UNL     1       3.198   5.292   2.860  1.00  0.00     0.116 C 
ATOM     86  C   UNL     1       5.421   4.491   3.810  1.00  0.00     0.126 C 
ATOM     87  C   UNL     1       2.483   4.407   3.877  1.00  0.00     0.022 C 
ATOM     88  C   UNL     1       4.681   3.857   4.996  1.00  0.00     0.064 C 
ATOM     89  C   UNL     1       3.364   3.300   4.443  1.00  0.00     0.013 C 
BRANCH  88  90
ATOM     90  C   UNL     1       4.555   4.893   6.147  1.00  0.00     0.267 C 
BRANCH  90  91
ATOM     91  N   UNL     1       4.133   4.465   7.483  1.00  0.00    -0.335 N 
ATOM     92  C   UNL     1       4.991   3.469   8.117  1.00  0.00     0.262 C 
ATOM     93  C   UNL     1       2.751   4.023   7.633  1.00  0.00     0.262 C 
ATOM     94  H   UNL     1       4.226   5.358   7.966  1.00  0.00     0.348 HD
ATOM     95  C   UNL     1       4.259   2.154   7.953  1.00  0.00     0.067 C 
ATOM     96  C   UNL     1       2.792   2.542   7.991  1.00  0.00     0.067 C 
ENDBRANCH  90  91
ENDBRANCH  88  90
ENDBRANCH  80  84
BRANCH  81  97
ATOM     97  N   UNL     1       7.147  10.163   1.132  1.00  0.00    -0.322 N 
ATOM     98  C   UNL     1       8.158  10.408   0.226  1.00  0.00     0.257 C 
ATOM     99  H   UNL     1       6.735  10.979   1.499  1.00  0.00     0.170 HD
ATOM    100  O   UNL     1       8.551  11.557   0.032  1.00  0.00    -0.269 OA
BRANCH  98 101
ATOM    101  C   UNL     1       8.796   9.319  -0.530  1.00  0.00     0.058 A 
ATOM    102  C   UNL     1      10.133   9.030  -0.221  1.00  0.00     0.015 A 
ATOM    103  C   UNL     1       8.101   8.540  -1.464  1.00  0.00     0.053 A 
ATOM    104  C   UNL     1      10.747   7.911  -0.783  1.00  0.00     0.001 A 
ATOM    105  C   UNL     1       8.722   7.415  -2.014  1.00  0.00     0.021 A 
ATOM    106  Cl  UNL     1       6.476   8.879  -1.938  1.00  0.00    -0.083 Cl
ATOM    107  C   UNL     1      10.036   7.094  -1.663  1.00  0.00     0.002 A 
ENDBRANCH  98 101
ENDBRANCH  81  97
ENDBRANCH  75  78
ENDBRANCH  73  74
ENDBRANCH   1  73
TORSDOF 16
