REMARK SMILES Cc1cccc(CNC(=O)N[C@@H](CC2=c3ccccc3=NC2)C(=O)NCCCCNC(=O)c2ccc(-c3c4nc(c(-c5c(F)c(F)c(F)c(F)c5F)c5ccc([nH]5)c(-c5c(F)c(F)c(F)c(F)c5F)c5nc(c(-c6c(F)c(F)c(F)c(F)c6F)c6ccc3[nH]6)C=C5)C=C4)cc2)c1
REMARK SMILES IDX 27 1 26 2 25 3 23 4 24 5 12 7 11 8 8 9 9 10 10 12 7 14 6 15
REMARK SMILES IDX 1 16 2 17 3 18 96 19 4 20 5 21 13 22 14 23 15 24 22 25 16 26
REMARK SMILES IDX 20 27 21 28 17 29 19 30 18 31 28 32 29 33 30 34 31 35 32 37
REMARK SMILES IDX 33 38 34 39 95 40 35 41 94 42 36 43 37 44 38 45 88 46 39 47
REMARK SMILES IDX 93 48 87 49 89 50 40 51 92 52 86 53 85 54 41 56 73 57 53 58
REMARK SMILES IDX 72 59 54 60 57 61 71 62 90 63 55 64 56 65 70 67 91 68 58 69
REMARK SMILES IDX 42 70 43 71 51 72 44 73 45 74 49 75 52 76 46 77 47 78 50 79
REMARK SMILES IDX 48 80 74 81 75 82 83 83 76 84 77 85 81 86 84 87 78 88 79 89
REMARK SMILES IDX 82 90 80 91 59 92 60 93 68 94 61 95 62 96 66 97 69 98 63 99
REMARK SMILES IDX 64 100 67 101 65 102
REMARK H PARENT 25 6 8 11 11 13 30 36 89 55 57 66
REMARK Flexibility Score: inf
ROOT
ATOM      1  C   UNL     1      -8.562   1.757   0.556  1.00  0.00     0.023 C 
ENDROOT
BRANCH   1   2
ATOM      2  C   UNL     1      -7.319   2.322   1.262  1.00  0.00     0.116 C 
BRANCH   2   3
ATOM      3  N   UNL     1      -6.232   1.366   1.412  1.00  0.00    -0.354 N 
ATOM      4  C   UNL     1      -4.878   1.488   1.504  1.00  0.00     0.242 C 
ATOM      5  O   UNL     1      -4.293   0.487   1.947  1.00  0.00    -0.273 OA
ATOM      6  H   UNL     1      -6.540   0.432   1.457  1.00  0.00     0.163 HD
BRANCH   4   7
ATOM      7  C   UNL     1      -4.045   2.767   1.187  1.00  0.00     0.177 C 
BRANCH   7   8
ATOM      8  N   UNL     1      -4.396   3.346  -0.104  1.00  0.00    -0.326 N 
ATOM      9  N   UNL     1      -2.656   2.615  -1.523  1.00  0.00    -0.334 N 
ATOM     10  C   UNL     1      -3.899   3.073  -1.321  1.00  0.00     0.315 C 
ATOM     11  H   UNL     1      -2.550   2.134  -2.375  1.00  0.00     0.165 HD
ATOM     12  O   UNL     1      -4.630   3.252  -2.295  1.00  0.00    -0.249 OA
ATOM     13  H   UNL     1      -5.098   4.037  -0.080  1.00  0.00     0.166 HD
BRANCH   9  14
ATOM     14  C   UNL     1      -1.432   2.684  -0.743  1.00  0.00     0.153 C 
BRANCH  14  15
ATOM     15  C   UNL     1      -0.819   1.328  -0.471  1.00  0.00    -0.028 A 
ATOM     16  C   UNL     1       2.671  -0.161   0.034  1.00  0.00     0.044 C 
ATOM     17  C   UNL     1       1.180  -0.031  -0.070  1.00  0.00    -0.051 A 
ATOM     18  C   UNL     1       0.375  -1.168   0.054  1.00  0.00     0.003 A 
ATOM     19  C   UNL     1       0.576   1.210  -0.331  1.00  0.00     0.009 A 
ATOM     20  C   UNL     1      -1.009  -1.063  -0.056  1.00  0.00     0.001 A 
ATOM     21  C   UNL     1      -1.601   0.175  -0.311  1.00  0.00     0.005 A 
ENDBRANCH  14  15
ENDBRANCH   9  14
ENDBRANCH   7   8
BRANCH   7  22
ATOM     22  C   UNL     1      -3.855   3.851   2.280  1.00  0.00     0.068 C 
BRANCH  22  23
ATOM     23  C   UNL     1      -4.984   4.034   3.230  1.00  0.00    -0.037 C 
ATOM     24  C   UNL     1      -5.320   3.169   4.180  1.00  0.00     0.001 A 
ATOM     25  C   UNL     1      -5.989   5.141   3.134  1.00  0.00     0.174 C 
ATOM     26  C   UNL     1      -4.754   1.957   4.673  1.00  0.00     0.010 A 
ATOM     27  C   UNL     1      -6.706   3.556   4.446  1.00  0.00     0.065 A 
ATOM     28  N   UNL     1      -7.147   4.672   3.947  1.00  0.00    -0.280 NA
ATOM     29  C   UNL     1      -5.551   1.092   5.316  1.00  0.00     0.001 A 
ATOM     30  C   UNL     1      -7.526   2.526   5.110  1.00  0.00     0.028 A 
ATOM     31  C   UNL     1      -6.962   1.369   5.487  1.00  0.00     0.002 A 
ENDBRANCH  22  23
ENDBRANCH   7  22
ENDBRANCH   4   7
ENDBRANCH   2   3
ENDBRANCH   1   2
BRANCH   1  32
ATOM     32  C   UNL     1      -9.252   0.560   1.232  1.00  0.00     0.023 C 
BRANCH  32  33
ATOM     33  C   UNL     1      -9.957   0.834   2.566  1.00  0.00     0.116 C 
BRANCH  33  34
ATOM     34  N   UNL     1     -11.337   1.288   2.448  1.00  0.00    -0.352 N 
ATOM     35  C   UNL     1     -12.247   1.666   3.425  1.00  0.00     0.251 C 
ATOM     36  H   UNL     1     -11.680   1.333   1.526  1.00  0.00     0.163 HD
ATOM     37  O   UNL     1     -13.373   2.010   3.102  1.00  0.00    -0.269 OA
BRANCH  35  38
ATOM     38  C   UNL     1     -11.839   1.753   4.853  1.00  0.00     0.039 A 
ATOM     39  C   UNL     1     -12.257   2.861   5.605  1.00  0.00     0.014 A 
ATOM     40  C   UNL     1     -10.994   0.817   5.438  1.00  0.00     0.014 A 
ATOM     41  C   UNL     1     -11.638   3.153   6.825  1.00  0.00     0.010 A 
ATOM     42  C   UNL     1     -10.348   1.131   6.625  1.00  0.00     0.010 A 
ATOM     43  C   UNL     1     -10.591   2.350   7.272  1.00  0.00    -0.014 A 
BRANCH  43  44
ATOM     44  C   UNL     1      -9.582   2.810   8.237  1.00  0.00     0.031 A 
ATOM     45  C   UNL     1      -9.342   2.120   9.530  1.00  0.00     0.074 A 
ATOM     46  C   UNL     1      -8.744   3.819   7.891  1.00  0.00     0.049 A 
ATOM     47  N   UNL     1      -8.787   2.683  10.555  1.00  0.00    -0.248 NA
ATOM     48  C   UNL     1      -9.733   0.742   9.791  1.00  0.00     0.031 C 
ATOM     49  C   UNL     1      -7.468   4.152   8.524  1.00  0.00     0.029 A 
ATOM     50  N   UNL     1      -8.945   4.853   6.963  1.00  0.00    -0.354 N 
ATOM     51  C   UNL     1      -8.499   1.708  11.485  1.00  0.00     0.074 A 
ATOM     52  C   UNL     1      -9.170   0.529  10.986  1.00  0.00     0.031 C 
ATOM     53  C   UNL     1      -7.124   5.404   8.190  1.00  0.00     0.029 A 
ATOM     54  C   UNL     1      -8.221   5.969   7.432  1.00  0.00     0.049 A 
ATOM     55  H   UNL     1      -9.486   4.808   6.142  1.00  0.00     0.167 HD
ATOM     56  C   UNL     1      -7.625   1.985  12.500  1.00  0.00     0.037 A 
ATOM     57  C   UNL     1      -8.824   7.166   7.668  1.00  0.00     0.037 A 
ATOM     58  C   UNL     1      -7.144   3.366  12.424  1.00  0.00     0.049 A 
ATOM     59  C   UNL     1      -8.690   7.623   9.095  1.00  0.00     0.074 A 
ATOM     60  C   UNL     1      -5.965   3.915  11.946  1.00  0.00     0.029 A 
ATOM     61  N   UNL     1      -8.016   4.428  12.637  1.00  0.00    -0.354 N 
ATOM     62  N   UNL     1      -8.332   6.836  10.069  1.00  0.00    -0.248 NA
ATOM     63  C   UNL     1      -8.982   8.978   9.550  1.00  0.00     0.031 C 
ATOM     64  C   UNL     1      -6.132   5.316  11.863  1.00  0.00     0.029 A 
ATOM     65  C   UNL     1      -7.412   5.623  12.295  1.00  0.00     0.049 A 
ATOM     66  H   UNL     1      -8.933   4.341  12.983  1.00  0.00     0.167 HD
ATOM     67  C   UNL     1      -8.376   7.521  11.252  1.00  0.00     0.074 A 
ATOM     68  C   UNL     1      -8.765   8.865  10.873  1.00  0.00     0.031 C 
ATOM     69  C   UNL     1      -8.103   6.897  12.436  1.00  0.00     0.037 A 
BRANCH  56  70
ATOM     70  C   UNL     1      -6.967   0.956  13.411  1.00  0.00     0.064 A 
ATOM     71  C   UNL     1      -5.741   1.240  14.061  1.00  0.00     0.173 A 
ATOM     72  C   UNL     1      -7.458  -0.339  13.659  1.00  0.00     0.173 A 
ATOM     73  F   UNL     1      -5.205   2.467  14.050  1.00  0.00    -0.203 F 
ATOM     74  C   UNL     1      -5.012   0.276  14.766  1.00  0.00     0.198 A 
ATOM     75  C   UNL     1      -6.709  -1.319  14.323  1.00  0.00     0.198 A 
ATOM     76  F   UNL     1      -8.707  -0.686  13.338  1.00  0.00    -0.203 F 
ATOM     77  F   UNL     1      -3.849   0.610  15.343  1.00  0.00    -0.200 F 
ATOM     78  C   UNL     1      -5.477  -1.017  14.863  1.00  0.00     0.200 A 
ATOM     79  F   UNL     1      -7.201  -2.561  14.442  1.00  0.00    -0.200 F 
ATOM     80  F   UNL     1      -4.763  -1.954  15.500  1.00  0.00    -0.200 F 
ENDBRANCH  56  70
BRANCH  57  81
ATOM     81  C   UNL     1      -9.993   7.398   6.783  1.00  0.00     0.064 A 
ATOM     82  C   UNL     1      -9.742   7.584   5.409  1.00  0.00     0.173 A 
ATOM     83  C   UNL     1     -11.278   6.995   7.163  1.00  0.00     0.173 A 
ATOM     84  F   UNL     1      -8.526   7.977   4.999  1.00  0.00    -0.203 F 
ATOM     85  C   UNL     1     -10.695   7.250   4.450  1.00  0.00     0.198 A 
ATOM     86  C   UNL     1     -12.235   6.673   6.197  1.00  0.00     0.198 A 
ATOM     87  F   UNL     1     -11.567   6.777   8.454  1.00  0.00    -0.203 F 
ATOM     88  F   UNL     1     -10.391   7.325   3.147  1.00  0.00    -0.200 F 
ATOM     89  C   UNL     1     -11.929   6.762   4.846  1.00  0.00     0.200 A 
ATOM     90  F   UNL     1     -13.419   6.171   6.576  1.00  0.00    -0.200 F 
ATOM     91  F   UNL     1     -12.809   6.337   3.929  1.00  0.00    -0.200 F 
ENDBRANCH  57  81
BRANCH  69  92
ATOM     92  C   UNL     1      -8.350   7.455  13.816  1.00  0.00     0.064 A 
ATOM     93  C   UNL     1      -9.326   8.421  14.111  1.00  0.00     0.173 A 
ATOM     94  C   UNL     1      -7.678   6.911  14.939  1.00  0.00     0.173 A 
ATOM     95  F   UNL     1     -10.122   8.925  13.159  1.00  0.00    -0.203 F 
ATOM     96  C   UNL     1      -9.563   8.861  15.417  1.00  0.00     0.198 A 
ATOM     97  C   UNL     1      -7.958   7.310  16.246  1.00  0.00     0.198 A 
ATOM     98  F   UNL     1      -6.749   5.953  14.806  1.00  0.00    -0.203 F 
ATOM     99  F   UNL     1     -10.475   9.818  15.638  1.00  0.00    -0.200 F 
ATOM    100  C   UNL     1      -8.888   8.300  16.484  1.00  0.00     0.200 A 
ATOM    101  F   UNL     1      -7.333   6.715  17.272  1.00  0.00    -0.200 F 
ATOM    102  F   UNL     1      -9.150   8.693  17.737  1.00  0.00    -0.200 F 
ENDBRANCH  69  92
ENDBRANCH  43  44
ENDBRANCH  35  38
ENDBRANCH  33  34
ENDBRANCH  32  33
ENDBRANCH   1  32
TORSDOF 16
