REMARK SMILES CS(=O)(=O)Nc1ccc(-c2cc(Cl)cc3c2O[C@H](C(F)(F)F)C(C(=O)NCCCCNC(=O)c2ccc(-c4c5nc(c(-c6c(F)c(F)c(F)c(F)c6F)c6ccc([nH]6)c(-c6c(F)c(F)c(F)c(F)c6F)c6nc(c(-c7c(F)c(F)c(F)c(F)c7F)c7ccc4[nH]7)C=C6)C=C5)cc2)=C3)cc1
REMARK SMILES IDX 28 1 27 2 26 3 24 4 25 5 23 7 10 8 11 9 16 10 12 11 15 12
REMARK SMILES IDX 17 13 13 14 14 15 97 16 18 17 9 18 6 19 7 20 99 21 8 22
REMARK SMILES IDX 98 23 5 24 2 26 1 27 3 28 4 29 19 30 20 31 21 32 22 33 29 34
REMARK SMILES IDX 30 35 31 36 32 37 33 39 34 40 35 41 96 42 36 43 95 44 37 45
REMARK SMILES IDX 38 46 39 47 89 48 40 49 94 50 88 51 90 52 41 53 93 54 87 55
REMARK SMILES IDX 86 56 42 58 74 59 54 60 73 61 55 62 58 63 72 64 91 65 56 66
REMARK SMILES IDX 57 67 71 69 92 70 59 71 43 72 44 73 52 74 45 75 46 76 50 77
REMARK SMILES IDX 53 78 47 79 48 80 51 81 49 82 75 83 76 84 84 85 77 86 78 87
REMARK SMILES IDX 82 88 85 89 79 90 80 91 83 92 81 93 60 94 61 95 69 96 62 97
REMARK SMILES IDX 63 98 67 99 70 100 64 101 65 102 68 103 66 104
REMARK H PARENT 26 6 5 25 31 38 90 57 58 68
REMARK Flexibility Score: inf
ROOT
ATOM      1  C   UNL     1      10.909 -10.256   3.513  1.00  0.00     0.023 C 
ENDROOT
BRANCH   1   2
ATOM      2  C   UNL     1      10.468  -9.261   2.429  1.00  0.00     0.116 C 
BRANCH   2   3
ATOM      3  N   UNL     1       9.041  -9.370   2.222  1.00  0.00    -0.352 N 
ATOM      4  C   UNL     1       8.099  -8.406   2.128  1.00  0.00     0.251 C 
ATOM      5  O   UNL     1       6.956  -8.690   2.473  1.00  0.00    -0.270 OA
ATOM      6  H   UNL     1       8.703 -10.291   2.136  1.00  0.00     0.163 HD
BRANCH   4   7
ATOM      7  C   UNL     1       8.458  -7.097   1.501  1.00  0.00     0.067 C 
ATOM      8  C   UNL     1       4.999  -5.059   2.196  1.00  0.00     0.026 A 
ATOM      9  C   UNL     1       3.941  -5.952   1.868  1.00  0.00     0.033 A 
ATOM     10  C   UNL     1       6.282  -5.438   1.764  1.00  0.00     0.135 A 
ATOM     11  C   UNL     1       4.109  -7.040   1.016  1.00  0.00     0.042 A 
ATOM     12  C   UNL     1       6.407  -6.469   0.798  1.00  0.00     0.019 A 
ATOM     13  O   UNL     1       7.452  -4.905   2.285  1.00  0.00    -0.475 OA
ATOM     14  Cl  UNL     1       2.788  -8.094   0.707  1.00  0.00    -0.084 Cl
ATOM     15  C   UNL     1       5.327  -7.256   0.408  1.00  0.00     0.032 A 
ATOM     16  C   UNL     1       7.770  -6.854   0.368  1.00  0.00     0.025 C 
ATOM     17  C   UNL     1       8.544  -5.915   2.463  1.00  0.00     0.314 C 
BRANCH   8  18
ATOM     18  C   UNL     1       4.543  -3.748   2.744  1.00  0.00    -0.014 A 
ATOM     19  C   UNL     1       2.635  -1.633   2.870  1.00  0.00     0.048 A 
ATOM     20  C   UNL     1       2.596  -2.689   3.785  1.00  0.00     0.027 A 
ATOM     21  C   UNL     1       3.732  -1.545   2.016  1.00  0.00     0.027 A 
ATOM     22  C   UNL     1       3.555  -3.713   3.748  1.00  0.00     0.011 A 
ATOM     23  C   UNL     1       4.682  -2.588   1.959  1.00  0.00     0.011 A 
BRANCH  19  24
ATOM     24  N   UNL     1       1.442  -0.862   2.747  1.00  0.00    -0.284 N 
ATOM     25  H   UNL     1       0.682  -1.146   3.305  1.00  0.00     0.180 HD
BRANCH  24  26
ATOM     26  S   UNL     1       1.180   0.459   1.773  1.00  0.00     0.229 S 
ATOM     27  C   UNL     1       1.109  -0.224   0.125  1.00  0.00     0.183 C 
ATOM     28  O   UNL     1       2.306   1.363   1.864  1.00  0.00    -0.207 OA
ATOM     29  O   UNL     1      -0.159   0.901   2.103  1.00  0.00    -0.207 OA
ENDBRANCH  24  26
ENDBRANCH  19  24
ENDBRANCH   8  18
BRANCH  17  30
ATOM     30  C   UNL     1       9.944  -5.275   2.313  1.00  0.00     0.429 C 
ATOM     31  F   UNL     1       9.905  -4.065   1.714  1.00  0.00    -0.167 F 
ATOM     32  F   UNL     1      10.544  -5.121   3.518  1.00  0.00    -0.167 F 
ATOM     33  F   UNL     1      10.787  -6.043   1.571  1.00  0.00    -0.167 F 
ENDBRANCH  17  30
ENDBRANCH   4   7
ENDBRANCH   2   3
ENDBRANCH   1   2
BRANCH   1  34
ATOM     34  C   UNL     1      10.607 -11.731   3.212  1.00  0.00     0.023 C 
BRANCH  34  35
ATOM     35  C   UNL     1      11.177 -12.245   1.897  1.00  0.00     0.116 C 
BRANCH  35  36
ATOM     36  N   UNL     1      12.630 -12.272   1.909  1.00  0.00    -0.352 N 
ATOM     37  C   UNL     1      13.475 -13.333   1.691  1.00  0.00     0.251 C 
ATOM     38  H   UNL     1      13.069 -11.412   2.098  1.00  0.00     0.163 HD
ATOM     39  O   UNL     1      14.673 -13.231   1.931  1.00  0.00    -0.269 OA
BRANCH  37  40
ATOM     40  C   UNL     1      12.928 -14.611   1.187  1.00  0.00     0.039 A 
ATOM     41  C   UNL     1      13.316 -15.806   1.796  1.00  0.00     0.014 A 
ATOM     42  C   UNL     1      12.028 -14.625   0.119  1.00  0.00     0.014 A 
ATOM     43  C   UNL     1      12.752 -17.013   1.375  1.00  0.00     0.010 A 
ATOM     44  C   UNL     1      11.409 -15.816  -0.246  1.00  0.00     0.010 A 
ATOM     45  C   UNL     1      11.768 -17.024   0.373  1.00  0.00    -0.014 A 
BRANCH  45  46
ATOM     46  C   UNL     1      11.114 -18.283  -0.067  1.00  0.00     0.031 A 
ATOM     47  C   UNL     1      11.278 -18.749  -1.488  1.00  0.00     0.074 A 
ATOM     48  C   UNL     1      10.313 -18.960   0.778  1.00  0.00     0.049 A 
ATOM     49  N   UNL     1      10.693 -19.742  -2.109  1.00  0.00    -0.248 NA
ATOM     50  C   UNL     1      12.201 -17.974  -2.333  1.00  0.00     0.031 C 
ATOM     51  C   UNL     1      10.047 -18.594   2.169  1.00  0.00     0.029 A 
ATOM     52  N   UNL     1       9.558 -20.091   0.582  1.00  0.00    -0.354 N 
ATOM     53  C   UNL     1      11.159 -19.695  -3.417  1.00  0.00     0.074 A 
ATOM     54  C   UNL     1      12.032 -18.546  -3.515  1.00  0.00     0.031 C 
ATOM     55  C   UNL     1       9.201 -19.489   2.706  1.00  0.00     0.029 A 
ATOM     56  C   UNL     1       8.828 -20.465   1.685  1.00  0.00     0.049 A 
ATOM     57  H   UNL     1       9.540 -20.587  -0.268  1.00  0.00     0.167 HD
ATOM     58  C   UNL     1      10.900 -20.547  -4.437  1.00  0.00     0.037 A 
ATOM     59  C   UNL     1       7.946 -21.470   1.848  1.00  0.00     0.037 A 
ATOM     60  C   UNL     1      10.053 -21.705  -4.327  1.00  0.00     0.049 A 
ATOM     61  C   UNL     1       7.661 -22.392   0.692  1.00  0.00     0.074 A 
ATOM     62  C   UNL     1       9.767 -22.659  -5.287  1.00  0.00     0.029 A 
ATOM     63  N   UNL     1       9.353 -22.064  -3.184  1.00  0.00    -0.354 N 
ATOM     64  N   UNL     1       8.151 -22.372  -0.524  1.00  0.00    -0.248 NA
ATOM     65  C   UNL     1       6.704 -23.482   0.932  1.00  0.00     0.031 C 
ATOM     66  C   UNL     1       8.854 -23.567  -4.743  1.00  0.00     0.029 A 
ATOM     67  C   UNL     1       8.621 -23.216  -3.422  1.00  0.00     0.049 A 
ATOM     68  H   UNL     1       9.374 -21.574  -2.330  1.00  0.00     0.167 HD
ATOM     69  C   UNL     1       7.599 -23.466  -1.177  1.00  0.00     0.074 A 
ATOM     70  C   UNL     1       6.738 -24.132  -0.223  1.00  0.00     0.031 C 
ATOM     71  C   UNL     1       7.792 -23.884  -2.452  1.00  0.00     0.037 A 
BRANCH  58  72
ATOM     72  C   UNL     1      11.539 -20.259  -5.766  1.00  0.00     0.064 A 
ATOM     73  C   UNL     1      12.924 -20.384  -5.960  1.00  0.00     0.173 A 
ATOM     74  C   UNL     1      10.754 -19.891  -6.869  1.00  0.00     0.173 A 
ATOM     75  F   UNL     1      13.722 -20.722  -4.937  1.00  0.00    -0.203 F 
ATOM     76  C   UNL     1      13.500 -20.121  -7.200  1.00  0.00     0.198 A 
ATOM     77  C   UNL     1      11.330 -19.663  -8.116  1.00  0.00     0.198 A 
ATOM     78  F   UNL     1       9.425 -19.763  -6.741  1.00  0.00    -0.203 F 
ATOM     79  F   UNL     1      14.830 -20.195  -7.348  1.00  0.00    -0.200 F 
ATOM     80  C   UNL     1      12.702 -19.770  -8.278  1.00  0.00     0.200 A 
ATOM     81  F   UNL     1      10.555 -19.339  -9.161  1.00  0.00    -0.200 F 
ATOM     82  F   UNL     1      13.258 -19.526  -9.474  1.00  0.00    -0.200 F 
ENDBRANCH  58  72
BRANCH  59  83
ATOM     83  C   UNL     1       7.276 -21.670   3.162  1.00  0.00     0.064 A 
ATOM     84  C   UNL     1       7.555 -22.797   3.947  1.00  0.00     0.173 A 
ATOM     85  C   UNL     1       6.333 -20.754   3.650  1.00  0.00     0.173 A 
ATOM     86  F   UNL     1       8.434 -23.713   3.515  1.00  0.00    -0.203 F 
ATOM     87  C   UNL     1       6.897 -23.015   5.156  1.00  0.00     0.198 A 
ATOM     88  C   UNL     1       5.699 -20.956   4.875  1.00  0.00     0.198 A 
ATOM     89  F   UNL     1       6.033 -19.656   2.941  1.00  0.00    -0.203 F 
ATOM     90  F   UNL     1       7.143 -24.129   5.859  1.00  0.00    -0.200 F 
ATOM     91  C   UNL     1       5.973 -22.092   5.621  1.00  0.00     0.200 A 
ATOM     92  F   UNL     1       4.818 -20.054   5.328  1.00  0.00    -0.200 F 
ATOM     93  F   UNL     1       5.341 -22.301   6.784  1.00  0.00    -0.200 F 
ENDBRANCH  59  83
BRANCH  71  94
ATOM     94  C   UNL     1       7.119 -25.157  -2.879  1.00  0.00     0.064 A 
ATOM     95  C   UNL     1       5.736 -25.231  -3.092  1.00  0.00     0.173 A 
ATOM     96  C   UNL     1       7.888 -26.302  -3.143  1.00  0.00     0.173 A 
ATOM     97  F   UNL     1       4.955 -24.169  -2.841  1.00  0.00    -0.203 F 
ATOM     98  C   UNL     1       5.143 -26.411  -3.536  1.00  0.00     0.198 A 
ATOM     99  C   UNL     1       7.297 -27.469  -3.618  1.00  0.00     0.198 A 
ATOM    100  F   UNL     1       9.217 -26.281  -2.963  1.00  0.00    -0.203 F 
ATOM    101  F   UNL     1       3.814 -26.473  -3.694  1.00  0.00    -0.200 F 
ATOM    102  C   UNL     1       5.925 -27.524  -3.808  1.00  0.00     0.200 A 
ATOM    103  F   UNL     1       8.056 -28.537  -3.897  1.00  0.00    -0.200 F 
ATOM    104  F   UNL     1       5.354 -28.653  -4.252  1.00  0.00    -0.200 F 
ENDBRANCH  71  94
ENDBRANCH  45  46
ENDBRANCH  37  40
ENDBRANCH  35  36
ENDBRANCH  34  35
ENDBRANCH   1  34
TORSDOF 15
