REMARK SMILES O=C(Nc1cccc(C(=O)NCCCCNC(=O)c2ccc(-c3c4nc(c(-c5c(F)c(F)c(F)c(F)c5F)c5ccc([nH]5)c(-c5c(F)c(F)c(F)c(F)c5F)c5nc(c(-c6c(F)c(F)c(F)c(F)c6F)c6ccc3[nH]6)C=C5)C=C4)cc2)c1)Nc1cc(Cl)c(Cl)cc1Cl
REMARK SMILES IDX 13 1 12 2 11 3 9 4 10 5 8 7 4 8 5 9 82 10 6 11 7 12 3 13
REMARK SMILES IDX 1 14 2 15 83 16 84 19 85 20 91 21 86 22 90 23 92 24 87 25
REMARK SMILES IDX 88 26 89 27 14 28 15 29 16 30 17 31 18 33 19 34 20 35 81 36
REMARK SMILES IDX 21 37 80 38 22 39 23 40 24 41 74 42 25 43 79 44 73 45 75 46
REMARK SMILES IDX 26 47 78 48 72 49 71 50 27 52 59 53 39 54 58 55 40 56 43 57
REMARK SMILES IDX 57 58 76 59 41 60 42 61 56 63 77 64 44 65 28 66 29 67 37 68
REMARK SMILES IDX 30 69 31 70 35 71 38 72 32 73 33 74 36 75 34 76 60 77 61 78
REMARK SMILES IDX 69 79 62 80 63 81 67 82 70 83 64 84 65 85 68 86 66 87 45 88
REMARK SMILES IDX 46 89 54 90 47 91 48 92 52 93 55 94 49 95 50 96 53 97 51 98
REMARK H PARENT 11 6 3 17 83 18 16 32 75 51 43 62
REMARK Flexibility Score: inf
ROOT
ATOM      1  C   UNL     1       4.524   3.262   2.151  1.00  0.00     0.023 C 
ENDROOT
BRANCH   1   2
ATOM      2  C   UNL     1       5.434   3.081   0.933  1.00  0.00     0.116 C 
BRANCH   2   3
ATOM      3  N   UNL     1       6.729   2.563   1.323  1.00  0.00    -0.352 N 
ATOM      4  C   UNL     1       7.228   1.294   1.480  1.00  0.00     0.251 C 
ATOM      5  O   UNL     1       8.408   1.210   1.825  1.00  0.00    -0.269 OA
ATOM      6  H   UNL     1       7.389   3.268   1.514  1.00  0.00     0.163 HD
BRANCH   4   7
ATOM      7  C   UNL     1       6.460   0.033   1.232  1.00  0.00     0.041 A 
ATOM      8  C   UNL     1       4.446  -1.277   0.802  1.00  0.00     0.043 A 
ATOM      9  C   UNL     1       5.191  -2.453   0.798  1.00  0.00     0.026 A 
ATOM     10  C   UNL     1       5.075  -0.057   1.083  1.00  0.00     0.040 A 
ATOM     11  C   UNL     1       6.572  -2.392   0.971  1.00  0.00     0.003 A 
ATOM     12  C   UNL     1       7.200  -1.159   1.168  1.00  0.00     0.014 A 
BRANCH   8  13
ATOM     13  N   UNL     1       3.066  -1.353   0.543  1.00  0.00    -0.308 N 
ATOM     14  O   UNL     1       1.019  -0.565   0.034  1.00  0.00    -0.248 OA
ATOM     15  C   UNL     1       2.235  -0.415  -0.029  1.00  0.00     0.323 C 
ATOM     16  N   UNL     1       2.874   0.530  -0.799  1.00  0.00    -0.306 N 
ATOM     17  H   UNL     1       2.632  -2.196   0.808  1.00  0.00     0.171 HD
ATOM     18  H   UNL     1       3.848   0.434  -0.903  1.00  0.00     0.171 HD
BRANCH  16  19
ATOM     19  C   UNL     1       2.268   1.624  -1.456  1.00  0.00     0.063 A 
ATOM     20  C   UNL     1       2.778   1.925  -2.728  1.00  0.00     0.049 A 
ATOM     21  C   UNL     1       1.245   2.431  -0.929  1.00  0.00     0.066 A 
ATOM     22  C   UNL     1       2.225   2.952  -3.500  1.00  0.00     0.061 A 
ATOM     23  C   UNL     1       0.696   3.463  -1.702  1.00  0.00     0.044 A 
ATOM     24  Cl  UNL     1       0.741   2.358   0.723  1.00  0.00    -0.082 Cl
ATOM     25  Cl  UNL     1       2.895   3.222  -5.070  1.00  0.00    -0.083 Cl
ATOM     26  C   UNL     1       1.170   3.713  -2.992  1.00  0.00     0.061 A 
ATOM     27  Cl  UNL     1       0.438   4.992  -3.892  1.00  0.00    -0.083 Cl
ENDBRANCH  16  19
ENDBRANCH   8  13
ENDBRANCH   4   7
ENDBRANCH   2   3
ENDBRANCH   1   2
BRANCH   1  28
ATOM     28  C   UNL     1       4.707   4.595   2.882  1.00  0.00     0.023 C 
BRANCH  28  29
ATOM     29  C   UNL     1       4.351   5.829   2.060  1.00  0.00     0.116 C 
BRANCH  29  30
ATOM     30  N   UNL     1       2.989   5.824   1.551  1.00  0.00    -0.352 N 
ATOM     31  C   UNL     1       2.224   6.904   1.176  1.00  0.00     0.251 C 
ATOM     32  H   UNL     1       2.562   4.941   1.464  1.00  0.00     0.163 HD
ATOM     33  O   UNL     1       1.063   6.757   0.819  1.00  0.00    -0.269 OA
BRANCH  31  34
ATOM     34  C   UNL     1       2.813   8.258   1.260  1.00  0.00     0.039 A 
ATOM     35  C   UNL     1       2.146   9.236   2.001  1.00  0.00     0.014 A 
ATOM     36  C   UNL     1       4.039   8.540   0.654  1.00  0.00     0.014 A 
ATOM     37  C   UNL     1       2.743  10.484   2.191  1.00  0.00     0.010 A 
ATOM     38  C   UNL     1       4.660   9.762   0.895  1.00  0.00     0.010 A 
ATOM     39  C   UNL     1       4.020  10.744   1.667  1.00  0.00    -0.014 A 
BRANCH  39  40
ATOM     40  C   UNL     1       4.704  12.039   1.911  1.00  0.00     0.031 A 
ATOM     41  C   UNL     1       4.984  12.966   0.762  1.00  0.00     0.074 A 
ATOM     42  C   UNL     1       5.135  12.346   3.149  1.00  0.00     0.049 A 
ATOM     43  N   UNL     1       5.649  14.094   0.750  1.00  0.00    -0.248 NA
ATOM     44  C   UNL     1       4.474  12.556  -0.556  1.00  0.00     0.031 C 
ATOM     45  C   UNL     1       4.968  11.507   4.336  1.00  0.00     0.029 A 
ATOM     46  N   UNL     1       5.818  13.444   3.611  1.00  0.00    -0.354 N 
ATOM     47  C   UNL     1       5.650  14.517  -0.572  1.00  0.00     0.074 A 
ATOM     48  C   UNL     1       4.963  13.503  -1.343  1.00  0.00     0.031 C 
ATOM     49  C   UNL     1       5.520  12.126   5.393  1.00  0.00     0.029 A 
ATOM     50  C   UNL     1       6.106  13.388   4.953  1.00  0.00     0.049 A 
ATOM     51  H   UNL     1       6.077  14.199   3.036  1.00  0.00     0.167 HD
ATOM     52  C   UNL     1       6.158  15.659  -1.093  1.00  0.00     0.037 A 
ATOM     53  C   UNL     1       6.774  14.256   5.737  1.00  0.00     0.037 A 
ATOM     54  C   UNL     1       6.811  16.682  -0.321  1.00  0.00     0.049 A 
ATOM     55  C   UNL     1       7.313  15.526   5.136  1.00  0.00     0.074 A 
ATOM     56  C   UNL     1       7.313  17.899  -0.748  1.00  0.00     0.029 A 
ATOM     57  N   UNL     1       7.047  16.609   1.044  1.00  0.00    -0.354 N 
ATOM     58  N   UNL     1       7.257  15.942   3.894  1.00  0.00    -0.248 NA
ATOM     59  C   UNL     1       8.001  16.452   6.047  1.00  0.00     0.031 C 
ATOM     60  C   UNL     1       7.880  18.550   0.353  1.00  0.00     0.029 A 
ATOM     61  C   UNL     1       7.696  17.755   1.473  1.00  0.00     0.049 A 
ATOM     62  H   UNL     1       6.791  15.854   1.622  1.00  0.00     0.167 HD
ATOM     63  C   UNL     1       7.875  17.185   3.880  1.00  0.00     0.074 A 
ATOM     64  C   UNL     1       8.287  17.463   5.240  1.00  0.00     0.031 C 
ATOM     65  C   UNL     1       8.084  18.021   2.834  1.00  0.00     0.037 A 
BRANCH  52  66
ATOM     66  C   UNL     1       6.015  15.869  -2.571  1.00  0.00     0.064 A 
ATOM     67  C   UNL     1       4.771  16.157  -3.152  1.00  0.00     0.173 A 
ATOM     68  C   UNL     1       7.137  15.820  -3.411  1.00  0.00     0.173 A 
ATOM     69  F   UNL     1       3.666  16.202  -2.392  1.00  0.00    -0.203 F 
ATOM     70  C   UNL     1       4.652  16.364  -4.523  1.00  0.00     0.198 A 
ATOM     71  C   UNL     1       7.019  16.055  -4.778  1.00  0.00     0.198 A 
ATOM     72  F   UNL     1       8.351  15.553  -2.905  1.00  0.00    -0.203 F 
ATOM     73  F   UNL     1       3.446  16.595  -5.062  1.00  0.00    -0.200 F 
ATOM     74  C   UNL     1       5.776  16.320  -5.334  1.00  0.00     0.200 A 
ATOM     75  F   UNL     1       8.107  16.023  -5.559  1.00  0.00    -0.200 F 
ATOM     76  F   UNL     1       5.660  16.528  -6.653  1.00  0.00    -0.200 F 
ENDBRANCH  52  66
BRANCH  53  77
ATOM     77  C   UNL     1       6.951  13.969   7.184  1.00  0.00     0.064 A 
ATOM     78  C   UNL     1       6.266  14.715   8.153  1.00  0.00     0.173 A 
ATOM     79  C   UNL     1       7.815  12.958   7.628  1.00  0.00     0.173 A 
ATOM     80  F   UNL     1       5.445  15.707   7.777  1.00  0.00    -0.203 F 
ATOM     81  C   UNL     1       6.456  14.476   9.512  1.00  0.00     0.198 A 
ATOM     82  C   UNL     1       7.985  12.703   8.987  1.00  0.00     0.198 A 
ATOM     83  F   UNL     1       8.490  12.214   6.740  1.00  0.00    -0.203 F 
ATOM     84  F   UNL     1       5.824  15.236  10.418  1.00  0.00    -0.200 F 
ATOM     85  C   UNL     1       7.312  13.468   9.928  1.00  0.00     0.200 A 
ATOM     86  F   UNL     1       8.804  11.720   9.385  1.00  0.00    -0.200 F 
ATOM     87  F   UNL     1       7.495  13.239  11.236  1.00  0.00    -0.200 F 
ENDBRANCH  53  77
BRANCH  65  88
ATOM     88  C   UNL     1       8.754  19.331   3.123  1.00  0.00     0.064 A 
ATOM     89  C   UNL     1      10.125  19.407   3.404  1.00  0.00     0.173 A 
ATOM     90  C   UNL     1       8.022  20.527   3.076  1.00  0.00     0.173 A 
ATOM     91  F   UNL     1      10.863  18.289   3.474  1.00  0.00    -0.203 F 
ATOM     92  C   UNL     1      10.737  20.634   3.647  1.00  0.00     0.198 A 
ATOM     93  C   UNL     1       8.642  21.754   3.294  1.00  0.00     0.198 A 
ATOM     94  F   UNL     1       6.708  20.505   2.807  1.00  0.00    -0.203 F 
ATOM     95  F   UNL     1      12.041  20.682   3.953  1.00  0.00    -0.200 F 
ATOM     96  C   UNL     1       9.997  21.806   3.585  1.00  0.00     0.200 A 
ATOM     97  F   UNL     1       7.928  22.886   3.224  1.00  0.00    -0.200 F 
ATOM     98  F   UNL     1      10.589  22.986   3.812  1.00  0.00    -0.200 F 
ENDBRANCH  65  88
ENDBRANCH  39  40
ENDBRANCH  31  34
ENDBRANCH  29  30
ENDBRANCH  28  29
ENDBRANCH   1  28
TORSDOF 13
