REMARK SMILES Cc1ccc2c(C[NH2+][C@H]3CCC[C@@H](C)[C@@H]3C)c(C(=O)NCCCCNC(=O)c3ccc(-c4c5nc(c(-c6c(F)c(F)c(F)c(F)c6F)c6ccc([nH]6)c(-c6c(F)c(F)c(F)c(F)c6F)c6nc(c(-c7c(F)c(F)c(F)c(F)c7F)c7ccc4[nH]7)C=C6)C=C5)cc3)n(C)c2c1
REMARK SMILES IDX 22 1 21 2 20 3 18 4 19 5 17 7 1 8 2 9 3 10 94 11 4 12 93 13
REMARK SMILES IDX 5 14 91 15 6 16 92 17 7 18 8 19 9 22 10 23 15 24 11 25 13 26
REMARK SMILES IDX 16 27 12 28 14 29 23 30 24 31 25 32 26 33 27 35 28 36 29 37
REMARK SMILES IDX 90 38 30 39 89 40 31 41 32 42 33 43 83 44 34 45 88 46 82 47
REMARK SMILES IDX 84 48 35 49 87 50 81 51 80 52 36 54 68 55 48 56 67 57 49 58
REMARK SMILES IDX 52 59 66 60 85 61 50 62 51 63 65 65 86 66 53 67 37 68 38 69
REMARK SMILES IDX 46 70 39 71 40 72 44 73 47 74 41 75 42 76 45 77 43 78 69 79
REMARK SMILES IDX 70 80 78 81 71 82 72 83 76 84 79 85 73 86 74 87 77 88 75 89
REMARK SMILES IDX 54 90 55 91 63 92 56 93 57 94 61 95 64 96 58 97 59 98 62 99
REMARK SMILES IDX 60 100
REMARK H PARENT 20 6 8 20 8 21 25 34 84 53 52 64
REMARK Flexibility Score: inf
ROOT
ATOM      1  C   UNL     1       2.221  -8.527   6.588  1.00  0.00     0.023 C 
ENDROOT
BRANCH   1   2
ATOM      2  C   UNL     1       1.361  -9.386   7.507  1.00  0.00     0.116 C 
BRANCH   2   3
ATOM      3  N   UNL     1       1.928  -9.383   8.828  1.00  0.00    -0.351 N 
ATOM      4  C   UNL     1       1.676  -8.698   9.980  1.00  0.00     0.268 C 
ATOM      5  O   UNL     1       2.562  -8.868  10.829  1.00  0.00    -0.268 OA
ATOM      6  H   UNL     1       2.670 -10.023   8.923  1.00  0.00     0.163 HD
BRANCH   4   7
ATOM      7  C   UNL     1       0.478  -7.916  10.297  1.00  0.00     0.116 A 
ATOM      8  C   UNL     1      -3.777  -5.534  14.001  1.00  0.00     0.044 C 
ATOM      9  C   UNL     1      -2.930  -5.902  12.819  1.00  0.00    -0.049 A 
ATOM     10  C   UNL     1      -3.238  -5.355  11.578  1.00  0.00     0.004 A 
ATOM     11  C   UNL     1      -1.830  -6.764  12.951  1.00  0.00     0.030 A 
ATOM     12  C   UNL     1      -2.457  -5.652  10.463  1.00  0.00     0.011 A 
ATOM     13  C   UNL     1      -1.064  -7.069  11.807  1.00  0.00     0.049 A 
ATOM     14  C   UNL     1      -1.343  -6.521  10.571  1.00  0.00     0.009 A 
ATOM     15  N   UNL     1      -0.007  -7.934  11.619  1.00  0.00    -0.339 N 
ATOM     16  C   UNL     1      -0.412  -7.073   9.604  1.00  0.00     0.045 A 
ATOM     17  C   UNL     1       0.419  -8.835  12.680  1.00  0.00     0.150 C 
BRANCH  16  18
ATOM     18  C   UNL     1      -0.717  -6.825   8.165  1.00  0.00     0.300 C 
BRANCH  18  19
ATOM     19  N   UNL     1       0.257  -6.204   7.286  1.00  0.00    -0.340 N 
ATOM     20  H   UNL     1       1.012  -6.864   7.100  1.00  0.00     0.346 HD
ATOM     21  H   UNL     1       0.627  -5.369   7.740  1.00  0.00     0.346 HD
BRANCH  19  22
ATOM     22  C   UNL     1      -0.393  -5.808   5.980  1.00  0.00     0.185 C 
ATOM     23  C   UNL     1       0.743  -5.367   5.032  1.00  0.00     0.065 C 
ATOM     24  C   UNL     1      -1.379  -6.885   5.362  1.00  0.00     0.047 C 
ATOM     25  C   UNL     1       0.308  -5.178   3.587  1.00  0.00     0.006 C 
ATOM     26  C   UNL     1      -1.603  -6.801   3.829  1.00  0.00    -0.006 C 
ATOM     27  C   UNL     1      -2.799  -6.831   5.998  1.00  0.00     0.014 C 
ATOM     28  C   UNL     1      -0.353  -6.431   3.049  1.00  0.00     0.004 C 
ATOM     29  C   UNL     1      -2.144  -8.145   3.297  1.00  0.00     0.008 C 
ENDBRANCH  19  22
ENDBRANCH  18  19
ENDBRANCH  16  18
ENDBRANCH   4   7
ENDBRANCH   2   3
ENDBRANCH   1   2
BRANCH   1  30
ATOM     30  C   UNL     1       3.213  -9.345   5.758  1.00  0.00     0.023 C 
BRANCH  30  31
ATOM     31  C   UNL     1       2.515 -10.071   4.602  1.00  0.00     0.116 C 
BRANCH  31  32
ATOM     32  N   UNL     1       2.036  -9.096   3.654  1.00  0.00    -0.352 N 
ATOM     33  C   UNL     1       1.840  -9.400   2.329  1.00  0.00     0.251 C 
ATOM     34  H   UNL     1       1.842  -8.182   3.967  1.00  0.00     0.163 HD
ATOM     35  O   UNL     1       1.245 -10.358   1.870  1.00  0.00    -0.269 OA
BRANCH  33  36
ATOM     36  C   UNL     1       2.596  -8.452   1.494  1.00  0.00     0.039 A 
ATOM     37  C   UNL     1       3.939  -8.300   1.867  1.00  0.00     0.014 A 
ATOM     38  C   UNL     1       2.005  -7.653   0.517  1.00  0.00     0.014 A 
ATOM     39  C   UNL     1       4.675  -7.282   1.330  1.00  0.00     0.010 A 
ATOM     40  C   UNL     1       2.769  -6.645  -0.064  1.00  0.00     0.010 A 
ATOM     41  C   UNL     1       4.090  -6.459   0.363  1.00  0.00    -0.014 A 
BRANCH  41  42
ATOM     42  C   UNL     1       5.035  -5.563  -0.280  1.00  0.00     0.031 A 
ATOM     43  C   UNL     1       6.142  -6.275  -0.989  1.00  0.00     0.074 A 
ATOM     44  C   UNL     1       4.938  -4.227  -0.269  1.00  0.00     0.049 A 
ATOM     45  N   UNL     1       7.416  -6.233  -0.758  1.00  0.00    -0.248 NA
ATOM     46  C   UNL     1       5.742  -7.276  -1.993  1.00  0.00     0.031 C 
ATOM     47  C   UNL     1       3.807  -3.386   0.110  1.00  0.00     0.029 A 
ATOM     48  N   UNL     1       5.860  -3.336  -0.712  1.00  0.00    -0.354 N 
ATOM     49  C   UNL     1       7.995  -7.110  -1.673  1.00  0.00     0.074 A 
ATOM     50  C   UNL     1       6.916  -7.813  -2.318  1.00  0.00     0.031 C 
ATOM     51  C   UNL     1       4.026  -2.135  -0.358  1.00  0.00     0.029 A 
ATOM     52  C   UNL     1       5.351  -2.077  -0.957  1.00  0.00     0.049 A 
ATOM     53  H   UNL     1       6.808  -3.567  -0.847  1.00  0.00     0.167 HD
ATOM     54  C   UNL     1       9.322  -7.102  -1.973  1.00  0.00     0.037 A 
ATOM     55  C   UNL     1       5.946  -1.139  -1.732  1.00  0.00     0.037 A 
ATOM     56  C   UNL     1      10.111  -6.460  -0.964  1.00  0.00     0.049 A 
ATOM     57  C   UNL     1       7.394  -1.489  -1.835  1.00  0.00     0.074 A 
ATOM     58  C   UNL     1      10.360  -6.725   0.370  1.00  0.00     0.029 A 
ATOM     59  N   UNL     1      10.512  -5.161  -1.159  1.00  0.00    -0.354 N 
ATOM     60  N   UNL     1       8.232  -1.441  -0.835  1.00  0.00    -0.248 NA
ATOM     61  C   UNL     1       7.808  -2.330  -2.952  1.00  0.00     0.031 C 
ATOM     62  C   UNL     1      10.391  -5.446   0.998  1.00  0.00     0.029 A 
ATOM     63  C   UNL     1      10.205  -4.490  -0.001  1.00  0.00     0.049 A 
ATOM     64  H   UNL     1      10.935  -4.787  -1.965  1.00  0.00     0.167 HD
ATOM     65  C   UNL     1       9.074  -2.531  -1.016  1.00  0.00     0.074 A 
ATOM     66  C   UNL     1       8.809  -2.998  -2.373  1.00  0.00     0.031 C 
ATOM     67  C   UNL     1       9.709  -3.134   0.033  1.00  0.00     0.037 A 
BRANCH  54  68
ATOM     68  C   UNL     1       9.850  -7.464  -3.331  1.00  0.00     0.064 A 
ATOM     69  C   UNL     1      11.209  -7.769  -3.518  1.00  0.00     0.173 A 
ATOM     70  C   UNL     1       9.092  -7.280  -4.508  1.00  0.00     0.173 A 
ATOM     71  F   UNL     1      12.030  -7.905  -2.466  1.00  0.00    -0.203 F 
ATOM     72  C   UNL     1      11.767  -7.872  -4.797  1.00  0.00     0.198 A 
ATOM     73  C   UNL     1       9.636  -7.442  -5.779  1.00  0.00     0.198 A 
ATOM     74  F   UNL     1       7.828  -6.837  -4.467  1.00  0.00    -0.203 F 
ATOM     75  F   UNL     1      13.085  -8.072  -4.934  1.00  0.00    -0.200 F 
ATOM     76  C   UNL     1      10.978  -7.717  -5.924  1.00  0.00     0.200 A 
ATOM     77  F   UNL     1       8.859  -7.261  -6.856  1.00  0.00    -0.200 F 
ATOM     78  F   UNL     1      11.518  -7.782  -7.148  1.00  0.00    -0.200 F 
ENDBRANCH  54  68
BRANCH  55  79
ATOM     79  C   UNL     1       5.255  -0.245  -2.694  1.00  0.00     0.064 A 
ATOM     80  C   UNL     1       5.907   0.865  -3.251  1.00  0.00     0.173 A 
ATOM     81  C   UNL     1       4.015  -0.593  -3.272  1.00  0.00     0.173 A 
ATOM     82  F   UNL     1       7.118   1.228  -2.804  1.00  0.00    -0.203 F 
ATOM     83  C   UNL     1       5.353   1.582  -4.318  1.00  0.00     0.198 A 
ATOM     84  C   UNL     1       3.455   0.132  -4.323  1.00  0.00     0.198 A 
ATOM     85  F   UNL     1       3.358  -1.698  -2.894  1.00  0.00    -0.203 F 
ATOM     86  F   UNL     1       6.029   2.604  -4.859  1.00  0.00    -0.200 F 
ATOM     87  C   UNL     1       4.129   1.214  -4.853  1.00  0.00     0.200 A 
ATOM     88  F   UNL     1       2.288  -0.262  -4.852  1.00  0.00    -0.200 F 
ATOM     89  F   UNL     1       3.618   1.873  -5.902  1.00  0.00    -0.200 F 
ENDBRANCH  55  79
BRANCH  67  90
ATOM     90  C   UNL     1       9.637  -2.485   1.386  1.00  0.00     0.064 A 
ATOM     91  C   UNL     1       8.431  -2.284   2.081  1.00  0.00     0.173 A 
ATOM     92  C   UNL     1      10.828  -2.247   2.086  1.00  0.00     0.173 A 
ATOM     93  F   UNL     1       7.255  -2.599   1.525  1.00  0.00    -0.203 F 
ATOM     94  C   UNL     1       8.420  -1.832   3.399  1.00  0.00     0.198 A 
ATOM     95  C   UNL     1      10.815  -1.832   3.416  1.00  0.00     0.198 A 
ATOM     96  F   UNL     1      12.012  -2.483   1.498  1.00  0.00    -0.203 F 
ATOM     97  F   UNL     1       7.254  -1.652   4.037  1.00  0.00    -0.200 F 
ATOM     98  C   UNL     1       9.612  -1.617   4.069  1.00  0.00     0.200 A 
ATOM     99  F   UNL     1      11.971  -1.680   4.078  1.00  0.00    -0.200 F 
ATOM    100  F   UNL     1       9.602  -1.238   5.355  1.00  0.00    -0.200 F 
ENDBRANCH  67  90
ENDBRANCH  41  42
ENDBRANCH  33  36
ENDBRANCH  31  32
ENDBRANCH  30  31
ENDBRANCH   1  30
TORSDOF 14
