REMARK SMILES CC1(C)CCN(C(=O)[C@@H]([NH3+])CC(=O)NCCCCNC(=O)c2ccc(-c3c4nc(c(-c5c(F)c(F)c(F)c(F)c5F)c5ccc([nH]5)c(-c5c(F)c(F)c(F)c(F)c5F)c5nc(c(-c6c(F)c(F)c(F)c(F)c6F)c6ccc3[nH]6)C=C5)C=C4)cc2)C1
REMARK SMILES IDX 16 1 15 2 14 3 12 4 13 5 11 7 9 8 7 9 8 10 6 11 1 12 2 13
REMARK SMILES IDX 3 14 4 15 85 16 5 17 10 18 17 22 18 23 19 24 20 25 21 27
REMARK SMILES IDX 22 28 23 29 84 30 24 31 83 32 25 33 26 34 27 35 77 36 28 37
REMARK SMILES IDX 82 38 76 39 78 40 29 41 81 42 75 43 74 44 30 46 62 47 42 48
REMARK SMILES IDX 61 49 43 50 46 51 60 52 79 53 44 54 45 55 59 57 80 58 47 59
REMARK SMILES IDX 31 60 32 61 40 62 33 63 34 64 38 65 41 66 35 67 36 68 39 69
REMARK SMILES IDX 37 70 63 71 64 72 72 73 65 74 66 75 70 76 73 77 67 78 68 79
REMARK SMILES IDX 71 80 69 81 48 82 49 83 57 84 50 85 51 86 55 87 58 88 52 89
REMARK SMILES IDX 53 90 56 91 54 92
REMARK H PARENT 14 6 10 19 10 20 10 21 19 26 78 45 46 56
REMARK Flexibility Score: inf
ROOT
ATOM      1  C   UNL     1       4.413   0.344   1.053  1.00  0.00     0.023 C 
ENDROOT
BRANCH   1   2
ATOM      2  C   UNL     1       3.538   1.064   2.079  1.00  0.00     0.116 C 
BRANCH   2   3
ATOM      3  N   UNL     1       3.909   2.462   2.165  1.00  0.00    -0.356 N 
ATOM      4  C   UNL     1       3.334   3.548   1.577  1.00  0.00     0.226 C 
ATOM      5  O   UNL     1       3.909   4.633   1.661  1.00  0.00    -0.275 OA
ATOM      6  H   UNL     1       4.691   2.656   2.731  1.00  0.00     0.163 HD
BRANCH   4   7
ATOM      7  C   UNL     1       2.003   3.423   0.867  1.00  0.00     0.175 C 
BRANCH   7   8
ATOM      8  C   UNL     1       2.169   3.086  -0.616  1.00  0.00     0.280 C 
BRANCH   8   9
ATOM      9  C   UNL     1       2.112   1.571  -0.942  1.00  0.00     0.281 C 
ATOM     10  O   UNL     1       3.051   1.061  -1.565  1.00  0.00    -0.268 OA
BRANCH   9  11
ATOM     11  N   UNL     1       1.038   0.800  -0.552  1.00  0.00    -0.337 N 
ATOM     12  C   UNL     1      -1.764   0.026  -1.751  1.00  0.00     0.013 C 
ATOM     13  C   UNL     1      -1.203   0.036  -0.320  1.00  0.00    -0.016 C 
ATOM     14  C   UNL     1      -2.355   0.010   0.683  1.00  0.00     0.013 C 
ATOM     15  C   UNL     1      -0.232  -1.135  -0.103  1.00  0.00     0.030 C 
ATOM     16  C   UNL     1      -0.278   1.248  -0.101  1.00  0.00     0.126 C 
ATOM     17  C   UNL     1       1.052  -0.643  -0.751  1.00  0.00     0.120 C 
ENDBRANCH   9  11
ENDBRANCH   8   9
BRANCH   8  18
ATOM     18  N   UNL     1       1.165   3.787  -1.453  1.00  0.00    -0.347 N 
ATOM     19  H   UNL     1       0.231   3.450  -1.217  1.00  0.00     0.345 HD
ATOM     20  H   UNL     1       1.354   3.602  -2.438  1.00  0.00     0.345 HD
ATOM     21  H   UNL     1       1.218   4.791  -1.279  1.00  0.00     0.345 HD
ENDBRANCH   8  18
ENDBRANCH   7   8
ENDBRANCH   4   7
ENDBRANCH   2   3
ENDBRANCH   1   2
BRANCH   1  22
ATOM     22  C   UNL     1       5.530  -0.507   1.643  1.00  0.00     0.023 C 
BRANCH  22  23
ATOM     23  C   UNL     1       5.053  -1.682   2.488  1.00  0.00     0.116 C 
BRANCH  23  24
ATOM     24  N   UNL     1       4.183  -2.622   1.792  1.00  0.00    -0.352 N 
ATOM     25  C   UNL     1       4.049  -3.976   2.010  1.00  0.00     0.251 C 
ATOM     26  H   UNL     1       3.622  -2.242   1.077  1.00  0.00     0.163 HD
ATOM     27  O   UNL     1       3.294  -4.655   1.327  1.00  0.00    -0.269 OA
BRANCH  25  28
ATOM     28  C   UNL     1       4.891  -4.607   3.047  1.00  0.00     0.039 A 
ATOM     29  C   UNL     1       5.705  -5.683   2.687  1.00  0.00     0.014 A 
ATOM     30  C   UNL     1       4.967  -4.055   4.327  1.00  0.00     0.014 A 
ATOM     31  C   UNL     1       6.674  -6.138   3.583  1.00  0.00     0.010 A 
ATOM     32  C   UNL     1       5.989  -4.449   5.181  1.00  0.00     0.010 A 
ATOM     33  C   UNL     1       6.861  -5.485   4.812  1.00  0.00    -0.014 A 
BRANCH  33  34
ATOM     34  C   UNL     1       7.980  -5.849   5.718  1.00  0.00     0.031 A 
ATOM     35  C   UNL     1       7.692  -6.370   7.096  1.00  0.00     0.074 A 
ATOM     36  C   UNL     1       9.251  -5.620   5.333  1.00  0.00     0.049 A 
ATOM     37  N   UNL     1       8.525  -6.658   8.064  1.00  0.00    -0.248 NA
ATOM     38  C   UNL     1       6.276  -6.553   7.449  1.00  0.00     0.031 C 
ATOM     39  C   UNL     1       9.659  -5.045   4.050  1.00  0.00     0.029 A 
ATOM     40  N   UNL     1      10.436  -5.832   5.992  1.00  0.00    -0.354 N 
ATOM     41  C   UNL     1       7.735  -7.029   9.143  1.00  0.00     0.074 A 
ATOM     42  C   UNL     1       6.356  -6.878   8.730  1.00  0.00     0.031 C 
ATOM     43  C   UNL     1      10.999  -4.976   4.004  1.00  0.00     0.029 A 
ATOM     44  C   UNL     1      11.544  -5.472   5.264  1.00  0.00     0.049 A 
ATOM     45  H   UNL     1      10.488  -6.207   6.901  1.00  0.00     0.167 HD
ATOM     46  C   UNL     1       8.123  -7.479  10.359  1.00  0.00     0.037 A 
ATOM     47  C   UNL     1      12.852  -5.539   5.577  1.00  0.00     0.037 A 
ATOM     48  C   UNL     1       9.493  -7.673  10.750  1.00  0.00     0.049 A 
ATOM     49  C   UNL     1      13.259  -6.091   6.915  1.00  0.00     0.074 A 
ATOM     50  C   UNL     1       9.989  -8.203  11.928  1.00  0.00     0.029 A 
ATOM     51  N   UNL     1      10.589  -7.347   9.964  1.00  0.00    -0.354 N 
ATOM     52  N   UNL     1      12.503  -6.513   7.899  1.00  0.00    -0.248 NA
ATOM     53  C   UNL     1      14.701  -6.184   7.183  1.00  0.00     0.031 C 
ATOM     54  C   UNL     1      11.386  -8.170  11.868  1.00  0.00     0.029 A 
ATOM     55  C   UNL     1      11.761  -7.654  10.637  1.00  0.00     0.049 A 
ATOM     56  H   UNL     1      10.542  -6.956   9.062  1.00  0.00     0.167 HD
ATOM     57  C   UNL     1      13.374  -6.942   8.891  1.00  0.00     0.074 A 
ATOM     58  C   UNL     1      14.716  -6.743   8.384  1.00  0.00     0.031 C 
ATOM     59  C   UNL     1      13.087  -7.454  10.113  1.00  0.00     0.037 A 
BRANCH  46  60
ATOM     60  C   UNL     1       7.043  -7.805  11.348  1.00  0.00     0.064 A 
ATOM     61  C   UNL     1       6.205  -8.917  11.179  1.00  0.00     0.173 A 
ATOM     62  C   UNL     1       6.853  -7.004  12.483  1.00  0.00     0.173 A 
ATOM     63  F   UNL     1       6.337  -9.705  10.101  1.00  0.00    -0.203 F 
ATOM     64  C   UNL     1       5.192  -9.196  12.093  1.00  0.00     0.198 A 
ATOM     65  C   UNL     1       5.858  -7.303  13.411  1.00  0.00     0.198 A 
ATOM     66  F   UNL     1       7.629  -5.931  12.693  1.00  0.00    -0.203 F 
ATOM     67  F   UNL     1       4.368 -10.231  11.881  1.00  0.00    -0.200 F 
ATOM     68  C   UNL     1       5.023  -8.392  13.210  1.00  0.00     0.200 A 
ATOM     69  F   UNL     1       5.700  -6.531  14.495  1.00  0.00    -0.200 F 
ATOM     70  F   UNL     1       4.048  -8.662  14.089  1.00  0.00    -0.200 F 
ENDBRANCH  46  60
BRANCH  47  71
ATOM     71  C   UNL     1      13.873  -5.112   4.587  1.00  0.00     0.064 A 
ATOM     72  C   UNL     1      14.667  -6.059   3.925  1.00  0.00     0.173 A 
ATOM     73  C   UNL     1      14.074  -3.760   4.278  1.00  0.00     0.173 A 
ATOM     74  F   UNL     1      14.524  -7.363   4.204  1.00  0.00    -0.203 F 
ATOM     75  C   UNL     1      15.636  -5.668   3.004  1.00  0.00     0.198 A 
ATOM     76  C   UNL     1      15.027  -3.371   3.339  1.00  0.00     0.198 A 
ATOM     77  F   UNL     1      13.335  -2.816   4.881  1.00  0.00    -0.203 F 
ATOM     78  F   UNL     1      16.407  -6.592   2.414  1.00  0.00    -0.200 F 
ATOM     79  C   UNL     1      15.812  -4.325   2.707  1.00  0.00     0.200 A 
ATOM     80  F   UNL     1      15.188  -2.074   3.047  1.00  0.00    -0.200 F 
ATOM     81  F   UNL     1      16.741  -3.950   1.818  1.00  0.00    -0.200 F 
ENDBRANCH  47  71
BRANCH  59  82
ATOM     82  C   UNL     1      14.245  -7.858  10.975  1.00  0.00     0.064 A 
ATOM     83  C   UNL     1      15.053  -6.905  11.611  1.00  0.00     0.173 A 
ATOM     84  C   UNL     1      14.524  -9.215  11.197  1.00  0.00     0.173 A 
ATOM     85  F   UNL     1      14.834  -5.596  11.415  1.00  0.00    -0.203 F 
ATOM     86  C   UNL     1      16.114  -7.296  12.423  1.00  0.00     0.198 A 
ATOM     87  C   UNL     1      15.570  -9.602  12.030  1.00  0.00     0.198 A 
ATOM     88  F   UNL     1      13.776 -10.164  10.615  1.00  0.00    -0.203 F 
ATOM     89  F   UNL     1      16.899  -6.369  12.989  1.00  0.00    -0.200 F 
ATOM     90  C   UNL     1      16.367  -8.643  12.638  1.00  0.00     0.200 A 
ATOM     91  F   UNL     1      15.807 -10.903  12.245  1.00  0.00    -0.200 F 
ATOM     92  F   UNL     1      17.385  -9.018  13.425  1.00  0.00    -0.200 F 
ENDBRANCH  59  82
ENDBRANCH  33  34
ENDBRANCH  25  28
ENDBRANCH  23  24
ENDBRANCH  22  23
ENDBRANCH   1  22
TORSDOF 15
