REMARK SMILES Cc1oc2c(c1C(=O)NCCCC(=O)NCCCCNC(=O)c1ccc(-c3c4nc(c(-c5c(F)c(F)c(F)c(F)c5F)c5ccc([nH]5)c(-c5c(F)c(F)c(F)c(F)c5F)c5nc(c(-c6c(F)c(F)c(F)c(F)c6F)c6ccc3[nH]6)C=C5)C=C4)cc1)CCCC2
REMARK SMILES IDX 16 1 15 2 13 3 14 4 12 6 11 7 10 8 9 9 7 10 8 11 6 13 1 14
REMARK SMILES IDX 2 15 3 16 4 17 5 18 89 19 86 20 88 21 87 22 17 23 18 24
REMARK SMILES IDX 19 25 20 26 21 27 22 29 23 30 24 31 85 32 25 33 84 34 26 35
REMARK SMILES IDX 27 36 28 37 78 38 29 39 83 40 77 41 79 42 30 43 82 44 76 45
REMARK SMILES IDX 75 46 31 48 63 49 43 50 62 51 44 52 47 53 61 54 80 55 45 56
REMARK SMILES IDX 46 57 60 59 81 60 48 61 32 62 33 63 41 64 34 65 35 66 39 67
REMARK SMILES IDX 42 68 36 69 37 70 40 71 38 72 64 73 65 74 73 75 66 76 67 77
REMARK SMILES IDX 71 78 74 79 68 80 69 81 72 82 70 83 49 84 50 85 58 86 51 87
REMARK SMILES IDX 52 88 56 89 59 90 53 91 54 92 57 93 55 94
REMARK H PARENT 15 5 9 12 20 28 79 47 47 58
REMARK Flexibility Score: inf
ROOT
ATOM      1  C   UNL     1       0.714   3.373   2.948  1.00  0.00     0.116 C 
ENDROOT
BRANCH   1   2
ATOM      2  N   UNL     1       0.428   4.362   1.924  1.00  0.00    -0.356 N 
ATOM      3  C   UNL     1      -0.650   4.503   1.103  1.00  0.00     0.220 C 
ATOM      4  O   UNL     1      -0.585   5.347   0.207  1.00  0.00    -0.275 OA
ATOM      5  H   UNL     1       1.129   5.042   1.802  1.00  0.00     0.163 HD
BRANCH   3   6
ATOM      6  C   UNL     1      -1.910   3.678   1.300  1.00  0.00     0.102 C 
BRANCH   6   7
ATOM      7  C   UNL     1      -2.031   2.444   0.400  1.00  0.00     0.031 C 
BRANCH   7   8
ATOM      8  C   UNL     1      -1.198   1.230   0.801  1.00  0.00     0.116 C 
BRANCH   8   9
ATOM      9  N   UNL     1      -1.394   0.770   2.153  1.00  0.00    -0.352 N 
ATOM     10  C   UNL     1      -0.879  -0.305   2.833  1.00  0.00     0.255 C 
ATOM     11  O   UNL     1      -1.147  -0.334   4.038  1.00  0.00    -0.269 OA
ATOM     12  H   UNL     1      -2.008   1.327   2.684  1.00  0.00     0.163 HD
BRANCH  10  13
ATOM     13  C   UNL     1      -0.144  -1.404   2.201  1.00  0.00     0.084 A 
ATOM     14  C   UNL     1       1.295  -0.584   0.081  1.00  0.00     0.088 C 
ATOM     15  C   UNL     1       0.684  -1.484   1.076  1.00  0.00     0.114 A 
ATOM     16  O   UNL     1       1.063  -2.778   0.845  1.00  0.00    -0.465 OA
ATOM     17  C   UNL     1       0.563  -3.519   1.841  1.00  0.00     0.108 A 
ATOM     18  C   UNL     1      -0.119  -2.745   2.743  1.00  0.00     0.007 A 
ATOM     19  C   UNL     1       0.812  -4.973   1.867  1.00  0.00     0.076 C 
ATOM     20  C   UNL     1      -0.721  -3.346   3.973  1.00  0.00     0.040 C 
ATOM     21  C   UNL     1      -0.128  -5.611   2.904  1.00  0.00     0.008 C 
ATOM     22  C   UNL     1      -0.193  -4.784   4.205  1.00  0.00     0.005 C 
ENDBRANCH  10  13
ENDBRANCH   8   9
ENDBRANCH   7   8
ENDBRANCH   6   7
ENDBRANCH   3   6
ENDBRANCH   1   2
BRANCH   1  23
ATOM     23  C   UNL     1       1.789   2.389   2.474  1.00  0.00     0.023 C 
BRANCH  23  24
ATOM     24  C   UNL     1       3.247   2.845   2.555  1.00  0.00     0.023 C 
BRANCH  24  25
ATOM     25  C   UNL     1       3.776   3.037   3.965  1.00  0.00     0.116 C 
BRANCH  25  26
ATOM     26  N   UNL     1       3.804   1.805   4.751  1.00  0.00    -0.352 N 
ATOM     27  C   UNL     1       4.085   1.690   6.104  1.00  0.00     0.251 C 
ATOM     28  H   UNL     1       3.603   0.970   4.270  1.00  0.00     0.163 HD
ATOM     29  O   UNL     1       4.506   0.656   6.593  1.00  0.00    -0.269 OA
BRANCH  27  30
ATOM     30  C   UNL     1       3.836   2.872   6.946  1.00  0.00     0.039 A 
ATOM     31  C   UNL     1       4.770   3.323   7.882  1.00  0.00     0.014 A 
ATOM     32  C   UNL     1       2.660   3.576   6.699  1.00  0.00     0.014 A 
ATOM     33  C   UNL     1       4.544   4.548   8.504  1.00  0.00     0.010 A 
ATOM     34  C   UNL     1       2.528   4.851   7.178  1.00  0.00     0.010 A 
ATOM     35  C   UNL     1       3.431   5.319   8.124  1.00  0.00    -0.014 A 
BRANCH  35  36
ATOM     36  C   UNL     1       3.267   6.690   8.593  1.00  0.00     0.031 A 
ATOM     37  C   UNL     1       4.439   7.566   8.318  1.00  0.00     0.074 A 
ATOM     38  C   UNL     1       2.082   7.179   9.021  1.00  0.00     0.049 A 
ATOM     39  N   UNL     1       5.240   8.095   9.181  1.00  0.00    -0.248 NA
ATOM     40  C   UNL     1       4.868   7.753   6.921  1.00  0.00     0.031 C 
ATOM     41  C   UNL     1       0.773   6.517   9.038  1.00  0.00     0.029 A 
ATOM     42  N   UNL     1       1.776   8.435   9.449  1.00  0.00    -0.354 N 
ATOM     43  C   UNL     1       6.144   8.861   8.450  1.00  0.00     0.074 A 
ATOM     44  C   UNL     1       5.994   8.453   7.079  1.00  0.00     0.031 C 
ATOM     45  C   UNL     1      -0.203   7.434   9.222  1.00  0.00     0.029 A 
ATOM     46  C   UNL     1       0.412   8.715   9.509  1.00  0.00     0.049 A 
ATOM     47  H   UNL     1       2.464   9.093   9.697  1.00  0.00     0.167 HD
ATOM     48  C   UNL     1       6.731   9.954   9.013  1.00  0.00     0.037 A 
ATOM     49  C   UNL     1      -0.155   9.925   9.752  1.00  0.00     0.037 A 
ATOM     50  C   UNL     1       6.626   9.899  10.454  1.00  0.00     0.049 A 
ATOM     51  C   UNL     1       0.885  10.770  10.395  1.00  0.00     0.074 A 
ATOM     52  C   UNL     1       7.021   8.993  11.421  1.00  0.00     0.029 A 
ATOM     53  N   UNL     1       5.676  10.685  11.060  1.00  0.00    -0.354 N 
ATOM     54  N   UNL     1       1.353  10.551  11.592  1.00  0.00    -0.248 NA
ATOM     55  C   UNL     1       1.742  11.551   9.517  1.00  0.00     0.031 C 
ATOM     56  C   UNL     1       5.938   8.950  12.350  1.00  0.00     0.029 A 
ATOM     57  C   UNL     1       4.995   9.898  11.953  1.00  0.00     0.049 A 
ATOM     58  H   UNL     1       5.513  11.640  10.886  1.00  0.00     0.167 HD
ATOM     59  C   UNL     1       2.718  10.757  11.472  1.00  0.00     0.074 A 
ATOM     60  C   UNL     1       2.891  11.438  10.189  1.00  0.00     0.031 C 
ATOM     61  C   UNL     1       3.601  10.090  12.271  1.00  0.00     0.037 A 
BRANCH  48  62
ATOM     62  C   UNL     1       7.010  11.251   8.280  1.00  0.00     0.064 A 
ATOM     63  C   UNL     1       7.629  12.305   8.985  1.00  0.00     0.173 A 
ATOM     64  C   UNL     1       6.423  11.618   7.048  1.00  0.00     0.173 A 
ATOM     65  F   UNL     1       8.222  12.082  10.168  1.00  0.00    -0.203 F 
ATOM     66  C   UNL     1       7.560  13.631   8.550  1.00  0.00     0.198 A 
ATOM     67  C   UNL     1       6.402  12.935   6.592  1.00  0.00     0.198 A 
ATOM     68  F   UNL     1       5.752  10.753   6.282  1.00  0.00    -0.203 F 
ATOM     69  F   UNL     1       8.033  14.612   9.331  1.00  0.00    -0.200 F 
ATOM     70  C   UNL     1       6.935  13.947   7.359  1.00  0.00     0.200 A 
ATOM     71  F   UNL     1       5.779  13.220   5.440  1.00  0.00    -0.200 F 
ATOM     72  F   UNL     1       6.802  15.223   6.975  1.00  0.00    -0.200 F 
ENDBRANCH  48  62
BRANCH  49  73
ATOM     73  C   UNL     1      -1.400  10.515   9.197  1.00  0.00     0.064 A 
ATOM     74  C   UNL     1      -1.939  11.696   9.740  1.00  0.00     0.173 A 
ATOM     75  C   UNL     1      -1.903  10.121   7.943  1.00  0.00     0.173 A 
ATOM     76  F   UNL     1      -1.492  12.164  10.915  1.00  0.00    -0.203 F 
ATOM     77  C   UNL     1      -2.885  12.461   9.049  1.00  0.00     0.198 A 
ATOM     78  C   UNL     1      -2.852  10.883   7.256  1.00  0.00     0.198 A 
ATOM     79  F   UNL     1      -1.412   9.046   7.311  1.00  0.00    -0.203 F 
ATOM     80  F   UNL     1      -3.316  13.620   9.566  1.00  0.00    -0.200 F 
ATOM     81  C   UNL     1      -3.328  12.062   7.800  1.00  0.00     0.200 A 
ATOM     82  F   UNL     1      -3.248  10.505   6.032  1.00  0.00    -0.200 F 
ATOM     83  F   UNL     1      -4.177  12.831   7.103  1.00  0.00    -0.200 F 
ENDBRANCH  49  73
BRANCH  61  84
ATOM     84  C   UNL     1       3.055   9.333  13.451  1.00  0.00     0.064 A 
ATOM     85  C   UNL     1       2.136   8.271  13.366  1.00  0.00     0.173 A 
ATOM     86  C   UNL     1       3.583   9.621  14.717  1.00  0.00     0.173 A 
ATOM     87  F   UNL     1       1.660   7.860  12.184  1.00  0.00    -0.203 F 
ATOM     88  C   UNL     1       1.728   7.572  14.502  1.00  0.00     0.198 A 
ATOM     89  C   UNL     1       3.205   8.896  15.843  1.00  0.00     0.198 A 
ATOM     90  F   UNL     1       4.504  10.587  14.855  1.00  0.00    -0.203 F 
ATOM     91  F   UNL     1       0.833   6.578  14.396  1.00  0.00    -0.200 F 
ATOM     92  C   UNL     1       2.268   7.882  15.739  1.00  0.00     0.200 A 
ATOM     93  F   UNL     1       3.769   9.168  17.027  1.00  0.00    -0.200 F 
ATOM     94  F   UNL     1       1.903   7.189  16.826  1.00  0.00    -0.200 F 
ENDBRANCH  61  84
ENDBRANCH  35  36
ENDBRANCH  27  30
ENDBRANCH  25  26
ENDBRANCH  24  25
ENDBRANCH  23  24
ENDBRANCH   1  23
TORSDOF 15
