REMARK SMILES C[C@H](C[NH3+])CS/C=C/C(=O)NCCCCNC(=O)c1ccc(-c2c3nc(c(-c4c(F)c(F)c(F)c(F)c4F)c4ccc([nH]4)c(-c4c(F)c(F)c(F)c(F)c4F)c4nc(c(-c5c(F)c(F)c(F)c(F)c5F)c5ccc2[nH]5)C=C4)C=C3)cc1
REMARK SMILES IDX 12 1 11 2 9 3 10 4 8 6 7 7 6 8 5 9 2 10 1 11 3 12 4 13 13 17
REMARK SMILES IDX 14 18 15 19 16 20 17 21 18 23 19 24 20 25 81 26 21 27 80 28
REMARK SMILES IDX 22 29 23 30 24 31 74 32 25 33 79 34 73 35 75 36 26 37 78 38
REMARK SMILES IDX 72 39 71 40 27 42 59 43 39 44 58 45 40 46 43 47 57 48 76 49
REMARK SMILES IDX 41 50 42 51 56 53 77 54 44 55 28 56 29 57 37 58 30 59 31 60
REMARK SMILES IDX 35 61 38 62 32 63 33 64 36 65 34 66 60 67 61 68 69 69 62 70
REMARK SMILES IDX 63 71 67 72 70 73 64 74 65 75 68 76 66 77 45 78 46 79 54 80
REMARK SMILES IDX 47 81 48 82 52 83 55 84 49 85 50 86 53 87 51 88
REMARK H PARENT 11 5 4 14 4 15 4 16 16 22 75 41 43 52
REMARK Flexibility Score: inf
ROOT
ATOM      1  C   UNL     1      -1.081   4.046   2.057  1.00  0.00     0.116 C 
ENDROOT
BRANCH   1   2
ATOM      2  N   UNL     1      -0.287   2.960   2.596  1.00  0.00    -0.353 N 
ATOM      3  C   UNL     1      -0.384   1.625   2.368  1.00  0.00     0.244 C 
ATOM      4  O   UNL     1       0.251   0.835   3.063  1.00  0.00    -0.270 OA
ATOM      5  H   UNL     1       0.427   3.229   3.217  1.00  0.00     0.163 HD
BRANCH   3   6
ATOM      6  C   UNL     1      -1.260   1.093   1.303  1.00  0.00     0.078 C 
ATOM      7  C   UNL     1      -1.145   1.510   0.035  1.00  0.00     0.046 C 
BRANCH   7   8
ATOM      8  S   UNL     1      -1.876   0.696  -1.296  1.00  0.00    -0.133 SA
BRANCH   8   9
ATOM      9  C   UNL     1      -1.015  -0.922  -1.273  1.00  0.00     0.083 C 
BRANCH   9  10
ATOM     10  C   UNL     1       0.521  -0.890  -1.453  1.00  0.00     0.051 C 
ATOM     11  C   UNL     1       0.988  -2.237  -2.025  1.00  0.00     0.014 C 
BRANCH  10  12
ATOM     12  C   UNL     1       1.341  -0.568  -0.184  1.00  0.00     0.262 C 
BRANCH  12  13
ATOM     13  N   UNL     1       1.119  -1.480   0.934  1.00  0.00    -0.357 N 
ATOM     14  H   UNL     1       0.146  -1.420   1.234  1.00  0.00     0.344 HD
ATOM     15  H   UNL     1       1.730  -1.221   1.710  1.00  0.00     0.344 HD
ATOM     16  H   UNL     1       1.327  -2.434   0.641  1.00  0.00     0.344 HD
ENDBRANCH  12  13
ENDBRANCH  10  12
ENDBRANCH   9  10
ENDBRANCH   8   9
ENDBRANCH   7   8
ENDBRANCH   3   6
ENDBRANCH   1   2
BRANCH   1  17
ATOM     17  C   UNL     1      -2.417   4.178   2.782  1.00  0.00     0.023 C 
BRANCH  17  18
ATOM     18  C   UNL     1      -2.320   4.828   4.164  1.00  0.00     0.023 C 
BRANCH  18  19
ATOM     19  C   UNL     1      -1.648   6.197   4.189  1.00  0.00     0.116 C 
BRANCH  19  20
ATOM     20  N   UNL     1      -2.183   7.123   3.202  1.00  0.00    -0.352 N 
ATOM     21  C   UNL     1      -2.283   8.489   3.275  1.00  0.00     0.251 C 
ATOM     22  H   UNL     1      -2.517   6.715   2.371  1.00  0.00     0.163 HD
ATOM     23  O   UNL     1      -2.851   9.121   2.390  1.00  0.00    -0.269 OA
BRANCH  21  24
ATOM     24  C   UNL     1      -1.729   9.191   4.448  1.00  0.00     0.039 A 
ATOM     25  C   UNL     1      -2.529  10.126   5.107  1.00  0.00     0.014 A 
ATOM     26  C   UNL     1      -0.437   8.914   4.901  1.00  0.00     0.014 A 
ATOM     27  C   UNL     1      -2.044  10.757   6.251  1.00  0.00     0.010 A 
ATOM     28  C   UNL     1       0.015   9.485   6.085  1.00  0.00     0.010 A 
ATOM     29  C   UNL     1      -0.777  10.425   6.761  1.00  0.00    -0.014 A 
BRANCH  29  30
ATOM     30  C   UNL     1      -0.258  11.084   7.983  1.00  0.00     0.031 A 
ATOM     31  C   UNL     1       0.950  11.975   7.898  1.00  0.00     0.074 A 
ATOM     32  C   UNL     1      -0.852  10.850   9.168  1.00  0.00     0.049 A 
ATOM     33  N   UNL     1       1.561  12.634   8.849  1.00  0.00    -0.248 NA
ATOM     34  C   UNL     1       1.574  12.123   6.573  1.00  0.00     0.031 C 
ATOM     35  C   UNL     1      -1.989   9.954   9.383  1.00  0.00     0.029 A 
ATOM     36  N   UNL     1      -0.579  11.345  10.418  1.00  0.00    -0.354 N 
ATOM     37  C   UNL     1       2.643  13.258   8.241  1.00  0.00     0.074 A 
ATOM     38  C   UNL     1       2.643  12.852   6.854  1.00  0.00     0.031 C 
ATOM     39  C   UNL     1      -2.335   9.985  10.680  1.00  0.00     0.029 A 
ATOM     40  C   UNL     1      -1.429  10.880  11.392  1.00  0.00     0.049 A 
ATOM     41  H   UNL     1       0.157  11.973  10.600  1.00  0.00     0.167 HD
ATOM     42  C   UNL     1       3.538  14.116   8.785  1.00  0.00     0.037 A 
ATOM     43  C   UNL     1      -1.472  11.155  12.709  1.00  0.00     0.037 A 
ATOM     44  C   UNL     1       3.511  14.541  10.160  1.00  0.00     0.049 A 
ATOM     45  C   UNL     1      -0.488  12.141  13.279  1.00  0.00     0.074 A 
ATOM     46  C   UNL     1       4.334  15.451  10.799  1.00  0.00     0.029 A 
ATOM     47  N   UNL     1       2.607  14.084  11.108  1.00  0.00    -0.354 N 
ATOM     48  N   UNL     1       0.481  12.788  12.678  1.00  0.00    -0.248 NA
ATOM     49  C   UNL     1      -0.619  12.452  14.709  1.00  0.00     0.031 C 
ATOM     50  C   UNL     1       3.955  15.513  12.144  1.00  0.00     0.029 A 
ATOM     51  C   UNL     1       2.861  14.684  12.330  1.00  0.00     0.049 A 
ATOM     52  H   UNL     1       1.892  13.429  10.937  1.00  0.00     0.167 HD
ATOM     53  C   UNL     1       1.051  13.606  13.644  1.00  0.00     0.074 A 
ATOM     54  C   UNL     1       0.306  13.387  14.866  1.00  0.00     0.031 C 
ATOM     55  C   UNL     1       2.097  14.463  13.531  1.00  0.00     0.037 A 
BRANCH  42  56
ATOM     56  C   UNL     1       4.615  14.658   7.891  1.00  0.00     0.064 A 
ATOM     57  C   UNL     1       4.328  15.561   6.856  1.00  0.00     0.173 A 
ATOM     58  C   UNL     1       5.956  14.299   8.093  1.00  0.00     0.173 A 
ATOM     59  F   UNL     1       3.061  15.926   6.609  1.00  0.00    -0.203 F 
ATOM     60  C   UNL     1       5.339  16.063   6.040  1.00  0.00     0.198 A 
ATOM     61  C   UNL     1       6.968  14.828   7.296  1.00  0.00     0.198 A 
ATOM     62  F   UNL     1       6.287  13.441   9.070  1.00  0.00    -0.203 F 
ATOM     63  F   UNL     1       5.034  16.884   5.026  1.00  0.00    -0.200 F 
ATOM     64  C   UNL     1       6.659  15.703   6.266  1.00  0.00     0.200 A 
ATOM     65  F   UNL     1       8.245  14.488   7.524  1.00  0.00    -0.200 F 
ATOM     66  F   UNL     1       7.632  16.194   5.486  1.00  0.00    -0.200 F 
ENDBRANCH  42  56
BRANCH  43  67
ATOM     67  C   UNL     1      -2.505  10.523  13.571  1.00  0.00     0.064 A 
ATOM     68  C   UNL     1      -3.540  11.283  14.134  1.00  0.00     0.173 A 
ATOM     69  C   UNL     1      -2.469   9.153  13.866  1.00  0.00     0.173 A 
ATOM     70  F   UNL     1      -3.609  12.601  13.895  1.00  0.00    -0.203 F 
ATOM     71  C   UNL     1      -4.479  10.705  14.986  1.00  0.00     0.198 A 
ATOM     72  C   UNL     1      -3.427   8.569  14.693  1.00  0.00     0.198 A 
ATOM     73  F   UNL     1      -1.506   8.378  13.346  1.00  0.00    -0.203 F 
ATOM     74  F   UNL     1      -5.423  11.467  15.555  1.00  0.00    -0.200 F 
ATOM     75  C   UNL     1      -4.424   9.347  15.261  1.00  0.00     0.200 A 
ATOM     76  F   UNL     1      -3.380   7.253  14.944  1.00  0.00    -0.200 F 
ATOM     77  F   UNL     1      -5.326   8.791  16.081  1.00  0.00    -0.200 F 
ENDBRANCH  43  67
BRANCH  55  78
ATOM     78  C   UNL     1       2.459  15.263  14.749  1.00  0.00     0.064 A 
ATOM     79  C   UNL     1       3.037  14.670  15.882  1.00  0.00     0.173 A 
ATOM     80  C   UNL     1       2.237  16.649  14.774  1.00  0.00     0.173 A 
ATOM     81  F   UNL     1       3.258  13.347  15.912  1.00  0.00    -0.203 F 
ATOM     82  C   UNL     1       3.340  15.428  17.009  1.00  0.00     0.198 A 
ATOM     83  C   UNL     1       2.574  17.409  15.890  1.00  0.00     0.198 A 
ATOM     84  F   UNL     1       1.697  17.267  13.713  1.00  0.00    -0.203 F 
ATOM     85  F   UNL     1       3.830  14.829  18.104  1.00  0.00    -0.200 F 
ATOM     86  C   UNL     1       3.114  16.796  17.011  1.00  0.00     0.200 A 
ATOM     87  F   UNL     1       2.370  18.733  15.884  1.00  0.00    -0.200 F 
ATOM     88  F   UNL     1       3.405  17.523  18.098  1.00  0.00    -0.200 F 
ENDBRANCH  55  78
ENDBRANCH  29  30
ENDBRANCH  21  24
ENDBRANCH  19  20
ENDBRANCH  18  19
ENDBRANCH  17  18
ENDBRANCH   1  17
TORSDOF 16
