REMARK SMILES C[C@H]1OCC[C@H]1C(=O)Nc1ccsc1C(=O)NCCCCNC(=O)c1ccc(-c2c3nc(c(-c4c(F)c(F)c(F)c(F)c4F)c4ccc([nH]4)c(-c4c(F)c(F)c(F)c(F)c4F)c4nc(c(-c5c(F)c(F)c(F)c(F)c5F)c5ccc2[nH]5)C=C4)C=C3)cc1
REMARK SMILES IDX 19 1 18 2 17 3 15 4 16 5 14 7 10 8 11 9 12 10 13 11 9 12
REMARK SMILES IDX 7 13 8 14 6 16 1 17 2 18 3 19 4 20 5 21 20 22 21 23 22 24
REMARK SMILES IDX 23 25 24 27 25 28 26 29 87 30 27 31 86 32 28 33 29 34 30 35
REMARK SMILES IDX 80 36 31 37 85 38 79 39 81 40 32 41 84 42 78 43 77 44 33 46
REMARK SMILES IDX 65 47 45 48 64 49 46 50 49 51 63 52 82 53 47 54 48 55 62 57
REMARK SMILES IDX 83 58 50 59 34 60 35 61 43 62 36 63 37 64 41 65 44 66 38 67
REMARK SMILES IDX 39 68 42 69 40 70 66 71 67 72 75 73 68 74 69 75 73 76 76 77
REMARK SMILES IDX 70 78 71 79 74 80 72 81 51 82 52 83 60 84 53 85 54 86 58 87
REMARK SMILES IDX 61 88 55 89 56 90 59 91 57 92
REMARK H PARENT 17 6 9 15 22 26 81 45 49 56
REMARK Flexibility Score: inf
ROOT
ATOM      1  C   UNL     1      -2.213  -3.204  -3.518  1.00  0.00     0.023 C 
ENDROOT
BRANCH   1   2
ATOM      2  C   UNL     1      -1.320  -1.975  -3.583  1.00  0.00     0.116 C 
BRANCH   2   3
ATOM      3  N   UNL     1      -1.641  -1.007  -4.599  1.00  0.00    -0.351 N 
ATOM      4  C   UNL     1      -1.368   0.343  -4.677  1.00  0.00     0.263 C 
ATOM      5  O   UNL     1      -1.771   0.870  -5.720  1.00  0.00    -0.268 OA
ATOM      6  H   UNL     1      -2.140  -1.369  -5.367  1.00  0.00     0.163 HD
BRANCH   4   7
ATOM      7  C   UNL     1      -0.697   1.100  -3.614  1.00  0.00     0.115 A 
ATOM      8  C   UNL     1       0.216   0.802  -2.603  1.00  0.00     0.065 A 
ATOM      9  C   UNL     1       0.606   1.965  -1.871  1.00  0.00     0.038 A 
ATOM     10  C   UNL     1      -0.051   3.101  -2.271  1.00  0.00     0.068 A 
ATOM     11  S   UNL     1      -1.125   2.785  -3.546  1.00  0.00    -0.137 S 
BRANCH   8  12
ATOM     12  N   UNL     1       0.846  -0.416  -2.452  1.00  0.00    -0.324 N 
ATOM     13  C   UNL     1       0.976  -1.243  -1.380  1.00  0.00     0.230 C 
ATOM     14  O   UNL     1       1.634  -2.275  -1.589  1.00  0.00    -0.274 OA
ATOM     15  H   UNL     1       1.283  -0.746  -3.270  1.00  0.00     0.169 HD
BRANCH  13  16
ATOM     16  C   UNL     1       0.310  -1.085  -0.010  1.00  0.00     0.110 C 
ATOM     17  C   UNL     1       2.477   0.050   0.812  1.00  0.00     0.039 C 
ATOM     18  C   UNL     1       0.988  -0.173   0.991  1.00  0.00     0.127 C 
ATOM     19  O   UNL     1       0.260   1.060   0.960  1.00  0.00    -0.378 OA
ATOM     20  C   UNL     1      -1.101   0.760   0.627  1.00  0.00     0.161 C 
ATOM     21  C   UNL     1      -1.139  -0.647   0.064  1.00  0.00     0.044 C 
ENDBRANCH  13  16
ENDBRANCH   8  12
ENDBRANCH   4   7
ENDBRANCH   2   3
ENDBRANCH   1   2
BRANCH   1  22
ATOM     22  C   UNL     1      -2.261  -4.049  -4.784  1.00  0.00     0.023 C 
BRANCH  22  23
ATOM     23  C   UNL     1      -0.915  -4.327  -5.443  1.00  0.00     0.116 C 
BRANCH  23  24
ATOM     24  N   UNL     1      -0.027  -5.163  -4.646  1.00  0.00    -0.352 N 
ATOM     25  C   UNL     1       0.386  -6.462  -4.856  1.00  0.00     0.251 C 
ATOM     26  H   UNL     1       0.332  -4.736  -3.835  1.00  0.00     0.163 HD
ATOM     27  O   UNL     1       1.064  -7.046  -4.022  1.00  0.00    -0.269 OA
BRANCH  25  28
ATOM     28  C   UNL     1      -0.044  -7.171  -6.080  1.00  0.00     0.039 A 
ATOM     29  C   UNL     1      -0.638  -8.430  -5.958  1.00  0.00     0.014 A 
ATOM     30  C   UNL     1       0.075  -6.568  -7.332  1.00  0.00     0.014 A 
ATOM     31  C   UNL     1      -1.227  -9.025  -7.076  1.00  0.00     0.010 A 
ATOM     32  C   UNL     1      -0.598  -7.112  -8.419  1.00  0.00     0.010 A 
ATOM     33  C   UNL     1      -1.273  -8.338  -8.299  1.00  0.00    -0.014 A 
BRANCH  33  34
ATOM     34  C   UNL     1      -2.037  -8.854  -9.465  1.00  0.00     0.031 A 
ATOM     35  C   UNL     1      -1.330  -9.126 -10.762  1.00  0.00     0.074 A 
ATOM     36  C   UNL     1      -3.379  -8.965  -9.393  1.00  0.00     0.049 A 
ATOM     37  N   UNL     1      -1.831  -9.407 -11.938  1.00  0.00    -0.248 NA
ATOM     38  C   UNL     1       0.139  -9.029 -10.743  1.00  0.00     0.031 C 
ATOM     39  C   UNL     1      -4.193  -8.683  -8.209  1.00  0.00     0.029 A 
ATOM     40  N   UNL     1      -4.299  -9.324 -10.347  1.00  0.00    -0.354 N 
ATOM     41  C   UNL     1      -0.746  -9.484 -12.801  1.00  0.00     0.074 A 
ATOM     42  C   UNL     1       0.436  -9.177 -12.025  1.00  0.00     0.031 C 
ATOM     43  C   UNL     1      -5.486  -8.897  -8.501  1.00  0.00     0.029 A 
ATOM     44  C   UNL     1      -5.599  -9.285  -9.903  1.00  0.00     0.049 A 
ATOM     45  H   UNL     1      -4.051  -9.586 -11.263  1.00  0.00     0.167 HD
ATOM     46  C   UNL     1      -0.735  -9.802 -14.117  1.00  0.00     0.037 A 
ATOM     47  C   UNL     1      -6.753  -9.520 -10.557  1.00  0.00     0.037 A 
ATOM     48  C   UNL     1      -1.905 -10.156 -14.874  1.00  0.00     0.049 A 
ATOM     49  C   UNL     1      -6.711  -9.891 -12.014  1.00  0.00     0.074 A 
ATOM     50  C   UNL     1      -1.987 -10.565 -16.194  1.00  0.00     0.029 A 
ATOM     51  N   UNL     1      -3.199 -10.149 -14.375  1.00  0.00    -0.354 N 
ATOM     52  N   UNL     1      -5.675 -10.014 -12.806  1.00  0.00    -0.248 NA
ATOM     53  C   UNL     1      -8.001 -10.156 -12.669  1.00  0.00     0.031 C 
ATOM     54  C   UNL     1      -3.335 -10.775 -16.503  1.00  0.00     0.029 A 
ATOM     55  C   UNL     1      -4.088 -10.535 -15.364  1.00  0.00     0.049 A 
ATOM     56  H   UNL     1      -3.448  -9.906 -13.454  1.00  0.00     0.167 HD
ATOM     57  C   UNL     1      -6.181 -10.398 -14.040  1.00  0.00     0.074 A 
ATOM     58  C   UNL     1      -7.617 -10.495 -13.892  1.00  0.00     0.031 C 
ATOM     59  C   UNL     1      -5.513 -10.646 -15.193  1.00  0.00     0.037 A 
BRANCH  46  60
ATOM     60  C   UNL     1       0.590  -9.790 -14.819  1.00  0.00     0.064 A 
ATOM     61  C   UNL     1       1.567 -10.764 -14.562  1.00  0.00     0.173 A 
ATOM     62  C   UNL     1       0.876  -8.812 -15.783  1.00  0.00     0.173 A 
ATOM     63  F   UNL     1       1.347 -11.713 -13.640  1.00  0.00    -0.203 F 
ATOM     64  C   UNL     1       2.794 -10.739 -15.220  1.00  0.00     0.198 A 
ATOM     65  C   UNL     1       2.092  -8.808 -16.461  1.00  0.00     0.198 A 
ATOM     66  F   UNL     1      -0.026  -7.861 -16.071  1.00  0.00    -0.203 F 
ATOM     67  F   UNL     1       3.731 -11.649 -14.919  1.00  0.00    -0.200 F 
ATOM     68  C   UNL     1       3.053  -9.766 -16.173  1.00  0.00     0.200 A 
ATOM     69  F   UNL     1       2.337  -7.874 -17.390  1.00  0.00    -0.200 F 
ATOM     70  F   UNL     1       4.232  -9.747 -16.809  1.00  0.00    -0.200 F 
ENDBRANCH  46  60
BRANCH  47  71
ATOM     71  C   UNL     1      -8.048  -9.431  -9.834  1.00  0.00     0.064 A 
ATOM     72  C   UNL     1      -8.788 -10.588  -9.548  1.00  0.00     0.173 A 
ATOM     73  C   UNL     1      -8.575  -8.200  -9.420  1.00  0.00     0.173 A 
ATOM     74  F   UNL     1      -8.334 -11.786  -9.944  1.00  0.00    -0.203 F 
ATOM     75  C   UNL     1     -10.014 -10.514  -8.892  1.00  0.00     0.198 A 
ATOM     76  C   UNL     1      -9.790  -8.130  -8.741  1.00  0.00     0.198 A 
ATOM     77  F   UNL     1      -7.904  -7.065  -9.665  1.00  0.00    -0.203 F 
ATOM     78  F   UNL     1     -10.720 -11.631  -8.668  1.00  0.00    -0.200 F 
ATOM     79  C   UNL     1     -10.512  -9.286  -8.484  1.00  0.00     0.200 A 
ATOM     80  F   UNL     1     -10.262  -6.942  -8.337  1.00  0.00    -0.200 F 
ATOM     81  F   UNL     1     -11.691  -9.215  -7.850  1.00  0.00    -0.200 F 
ENDBRANCH  47  71
BRANCH  59  82
ATOM     82  C   UNL     1      -6.321 -11.091 -16.376  1.00  0.00     0.064 A 
ATOM     83  C   UNL     1      -7.117 -10.194 -17.101  1.00  0.00     0.173 A 
ATOM     84  C   UNL     1      -6.248 -12.419 -16.822  1.00  0.00     0.173 A 
ATOM     85  F   UNL     1      -7.230  -8.918 -16.703  1.00  0.00    -0.203 F 
ATOM     86  C   UNL     1      -7.823 -10.615 -18.225  1.00  0.00     0.198 A 
ATOM     87  C   UNL     1      -6.935 -12.830 -17.960  1.00  0.00     0.198 A 
ATOM     88  F   UNL     1      -5.495 -13.313 -16.163  1.00  0.00    -0.203 F 
ATOM     89  F   UNL     1      -8.605  -9.750 -18.885  1.00  0.00    -0.200 F 
ATOM     90  C   UNL     1      -7.725 -11.929 -18.658  1.00  0.00     0.200 A 
ATOM     91  F   UNL     1      -6.831 -14.097 -18.383  1.00  0.00    -0.200 F 
ATOM     92  F   UNL     1      -8.397 -12.329 -19.746  1.00  0.00    -0.200 F 
ENDBRANCH  59  82
ENDBRANCH  33  34
ENDBRANCH  25  28
ENDBRANCH  23  24
ENDBRANCH  22  23
ENDBRANCH   1  22
TORSDOF 13
