REMARK SMILES CCCC[C@H](C(=O)NCCCCNC(=O)c1ccc(-c2c3nc(c(-c4c(F)c(F)c(F)c(F)c4F)c4ccc([nH]4)c(-c4c(F)c(F)c(F)c(F)c4F)c4nc(c(-c5c(F)c(F)c(F)c(F)c5F)c5ccc2[nH]5)C=C4)C=C3)cc1)c1ccccn1
REMARK SMILES IDX 10 1 9 2 8 3 6 4 7 5 5 7 4 8 3 9 2 10 1 11 79 12 80 13 84 14
REMARK SMILES IDX 81 15 83 16 82 17 11 18 12 19 13 20 14 21 15 23 16 24 17 25
REMARK SMILES IDX 78 26 18 27 77 28 19 29 20 30 21 31 71 32 22 33 76 34 70 35
REMARK SMILES IDX 72 36 23 37 75 38 69 39 68 40 24 42 56 43 36 44 55 45 37 46
REMARK SMILES IDX 40 47 54 48 73 49 38 50 39 51 53 53 74 54 41 55 25 56 26 57
REMARK SMILES IDX 34 58 27 59 28 60 32 61 35 62 29 63 30 64 33 65 31 66 57 67
REMARK SMILES IDX 58 68 66 69 59 70 60 71 64 72 67 73 61 74 62 75 65 76 63 77
REMARK SMILES IDX 42 78 43 79 51 80 44 81 45 82 49 83 52 84 46 85 47 86 50 87
REMARK SMILES IDX 48 88
REMARK H PARENT 8 6 13 22 72 41 40 52
REMARK Flexibility Score: inf
ROOT
ATOM      1  C   UNL     1       1.028   3.885   1.695  1.00  0.00     0.023 C 
ENDROOT
BRANCH   1   2
ATOM      2  C   UNL     1       0.587   2.506   1.189  1.00  0.00     0.116 C 
BRANCH   2   3
ATOM      3  N   UNL     1       1.000   1.482   2.125  1.00  0.00    -0.356 N 
ATOM      4  C   UNL     1       0.347   1.028   3.235  1.00  0.00     0.229 C 
ATOM      5  O   UNL     1       1.076   0.505   4.087  1.00  0.00    -0.274 OA
ATOM      6  H   UNL     1       1.867   1.057   1.935  1.00  0.00     0.163 HD
BRANCH   4   7
ATOM      7  C   UNL     1      -1.204   1.060   3.376  1.00  0.00     0.127 C 
BRANCH   7   8
ATOM      8  C   UNL     1      -1.563  -0.272   4.120  1.00  0.00     0.020 C 
BRANCH   8   9
ATOM      9  C   UNL     1      -2.917  -0.542   4.779  1.00  0.00     0.001 C 
BRANCH   9  10
ATOM     10  C   UNL     1      -4.161  -0.162   3.990  1.00  0.00    -0.003 C 
ATOM     11  C   UNL     1      -4.649  -1.302   3.116  1.00  0.00     0.004 C 
ENDBRANCH   9  10
ENDBRANCH   8   9
ENDBRANCH   7   8
BRANCH   7  12
ATOM     12  C   UNL     1      -1.710   2.416   3.863  1.00  0.00     0.053 A 
ATOM     13  C   UNL     1      -2.459   2.648   5.008  1.00  0.00     0.024 A 
ATOM     14  N   UNL     1      -1.489   3.450   3.013  1.00  0.00    -0.260 NA
ATOM     15  C   UNL     1      -2.976   3.925   5.267  1.00  0.00     0.003 A 
ATOM     16  C   UNL     1      -1.921   4.695   3.316  1.00  0.00     0.111 A 
ATOM     17  C   UNL     1      -2.683   4.979   4.420  1.00  0.00     0.020 A 
ENDBRANCH   7  12
ENDBRANCH   4   7
ENDBRANCH   2   3
ENDBRANCH   1   2
BRANCH   1  18
ATOM     18  C   UNL     1       2.513   4.188   1.562  1.00  0.00     0.023 C 
BRANCH  18  19
ATOM     19  C   UNL     1       3.028   4.181   0.138  1.00  0.00     0.116 C 
BRANCH  19  20
ATOM     20  N   UNL     1       2.315   5.102  -0.735  1.00  0.00    -0.352 N 
ATOM     21  C   UNL     1       2.819   6.017  -1.629  1.00  0.00     0.251 C 
ATOM     22  H   UNL     1       1.333   5.065  -0.677  1.00  0.00     0.163 HD
ATOM     23  O   UNL     1       2.081   6.813  -2.188  1.00  0.00    -0.269 OA
BRANCH  21  24
ATOM     24  C   UNL     1       4.275   6.042  -1.885  1.00  0.00     0.039 A 
ATOM     25  C   UNL     1       4.926   7.272  -1.989  1.00  0.00     0.014 A 
ATOM     26  C   UNL     1       4.996   4.852  -1.999  1.00  0.00     0.014 A 
ATOM     27  C   UNL     1       6.310   7.302  -2.166  1.00  0.00     0.010 A 
ATOM     28  C   UNL     1       6.381   4.884  -2.040  1.00  0.00     0.010 A 
ATOM     29  C   UNL     1       7.049   6.108  -2.171  1.00  0.00    -0.014 A 
BRANCH  29  30
ATOM     30  C   UNL     1       8.513   6.106  -2.403  1.00  0.00     0.031 A 
ATOM     31  C   UNL     1       9.067   5.396  -3.611  1.00  0.00     0.074 A 
ATOM     32  C   UNL     1       9.338   6.697  -1.519  1.00  0.00     0.049 A 
ATOM     33  N   UNL     1      10.312   5.236  -3.981  1.00  0.00    -0.248 NA
ATOM     34  C   UNL     1       8.094   4.742  -4.502  1.00  0.00     0.031 C 
ATOM     35  C   UNL     1       8.922   7.362  -0.283  1.00  0.00     0.029 A 
ATOM     36  N   UNL     1      10.703   6.832  -1.526  1.00  0.00    -0.354 N 
ATOM     37  C   UNL     1      10.265   4.452  -5.127  1.00  0.00     0.074 A 
ATOM     38  C   UNL     1       8.883   4.098  -5.346  1.00  0.00     0.031 C 
ATOM     39  C   UNL     1      10.005   7.869   0.329  1.00  0.00     0.029 A 
ATOM     40  C   UNL     1      11.192   7.534  -0.452  1.00  0.00     0.049 A 
ATOM     41  H   UNL     1      11.277   6.461  -2.234  1.00  0.00     0.167 HD
ATOM     42  C   UNL     1      11.278   4.094  -5.949  1.00  0.00     0.037 A 
ATOM     43  C   UNL     1      12.458   7.872  -0.142  1.00  0.00     0.037 A 
ATOM     44  C   UNL     1      12.647   4.483  -5.746  1.00  0.00     0.049 A 
ATOM     45  C   UNL     1      13.566   7.475  -1.081  1.00  0.00     0.074 A 
ATOM     46  C   UNL     1      13.747   4.221  -6.541  1.00  0.00     0.029 A 
ATOM     47  N   UNL     1      13.100   5.223  -4.663  1.00  0.00    -0.354 N 
ATOM     48  N   UNL     1      13.503   6.796  -2.201  1.00  0.00    -0.248 NA
ATOM     49  C   UNL     1      14.922   7.908  -0.719  1.00  0.00     0.031 C 
ATOM     50  C   UNL     1      14.875   4.761  -5.914  1.00  0.00     0.029 A 
ATOM     51  C   UNL     1      14.467   5.416  -4.763  1.00  0.00     0.049 A 
ATOM     52  H   UNL     1      12.533   5.561  -3.932  1.00  0.00     0.167 HD
ATOM     53  C   UNL     1      14.799   6.757  -2.699  1.00  0.00     0.074 A 
ATOM     54  C   UNL     1      15.624   7.492  -1.763  1.00  0.00     0.031 C 
ATOM     55  C   UNL     1      15.265   6.169  -3.829  1.00  0.00     0.037 A 
BRANCH  42  56
ATOM     56  C   UNL     1      10.937   3.249  -7.144  1.00  0.00     0.064 A 
ATOM     57  C   UNL     1      10.160   3.747  -8.204  1.00  0.00     0.173 A 
ATOM     58  C   UNL     1      11.402   1.930  -7.241  1.00  0.00     0.173 A 
ATOM     59  F   UNL     1       9.675   4.997  -8.157  1.00  0.00    -0.203 F 
ATOM     60  C   UNL     1       9.833   2.945  -9.294  1.00  0.00     0.198 A 
ATOM     61  C   UNL     1      11.105   1.142  -8.350  1.00  0.00     0.198 A 
ATOM     62  F   UNL     1      12.149   1.402  -6.259  1.00  0.00    -0.203 F 
ATOM     63  F   UNL     1       9.037   3.423 -10.261  1.00  0.00    -0.200 F 
ATOM     64  C   UNL     1      10.312   1.646  -9.370  1.00  0.00     0.200 A 
ATOM     65  F   UNL     1      11.580  -0.108  -8.429  1.00  0.00    -0.200 F 
ATOM     66  F   UNL     1      10.003   0.877 -10.423  1.00  0.00    -0.200 F 
ENDBRANCH  42  56
BRANCH  43  67
ATOM     67  C   UNL     1      12.740   8.666   1.083  1.00  0.00     0.064 A 
ATOM     68  C   UNL     1      13.200   9.988   0.997  1.00  0.00     0.173 A 
ATOM     69  C   UNL     1      12.572   8.118   2.364  1.00  0.00     0.173 A 
ATOM     70  F   UNL     1      13.392  10.552  -0.205  1.00  0.00    -0.203 F 
ATOM     71  C   UNL     1      13.510  10.721   2.140  1.00  0.00     0.198 A 
ATOM     72  C   UNL     1      12.852   8.863   3.508  1.00  0.00     0.198 A 
ATOM     73  F   UNL     1      12.127   6.862   2.504  1.00  0.00    -0.203 F 
ATOM     74  F   UNL     1      14.001  11.962   2.025  1.00  0.00    -0.200 F 
ATOM     75  C   UNL     1      13.332  10.159   3.395  1.00  0.00     0.200 A 
ATOM     76  F   UNL     1      12.662   8.323   4.719  1.00  0.00    -0.200 F 
ATOM     77  F   UNL     1      13.630  10.864   4.495  1.00  0.00    -0.200 F 
ENDBRANCH  43  67
BRANCH  55  78
ATOM     78  C   UNL     1      16.721   6.354  -4.149  1.00  0.00     0.064 A 
ATOM     79  C   UNL     1      17.733   5.751  -3.389  1.00  0.00     0.173 A 
ATOM     80  C   UNL     1      17.104   7.128  -5.257  1.00  0.00     0.173 A 
ATOM     81  F   UNL     1      17.421   5.010  -2.315  1.00  0.00    -0.203 F 
ATOM     82  C   UNL     1      19.076   5.949  -3.701  1.00  0.00     0.198 A 
ATOM     83  C   UNL     1      18.445   7.292  -5.588  1.00  0.00     0.198 A 
ATOM     84  F   UNL     1      16.175   7.717  -6.025  1.00  0.00    -0.203 F 
ATOM     85  F   UNL     1      20.027   5.416  -2.922  1.00  0.00    -0.200 F 
ATOM     86  C   UNL     1      19.430   6.713  -4.803  1.00  0.00     0.200 A 
ATOM     87  F   UNL     1      18.784   8.014  -6.664  1.00  0.00    -0.200 F 
ATOM     88  F   UNL     1      20.723   6.899  -5.103  1.00  0.00    -0.200 F 
ENDBRANCH  55  78
ENDBRANCH  29  30
ENDBRANCH  21  24
ENDBRANCH  19  20
ENDBRANCH  18  19
ENDBRANCH   1  18
TORSDOF 15
