REMARK SMILES O=C(NCCCCNC(=O)c1cc(Cl)nc(I)c1C(F)(F)F)c1ccc(-c2c3nc(c(-c4c(F)c(F)c(F)c(F)c4F)c4ccc([nH]4)c(-c4c(F)c(F)c(F)c(F)c4F)c4nc(c(-c5c(F)c(F)c(F)c(F)c5F)c5ccc2[nH]5)C=C4)C=C3)cc1
REMARK SMILES IDX 5 1 4 2 3 3 1 4 2 5 23 7 24 8 85 9 25 10 84 11 26 12 27 13
REMARK SMILES IDX 28 14 78 15 29 16 83 17 77 18 79 19 30 20 82 21 76 22 75 23
REMARK SMILES IDX 31 25 63 26 43 27 62 28 44 29 47 30 61 31 80 32 45 33 46 34
REMARK SMILES IDX 60 36 81 37 48 38 32 39 33 40 41 41 34 42 35 43 39 44 42 45
REMARK SMILES IDX 36 46 37 47 40 48 38 49 64 50 65 51 73 52 66 53 67 54 71 55
REMARK SMILES IDX 74 56 68 57 69 58 72 59 70 60 49 61 50 62 58 63 51 64 52 65
REMARK SMILES IDX 56 66 59 67 53 68 54 69 57 70 55 71 6 72 7 73 8 74 9 75
REMARK SMILES IDX 10 77 11 78 12 79 18 80 13 81 16 82 14 83 15 84 17 85 19 86
REMARK SMILES IDX 20 87 21 88 22 89
REMARK H PARENT 3 6 79 24 47 35 8 76
REMARK Flexibility Score: inf
ROOT
ATOM      1  C   UNL     1       4.908  -1.416   1.931  1.00  0.00     0.023 C 
ENDROOT
BRANCH   1   2
ATOM      2  C   UNL     1       4.508  -1.063   0.500  1.00  0.00     0.116 C 
BRANCH   2   3
ATOM      3  N   UNL     1       3.066  -0.995   0.320  1.00  0.00    -0.352 N 
ATOM      4  O   UNL     1       1.063  -0.025  -0.048  1.00  0.00    -0.269 OA
ATOM      5  C   UNL     1       2.286   0.057  -0.094  1.00  0.00     0.251 C 
ATOM      6  H   UNL     1       2.578  -1.825   0.525  1.00  0.00     0.163 HD
BRANCH   5   7
ATOM      7  C   UNL     1       2.920   1.305  -0.568  1.00  0.00     0.039 A 
ATOM      8  C   UNL     1       3.921   1.277  -1.542  1.00  0.00     0.014 A 
ATOM      9  C   UNL     1       2.495   2.522  -0.026  1.00  0.00     0.014 A 
ATOM     10  C   UNL     1       4.586   2.453  -1.883  1.00  0.00     0.010 A 
ATOM     11  C   UNL     1       3.132   3.707  -0.403  1.00  0.00     0.010 A 
ATOM     12  C   UNL     1       4.208   3.675  -1.303  1.00  0.00    -0.014 A 
BRANCH  12  13
ATOM     13  C   UNL     1       4.955   4.911  -1.635  1.00  0.00     0.031 A 
ATOM     14  C   UNL     1       5.885   5.529  -0.630  1.00  0.00     0.074 A 
ATOM     15  C   UNL     1       4.822   5.458  -2.857  1.00  0.00     0.049 A 
ATOM     16  N   UNL     1       6.644   6.589  -0.748  1.00  0.00    -0.248 NA
ATOM     17  C   UNL     1       5.976   4.869   0.682  1.00  0.00     0.031 C 
ATOM     18  C   UNL     1       3.959   4.941  -3.919  1.00  0.00     0.029 A 
ATOM     19  N   UNL     1       5.417   6.561  -3.414  1.00  0.00    -0.354 N 
ATOM     20  C   UNL     1       7.307   6.719   0.464  1.00  0.00     0.074 A 
ATOM     21  C   UNL     1       6.833   5.654   1.322  1.00  0.00     0.031 C 
ATOM     22  C   UNL     1       4.097   5.713  -5.008  1.00  0.00     0.029 A 
ATOM     23  C   UNL     1       5.030   6.797  -4.709  1.00  0.00     0.049 A 
ATOM     24  H   UNL     1       6.060   7.129  -2.931  1.00  0.00     0.167 HD
ATOM     25  C   UNL     1       8.241   7.633   0.822  1.00  0.00     0.037 A 
ATOM     26  C   UNL     1       5.383   7.781  -5.557  1.00  0.00     0.037 A 
ATOM     27  C   UNL     1       8.710   8.693  -0.031  1.00  0.00     0.049 A 
ATOM     28  C   UNL     1       6.365   8.826  -5.108  1.00  0.00     0.074 A 
ATOM     29  C   UNL     1       9.672   9.653   0.236  1.00  0.00     0.029 A 
ATOM     30  N   UNL     1       8.247   8.938  -1.315  1.00  0.00    -0.354 N 
ATOM     31  N   UNL     1       7.008   8.921  -3.971  1.00  0.00    -0.248 NA
ATOM     32  C   UNL     1       6.666   9.905  -6.060  1.00  0.00     0.031 C 
ATOM     33  C   UNL     1       9.759  10.504  -0.871  1.00  0.00     0.029 A 
ATOM     34  C   UNL     1       8.883  10.050  -1.843  1.00  0.00     0.049 A 
ATOM     35  H   UNL     1       7.567   8.400  -1.783  1.00  0.00     0.167 HD
ATOM     36  C   UNL     1       7.798  10.057  -4.073  1.00  0.00     0.074 A 
ATOM     37  C   UNL     1       7.567  10.611  -5.391  1.00  0.00     0.031 C 
ATOM     38  C   UNL     1       8.637  10.594  -3.154  1.00  0.00     0.037 A 
BRANCH  25  39
ATOM     39  C   UNL     1       8.825   7.531   2.199  1.00  0.00     0.064 A 
ATOM     40  C   UNL     1       9.750   6.528   2.526  1.00  0.00     0.173 A 
ATOM     41  C   UNL     1       8.511   8.481   3.181  1.00  0.00     0.173 A 
ATOM     42  F   UNL     1      10.074   5.589   1.624  1.00  0.00    -0.203 F 
ATOM     43  C   UNL     1      10.329   6.474   3.790  1.00  0.00     0.198 A 
ATOM     44  C   UNL     1       9.109   8.437   4.438  1.00  0.00     0.198 A 
ATOM     45  F   UNL     1       7.635   9.463   2.916  1.00  0.00    -0.203 F 
ATOM     46  F   UNL     1      11.189   5.490   4.090  1.00  0.00    -0.200 F 
ATOM     47  C   UNL     1      10.015   7.433   4.742  1.00  0.00     0.200 A 
ATOM     48  F   UNL     1       8.812   9.370   5.353  1.00  0.00    -0.200 F 
ATOM     49  F   UNL     1      10.583   7.386   5.955  1.00  0.00    -0.200 F 
ENDBRANCH  25  39
BRANCH  26  50
ATOM     50  C   UNL     1       4.806   7.811  -6.924  1.00  0.00     0.064 A 
ATOM     51  C   UNL     1       5.594   7.509  -8.042  1.00  0.00     0.173 A 
ATOM     52  C   UNL     1       3.455   8.121  -7.139  1.00  0.00     0.173 A 
ATOM     53  F   UNL     1       6.896   7.228  -7.887  1.00  0.00    -0.203 F 
ATOM     54  C   UNL     1       5.053   7.520  -9.326  1.00  0.00     0.198 A 
ATOM     55  C   UNL     1       2.910   8.109  -8.420  1.00  0.00     0.198 A 
ATOM     56  F   UNL     1       2.662   8.417  -6.099  1.00  0.00    -0.203 F 
ATOM     57  F   UNL     1       5.835   7.255 -10.382  1.00  0.00    -0.200 F 
ATOM     58  C   UNL     1       3.711   7.812  -9.513  1.00  0.00     0.200 A 
ATOM     59  F   UNL     1       1.610   8.381  -8.595  1.00  0.00    -0.200 F 
ATOM     60  F   UNL     1       3.189   7.813 -10.747  1.00  0.00    -0.200 F 
ENDBRANCH  26  50
BRANCH  38  61
ATOM     61  C   UNL     1       9.373  11.843  -3.538  1.00  0.00     0.064 A 
ATOM     62  C   UNL     1       8.721  13.084  -3.595  1.00  0.00     0.173 A 
ATOM     63  C   UNL     1      10.752  11.811  -3.792  1.00  0.00     0.173 A 
ATOM     64  F   UNL     1       7.400  13.162  -3.373  1.00  0.00    -0.203 F 
ATOM     65  C   UNL     1       9.422  14.245  -3.905  1.00  0.00     0.198 A 
ATOM     66  C   UNL     1      11.454  12.978  -4.078  1.00  0.00     0.198 A 
ATOM     67  F   UNL     1      11.421  10.649  -3.744  1.00  0.00    -0.203 F 
ATOM     68  F   UNL     1       8.774  15.415  -3.986  1.00  0.00    -0.200 F 
ATOM     69  C   UNL     1      10.789  14.193  -4.138  1.00  0.00     0.200 A 
ATOM     70  F   UNL     1      12.777  12.928  -4.291  1.00  0.00    -0.200 F 
ATOM     71  F   UNL     1      11.464  15.314  -4.425  1.00  0.00    -0.200 F 
ENDBRANCH  38  61
ENDBRANCH  12  13
ENDBRANCH   5   7
ENDBRANCH   2   3
ENDBRANCH   1   2
BRANCH   1  72
ATOM     72  C   UNL     1       4.427  -2.776   2.440  1.00  0.00     0.023 C 
BRANCH  72  73
ATOM     73  C   UNL     1       4.748  -3.969   1.544  1.00  0.00     0.116 C 
BRANCH  73  74
ATOM     74  N   UNL     1       6.173  -4.136   1.307  1.00  0.00    -0.352 N 
ATOM     75  C   UNL     1       6.929  -5.276   1.308  1.00  0.00     0.252 C 
ATOM     76  H   UNL     1       6.666  -3.305   1.118  1.00  0.00     0.163 HD
ATOM     77  O   UNL     1       8.135  -5.245   1.094  1.00  0.00    -0.269 OA
BRANCH  75  78
ATOM     78  C   UNL     1       6.299  -6.566   1.630  1.00  0.00     0.057 A 
ATOM     79  C   UNL     1       6.701  -7.136   2.838  1.00  0.00     0.055 A 
ATOM     80  C   UNL     1       5.361  -7.190   0.791  1.00  0.00     0.100 A 
ATOM     81  C   UNL     1       6.087  -8.303   3.208  1.00  0.00     0.131 A 
ATOM     82  C   UNL     1       4.772  -8.341   1.303  1.00  0.00     0.116 A 
ATOM     83  Cl  UNL     1       6.485  -9.092   4.674  1.00  0.00    -0.062 Cl
ATOM     84  N   UNL     1       5.121  -8.897   2.490  1.00  0.00    -0.229 NA
ATOM     85  I   UNL     1       3.171  -9.337   0.352  1.00  0.00    -0.021 I 
BRANCH  80  86
ATOM     86  C   UNL     1       5.003  -6.638  -0.553  1.00  0.00     0.419 C 
ATOM     87  F   UNL     1       4.973  -7.581  -1.534  1.00  0.00    -0.166 F 
ATOM     88  F   UNL     1       3.774  -6.050  -0.550  1.00  0.00    -0.166 F 
ATOM     89  F   UNL     1       5.852  -5.687  -1.027  1.00  0.00    -0.166 F 
ENDBRANCH  80  86
ENDBRANCH  75  78
ENDBRANCH  73  74
ENDBRANCH  72  73
ENDBRANCH   1  72
TORSDOF 12
