REMARK SMILES CCOc1cc(CO)cc(Br)c1OCC(C)(C)C(=O)NCCCCNC(=O)c1ccc(-c2c3nc(c(-c4c(F)c(F)c(F)c(F)c4F)c4ccc([nH]4)c(-c4c(F)c(F)c(F)c(F)c4F)c4nc(c(-c5c(F)c(F)c(F)c(F)c5F)c5ccc2[nH]5)C=C4)C=C3)cc1
REMARK SMILES IDX 21 1 20 2 18 3 19 4 15 6 16 7 17 8 14 9 13 10 12 11 4 12
REMARK SMILES IDX 5 13 6 14 10 15 9 16 11 17 3 18 2 19 1 20 7 21 8 22 22 24
REMARK SMILES IDX 23 25 24 26 25 27 26 28 27 30 28 31 29 32 90 33 30 34 89 35
REMARK SMILES IDX 31 36 32 37 33 38 83 39 34 40 88 41 82 42 84 43 35 44 87 45
REMARK SMILES IDX 81 46 80 47 36 49 68 50 48 51 67 52 49 53 52 54 66 55 85 56
REMARK SMILES IDX 50 57 51 58 65 60 86 61 53 62 37 63 38 64 46 65 39 66 40 67
REMARK SMILES IDX 44 68 47 69 41 70 42 71 45 72 43 73 69 74 70 75 78 76 71 77
REMARK SMILES IDX 72 78 76 79 79 80 73 81 74 82 77 83 75 84 54 85 55 86 63 87
REMARK SMILES IDX 56 88 57 89 61 90 64 91 58 92 59 93 62 94 60 95
REMARK H PARENT 20 5 8 23 25 29 84 48 52 59
REMARK Flexibility Score: inf
ROOT
ATOM      1  C   UNL     1       5.058   1.884  -7.515  1.00  0.00     0.116 C 
ENDROOT
BRANCH   1   2
ATOM      2  N   UNL     1       3.664   1.679  -7.150  1.00  0.00    -0.356 N 
ATOM      3  C   UNL     1       2.996   0.610  -6.615  1.00  0.00     0.229 C 
ATOM      4  O   UNL     1       1.805   0.797  -6.354  1.00  0.00    -0.274 OA
ATOM      5  H   UNL     1       3.090   2.461  -7.321  1.00  0.00     0.163 HD
BRANCH   3   6
ATOM      6  C   UNL     1       3.687  -0.747  -6.364  1.00  0.00     0.077 C 
ATOM      7  C   UNL     1       4.852  -0.534  -5.388  1.00  0.00     0.025 C 
ATOM      8  C   UNL     1       4.178  -1.305  -7.722  1.00  0.00     0.025 C 
BRANCH   6   9
ATOM      9  C   UNL     1       2.645  -1.826  -5.868  1.00  0.00     0.246 C 
BRANCH   9  10
ATOM     10  O   UNL     1       2.165  -1.851  -4.522  1.00  0.00    -0.487 OA
BRANCH  10  11
ATOM     11  C   UNL     1       2.973  -2.049  -3.439  1.00  0.00     0.175 A 
ATOM     12  C   UNL     1       2.553  -1.345  -2.290  1.00  0.00     0.162 A 
ATOM     13  C   UNL     1       3.426  -1.165  -1.217  1.00  0.00     0.056 A 
ATOM     14  C   UNL     1       4.718  -1.701  -1.252  1.00  0.00    -0.018 A 
ATOM     15  C   UNL     1       4.157  -2.789  -3.360  1.00  0.00     0.064 A 
ATOM     16  C   UNL     1       5.044  -2.575  -2.293  1.00  0.00     0.026 A 
ATOM     17  Br  UNL     1       4.647  -4.180  -4.563  1.00  0.00    -0.047 Br
BRANCH  12  18
ATOM     18  O   UNL     1       1.233  -0.976  -2.249  1.00  0.00    -0.490 OA
BRANCH  18  19
ATOM     19  C   UNL     1       0.887   0.274  -1.661  1.00  0.00     0.226 C 
ATOM     20  C   UNL     1       0.575   0.159  -0.176  1.00  0.00     0.049 C 
ENDBRANCH  18  19
ENDBRANCH  12  18
BRANCH  14  21
ATOM     21  C   UNL     1       5.696  -1.426  -0.142  1.00  0.00     0.191 C 
BRANCH  21  22
ATOM     22  O   UNL     1       5.649  -0.059   0.254  1.00  0.00    -0.392 OA
ATOM     23  H   UNL     1       5.883   0.504  -0.501  1.00  0.00     0.211 HD
ENDBRANCH  21  22
ENDBRANCH  14  21
ENDBRANCH  10  11
ENDBRANCH   9  10
ENDBRANCH   6   9
ENDBRANCH   3   6
ENDBRANCH   1   2
BRANCH   1  24
ATOM     24  C   UNL     1       5.229   2.437  -8.925  1.00  0.00     0.023 C 
BRANCH  24  25
ATOM     25  C   UNL     1       4.819   3.895  -9.097  1.00  0.00     0.023 C 
BRANCH  25  26
ATOM     26  C   UNL     1       5.462   4.872  -8.119  1.00  0.00     0.116 C 
BRANCH  26  27
ATOM     27  N   UNL     1       6.918   4.833  -8.128  1.00  0.00    -0.352 N 
ATOM     28  C   UNL     1       7.805   5.884  -8.143  1.00  0.00     0.251 C 
ATOM     29  H   UNL     1       7.321   3.935  -8.124  1.00  0.00     0.163 HD
ATOM     30  O   UNL     1       9.011   5.686  -8.246  1.00  0.00    -0.269 OA
BRANCH  28  31
ATOM     31  C   UNL     1       7.282   7.262  -8.074  1.00  0.00     0.039 A 
ATOM     32  C   UNL     1       7.681   8.186  -9.042  1.00  0.00     0.014 A 
ATOM     33  C   UNL     1       6.348   7.613  -7.096  1.00  0.00     0.014 A 
ATOM     34  C   UNL     1       7.078   9.444  -9.079  1.00  0.00     0.010 A 
ATOM     35  C   UNL     1       5.694   8.836  -7.182  1.00  0.00     0.010 A 
ATOM     36  C   UNL     1       6.050   9.761  -8.177  1.00  0.00    -0.014 A 
BRANCH  36  37
ATOM     37  C   UNL     1       5.324  11.052  -8.257  1.00  0.00     0.031 A 
ATOM     38  C   UNL     1       5.405  12.030  -7.121  1.00  0.00     0.074 A 
ATOM     39  C   UNL     1       4.526  11.304  -9.313  1.00  0.00     0.049 A 
ATOM     40  N   UNL     1       4.780  13.169  -6.962  1.00  0.00    -0.248 NA
ATOM     41  C   UNL     1       6.279  11.662  -5.997  1.00  0.00     0.031 C 
ATOM     42  C   UNL     1       4.316  10.405 -10.449  1.00  0.00     0.029 A 
ATOM     43  N   UNL     1       3.730  12.386  -9.594  1.00  0.00    -0.354 N 
ATOM     44  C   UNL     1       5.168  13.639  -5.715  1.00  0.00     0.074 A 
ATOM     45  C   UNL     1       6.039  12.639  -5.136  1.00  0.00     0.031 C 
ATOM     46  C   UNL     1       3.465  10.981 -11.313  1.00  0.00     0.029 A 
ATOM     47  C   UNL     1       3.044  12.272 -10.778  1.00  0.00     0.049 A 
ATOM     48  H   UNL     1       3.658  13.170  -9.003  1.00  0.00     0.167 HD
ATOM     49  C   UNL     1       4.847  14.811  -5.117  1.00  0.00     0.037 A 
ATOM     50  C   UNL     1       2.170  13.113 -11.363  1.00  0.00     0.037 A 
ATOM     51  C   UNL     1       4.008  15.817  -5.711  1.00  0.00     0.049 A 
ATOM     52  C   UNL     1       1.845  14.418 -10.689  1.00  0.00     0.074 A 
ATOM     53  C   UNL     1       3.683  17.070  -5.222  1.00  0.00     0.029 A 
ATOM     54  N   UNL     1       3.358  15.682  -6.930  1.00  0.00    -0.354 N 
ATOM     55  N   UNL     1       2.278  14.889  -9.545  1.00  0.00    -0.248 NA
ATOM     56  C   UNL     1       0.915  15.313 -11.392  1.00  0.00     0.031 C 
ATOM     57  C   UNL     1       2.804  17.677  -6.125  1.00  0.00     0.029 A 
ATOM     58  C   UNL     1       2.618  16.821  -7.199  1.00  0.00     0.049 A 
ATOM     59  H   UNL     1       3.415  14.893  -7.516  1.00  0.00     0.167 HD
ATOM     60  C   UNL     1       1.697  16.141  -9.402  1.00  0.00     0.074 A 
ATOM     61  C   UNL     1       0.889  16.363 -10.583  1.00  0.00     0.031 C 
ATOM     62  C   UNL     1       1.823  17.027  -8.384  1.00  0.00     0.037 A 
BRANCH  49  63
ATOM     63  C   UNL     1       5.411  15.064  -3.749  1.00  0.00     0.064 A 
ATOM     64  C   UNL     1       6.781  15.297  -3.550  1.00  0.00     0.173 A 
ATOM     65  C   UNL     1       4.572  15.089  -2.626  1.00  0.00     0.173 A 
ATOM     66  F   UNL     1       7.629  15.270  -4.589  1.00  0.00    -0.203 F 
ATOM     67  C   UNL     1       7.294  15.508  -2.272  1.00  0.00     0.198 A 
ATOM     68  C   UNL     1       5.083  15.333  -1.354  1.00  0.00     0.198 A 
ATOM     69  F   UNL     1       3.254  14.878  -2.761  1.00  0.00    -0.203 F 
ATOM     70  F   UNL     1       8.613  15.669  -2.101  1.00  0.00    -0.200 F 
ATOM     71  C   UNL     1       6.444  15.532  -1.177  1.00  0.00     0.200 A 
ATOM     72  F   UNL     1       4.260  15.366  -0.297  1.00  0.00    -0.200 F 
ATOM     73  F   UNL     1       6.939  15.737   0.051  1.00  0.00    -0.200 F 
ENDBRANCH  49  63
BRANCH  50  74
ATOM     74  C   UNL     1       1.571  12.759 -12.675  1.00  0.00     0.064 A 
ATOM     75  C   UNL     1       1.954  13.433 -13.843  1.00  0.00     0.173 A 
ATOM     76  C   UNL     1       0.619  11.736 -12.793  1.00  0.00     0.173 A 
ATOM     77  F   UNL     1       2.847  14.432 -13.777  1.00  0.00    -0.203 F 
ATOM     78  C   UNL     1       1.398  13.106 -15.078  1.00  0.00     0.198 A 
ATOM     79  C   UNL     1       0.083  11.393 -14.032  1.00  0.00     0.198 A 
ATOM     80  F   UNL     1       0.225  11.058 -11.706  1.00  0.00    -0.203 F 
ATOM     81  F   UNL     1       1.756  13.790 -16.173  1.00  0.00    -0.200 F 
ATOM     82  C   UNL     1       0.468  12.082 -15.172  1.00  0.00     0.200 A 
ATOM     83  F   UNL     1      -0.806  10.394 -14.122  1.00  0.00    -0.200 F 
ATOM     84  F   UNL     1      -0.060  11.762 -16.362  1.00  0.00    -0.200 F 
ENDBRANCH  50  74
BRANCH  62  85
ATOM     85  C   UNL     1       1.095  18.332  -8.515  1.00  0.00     0.064 A 
ATOM     86  C   UNL     1      -0.297  18.415  -8.374  1.00  0.00     0.173 A 
ATOM     87  C   UNL     1       1.807  19.521  -8.739  1.00  0.00     0.173 A 
ATOM     88  F   UNL     1      -1.023  17.305  -8.175  1.00  0.00    -0.203 F 
ATOM     89  C   UNL     1      -0.954  19.639  -8.474  1.00  0.00     0.198 A 
ATOM     90  C   UNL     1       1.150  20.746  -8.809  1.00  0.00     0.198 A 
ATOM     91  F   UNL     1       3.141  19.495  -8.874  1.00  0.00    -0.203 F 
ATOM     92  F   UNL     1      -2.290  19.690  -8.378  1.00  0.00    -0.200 F 
ATOM     93  C   UNL     1      -0.230  20.803  -8.683  1.00  0.00     0.200 A 
ATOM     94  F   UNL     1       1.853  21.871  -8.999  1.00  0.00    -0.200 F 
ATOM     95  F   UNL     1      -0.863  21.981  -8.770  1.00  0.00    -0.200 F 
ENDBRANCH  62  85
ENDBRANCH  36  37
ENDBRANCH  28  31
ENDBRANCH  26  27
ENDBRANCH  25  26
ENDBRANCH  24  25
ENDBRANCH   1  24
TORSDOF 18
