REMARK SMILES O=C(NCCCCNC(=O)c1ccccc1NC(=O)c1cc2cc(Cl)cc(Cl)c2oc1=O)c1ccc(-c2c3nc(c(-c4c(F)c(F)c(F)c(F)c4F)c4ccc([nH]4)c(-c4c(F)c(F)c(F)c(F)c4F)c4nc(c(-c5c(F)c(F)c(F)c(F)c5F)c5ccc2[nH]5)C=C4)C=C3)cc1
REMARK SMILES IDX 5 1 4 2 3 3 1 4 2 5 33 7 34 8 95 9 35 10 94 11 36 12 37 13
REMARK SMILES IDX 38 14 88 15 39 16 93 17 87 18 89 19 40 20 92 21 86 22 85 23
REMARK SMILES IDX 41 25 73 26 53 27 72 28 54 29 57 30 71 31 90 32 55 33 56 34
REMARK SMILES IDX 70 36 91 37 58 38 42 39 43 40 51 41 44 42 45 43 49 44 52 45
REMARK SMILES IDX 46 46 47 47 50 48 48 49 74 50 75 51 83 52 76 53 77 54 81 55
REMARK SMILES IDX 84 56 78 57 79 58 82 59 80 60 59 61 60 62 68 63 61 64 62 65
REMARK SMILES IDX 66 66 69 67 63 68 64 69 67 70 65 71 6 72 7 73 8 74 9 75
REMARK SMILES IDX 10 77 11 78 12 79 16 80 13 81 15 82 14 83 17 84 18 85 19 87
REMARK SMILES IDX 20 88 21 89 31 90 22 91 30 92 32 93 23 94 29 95 24 96 27 97
REMARK SMILES IDX 25 98 26 99 28 100
REMARK H PARENT 3 6 89 24 57 35 8 76 17 86
REMARK Flexibility Score: inf
ROOT
ATOM      1  C   UNL     1       5.030   1.007   2.532  1.00  0.00     0.023 C 
ENDROOT
BRANCH   1   2
ATOM      2  C   UNL     1       4.773   0.009   1.404  1.00  0.00     0.116 C 
BRANCH   2   3
ATOM      3  N   UNL     1       3.361  -0.215   1.158  1.00  0.00    -0.352 N 
ATOM      4  O   UNL     1       1.373  -0.090   0.119  1.00  0.00    -0.269 OA
ATOM      5  C   UNL     1       2.592   0.055   0.054  1.00  0.00     0.251 C 
ATOM      6  H   UNL     1       2.874  -0.630   1.906  1.00  0.00     0.163 HD
BRANCH   5   7
ATOM      7  C   UNL     1       3.194   0.550  -1.206  1.00  0.00     0.039 A 
ATOM      8  C   UNL     1       4.337  -0.033  -1.763  1.00  0.00     0.014 A 
ATOM      9  C   UNL     1       2.548   1.591  -1.884  1.00  0.00     0.014 A 
ATOM     10  C   UNL     1       4.892   0.496  -2.932  1.00  0.00     0.010 A 
ATOM     11  C   UNL     1       3.079   2.091  -3.076  1.00  0.00     0.010 A 
ATOM     12  C   UNL     1       4.273   1.568  -3.592  1.00  0.00    -0.014 A 
BRANCH  12  13
ATOM     13  C   UNL     1       4.871   2.134  -4.827  1.00  0.00     0.031 A 
ATOM     14  C   UNL     1       5.535   3.481  -4.804  1.00  0.00     0.074 A 
ATOM     15  C   UNL     1       4.810   1.440  -5.978  1.00  0.00     0.049 A 
ATOM     16  N   UNL     1       6.107   4.137  -5.784  1.00  0.00    -0.248 NA
ATOM     17  C   UNL     1       5.554   4.190  -3.516  1.00  0.00     0.031 C 
ATOM     18  C   UNL     1       4.169   0.135  -6.143  1.00  0.00     0.029 A 
ATOM     19  N   UNL     1       5.293   1.738  -7.226  1.00  0.00    -0.354 N 
ATOM     20  C   UNL     1       6.531   5.340  -5.239  1.00  0.00     0.074 A 
ATOM     21  C   UNL     1       6.147   5.331  -3.842  1.00  0.00     0.031 C 
ATOM     22  C   UNL     1       4.314  -0.263  -7.418  1.00  0.00     0.029 A 
ATOM     23  C   UNL     1       5.039   0.766  -8.159  1.00  0.00     0.049 A 
ATOM     24  H   UNL     1       5.777   2.571  -7.433  1.00  0.00     0.167 HD
ATOM     25  C   UNL     1       7.186   6.358  -5.844  1.00  0.00     0.037 A 
ATOM     26  C   UNL     1       5.351   0.710  -9.467  1.00  0.00     0.037 A 
ATOM     27  C   UNL     1       7.611   6.363  -7.218  1.00  0.00     0.049 A 
ATOM     28  C   UNL     1       6.097   1.842 -10.109  1.00  0.00     0.074 A 
ATOM     29  C   UNL     1       8.356   7.318  -7.889  1.00  0.00     0.029 A 
ATOM     30  N   UNL     1       7.327   5.362  -8.132  1.00  0.00    -0.354 N 
ATOM     31  N   UNL     1       6.530   2.954  -9.570  1.00  0.00    -0.248 NA
ATOM     32  C   UNL     1       6.392   1.712 -11.544  1.00  0.00     0.031 C 
ATOM     33  C   UNL     1       8.508   6.902  -9.217  1.00  0.00     0.029 A 
ATOM     34  C   UNL     1       7.865   5.684  -9.367  1.00  0.00     0.049 A 
ATOM     35  H   UNL     1       6.817   4.543  -7.933  1.00  0.00     0.167 HD
ATOM     36  C   UNL     1       7.145   3.657 -10.594  1.00  0.00     0.074 A 
ATOM     37  C   UNL     1       7.041   2.843 -11.788  1.00  0.00     0.031 C 
ATOM     38  C   UNL     1       7.741   4.872 -10.547  1.00  0.00     0.037 A 
BRANCH  25  39
ATOM     39  C   UNL     1       7.489   7.566  -5.016  1.00  0.00     0.064 A 
ATOM     40  C   UNL     1       8.609   7.609  -4.176  1.00  0.00     0.173 A 
ATOM     41  C   UNL     1       6.671   8.702  -5.093  1.00  0.00     0.173 A 
ATOM     42  F   UNL     1       9.410   6.539  -4.064  1.00  0.00    -0.203 F 
ATOM     43  C   UNL     1       8.898   8.750  -3.434  1.00  0.00     0.198 A 
ATOM     44  C   UNL     1       6.968   9.844  -4.356  1.00  0.00     0.198 A 
ATOM     45  F   UNL     1       5.586   8.701  -5.882  1.00  0.00    -0.203 F 
ATOM     46  F   UNL     1       9.964   8.768  -2.621  1.00  0.00    -0.200 F 
ATOM     47  C   UNL     1       8.080   9.867  -3.526  1.00  0.00     0.200 A 
ATOM     48  F   UNL     1       6.176  10.922  -4.444  1.00  0.00    -0.200 F 
ATOM     49  F   UNL     1       8.359  10.965  -2.810  1.00  0.00    -0.200 F 
ENDBRANCH  25  39
BRANCH  26  50
ATOM     50  C   UNL     1       4.954  -0.478 -10.255  1.00  0.00     0.064 A 
ATOM     51  C   UNL     1       5.871  -1.503 -10.515  1.00  0.00     0.173 A 
ATOM     52  C   UNL     1       3.646  -0.620 -10.736  1.00  0.00     0.173 A 
ATOM     53  F   UNL     1       7.137  -1.394 -10.086  1.00  0.00    -0.203 F 
ATOM     54  C   UNL     1       5.492  -2.635 -11.231  1.00  0.00     0.198 A 
ATOM     55  C   UNL     1       3.266  -1.757 -11.444  1.00  0.00     0.198 A 
ATOM     56  F   UNL     1       2.740   0.343 -10.512  1.00  0.00    -0.203 F 
ATOM     57  F   UNL     1       6.388  -3.599 -11.480  1.00  0.00    -0.200 F 
ATOM     58  C   UNL     1       4.189  -2.763 -11.691  1.00  0.00     0.200 A 
ATOM     59  F   UNL     1       2.007  -1.879 -11.887  1.00  0.00    -0.200 F 
ATOM     60  F   UNL     1       3.824  -3.855 -12.377  1.00  0.00    -0.200 F 
ENDBRANCH  26  50
BRANCH  38  61
ATOM     61  C   UNL     1       8.312   5.401 -11.823  1.00  0.00     0.064 A 
ATOM     62  C   UNL     1       7.501   6.066 -12.752  1.00  0.00     0.173 A 
ATOM     63  C   UNL     1       9.680   5.276 -12.103  1.00  0.00     0.173 A 
ATOM     64  F   UNL     1       6.185   6.194 -12.528  1.00  0.00    -0.203 F 
ATOM     65  C   UNL     1       8.040   6.584 -13.926  1.00  0.00     0.198 A 
ATOM     66  C   UNL     1      10.217   5.803 -13.274  1.00  0.00     0.198 A 
ATOM     67  F   UNL     1      10.490   4.644 -11.241  1.00  0.00    -0.203 F 
ATOM     68  F   UNL     1       7.247   7.201 -14.811  1.00  0.00    -0.200 F 
ATOM     69  C   UNL     1       9.398   6.455 -14.184  1.00  0.00     0.200 A 
ATOM     70  F   UNL     1      11.528   5.677 -13.524  1.00  0.00    -0.200 F 
ATOM     71  F   UNL     1       9.915   6.955 -15.315  1.00  0.00    -0.200 F 
ENDBRANCH  38  61
ENDBRANCH  12  13
ENDBRANCH   5   7
ENDBRANCH   2   3
ENDBRANCH   1   2
BRANCH   1  72
ATOM     72  C   UNL     1       4.532   0.611   3.927  1.00  0.00     0.023 C 
BRANCH  72  73
ATOM     73  C   UNL     1       4.847  -0.813   4.384  1.00  0.00     0.116 C 
BRANCH  73  74
ATOM     74  N   UNL     1       6.252  -1.163   4.252  1.00  0.00    -0.352 N 
ATOM     75  C   UNL     1       7.024  -2.000   5.016  1.00  0.00     0.253 C 
ATOM     76  H   UNL     1       6.720  -0.734   3.499  1.00  0.00     0.163 HD
ATOM     77  O   UNL     1       8.220  -2.118   4.766  1.00  0.00    -0.269 OA
BRANCH  75  78
ATOM     78  C   UNL     1       6.439  -2.745   6.152  1.00  0.00     0.063 A 
ATOM     79  C   UNL     1       7.023  -2.488   7.402  1.00  0.00     0.016 A 
ATOM     80  C   UNL     1       5.412  -3.707   6.005  1.00  0.00     0.054 A 
ATOM     81  C   UNL     1       6.562  -3.148   8.534  1.00  0.00     0.001 A 
ATOM     82  C   UNL     1       4.955  -4.343   7.163  1.00  0.00     0.027 A 
ATOM     83  C   UNL     1       5.525  -4.066   8.415  1.00  0.00     0.002 A 
BRANCH  80  84
ATOM     84  N   UNL     1       4.918  -3.973   4.708  1.00  0.00    -0.321 N 
ATOM     85  C   UNL     1       3.959  -4.785   4.183  1.00  0.00     0.263 C 
ATOM     86  H   UNL     1       5.379  -3.445   4.018  1.00  0.00     0.170 HD
ATOM     87  O   UNL     1       3.715  -4.688   2.979  1.00  0.00    -0.269 OA
BRANCH  85  88
ATOM     88  C   UNL     1       3.239  -5.766   5.033  1.00  0.00     0.126 A 
ATOM     89  C   UNL     1       1.888  -5.734   4.995  1.00  0.00     0.033 A 
ATOM     90  C   UNL     1       3.764  -7.150   4.904  1.00  0.00     0.349 A 
ATOM     91  C   UNL     1       1.333  -6.353   3.772  1.00  0.00     0.021 A 
ATOM     92  O   UNL     1       3.192  -7.907   3.880  1.00  0.00    -0.421 OA
ATOM     93  O   UNL     1       4.648  -7.574   5.636  1.00  0.00    -0.245 OA
ATOM     94  C   UNL     1       0.165  -5.899   3.166  1.00  0.00     0.032 A 
ATOM     95  C   UNL     1       2.038  -7.428   3.215  1.00  0.00     0.157 A 
ATOM     96  C   UNL     1      -0.270  -6.513   1.989  1.00  0.00     0.043 A 
ATOM     97  C   UNL     1       1.604  -8.037   2.039  1.00  0.00     0.085 A 
ATOM     98  Cl  UNL     1      -1.710  -5.956   1.227  1.00  0.00    -0.084 Cl
ATOM     99  C   UNL     1       0.444  -7.572   1.419  1.00  0.00     0.045 A 
ATOM    100  Cl  UNL     1       2.469  -9.345   1.331  1.00  0.00    -0.080 Cl
ENDBRANCH  85  88
ENDBRANCH  80  84
ENDBRANCH  75  78
ENDBRANCH  73  74
ENDBRANCH  72  73
ENDBRANCH   1  72
TORSDOF 13
