REMARK SMILES CC(C)(C)c1cc(NC(=O)CSC[C@H]([NH3+])C(=O)NCCCCNC(=O)c2ccc(-c3c4nc(c(-c5c(F)c(F)c(F)c(F)c5F)c5ccc([nH]5)c(-c5c(F)c(F)c(F)c(F)c5F)c5nc(c(-c6c(F)c(F)c(F)c(F)c6F)c6ccc3[nH]6)C=C5)C=C4)cc2)on1
REMARK SMILES IDX 16 1 17 2 18 3 14 5 13 6 12 7 11 8 9 9 8 10 10 12 7 13 5 14
REMARK SMILES IDX 6 15 90 16 89 17 2 18 1 19 3 20 4 21 15 22 19 26 20 27 21 28
REMARK SMILES IDX 22 29 23 30 24 31 25 33 26 34 27 35 88 36 28 37 87 38 29 39
REMARK SMILES IDX 30 40 31 41 81 42 32 43 86 44 80 45 82 46 33 47 85 48 79 49
REMARK SMILES IDX 78 50 34 52 66 53 46 54 65 55 47 56 50 57 64 58 83 59 48 60
REMARK SMILES IDX 49 61 63 63 84 64 51 65 35 66 36 67 44 68 37 69 38 70 42 71
REMARK SMILES IDX 45 72 39 73 40 74 43 75 41 76 67 77 68 78 76 79 69 80 70 81
REMARK SMILES IDX 74 82 77 83 71 84 72 85 75 86 73 87 52 88 53 89 61 90 54 91
REMARK SMILES IDX 55 92 59 93 62 94 56 95 57 96 60 97 58 98
REMARK H PARENT 18 4 8 11 15 23 15 24 15 25 23 32 82 51 50 62
REMARK Flexibility Score: inf
ROOT
ATOM      1  C   UNL     1      -1.067   2.721   9.583  1.00  0.00     0.279 C 
ATOM      2  O   UNL     1      -1.480   2.262  10.650  1.00  0.00    -0.268 OA
ATOM      3  N   UNL     1      -1.295   4.043   9.312  1.00  0.00    -0.351 N 
ATOM      4  H   UNL     1      -1.776   4.544  10.010  1.00  0.00     0.163 HD
ENDROOT
BRANCH   1   5
ATOM      5  C   UNL     1      -0.276   1.851   8.590  1.00  0.00     0.280 C 
BRANCH   5   6
ATOM      6  C   UNL     1       1.202   2.294   8.592  1.00  0.00     0.145 C 
BRANCH   6   7
ATOM      7  S   UNL     1       2.074   2.015   7.004  1.00  0.00    -0.145 SA
BRANCH   7   8
ATOM      8  C   UNL     1       2.157   0.190   6.982  1.00  0.00     0.170 C 
BRANCH   8   9
ATOM      9  C   UNL     1       2.841  -0.357   8.222  1.00  0.00     0.236 C 
ATOM     10  N   UNL     1       4.173  -0.186   8.461  1.00  0.00    -0.294 N 
ATOM     11  H   UNL     1       4.511  -0.543   9.314  1.00  0.00     0.173 HD
ATOM     12  O   UNL     1       2.170  -0.937   9.084  1.00  0.00    -0.274 OA
BRANCH  10  13
ATOM     13  C   UNL     1       5.095   0.424   7.653  1.00  0.00     0.231 A 
ATOM     14  C   UNL     1       6.814   1.457   6.726  1.00  0.00     0.091 A 
ATOM     15  C   UNL     1       6.377   0.829   7.923  1.00  0.00     0.097 A 
ATOM     16  N   UNL     1       5.873   1.365   5.778  1.00  0.00    -0.082 NA
ATOM     17  O   UNL     1       4.811   0.714   6.360  1.00  0.00    -0.338 OA
BRANCH  14  18
ATOM     18  C   UNL     1       8.130   2.157   6.461  1.00  0.00     0.008 C 
ATOM     19  C   UNL     1       8.237   2.666   5.006  1.00  0.00     0.018 C 
ATOM     20  C   UNL     1       9.294   1.180   6.714  1.00  0.00     0.018 C 
ATOM     21  C   UNL     1       8.276   3.373   7.398  1.00  0.00     0.018 C 
ENDBRANCH  14  18
ENDBRANCH  10  13
ENDBRANCH   8   9
ENDBRANCH   7   8
ENDBRANCH   6   7
ENDBRANCH   5   6
BRANCH   5  22
ATOM     22  N   UNL     1      -0.961   1.866   7.276  1.00  0.00    -0.347 N 
ATOM     23  H   UNL     1      -1.021   2.825   6.935  1.00  0.00     0.345 HD
ATOM     24  H   UNL     1      -1.901   1.482   7.379  1.00  0.00     0.345 HD
ATOM     25  H   UNL     1      -0.434   1.301   6.611  1.00  0.00     0.345 HD
ENDBRANCH   5  22
ENDBRANCH   1   5
BRANCH   3  26
ATOM     26  C   UNL     1      -0.925   4.810   8.132  1.00  0.00     0.116 C 
BRANCH  26  27
ATOM     27  C   UNL     1      -2.102   5.064   7.196  1.00  0.00     0.023 C 
BRANCH  27  28
ATOM     28  C   UNL     1      -3.241   5.870   7.812  1.00  0.00     0.023 C 
BRANCH  28  29
ATOM     29  C   UNL     1      -2.822   7.172   8.481  1.00  0.00     0.116 C 
BRANCH  29  30
ATOM     30  N   UNL     1      -2.134   8.083   7.580  1.00  0.00    -0.352 N 
ATOM     31  C   UNL     1      -2.328   9.430   7.397  1.00  0.00     0.251 C 
ATOM     32  H   UNL     1      -1.431   7.677   7.023  1.00  0.00     0.163 HD
ATOM     33  O   UNL     1      -1.740  10.026   6.498  1.00  0.00    -0.269 OA
BRANCH  31  34
ATOM     34  C   UNL     1      -3.280  10.156   8.262  1.00  0.00     0.039 A 
ATOM     35  C   UNL     1      -4.199  11.023   7.668  1.00  0.00     0.014 A 
ATOM     36  C   UNL     1      -3.288   9.962   9.646  1.00  0.00     0.014 A 
ATOM     37  C   UNL     1      -5.170  11.642   8.455  1.00  0.00     0.010 A 
ATOM     38  C   UNL     1      -4.309  10.511  10.415  1.00  0.00     0.010 A 
ATOM     39  C   UNL     1      -5.260  11.360   9.828  1.00  0.00    -0.014 A 
BRANCH  39  40
ATOM     40  C   UNL     1      -6.354  11.933  10.652  1.00  0.00     0.031 A 
ATOM     41  C   UNL     1      -6.045  12.866  11.789  1.00  0.00     0.074 A 
ATOM     42  C   UNL     1      -7.627  11.567  10.408  1.00  0.00     0.049 A 
ATOM     43  N   UNL     1      -6.865  13.453  12.624  1.00  0.00    -0.248 NA
ATOM     44  C   UNL     1      -4.625  13.155  12.042  1.00  0.00     0.031 C 
ATOM     45  C   UNL     1      -8.049  10.615   9.379  1.00  0.00     0.029 A 
ATOM     46  N   UNL     1      -8.800  11.946  11.011  1.00  0.00    -0.354 N 
ATOM     47  C   UNL     1      -6.062  14.167  13.504  1.00  0.00     0.074 A 
ATOM     48  C   UNL     1      -4.689  13.893  13.140  1.00  0.00     0.031 C 
ATOM     49  C   UNL     1      -9.386  10.507   9.402  1.00  0.00     0.029 A 
ATOM     50  C   UNL     1      -9.914  11.351  10.470  1.00  0.00     0.049 A 
ATOM     51  H   UNL     1      -8.840  12.584  11.760  1.00  0.00     0.167 HD
ATOM     52  C   UNL     1      -6.437  14.995  14.508  1.00  0.00     0.037 A 
ATOM     53  C   UNL     1     -11.214  11.470  10.800  1.00  0.00     0.037 A 
ATOM     54  C   UNL     1      -7.806  15.278  14.854  1.00  0.00     0.049 A 
ATOM     55  C   UNL     1     -11.606  12.404  11.911  1.00  0.00     0.074 A 
ATOM     56  C   UNL     1      -8.292  16.163  15.801  1.00  0.00     0.029 A 
ATOM     57  N   UNL     1      -8.910  14.670  14.273  1.00  0.00    -0.354 N 
ATOM     58  N   UNL     1     -10.844  13.150  12.674  1.00  0.00    -0.248 NA
ATOM     59  C   UNL     1     -13.041  12.522  12.199  1.00  0.00     0.031 C 
ATOM     60  C   UNL     1      -9.685  16.044  15.837  1.00  0.00     0.029 A 
ATOM     61  C   UNL     1     -10.074  15.135  14.866  1.00  0.00     0.049 A 
ATOM     62  H   UNL     1      -8.873  14.007  13.547  1.00  0.00     0.167 HD
ATOM     63  C   UNL     1     -11.704  13.839  13.517  1.00  0.00     0.074 A 
ATOM     64  C   UNL     1     -13.049  13.441  13.155  1.00  0.00     0.031 C 
ATOM     65  C   UNL     1     -11.407  14.722  14.504  1.00  0.00     0.037 A 
BRANCH  52  66
ATOM     66  C   UNL     1      -5.347  15.649  15.311  1.00  0.00     0.064 A 
ATOM     67  C   UNL     1      -4.496  16.617  14.755  1.00  0.00     0.173 A 
ATOM     68  C   UNL     1      -5.167  15.322  16.663  1.00  0.00     0.173 A 
ATOM     69  F   UNL     1      -4.617  16.962  13.463  1.00  0.00    -0.203 F 
ATOM     70  C   UNL     1      -3.483  17.202  15.510  1.00  0.00     0.198 A 
ATOM     71  C   UNL     1      -4.176  15.935  17.425  1.00  0.00     0.198 A 
ATOM     72  F   UNL     1      -5.956  14.409  17.250  1.00  0.00    -0.203 F 
ATOM     73  F   UNL     1      -2.644  18.078  14.939  1.00  0.00    -0.200 F 
ATOM     74  C   UNL     1      -3.328  16.866  16.846  1.00  0.00     0.200 A 
ATOM     75  F   UNL     1      -4.037  15.620  18.721  1.00  0.00    -0.200 F 
ATOM     76  F   UNL     1      -2.355  17.433  17.573  1.00  0.00    -0.200 F 
ENDBRANCH  52  66
BRANCH  53  77
ATOM     77  C   UNL     1     -12.238  10.699  10.046  1.00  0.00     0.064 A 
ATOM     78  C   UNL     1     -13.142  11.342   9.190  1.00  0.00     0.173 A 
ATOM     79  C   UNL     1     -12.324   9.303  10.157  1.00  0.00     0.173 A 
ATOM     80  F   UNL     1     -13.113  12.678   9.066  1.00  0.00    -0.203 F 
ATOM     81  C   UNL     1     -14.104  10.621   8.486  1.00  0.00     0.198 A 
ATOM     82  C   UNL     1     -13.266   8.581   9.429  1.00  0.00     0.198 A 
ATOM     83  F   UNL     1     -11.478   8.639  10.958  1.00  0.00    -0.203 F 
ATOM     84  F   UNL     1     -14.984  11.266   7.708  1.00  0.00    -0.200 F 
ATOM     85  C   UNL     1     -14.161   9.241   8.600  1.00  0.00     0.200 A 
ATOM     86  F   UNL     1     -13.306   7.245   9.528  1.00  0.00    -0.200 F 
ATOM     87  F   UNL     1     -15.080   8.547   7.915  1.00  0.00    -0.200 F 
ENDBRANCH  53  77
BRANCH  65  88
ATOM     88  C   UNL     1     -12.562  15.332  15.248  1.00  0.00     0.064 A 
ATOM     89  C   UNL     1     -13.360  14.576  16.120  1.00  0.00     0.173 A 
ATOM     90  C   UNL     1     -12.859  16.696  15.104  1.00  0.00     0.173 A 
ATOM     91  F   UNL     1     -13.127  13.265  16.284  1.00  0.00    -0.203 F 
ATOM     92  C   UNL     1     -14.434  15.155  16.792  1.00  0.00     0.198 A 
ATOM     93  C   UNL     1     -13.911  17.279  15.805  1.00  0.00     0.198 A 
ATOM     94  F   UNL     1     -12.124  17.467  14.290  1.00  0.00    -0.203 F 
ATOM     95  F   UNL     1     -15.218  14.399  17.573  1.00  0.00    -0.200 F 
ATOM     96  C   UNL     1     -14.704  16.506  16.640  1.00  0.00     0.200 A 
ATOM     97  F   UNL     1     -14.160  18.589  15.669  1.00  0.00    -0.200 F 
ATOM     98  F   UNL     1     -15.735  17.062  17.290  1.00  0.00    -0.200 F 
ENDBRANCH  65  88
ENDBRANCH  39  40
ENDBRANCH  31  34
ENDBRANCH  29  30
ENDBRANCH  28  29
ENDBRANCH  27  28
ENDBRANCH  26  27
ENDBRANCH   3  26
TORSDOF 18
