REMARK SMILES O=C(NCCCCNC(=O)c1cc([C@@H]2C=NN=C2c2ccc(F)cc2)c2c(ccc3ccccc32)n1)c1ccc(-c2c3nc(c(-c4c(F)c(F)c(F)c(F)c4F)c4ccc([nH]4)c(-c4c(F)c(F)c(F)c(F)c4F)c4nc(c(-c5c(F)c(F)c(F)c(F)c5F)c5ccc2[nH]5)C=C4)C=C3)cc1
REMARK SMILES IDX 5 1 4 2 3 3 1 4 2 5 37 7 38 8 99 9 39 10 98 11 40 12 41 13
REMARK SMILES IDX 42 14 92 15 43 16 97 17 91 18 93 19 44 20 96 21 90 22 89 23
REMARK SMILES IDX 45 25 77 26 57 27 76 28 58 29 61 30 75 31 94 32 59 33 60 34
REMARK SMILES IDX 74 36 95 37 62 38 46 39 47 40 55 41 48 42 49 43 53 44 56 45
REMARK SMILES IDX 50 46 51 47 54 48 52 49 78 50 79 51 87 52 80 53 81 54 85 55
REMARK SMILES IDX 88 56 82 57 83 58 86 59 84 60 63 61 64 62 72 63 65 64 66 65
REMARK SMILES IDX 70 66 73 67 67 68 68 69 71 70 69 71 6 72 7 73 8 74 9 75
REMARK SMILES IDX 10 77 11 78 12 79 36 80 13 81 27 82 26 83 28 84 35 85 29 86
REMARK SMILES IDX 30 87 34 88 31 89 33 90 32 91 14 92 15 93 18 94 16 95 17 96
REMARK SMILES IDX 19 97 20 98 25 99 21 100 24 101 22 102 23 103
REMARK H PARENT 3 6 93 24 61 35 8 76
REMARK Flexibility Score: inf
ROOT
ATOM      1  C   UNL     1       5.063   0.413  -2.255  1.00  0.00     0.023 C 
ENDROOT
BRANCH   1   2
ATOM      2  C   UNL     1       4.729   0.773  -0.806  1.00  0.00     0.116 C 
BRANCH   2   3
ATOM      3  N   UNL     1       3.320   0.981  -0.544  1.00  0.00    -0.352 N 
ATOM      4  O   UNL     1       1.255   0.750   0.194  1.00  0.00    -0.269 OA
ATOM      5  C   UNL     1       2.284   0.172  -0.167  1.00  0.00     0.251 C 
ATOM      6  H   UNL     1       3.045   1.919  -0.664  1.00  0.00     0.163 HD
BRANCH   5   7
ATOM      7  C   UNL     1       2.279  -1.316  -0.232  1.00  0.00     0.039 A 
ATOM      8  C   UNL     1       3.363  -2.125  -0.571  1.00  0.00     0.014 A 
ATOM      9  C   UNL     1       1.034  -1.933   0.009  1.00  0.00     0.014 A 
ATOM     10  C   UNL     1       3.189  -3.493  -0.767  1.00  0.00     0.010 A 
ATOM     11  C   UNL     1       0.857  -3.299  -0.171  1.00  0.00     0.010 A 
ATOM     12  C   UNL     1       1.928  -4.072  -0.603  1.00  0.00    -0.014 A 
BRANCH  12  13
ATOM     13  C   UNL     1       1.811  -5.524  -0.734  1.00  0.00     0.031 A 
ATOM     14  C   UNL     1       2.562  -6.298   0.300  1.00  0.00     0.074 A 
ATOM     15  C   UNL     1       0.979  -6.126  -1.609  1.00  0.00     0.049 A 
ATOM     16  N   UNL     1       3.453  -7.221   0.129  1.00  0.00    -0.248 NA
ATOM     17  C   UNL     1       2.354  -5.925   1.711  1.00  0.00     0.031 C 
ATOM     18  C   UNL     1      -0.023  -5.501  -2.475  1.00  0.00     0.029 A 
ATOM     19  N   UNL     1       0.788  -7.458  -1.839  1.00  0.00    -0.354 N 
ATOM     20  C   UNL     1       3.804  -7.660   1.407  1.00  0.00     0.074 A 
ATOM     21  C   UNL     1       3.197  -6.746   2.336  1.00  0.00     0.031 C 
ATOM     22  C   UNL     1      -0.855  -6.453  -2.960  1.00  0.00     0.029 A 
ATOM     23  C   UNL     1      -0.369  -7.759  -2.548  1.00  0.00     0.049 A 
ATOM     24  H   UNL     1       1.418  -8.148  -1.528  1.00  0.00     0.167 HD
ATOM     25  C   UNL     1       4.399  -8.868   1.609  1.00  0.00     0.037 A 
ATOM     26  C   UNL     1      -0.918  -8.988  -2.723  1.00  0.00     0.037 A 
ATOM     27  C   UNL     1       5.064  -9.328   0.419  1.00  0.00     0.049 A 
ATOM     28  C   UNL     1       0.140  -9.991  -2.455  1.00  0.00     0.074 A 
ATOM     29  C   UNL     1       6.103  -8.852  -0.357  1.00  0.00     0.029 A 
ATOM     30  N   UNL     1       4.453 -10.292  -0.340  1.00  0.00    -0.354 N 
ATOM     31  N   UNL     1       1.188 -10.172  -3.208  1.00  0.00    -0.248 NA
ATOM     32  C   UNL     1       0.239 -10.514  -1.101  1.00  0.00     0.031 C 
ATOM     33  C   UNL     1       5.746  -9.187  -1.696  1.00  0.00     0.029 A 
ATOM     34  C   UNL     1       4.544  -9.892  -1.647  1.00  0.00     0.049 A 
ATOM     35  H   UNL     1       4.030 -11.116  -0.009  1.00  0.00     0.167 HD
ATOM     36  C   UNL     1       2.216 -10.431  -2.315  1.00  0.00     0.074 A 
ATOM     37  C   UNL     1       1.557 -10.715  -1.044  1.00  0.00     0.031 C 
ATOM     38  C   UNL     1       3.507 -10.118  -2.623  1.00  0.00     0.037 A 
BRANCH  25  39
ATOM     39  C   UNL     1       4.067  -9.791   2.761  1.00  0.00     0.064 A 
ATOM     40  C   UNL     1       2.892  -9.689   3.539  1.00  0.00     0.173 A 
ATOM     41  C   UNL     1       4.775 -11.004   2.899  1.00  0.00     0.173 A 
ATOM     42  F   UNL     1       2.073  -8.635   3.463  1.00  0.00    -0.203 F 
ATOM     43  C   UNL     1       2.441 -10.727   4.354  1.00  0.00     0.198 A 
ATOM     44  C   UNL     1       4.292 -12.061   3.676  1.00  0.00     0.198 A 
ATOM     45  F   UNL     1       5.900 -11.223   2.201  1.00  0.00    -0.203 F 
ATOM     46  F   UNL     1       1.293 -10.580   5.030  1.00  0.00    -0.200 F 
ATOM     47  C   UNL     1       3.120 -11.925   4.395  1.00  0.00     0.200 A 
ATOM     48  F   UNL     1       4.930 -13.239   3.665  1.00  0.00    -0.200 F 
ATOM     49  F   UNL     1       2.619 -12.957   5.086  1.00  0.00    -0.200 F 
ENDBRANCH  25  39
BRANCH  26  50
ATOM     50  C   UNL     1      -2.354  -9.369  -2.749  1.00  0.00     0.064 A 
ATOM     51  C   UNL     1      -3.323  -8.612  -2.063  1.00  0.00     0.173 A 
ATOM     52  C   UNL     1      -2.756 -10.646  -3.181  1.00  0.00     0.173 A 
ATOM     53  F   UNL     1      -3.019  -7.414  -1.544  1.00  0.00    -0.203 F 
ATOM     54  C   UNL     1      -4.600  -9.111  -1.797  1.00  0.00     0.198 A 
ATOM     55  C   UNL     1      -4.034 -11.148  -2.908  1.00  0.00     0.198 A 
ATOM     56  F   UNL     1      -1.883 -11.453  -3.803  1.00  0.00    -0.203 F 
ATOM     57  F   UNL     1      -5.464  -8.377  -1.082  1.00  0.00    -0.200 F 
ATOM     58  C   UNL     1      -4.949 -10.385  -2.204  1.00  0.00     0.200 A 
ATOM     59  F   UNL     1      -4.353 -12.399  -3.270  1.00  0.00    -0.200 F 
ATOM     60  F   UNL     1      -6.148 -10.890  -1.879  1.00  0.00    -0.200 F 
ENDBRANCH  26  50
BRANCH  38  61
ATOM     61  C   UNL     1       3.823  -9.737  -4.041  1.00  0.00     0.064 A 
ATOM     62  C   UNL     1       4.811 -10.466  -4.715  1.00  0.00     0.173 A 
ATOM     63  C   UNL     1       3.313  -8.592  -4.680  1.00  0.00     0.173 A 
ATOM     64  F   UNL     1       5.370 -11.538  -4.132  1.00  0.00    -0.203 F 
ATOM     65  C   UNL     1       5.278 -10.066  -5.964  1.00  0.00     0.198 A 
ATOM     66  C   UNL     1       3.756  -8.216  -5.947  1.00  0.00     0.198 A 
ATOM     67  F   UNL     1       2.436  -7.790  -4.065  1.00  0.00    -0.203 F 
ATOM     68  F   UNL     1       6.272 -10.748  -6.551  1.00  0.00    -0.200 F 
ATOM     69  C   UNL     1       4.747  -8.947  -6.582  1.00  0.00     0.200 A 
ATOM     70  F   UNL     1       3.256  -7.120  -6.536  1.00  0.00    -0.200 F 
ATOM     71  F   UNL     1       5.212  -8.554  -7.776  1.00  0.00    -0.200 F 
ENDBRANCH  38  61
ENDBRANCH  12  13
ENDBRANCH   5   7
ENDBRANCH   2   3
ENDBRANCH   1   2
BRANCH   1  72
ATOM     72  C   UNL     1       4.574   1.403  -3.313  1.00  0.00     0.023 C 
BRANCH  72  73
ATOM     73  C   UNL     1       5.017   2.847  -3.124  1.00  0.00     0.116 C 
BRANCH  73  74
ATOM     74  N   UNL     1       6.457   3.024  -3.222  1.00  0.00    -0.351 N 
ATOM     75  C   UNL     1       7.184   3.933  -3.975  1.00  0.00     0.269 C 
ATOM     76  H   UNL     1       6.995   2.409  -2.672  1.00  0.00     0.163 HD
ATOM     77  O   UNL     1       8.403   3.860  -3.985  1.00  0.00    -0.268 OA
BRANCH  75  78
ATOM     78  C   UNL     1       6.471   5.011  -4.728  1.00  0.00     0.129 A 
ATOM     79  C   UNL     1       5.478   5.735  -4.119  1.00  0.00     0.039 A 
ATOM     80  N   UNL     1       6.834   5.231  -5.996  1.00  0.00    -0.243 NA
ATOM     81  C   UNL     1       4.713   6.671  -4.854  1.00  0.00    -0.021 A 
ATOM     82  C   UNL     1       6.195   6.180  -6.691  1.00  0.00     0.072 A 
ATOM     83  C   UNL     1       5.099   6.974  -6.221  1.00  0.00     0.012 A 
ATOM     84  C   UNL     1       6.700   6.341  -7.962  1.00  0.00     0.029 A 
ATOM     85  C   UNL     1       4.562   7.969  -7.175  1.00  0.00    -0.009 A 
ATOM     86  C   UNL     1       6.186   7.271  -8.850  1.00  0.00     0.011 A 
ATOM     87  C   UNL     1       5.128   8.085  -8.476  1.00  0.00    -0.018 A 
ATOM     88  C   UNL     1       3.515   8.889  -6.934  1.00  0.00     0.009 A 
ATOM     89  C   UNL     1       4.660   9.019  -9.420  1.00  0.00     0.009 A 
ATOM     90  C   UNL     1       3.041   9.816  -7.872  1.00  0.00     0.001 A 
ATOM     91  C   UNL     1       3.616   9.881  -9.122  1.00  0.00     0.001 A 
BRANCH  81  92
ATOM     92  C   UNL     1       3.563   7.198  -4.026  1.00  0.00     0.115 C 
ATOM     93  C   UNL     1       2.193   7.032  -4.574  1.00  0.00     0.123 C 
ATOM     94  C   UNL     1       3.463   8.622  -3.589  1.00  0.00     0.083 C 
ATOM     95  N   UNL     1       1.439   8.057  -4.341  1.00  0.00    -0.162 NA
ATOM     96  N   UNL     1       2.242   9.067  -3.706  1.00  0.00    -0.154 NA
BRANCH  94  97
ATOM     97  C   UNL     1       4.552   9.390  -2.943  1.00  0.00    -0.001 A 
ATOM     98  C   UNL     1       4.189  10.403  -2.043  1.00  0.00     0.013 A 
ATOM     99  C   UNL     1       5.910   9.138  -3.176  1.00  0.00     0.013 A 
ATOM    100  C   UNL     1       5.170  11.124  -1.359  1.00  0.00     0.040 A 
ATOM    101  C   UNL     1       6.889   9.859  -2.488  1.00  0.00     0.040 A 
ATOM    102  C   UNL     1       6.511  10.839  -1.581  1.00  0.00     0.123 A 
ATOM    103  F   UNL     1       7.453  11.518  -0.915  1.00  0.00    -0.207 F 
ENDBRANCH  94  97
ENDBRANCH  81  92
ENDBRANCH  75  78
ENDBRANCH  73  74
ENDBRANCH  72  73
ENDBRANCH   1  72
TORSDOF 13
