REMARK SMILES C[N@H+]1[C@H]2CC[C@@H]1CN(C(=O)NC(C)(C)CC(=O)NCCCCNC(=O)c1ccc(-c3c4nc(c(-c5c(F)c(F)c(F)c(F)c5F)c5ccc([nH]5)c(-c5c(F)c(F)c(F)c(F)c5F)c5nc(c(-c6c(F)c(F)c(F)c(F)c6F)c6ccc3[nH]6)C=C5)C=C4)cc1)CC2
REMARK SMILES IDX 19 1 18 2 16 3 17 4 15 6 12 7 13 8 14 9 11 10 9 11 10 12
REMARK SMILES IDX 8 14 7 15 6 16 1 17 2 18 3 19 4 21 5 23 89 24 90 25 20 27
REMARK SMILES IDX 21 28 22 29 23 30 24 31 25 33 26 34 27 35 88 36 28 37 87 38
REMARK SMILES IDX 29 39 30 40 31 41 81 42 32 43 86 44 80 45 82 46 33 47 85 48
REMARK SMILES IDX 79 49 78 50 34 52 66 53 46 54 65 55 47 56 50 57 64 58 83 59
REMARK SMILES IDX 48 60 49 61 63 63 84 64 51 65 35 66 36 67 44 68 37 69 38 70
REMARK SMILES IDX 42 71 45 72 39 73 40 74 43 75 41 76 67 77 68 78 76 79 69 80
REMARK SMILES IDX 70 81 74 82 77 83 71 84 72 85 75 86 73 87 52 88 53 89 61 90
REMARK SMILES IDX 54 91 55 92 59 93 62 94 56 95 57 96 60 97 58 98
REMARK H PARENT 18 5 11 13 2 20 23 32 82 51 50 62
REMARK Flexibility Score: 90.00
ROOT
ATOM      1  C   UNL     1      -2.043   7.571  -4.004  1.00  0.00     0.116 C 
ENDROOT
BRANCH   1   2
ATOM      2  N   UNL     1      -1.160   6.934  -3.065  1.00  0.00    -0.356 N 
ATOM      3  C   UNL     1      -1.477   5.790  -2.397  1.00  0.00     0.222 C 
ATOM      4  O   UNL     1      -1.144   5.744  -1.218  1.00  0.00    -0.275 OA
ATOM      5  H   UNL     1      -0.282   7.345  -2.896  1.00  0.00     0.163 HD
BRANCH   3   6
ATOM      6  C   UNL     1      -2.100   4.647  -3.196  1.00  0.00     0.127 C 
BRANCH   6   7
ATOM      7  C   UNL     1      -3.326   3.952  -2.590  1.00  0.00     0.045 C 
ATOM      8  C   UNL     1      -3.627   2.660  -3.377  1.00  0.00     0.035 C 
ATOM      9  C   UNL     1      -4.554   4.873  -2.830  1.00  0.00     0.035 C 
BRANCH   7  10
ATOM     10  N   UNL     1      -3.315   3.667  -1.143  1.00  0.00    -0.333 N 
ATOM     11  C   UNL     1      -2.583   3.300  -0.091  1.00  0.00     0.318 C 
ATOM     12  O   UNL     1      -3.271   3.234   0.940  1.00  0.00    -0.249 OA
ATOM     13  H   UNL     1      -4.233   3.805  -0.817  1.00  0.00     0.165 HD
BRANCH  11  14
ATOM     14  N   UNL     1      -1.262   2.989  -0.068  1.00  0.00    -0.319 N 
BRANCH  14  15
ATOM     15  C   UNL     1      -0.695   2.600   1.235  1.00  0.00     0.186 C 
BRANCH  15  16
ATOM     16  C   UNL     1      -0.385   1.080   1.349  1.00  0.00     0.204 C 
ATOM     17  C   UNL     1       1.294  -0.575   0.693  1.00  0.00     0.333 C 
ATOM     18  N   UNL     1       0.523   0.588   0.275  1.00  0.00    -0.331 N 
ATOM     19  C   UNL     1      -0.349   0.302  -0.878  1.00  0.00     0.186 CG0
ATOM     20  H   UNL     1       1.229   1.285   0.038  1.00  0.00     0.348 HD
ATOM     21  C   UNL     1      -1.750   0.010  -0.326  1.00  0.00     0.071 C 
ATOM     22  G   UNL     1      -0.297   1.503  -1.833  1.00  0.00     0.000 G0
ATOM     23  C   UNL     1      -1.649   0.242   1.175  1.00  0.00     0.073 C 
ENDBRANCH  15  16
ENDBRANCH  14  15
BRANCH  14  24
ATOM     24  C   UNL     1      -0.285   2.859  -1.137  1.00  0.00     0.128 C 
BRANCH  24  25
ATOM     25  C   UNL     1      -0.297   1.503  -1.833  1.00  0.00     0.086 CG0
ATOM     26  G   UNL     1      -0.349   0.302  -0.878  1.00  0.00     0.000 G0
ENDBRANCH  24  25
ENDBRANCH  14  24
ENDBRANCH  11  14
ENDBRANCH   7  10
ENDBRANCH   6   7
ENDBRANCH   3   6
ENDBRANCH   1   2
BRANCH   1  27
ATOM     27  C   UNL     1      -3.248   8.153  -3.257  1.00  0.00     0.023 C 
BRANCH  27  28
ATOM     28  C   UNL     1      -2.900   9.236  -2.238  1.00  0.00     0.023 C 
BRANCH  28  29
ATOM     29  C   UNL     1      -1.982  10.302  -2.795  1.00  0.00     0.116 C 
BRANCH  29  30
ATOM     30  N   UNL     1      -2.385  10.736  -4.127  1.00  0.00    -0.352 N 
ATOM     31  C   UNL     1      -2.253  11.965  -4.707  1.00  0.00     0.251 C 
ATOM     32  H   UNL     1      -2.812  10.047  -4.685  1.00  0.00     0.163 HD
ATOM     33  O   UNL     1      -2.712  12.193  -5.812  1.00  0.00    -0.269 OA
BRANCH  31  34
ATOM     34  C   UNL     1      -1.581  13.010  -3.929  1.00  0.00     0.039 A 
ATOM     35  C   UNL     1      -2.231  14.231  -3.771  1.00  0.00     0.014 A 
ATOM     36  C   UNL     1      -0.362  12.740  -3.301  1.00  0.00     0.014 A 
ATOM     37  C   UNL     1      -1.649  15.197  -2.963  1.00  0.00     0.010 A 
ATOM     38  C   UNL     1       0.152  13.656  -2.405  1.00  0.00     0.010 A 
ATOM     39  C   UNL     1      -0.461  14.909  -2.272  1.00  0.00    -0.014 A 
BRANCH  39  40
ATOM     40  C   UNL     1       0.223  15.957  -1.492  1.00  0.00     0.031 A 
ATOM     41  C   UNL     1       1.574  16.429  -1.948  1.00  0.00     0.074 A 
ATOM     42  C   UNL     1      -0.361  16.453  -0.389  1.00  0.00     0.049 A 
ATOM     43  N   UNL     1       2.364  17.321  -1.411  1.00  0.00    -0.248 NA
ATOM     44  C   UNL     1       2.135  15.783  -3.148  1.00  0.00     0.031 C 
ATOM     45  C   UNL     1      -1.645  16.015   0.162  1.00  0.00     0.029 A 
ATOM     46  N   UNL     1       0.049  17.441   0.464  1.00  0.00    -0.354 N 
ATOM     47  C   UNL     1       3.511  17.321  -2.192  1.00  0.00     0.074 A 
ATOM     48  C   UNL     1       3.356  16.287  -3.187  1.00  0.00     0.031 C 
ATOM     49  C   UNL     1      -1.937  16.762   1.239  1.00  0.00     0.029 A 
ATOM     50  C   UNL     1      -0.849  17.706   1.467  1.00  0.00     0.049 A 
ATOM     51  H   UNL     1       0.906  17.916   0.368  1.00  0.00     0.167 HD
ATOM     52  C   UNL     1       4.582  18.143  -2.111  1.00  0.00     0.037 A 
ATOM     53  C   UNL     1      -0.791  18.622   2.450  1.00  0.00     0.037 A 
ATOM     54  C   UNL     1       4.695  19.197  -1.143  1.00  0.00     0.049 A 
ATOM     55  C   UNL     1       0.396  19.547   2.498  1.00  0.00     0.074 A 
ATOM     56  C   UNL     1       5.705  20.128  -0.991  1.00  0.00     0.029 A 
ATOM     57  N   UNL     1       3.748  19.463  -0.162  1.00  0.00    -0.354 N 
ATOM     58  N   UNL     1       1.449  19.587   1.716  1.00  0.00    -0.248 NA
ATOM     59  C   UNL     1       0.393  20.566   3.554  1.00  0.00     0.031 C 
ATOM     60  C   UNL     1       5.389  20.933   0.108  1.00  0.00     0.029 A 
ATOM     61  C   UNL     1       4.155  20.540   0.605  1.00  0.00     0.049 A 
ATOM     62  H   UNL     1       2.912  18.960  -0.033  1.00  0.00     0.167 HD
ATOM     63  C   UNL     1       2.214  20.656   2.159  1.00  0.00     0.074 A 
ATOM     64  C   UNL     1       1.496  21.245   3.272  1.00  0.00     0.031 C 
ATOM     65  C   UNL     1       3.402  21.113   1.692  1.00  0.00     0.037 A 
BRANCH  52  66
ATOM     66  C   UNL     1       5.692  17.933  -3.099  1.00  0.00     0.064 A 
ATOM     67  C   UNL     1       5.519  18.185  -4.470  1.00  0.00     0.173 A 
ATOM     68  C   UNL     1       6.947  17.474  -2.672  1.00  0.00     0.173 A 
ATOM     69  F   UNL     1       4.333  18.605  -4.936  1.00  0.00    -0.203 F 
ATOM     70  C   UNL     1       6.548  17.950  -5.379  1.00  0.00     0.198 A 
ATOM     71  C   UNL     1       7.984  17.275  -3.580  1.00  0.00     0.198 A 
ATOM     72  F   UNL     1       7.167  17.214  -1.375  1.00  0.00    -0.203 F 
ATOM     73  F   UNL     1       6.337  18.136  -6.689  1.00  0.00    -0.200 F 
ATOM     74  C   UNL     1       7.781  17.503  -4.932  1.00  0.00     0.200 A 
ATOM     75  F   UNL     1       9.180  16.852  -3.145  1.00  0.00    -0.200 F 
ATOM     76  F   UNL     1       8.772  17.282  -5.807  1.00  0.00    -0.200 F 
ENDBRANCH  52  66
BRANCH  53  77
ATOM     77  C   UNL     1      -1.908  18.744   3.422  1.00  0.00     0.064 A 
ATOM     78  C   UNL     1      -2.747  19.867   3.418  1.00  0.00     0.173 A 
ATOM     79  C   UNL     1      -2.162  17.745   4.372  1.00  0.00     0.173 A 
ATOM     80  F   UNL     1      -2.539  20.855   2.535  1.00  0.00    -0.203 F 
ATOM     81  C   UNL     1      -3.777  20.000   4.346  1.00  0.00     0.198 A 
ATOM     82  C   UNL     1      -3.211  17.865   5.281  1.00  0.00     0.198 A 
ATOM     83  F   UNL     1      -1.397  16.644   4.410  1.00  0.00    -0.203 F 
ATOM     84  F   UNL     1      -4.532  21.108   4.352  1.00  0.00    -0.200 F 
ATOM     85  C   UNL     1      -4.011  18.997   5.274  1.00  0.00     0.200 A 
ATOM     86  F   UNL     1      -3.445  16.886   6.165  1.00  0.00    -0.200 F 
ATOM     87  F   UNL     1      -5.003  19.125   6.167  1.00  0.00    -0.200 F 
ENDBRANCH  53  77
BRANCH  65  88
ATOM     88  C   UNL     1       3.965  22.341   2.344  1.00  0.00     0.064 A 
ATOM     89  C   UNL     1       4.484  22.316   3.646  1.00  0.00     0.173 A 
ATOM     90  C   UNL     1       4.019  23.551   1.635  1.00  0.00     0.173 A 
ATOM     91  F   UNL     1       4.444  21.186   4.367  1.00  0.00    -0.203 F 
ATOM     92  C   UNL     1       5.005  23.468   4.228  1.00  0.00     0.198 A 
ATOM     93  C   UNL     1       4.573  24.691   2.207  1.00  0.00     0.198 A 
ATOM     94  F   UNL     1       3.547  23.623   0.381  1.00  0.00    -0.203 F 
ATOM     95  F   UNL     1       5.443  23.436   5.494  1.00  0.00    -0.200 F 
ATOM     96  C   UNL     1       5.056  24.651   3.506  1.00  0.00     0.200 A 
ATOM     97  F   UNL     1       4.638  25.829   1.502  1.00  0.00    -0.200 F 
ATOM     98  F   UNL     1       5.564  25.757   4.067  1.00  0.00    -0.200 F 
ENDBRANCH  65  88
ENDBRANCH  39  40
ENDBRANCH  31  34
ENDBRANCH  29  30
ENDBRANCH  28  29
ENDBRANCH  27  28
ENDBRANCH   1  27
TORSDOF 14
