REMARK SMILES CS(=O)(=O)c1ccc(/C=C(/C(=O)NCCCCNC(=O)c2ccc(-c3c4nc(c(-c5c(F)c(F)c(F)c(F)c5F)c5ccc([nH]5)c(-c5c(F)c(F)c(F)c(F)c5F)c5nc(c(-c6c(F)c(F)c(F)c(F)c6F)c6ccc3[nH]6)C=C5)C=C4)cc2)c2ccccc2)cc1
REMARK SMILES IDX 15 1 14 2 13 3 11 4 12 5 10 7 9 8 8 9 5 10 6 11 91 12 7 13
REMARK SMILES IDX 90 14 2 15 1 16 3 17 4 18 84 19 85 20 89 21 86 22 88 23
REMARK SMILES IDX 87 24 16 25 17 26 18 27 19 28 20 30 21 31 22 32 83 33 23 34
REMARK SMILES IDX 82 35 24 36 25 37 26 38 76 39 27 40 81 41 75 42 77 43 28 44
REMARK SMILES IDX 80 45 74 46 73 47 29 49 61 50 41 51 60 52 42 53 45 54 59 55
REMARK SMILES IDX 78 56 43 57 44 58 58 60 79 61 46 62 30 63 31 64 39 65 32 66
REMARK SMILES IDX 33 67 37 68 40 69 34 70 35 71 38 72 36 73 62 74 63 75 71 76
REMARK SMILES IDX 64 77 65 78 69 79 72 80 66 81 67 82 70 83 68 84 47 85 48 86
REMARK SMILES IDX 56 87 49 88 50 89 54 90 57 91 51 92 52 93 55 94 53 95
REMARK H PARENT 13 6 18 29 77 48 45 59
REMARK Flexibility Score: inf
ROOT
ATOM      1  C   UNL     1       2.557   5.133  -7.379  1.00  0.00     0.023 C 
ENDROOT
BRANCH   1   2
ATOM      2  C   UNL     1       1.737   4.004  -8.011  1.00  0.00     0.116 C 
BRANCH   2   3
ATOM      3  N   UNL     1       2.603   3.136  -8.782  1.00  0.00    -0.352 N 
ATOM      4  C   UNL     1       3.199   1.939  -8.536  1.00  0.00     0.251 C 
ATOM      5  O   UNL     1       3.944   1.523  -9.427  1.00  0.00    -0.269 OA
ATOM      6  H   UNL     1       2.803   3.489  -9.678  1.00  0.00     0.163 HD
BRANCH   4   7
ATOM      7  C   UNL     1       2.923   1.097  -7.307  1.00  0.00     0.047 C 
ATOM      8  C   UNL     1       2.631   1.647  -6.106  1.00  0.00     0.022 C 
BRANCH   8   9
ATOM      9  C   UNL     1       2.173   1.007  -4.851  1.00  0.00    -0.025 A 
ATOM     10  C   UNL     1       1.039  -0.174  -2.572  1.00  0.00     0.067 A 
ATOM     11  C   UNL     1       2.115  -0.790  -3.211  1.00  0.00     0.021 A 
ATOM     12  C   UNL     1       0.541   1.043  -3.035  1.00  0.00     0.021 A 
ATOM     13  C   UNL     1       2.699  -0.179  -4.325  1.00  0.00     0.009 A 
ATOM     14  C   UNL     1       1.111   1.628  -4.168  1.00  0.00     0.009 A 
BRANCH  10  15
ATOM     15  S   UNL     1       0.255  -0.970  -1.191  1.00  0.00     0.175 S 
ATOM     16  C   UNL     1       0.937  -0.118   0.205  1.00  0.00     0.163 C 
ATOM     17  O   UNL     1       0.714  -2.342  -1.150  1.00  0.00    -0.224 OA
ATOM     18  O   UNL     1      -1.163  -0.659  -1.264  1.00  0.00    -0.224 OA
ENDBRANCH  10  15
ENDBRANCH   8   9
BRANCH   7  19
ATOM     19  C   UNL     1       3.166  -0.363  -7.433  1.00  0.00    -0.013 A 
ATOM     20  C   UNL     1       4.489  -0.801  -7.621  1.00  0.00     0.009 A 
ATOM     21  C   UNL     1       2.155  -1.318  -7.268  1.00  0.00     0.009 A 
ATOM     22  C   UNL     1       4.804  -2.158  -7.603  1.00  0.00     0.001 A 
ATOM     23  C   UNL     1       2.477  -2.679  -7.229  1.00  0.00     0.001 A 
ATOM     24  C   UNL     1       3.800  -3.096  -7.389  1.00  0.00     0.000 A 
ENDBRANCH   7  19
ENDBRANCH   4   7
ENDBRANCH   2   3
ENDBRANCH   1   2
BRANCH   1  25
ATOM     25  C   UNL     1       3.037   6.189  -8.381  1.00  0.00     0.023 C 
BRANCH  25  26
ATOM     26  C   UNL     1       1.923   6.917  -9.123  1.00  0.00     0.116 C 
BRANCH  26  27
ATOM     27  N   UNL     1       0.995   7.601  -8.233  1.00  0.00    -0.352 N 
ATOM     28  C   UNL     1       0.378   8.815  -8.424  1.00  0.00     0.251 C 
ATOM     29  H   UNL     1       0.782   7.137  -7.391  1.00  0.00     0.163 HD
ATOM     30  O   UNL     1      -0.293   9.331  -7.539  1.00  0.00    -0.269 OA
BRANCH  28  31
ATOM     31  C   UNL     1       0.578   9.505  -9.712  1.00  0.00     0.039 A 
ATOM     32  C   UNL     1       1.082  10.807  -9.715  1.00  0.00     0.014 A 
ATOM     33  C   UNL     1       0.355   8.819 -10.908  1.00  0.00     0.014 A 
ATOM     34  C   UNL     1       1.442  11.397 -10.928  1.00  0.00     0.010 A 
ATOM     35  C   UNL     1       0.784   9.379 -12.103  1.00  0.00     0.010 A 
ATOM     36  C   UNL     1       1.339  10.669 -12.124  1.00  0.00    -0.014 A 
BRANCH  36  37
ATOM     37  C   UNL     1       1.806  11.223 -13.420  1.00  0.00     0.031 A 
ATOM     38  C   UNL     1       0.820  11.427 -14.535  1.00  0.00     0.074 A 
ATOM     39  C   UNL     1       3.119  11.440 -13.625  1.00  0.00     0.049 A 
ATOM     40  N   UNL     1       1.036  11.746 -15.785  1.00  0.00    -0.248 NA
ATOM     41  C   UNL     1      -0.597  11.209 -14.206  1.00  0.00     0.031 C 
ATOM     42  C   UNL     1       4.176  11.247 -12.632  1.00  0.00     0.029 A 
ATOM     43  N   UNL     1       3.793  11.850 -14.750  1.00  0.00    -0.354 N 
ATOM     44  C   UNL     1      -0.211  11.746 -16.393  1.00  0.00     0.074 A 
ATOM     45  C   UNL     1      -1.173  11.342 -15.391  1.00  0.00     0.031 C 
ATOM     46  C   UNL     1       5.362  11.548 -13.186  1.00  0.00     0.029 A 
ATOM     47  C   UNL     1       5.156  11.905 -14.586  1.00  0.00     0.049 A 
ATOM     48  H   UNL     1       3.342  12.082 -15.594  1.00  0.00     0.167 HD
ATOM     49  C   UNL     1      -0.528  12.073 -17.668  1.00  0.00     0.037 A 
ATOM     50  C   UNL     1       6.130  12.190 -15.473  1.00  0.00     0.037 A 
ATOM     51  C   UNL     1       0.432  12.495 -18.653  1.00  0.00     0.049 A 
ATOM     52  C   UNL     1       5.754  12.520 -16.893  1.00  0.00     0.074 A 
ATOM     53  C   UNL     1       0.208  12.902 -19.956  1.00  0.00     0.029 A 
ATOM     54  N   UNL     1       1.802  12.558 -18.443  1.00  0.00    -0.354 N 
ATOM     55  N   UNL     1       4.566  12.577 -17.444  1.00  0.00    -0.248 NA
ATOM     56  C   UNL     1       6.856  12.827 -17.817  1.00  0.00     0.031 C 
ATOM     57  C   UNL     1       1.446  13.158 -20.552  1.00  0.00     0.029 A 
ATOM     58  C   UNL     1       2.438  12.973 -19.602  1.00  0.00     0.049 A 
ATOM     59  H   UNL     1       2.256  12.341 -17.597  1.00  0.00     0.167 HD
ATOM     60  C   UNL     1       4.772  12.960 -18.762  1.00  0.00     0.074 A 
ATOM     61  C   UNL     1       6.200  13.129 -18.929  1.00  0.00     0.031 C 
ATOM     62  C   UNL     1       3.860  13.157 -19.745  1.00  0.00     0.037 A 
BRANCH  49  63
ATOM     63  C   UNL     1      -1.971  11.983 -18.072  1.00  0.00     0.064 A 
ATOM     64  C   UNL     1      -2.937  12.862 -17.558  1.00  0.00     0.173 A 
ATOM     65  C   UNL     1      -2.389  11.027 -19.010  1.00  0.00     0.173 A 
ATOM     66  F   UNL     1      -2.594  13.788 -16.650  1.00  0.00    -0.203 F 
ATOM     67  C   UNL     1      -4.272  12.765 -17.944  1.00  0.00     0.198 A 
ATOM     68  C   UNL     1      -3.718  10.956 -19.420  1.00  0.00     0.198 A 
ATOM     69  F   UNL     1      -1.506  10.165 -19.537  1.00  0.00    -0.203 F 
ATOM     70  F   UNL     1      -5.185  13.580 -17.397  1.00  0.00    -0.200 F 
ATOM     71  C   UNL     1      -4.659  11.819 -18.880  1.00  0.00     0.200 A 
ATOM     72  F   UNL     1      -4.088  10.051 -20.336  1.00  0.00    -0.200 F 
ATOM     73  F   UNL     1      -5.942  11.733 -19.256  1.00  0.00    -0.200 F 
ENDBRANCH  49  63
BRANCH  50  74
ATOM     74  C   UNL     1       7.554  12.183 -15.044  1.00  0.00     0.064 A 
ATOM     75  C   UNL     1       8.295  13.373 -14.993  1.00  0.00     0.173 A 
ATOM     76  C   UNL     1       8.209  10.994 -14.690  1.00  0.00     0.173 A 
ATOM     77  F   UNL     1       7.721  14.534 -15.341  1.00  0.00    -0.203 F 
ATOM     78  C   UNL     1       9.640  13.370 -14.628  1.00  0.00     0.198 A 
ATOM     79  C   UNL     1       9.545  10.997 -14.295  1.00  0.00     0.198 A 
ATOM     80  F   UNL     1       7.546   9.829 -14.717  1.00  0.00    -0.203 F 
ATOM     81  F   UNL     1      10.337  14.515 -14.638  1.00  0.00    -0.200 F 
ATOM     82  C   UNL     1      10.263  12.183 -14.274  1.00  0.00     0.200 A 
ATOM     83  F   UNL     1      10.138   9.850 -13.938  1.00  0.00    -0.200 F 
ATOM     84  F   UNL     1      11.555  12.181 -13.921  1.00  0.00    -0.200 F 
ENDBRANCH  50  74
BRANCH  62  85
ATOM     85  C   UNL     1       4.362  13.630 -21.078  1.00  0.00     0.064 A 
ATOM     86  C   UNL     1       5.071  12.786 -21.945  1.00  0.00     0.173 A 
ATOM     87  C   UNL     1       4.063  14.928 -21.523  1.00  0.00     0.173 A 
ATOM     88  F   UNL     1       5.395  11.542 -21.561  1.00  0.00    -0.203 F 
ATOM     89  C   UNL     1       5.473  13.229 -23.203  1.00  0.00     0.198 A 
ATOM     90  C   UNL     1       4.438  15.356 -22.793  1.00  0.00     0.198 A 
ATOM     91  F   UNL     1       3.381  15.773 -20.734  1.00  0.00    -0.203 F 
ATOM     92  F   UNL     1       6.181  12.418 -24.001  1.00  0.00    -0.200 F 
ATOM     93  C   UNL     1       5.146  14.508 -23.630  1.00  0.00     0.200 A 
ATOM     94  F   UNL     1       4.106  16.585 -23.209  1.00  0.00    -0.200 F 
ATOM     95  F   UNL     1       5.517  14.924 -24.849  1.00  0.00    -0.200 F 
ENDBRANCH  62  85
ENDBRANCH  36  37
ENDBRANCH  28  31
ENDBRANCH  26  27
ENDBRANCH  25  26
ENDBRANCH   1  25
TORSDOF 14
