REMARK SMILES O=C(N/N=C/c1ccccc1O)C(=O)Nc1cccc(C(=O)NCCCCNC(=O)c2ccc(-c3c4nc(c(-c5c(F)c(F)c(F)c(F)c5F)c5ccc([nH]5)c(-c5c(F)c(F)c(F)c(F)c5F)c5nc(c(-c6c(F)c(F)c(F)c(F)c6F)c6ccc3[nH]6)C=C5)C=C4)cc2)c1
REMARK SMILES IDX 24 1 23 2 21 3 22 4 20 6 16 7 17 8 94 9 18 10 19 11 15 12
REMARK SMILES IDX 13 13 14 14 2 16 1 17 3 18 4 20 5 21 6 22 7 23 11 24 8 25
REMARK SMILES IDX 10 26 9 27 12 28 25 30 26 31 27 32 28 33 29 34 30 36 31 37
REMARK SMILES IDX 32 38 93 39 33 40 92 41 34 42 35 43 36 44 86 45 37 46 91 47
REMARK SMILES IDX 85 48 87 49 38 50 90 51 84 52 83 53 39 55 71 56 51 57 70 58
REMARK SMILES IDX 52 59 55 60 69 61 88 62 53 63 54 64 68 66 89 67 56 68 40 69
REMARK SMILES IDX 41 70 49 71 42 72 43 73 47 74 50 75 44 76 45 77 48 78 46 79
REMARK SMILES IDX 72 80 73 81 81 82 74 83 75 84 79 85 82 86 76 87 77 88 80 89
REMARK SMILES IDX 78 90 57 91 58 92 66 93 59 94 60 95 64 96 67 97 61 98 62 99
REMARK SMILES IDX 65 100 63 101
REMARK H PARENT 23 5 15 15 3 19 12 29 28 35 87 54 55 65
REMARK Flexibility Score: inf
ROOT
ATOM      1  C   UNL     1       3.409   0.642  -3.657  1.00  0.00     0.116 C 
ENDROOT
BRANCH   1   2
ATOM      2  N   UNL     1       4.514  -0.114  -4.209  1.00  0.00    -0.352 N 
ATOM      3  C   UNL     1       5.551  -0.757  -3.589  1.00  0.00     0.251 C 
ATOM      4  O   UNL     1       6.327  -1.441  -4.261  1.00  0.00    -0.269 OA
ATOM      5  H   UNL     1       4.520  -0.176  -5.191  1.00  0.00     0.163 HD
BRANCH   3   6
ATOM      6  C   UNL     1       5.820  -0.680  -2.128  1.00  0.00     0.041 A 
ATOM      7  C   UNL     1       5.336   0.468   0.770  1.00  0.00     0.042 A 
ATOM      8  C   UNL     1       6.063  -1.042   1.514  1.00  0.00     0.026 A 
ATOM      9  C   UNL     1       5.298   0.695  -1.032  1.00  0.00     0.040 A 
ATOM     10  C   UNL     1       6.758  -2.325   0.412  1.00  0.00     0.003 A 
ATOM     11  C   UNL     1       6.589  -2.164  -1.388  1.00  0.00     0.014 A 
BRANCH   7  12
ATOM     12  N   UNL     1       4.315   1.044   1.526  1.00  0.00    -0.318 N 
ATOM     13  C   UNL     1       2.951   0.819   1.373  1.00  0.00     0.315 C 
ATOM     14  O   UNL     1       2.204   1.282   2.240  1.00  0.00    -0.263 OA
ATOM     15  H   UNL     1       4.586   1.670   2.235  1.00  0.00     0.170 HD
BRANCH  13  16
ATOM     16  C   UNL     1       2.292  -0.023   0.249  1.00  0.00     0.329 C 
ATOM     17  O   UNL     1       1.192   0.320  -0.183  1.00  0.00    -0.262 OA
ATOM     18  N   UNL     1       2.853  -1.236  -0.173  1.00  0.00    -0.239 N 
ATOM     19  H   UNL     1       2.470  -2.107   0.077  1.00  0.00     0.194 HD
BRANCH  18  20
ATOM     20  N   UNL     1       3.976  -1.126  -0.960  1.00  0.00    -0.180 NA
ATOM     21  C   UNL     1       5.170  -1.221  -0.284  1.00  0.00     0.145 C 
BRANCH  21  22
ATOM     22  C   UNL     1       7.093  -0.303  -0.350  1.00  0.00     0.036 A 
ATOM     23  C   UNL     1       7.962   0.140   0.831  1.00  0.00     0.013 A 
ATOM     24  C   UNL     1       8.071   0.072  -1.471  1.00  0.00     0.124 A 
ATOM     25  C   UNL     1       9.350   0.455   0.921  1.00  0.00     0.001 A 
ATOM     26  C   UNL     1       9.480   0.348  -1.393  1.00  0.00     0.047 A 
ATOM     27  C   UNL     1      10.133   0.477  -0.196  1.00  0.00     0.004 A 
BRANCH  24  28
ATOM     28  O   UNL     1       7.736   0.430  -2.779  1.00  0.00    -0.507 OA
ATOM     29  H   UNL     1       6.853   0.339  -3.078  1.00  0.00     0.293 HD
ENDBRANCH  24  28
ENDBRANCH  21  22
ENDBRANCH  18  20
ENDBRANCH  13  16
ENDBRANCH   7  12
ENDBRANCH   3   6
ENDBRANCH   1   2
BRANCH   1  30
ATOM     30  C   UNL     1       3.627   2.146  -3.800  1.00  0.00     0.023 C 
BRANCH  30  31
ATOM     31  C   UNL     1       3.244   2.704  -5.168  1.00  0.00     0.023 C 
BRANCH  31  32
ATOM     32  C   UNL     1       1.787   2.492  -5.559  1.00  0.00     0.116 C 
BRANCH  32  33
ATOM     33  N   UNL     1       0.834   3.037  -4.603  1.00  0.00    -0.352 N 
ATOM     34  C   UNL     1      -0.408   3.566  -4.862  1.00  0.00     0.251 C 
ATOM     35  H   UNL     1       1.112   3.024  -3.658  1.00  0.00     0.163 HD
ATOM     36  O   UNL     1      -1.074   4.093  -3.980  1.00  0.00    -0.269 OA
BRANCH  34  37
ATOM     37  C   UNL     1      -0.909   3.530  -6.248  1.00  0.00     0.039 A 
ATOM     38  C   UNL     1      -1.315   4.722  -6.850  1.00  0.00     0.014 A 
ATOM     39  C   UNL     1      -0.897   2.332  -6.968  1.00  0.00     0.014 A 
ATOM     40  C   UNL     1      -1.641   4.726  -8.206  1.00  0.00     0.010 A 
ATOM     41  C   UNL     1      -1.149   2.353  -8.333  1.00  0.00     0.010 A 
ATOM     42  C   UNL     1      -1.521   3.550  -8.965  1.00  0.00    -0.014 A 
BRANCH  42  43
ATOM     43  C   UNL     1      -1.779   3.550 -10.425  1.00  0.00     0.031 A 
ATOM     44  C   UNL     1      -2.920   2.749 -10.982  1.00  0.00     0.074 A 
ATOM     45  C   UNL     1      -0.942   4.210 -11.248  1.00  0.00     0.049 A 
ATOM     46  N   UNL     1      -3.268   2.562 -12.230  1.00  0.00    -0.248 NA
ATOM     47  C   UNL     1      -3.764   2.038 -10.010  1.00  0.00     0.031 C 
ATOM     48  C   UNL     1       0.234   4.973 -10.826  1.00  0.00     0.029 A 
ATOM     49  N   UNL     1      -0.946   4.334 -12.615  1.00  0.00    -0.354 N 
ATOM     50  C   UNL     1      -4.356   1.701 -12.191  1.00  0.00     0.074 A 
ATOM     51  C   UNL     1      -4.577   1.358 -10.803  1.00  0.00     0.031 C 
ATOM     52  C   UNL     1       0.825   5.504 -11.909  1.00  0.00     0.029 A 
ATOM     53  C   UNL     1       0.090   5.093 -13.101  1.00  0.00     0.049 A 
ATOM     54  H   UNL     1      -1.627   3.919 -13.191  1.00  0.00     0.167 HD
ATOM     55  C   UNL     1      -5.118   1.259 -13.219  1.00  0.00     0.037 A 
ATOM     56  C   UNL     1       0.411   5.415 -14.369  1.00  0.00     0.037 A 
ATOM     57  C   UNL     1      -4.912   1.630 -14.593  1.00  0.00     0.049 A 
ATOM     58  C   UNL     1      -0.460   4.921 -15.492  1.00  0.00     0.074 A 
ATOM     59  C   UNL     1      -5.667   1.292 -15.702  1.00  0.00     0.029 A 
ATOM     60  N   UNL     1      -3.869   2.426 -15.046  1.00  0.00    -0.354 N 
ATOM     61  N   UNL     1      -1.533   4.169 -15.438  1.00  0.00    -0.248 NA
ATOM     62  C   UNL     1      -0.080   5.327 -16.852  1.00  0.00     0.031 C 
ATOM     63  C   UNL     1      -5.059   1.849 -16.831  1.00  0.00     0.029 A 
ATOM     64  C   UNL     1      -3.951   2.574 -16.421  1.00  0.00     0.049 A 
ATOM     65  H   UNL     1      -3.174   2.826 -14.475  1.00  0.00     0.167 HD
ATOM     66  C   UNL     1      -1.971   4.035 -16.747  1.00  0.00     0.074 A 
ATOM     67  C   UNL     1      -1.056   4.795 -17.574  1.00  0.00     0.031 C 
ATOM     68  C   UNL     1      -3.035   3.343 -17.224  1.00  0.00     0.037 A 
BRANCH  55  69
ATOM     69  C   UNL     1      -6.250   0.330 -12.891  1.00  0.00     0.064 A 
ATOM     70  C   UNL     1      -7.389   0.774 -12.202  1.00  0.00     0.173 A 
ATOM     71  C   UNL     1      -6.209  -1.013 -13.294  1.00  0.00     0.173 A 
ATOM     72  F   UNL     1      -7.472   2.046 -11.783  1.00  0.00    -0.203 F 
ATOM     73  C   UNL     1      -8.431  -0.099 -11.901  1.00  0.00     0.198 A 
ATOM     74  C   UNL     1      -7.266  -1.876 -13.019  1.00  0.00     0.198 A 
ATOM     75  F   UNL     1      -5.146  -1.488 -13.960  1.00  0.00    -0.203 F 
ATOM     76  F   UNL     1      -9.485   0.335 -11.197  1.00  0.00    -0.200 F 
ATOM     77  C   UNL     1      -8.372  -1.421 -12.316  1.00  0.00     0.200 A 
ATOM     78  F   UNL     1      -7.214  -3.150 -13.431  1.00  0.00    -0.200 F 
ATOM     79  F   UNL     1      -9.378  -2.259 -12.032  1.00  0.00    -0.200 F 
ENDBRANCH  55  69
BRANCH  56  80
ATOM     80  C   UNL     1       1.592   6.275 -14.640  1.00  0.00     0.064 A 
ATOM     81  C   UNL     1       1.432   7.590 -15.099  1.00  0.00     0.173 A 
ATOM     82  C   UNL     1       2.899   5.804 -14.451  1.00  0.00     0.173 A 
ATOM     83  F   UNL     1       0.202   8.079 -15.315  1.00  0.00    -0.203 F 
ATOM     84  C   UNL     1       2.535   8.395 -15.379  1.00  0.00     0.198 A 
ATOM     85  C   UNL     1       4.001   6.619 -14.705  1.00  0.00     0.198 A 
ATOM     86  F   UNL     1       3.106   4.556 -14.009  1.00  0.00    -0.203 F 
ATOM     87  F   UNL     1       2.354   9.632 -15.859  1.00  0.00    -0.200 F 
ATOM     88  C   UNL     1       3.818   7.910 -15.176  1.00  0.00     0.200 A 
ATOM     89  F   UNL     1       5.239   6.152 -14.496  1.00  0.00    -0.200 F 
ATOM     90  F   UNL     1       4.878   8.685 -15.443  1.00  0.00    -0.200 F 
ENDBRANCH  56  80
BRANCH  68  91
ATOM     91  C   UNL     1      -3.288   3.404 -18.702  1.00  0.00     0.064 A 
ATOM     92  C   UNL     1      -2.468   2.729 -19.616  1.00  0.00     0.173 A 
ATOM     93  C   UNL     1      -4.391   4.112 -19.203  1.00  0.00     0.173 A 
ATOM     94  F   UNL     1      -1.393   2.051 -19.187  1.00  0.00    -0.203 F 
ATOM     95  C   UNL     1      -2.730   2.779 -20.983  1.00  0.00     0.198 A 
ATOM     96  C   UNL     1      -4.667   4.135 -20.567  1.00  0.00     0.198 A 
ATOM     97  F   UNL     1      -5.210   4.769 -18.368  1.00  0.00    -0.203 F 
ATOM     98  F   UNL     1      -1.908   2.163 -21.843  1.00  0.00    -0.200 F 
ATOM     99  C   UNL     1      -3.833   3.474 -21.456  1.00  0.00     0.200 A 
ATOM    100  F   UNL     1      -5.740   4.797 -21.021  1.00  0.00    -0.200 F 
ATOM    101  F   UNL     1      -4.088   3.514 -22.771  1.00  0.00    -0.200 F 
ENDBRANCH  68  91
ENDBRANCH  42  43
ENDBRANCH  34  37
ENDBRANCH  32  33
ENDBRANCH  31  32
ENDBRANCH  30  31
ENDBRANCH   1  30
TORSDOF 16
