REMARK SMILES O=C(C[C@@H](NS(=O)(=O)c1ccc(Cl)cc1)c1ccc(F)cc1)NCCCCNC(=O)c1ccc(-c2c3nc(c(-c4c(F)c(F)c(F)c(F)c4F)c4ccc([nH]4)c(-c4c(F)c(F)c(F)c(F)c4F)c4nc(c(-c5c(F)c(F)c(F)c(F)c5F)c5ccc2[nH]5)C=C4)C=C3)cc1
REMARK SMILES IDX 24 1 23 2 1 3 2 4 3 6 4 7 5 8 6 10 7 11 8 12 9 13 10 14
REMARK SMILES IDX 15 15 11 16 14 17 12 18 13 19 16 20 17 21 22 22 18 23 21 24
REMARK SMILES IDX 19 25 20 26 25 27 26 28 27 29 28 30 29 31 30 33 31 34 32 35
REMARK SMILES IDX 93 36 33 37 92 38 34 39 35 40 36 41 86 42 37 43 91 44 85 45
REMARK SMILES IDX 87 46 38 47 90 48 84 49 83 50 39 52 71 53 51 54 70 55 52 56
REMARK SMILES IDX 55 57 69 58 88 59 53 60 54 61 68 63 89 64 56 65 40 66 41 67
REMARK SMILES IDX 49 68 42 69 43 70 47 71 50 72 44 73 45 74 48 75 46 76 72 77
REMARK SMILES IDX 73 78 81 79 74 80 75 81 79 82 82 83 76 84 77 85 80 86 78 87
REMARK SMILES IDX 57 88 58 89 66 90 59 91 60 92 64 93 67 94 61 95 62 96 65 97
REMARK SMILES IDX 63 98
REMARK H PARENT 23 5 5 9 28 32 87 51 55 62
REMARK Flexibility Score: inf
ROOT
ATOM      1  C   UNL     1       2.079  -1.326   2.034  1.00  0.00     0.116 C 
ENDROOT
BRANCH   1   2
ATOM      2  N   UNL     1       2.730  -0.855   0.827  1.00  0.00    -0.356 N 
ATOM      3  O   UNL     1       1.131   0.715   0.315  1.00  0.00    -0.275 OA
ATOM      4  C   UNL     1       2.180   0.142   0.051  1.00  0.00     0.221 C 
ATOM      5  H   UNL     1       3.586  -1.258   0.555  1.00  0.00     0.163 HD
BRANCH   4   6
ATOM      6  C   UNL     1       3.013   0.501  -1.153  1.00  0.00     0.124 C 
BRANCH   6   7
ATOM      7  C   UNL     1       3.878   1.737  -0.856  1.00  0.00     0.109 C 
BRANCH   7   8
ATOM      8  N   UNL     1       5.007   1.353   0.035  1.00  0.00    -0.203 NA
ATOM      9  H   UNL     1       5.685   0.851  -0.538  1.00  0.00     0.142 HD
BRANCH   8  10
ATOM     10  S   UNL     1       5.847   2.579   0.847  1.00  0.00     0.241 S 
ATOM     11  O   UNL     1       4.880   3.575   1.247  1.00  0.00    -0.207 OA
ATOM     12  O   UNL     1       6.668   1.891   1.822  1.00  0.00    -0.207 OA
BRANCH  10  13
ATOM     13  C   UNL     1       6.935   3.271  -0.366  1.00  0.00     0.082 A 
ATOM     14  C   UNL     1       7.786   2.435  -1.095  1.00  0.00     0.023 A 
ATOM     15  C   UNL     1       6.892   4.647  -0.622  1.00  0.00     0.023 A 
ATOM     16  C   UNL     1       8.561   2.975  -2.124  1.00  0.00     0.022 A 
ATOM     17  C   UNL     1       7.673   5.181  -1.648  1.00  0.00     0.022 A 
ATOM     18  C   UNL     1       8.492   4.342  -2.404  1.00  0.00     0.041 A 
ATOM     19  Cl  UNL     1       9.409   4.994  -3.705  1.00  0.00    -0.084 Cl
ENDBRANCH  10  13
ENDBRANCH   8  10
ENDBRANCH   7   8
BRANCH   7  20
ATOM     20  C   UNL     1       4.387   2.308  -2.172  1.00  0.00    -0.029 A 
ATOM     21  C   UNL     1       4.136   3.650  -2.498  1.00  0.00     0.008 A 
ATOM     22  C   UNL     1       5.143   1.522  -3.063  1.00  0.00     0.008 A 
ATOM     23  C   UNL     1       4.642   4.195  -3.681  1.00  0.00     0.039 A 
ATOM     24  C   UNL     1       5.639   2.068  -4.247  1.00  0.00     0.039 A 
ATOM     25  C   UNL     1       5.389   3.401  -4.542  1.00  0.00     0.123 A 
ATOM     26  F   UNL     1       5.884   3.930  -5.668  1.00  0.00    -0.207 F 
ENDBRANCH   7  20
ENDBRANCH   6   7
ENDBRANCH   4   6
ENDBRANCH   1   2
BRANCH   1  27
ATOM     27  C   UNL     1       2.408  -2.787   2.330  1.00  0.00     0.023 C 
BRANCH  27  28
ATOM     28  C   UNL     1       3.888  -3.083   2.592  1.00  0.00     0.023 C 
BRANCH  28  29
ATOM     29  C   UNL     1       4.510  -2.320   3.758  1.00  0.00     0.116 C 
BRANCH  29  30
ATOM     30  N   UNL     1       3.923  -2.682   5.037  1.00  0.00    -0.352 N 
ATOM     31  C   UNL     1       4.536  -3.090   6.197  1.00  0.00     0.251 C 
ATOM     32  H   UNL     1       2.941  -2.626   5.079  1.00  0.00     0.163 HD
ATOM     33  O   UNL     1       3.860  -3.510   7.131  1.00  0.00    -0.269 OA
BRANCH  31  34
ATOM     34  C   UNL     1       6.012  -3.059   6.316  1.00  0.00     0.039 A 
ATOM     35  C   UNL     1       6.661  -4.156   6.891  1.00  0.00     0.014 A 
ATOM     36  C   UNL     1       6.755  -1.959   5.880  1.00  0.00     0.014 A 
ATOM     37  C   UNL     1       8.056  -4.179   6.966  1.00  0.00     0.010 A 
ATOM     38  C   UNL     1       8.148  -2.011   5.893  1.00  0.00     0.010 A 
ATOM     39  C   UNL     1       8.813  -3.123   6.433  1.00  0.00    -0.014 A 
BRANCH  39  40
ATOM     40  C   UNL     1      10.298  -3.172   6.419  1.00  0.00     0.031 A 
ATOM     41  C   UNL     1      11.100  -2.182   7.214  1.00  0.00     0.074 A 
ATOM     42  C   UNL     1      10.926  -4.075   5.641  1.00  0.00     0.049 A 
ATOM     43  N   UNL     1      12.399  -2.025   7.269  1.00  0.00    -0.248 NA
ATOM     44  C   UNL     1      10.345  -1.227   8.039  1.00  0.00     0.031 C 
ATOM     45  C   UNL     1      10.262  -5.069   4.797  1.00  0.00     0.029 A 
ATOM     46  N   UNL     1      12.264  -4.300   5.428  1.00  0.00    -0.354 N 
ATOM     47  C   UNL     1      12.614  -0.950   8.121  1.00  0.00     0.074 A 
ATOM     48  C   UNL     1      11.313  -0.463   8.525  1.00  0.00     0.031 C 
ATOM     49  C   UNL     1      11.192  -5.814   4.179  1.00  0.00     0.029 A 
ATOM     50  C   UNL     1      12.518  -5.326   4.550  1.00  0.00     0.049 A 
ATOM     51  H   UNL     1      12.974  -3.776   5.863  1.00  0.00     0.167 HD
ATOM     52  C   UNL     1      13.791  -0.431   8.545  1.00  0.00     0.037 A 
ATOM     53  C   UNL     1      13.685  -5.816   4.091  1.00  0.00     0.037 A 
ATOM     54  C   UNL     1      15.085  -0.935   8.166  1.00  0.00     0.049 A 
ATOM     55  C   UNL     1      14.979  -5.212   4.564  1.00  0.00     0.074 A 
ATOM     56  C   UNL     1      16.331  -0.512   8.593  1.00  0.00     0.029 A 
ATOM     57  N   UNL     1      15.299  -1.973   7.271  1.00  0.00    -0.354 N 
ATOM     58  N   UNL     1      15.169  -4.228   5.408  1.00  0.00    -0.248 NA
ATOM     59  C   UNL     1      16.219  -5.785   4.022  1.00  0.00     0.031 C 
ATOM     60  C   UNL     1      17.302  -1.262   7.922  1.00  0.00     0.029 A 
ATOM     61  C   UNL     1      16.660  -2.187   7.115  1.00  0.00     0.049 A 
ATOM     62  H   UNL     1      14.591  -2.481   6.814  1.00  0.00     0.167 HD
ATOM     63  C   UNL     1      16.545  -4.079   5.517  1.00  0.00     0.074 A 
ATOM     64  C   UNL     1      17.144  -5.080   4.660  1.00  0.00     0.031 C 
ATOM     65  C   UNL     1      17.245  -3.190   6.263  1.00  0.00     0.037 A 
BRANCH  52  66
ATOM     66  C   UNL     1      13.743   0.741   9.481  1.00  0.00     0.064 A 
ATOM     67  C   UNL     1      14.175   2.007   9.059  1.00  0.00     0.173 A 
ATOM     68  C   UNL     1      13.336   0.596  10.815  1.00  0.00     0.173 A 
ATOM     69  F   UNL     1      14.582   2.197   7.795  1.00  0.00    -0.203 F 
ATOM     70  C   UNL     1      14.212   3.082   9.943  1.00  0.00     0.198 A 
ATOM     71  C   UNL     1      13.348   1.680  11.689  1.00  0.00     0.198 A 
ATOM     72  F   UNL     1      12.906  -0.593  11.265  1.00  0.00    -0.203 F 
ATOM     73  F   UNL     1      14.659   4.275   9.527  1.00  0.00    -0.200 F 
ATOM     74  C   UNL     1      13.795   2.919  11.256  1.00  0.00     0.200 A 
ATOM     75  F   UNL     1      12.924   1.525  12.951  1.00  0.00    -0.200 F 
ATOM     76  F   UNL     1      13.822   3.957  12.103  1.00  0.00    -0.200 F 
ENDBRANCH  52  66
BRANCH  53  77
ATOM     77  C   UNL     1      13.677  -6.967   3.152  1.00  0.00     0.064 A 
ATOM     78  C   UNL     1      13.228  -6.831   1.830  1.00  0.00     0.173 A 
ATOM     79  C   UNL     1      14.087  -8.238   3.575  1.00  0.00     0.173 A 
ATOM     80  F   UNL     1      12.821  -5.636   1.378  1.00  0.00    -0.203 F 
ATOM     81  C   UNL     1      13.171  -7.929   0.974  1.00  0.00     0.198 A 
ATOM     82  C   UNL     1      14.052  -9.330   2.711  1.00  0.00     0.198 A 
ATOM     83  F   UNL     1      14.542  -8.412   4.825  1.00  0.00    -0.203 F 
ATOM     84  F   UNL     1      12.705  -7.780  -0.273  1.00  0.00    -0.200 F 
ATOM     85  C   UNL     1      13.585  -9.177   1.414  1.00  0.00     0.200 A 
ATOM     86  F   UNL     1      14.474 -10.530   3.134  1.00  0.00    -0.200 F 
ATOM     87  F   UNL     1      13.537 -10.231   0.589  1.00  0.00    -0.200 F 
ENDBRANCH  53  77
BRANCH  65  88
ATOM     88  C   UNL     1      18.743  -3.262   6.211  1.00  0.00     0.064 A 
ATOM     89  C   UNL     1      19.471  -3.710   7.324  1.00  0.00     0.173 A 
ATOM     90  C   UNL     1      19.459  -2.808   5.094  1.00  0.00     0.173 A 
ATOM     91  F   UNL     1      18.831  -4.147   8.419  1.00  0.00    -0.203 F 
ATOM     92  C   UNL     1      20.863  -3.682   7.327  1.00  0.00     0.198 A 
ATOM     93  C   UNL     1      20.852  -2.808   5.091  1.00  0.00     0.198 A 
ATOM     94  F   UNL     1      18.808  -2.384   4.001  1.00  0.00    -0.203 F 
ATOM     95  F   UNL     1      21.537  -4.080   8.415  1.00  0.00    -0.200 F 
ATOM     96  C   UNL     1      21.552  -3.234   6.210  1.00  0.00     0.200 A 
ATOM     97  F   UNL     1      21.517  -2.395   4.003  1.00  0.00    -0.200 F 
ATOM     98  F   UNL     1      22.891  -3.213   6.212  1.00  0.00    -0.200 F 
ENDBRANCH  65  88
ENDBRANCH  39  40
ENDBRANCH  31  34
ENDBRANCH  29  30
ENDBRANCH  28  29
ENDBRANCH  27  28
ENDBRANCH   1  27
TORSDOF 16
