REMARK SMILES CCCn1ccnc1C[N@@H+]1C[C@@H](C(=O)NCCCCNC(=O)c2ccc(-c3c4nc(c(-c5c(F)c(F)c(F)c(F)c5F)c5ccc([nH]5)c(-c5c(F)c(F)c(F)c(F)c5F)c5nc(c(-c6c(F)c(F)c(F)c(F)c6F)c6ccc3[nH]6)C=C5)C=C4)cc2)[C@H](c2ccccc2)C1
REMARK SMILES IDX 16 1 15 2 13 3 14 4 12 6 10 7 11 8 93 9 86 11 9 12 8 13 4 14
REMARK SMILES IDX 5 15 6 16 7 17 3 18 2 19 1 20 87 21 88 22 92 23 89 24 91 25
REMARK SMILES IDX 90 26 17 27 18 28 19 29 20 30 21 31 22 33 23 34 24 35 85 36
REMARK SMILES IDX 25 37 84 38 26 39 27 40 28 41 78 42 29 43 83 44 77 45 79 46
REMARK SMILES IDX 30 47 82 48 76 49 75 50 31 52 63 53 43 54 62 55 44 56 47 57
REMARK SMILES IDX 61 58 80 59 45 60 46 61 60 63 81 64 48 65 32 66 33 67 41 68
REMARK SMILES IDX 34 69 35 70 39 71 42 72 36 73 37 74 40 75 38 76 64 77 65 78
REMARK SMILES IDX 73 79 66 80 67 81 71 82 74 83 68 84 69 85 72 86 70 87 49 88
REMARK SMILES IDX 50 89 58 90 51 91 52 92 56 93 59 94 53 95 54 96 57 97 55 98
REMARK H PARENT 15 5 10 10 20 32 79 51 47 62
REMARK Flexibility Score: inf
ROOT
ATOM      1  C   UNL     1      -0.114   5.661  -2.099  1.00  0.00     0.116 C 
ENDROOT
BRANCH   1   2
ATOM      2  N   UNL     1      -0.874   5.963  -0.895  1.00  0.00    -0.356 N 
ATOM      3  C   UNL     1      -0.819   5.486   0.380  1.00  0.00     0.229 C 
ATOM      4  O   UNL     1      -1.409   6.152   1.238  1.00  0.00    -0.275 OA
ATOM      5  H   UNL     1      -1.567   6.649  -1.028  1.00  0.00     0.163 HD
BRANCH   3   6
ATOM      6  C   UNL     1      -0.140   4.184   0.767  1.00  0.00     0.146 C 
ATOM      7  N   UNL     1       1.892   2.943   0.389  1.00  0.00    -0.327 N 
ATOM      8  C   UNL     1       1.386   4.256   0.831  1.00  0.00     0.277 C 
ATOM      9  C   UNL     1       0.890   2.471  -0.567  1.00  0.00     0.271 C 
ATOM     10  H   UNL     1       2.805   3.014  -0.059  1.00  0.00     0.348 HD
ATOM     11  C   UNL     1      -0.485   3.029  -0.175  1.00  0.00     0.092 C 
BRANCH   7  12
ATOM     12  C   UNL     1       2.245   2.011   1.487  1.00  0.00     0.339 C 
BRANCH  12  13
ATOM     13  C   UNL     1       1.184   1.731   2.512  1.00  0.00     0.164 A 
ATOM     14  N   UNL     1       0.620   0.503   2.801  1.00  0.00    -0.330 N 
ATOM     15  C   UNL     1      -0.477   0.744   3.595  1.00  0.00     0.107 A 
ATOM     16  C   UNL     1      -0.396   2.069   3.933  1.00  0.00     0.131 A 
ATOM     17  N   UNL     1       0.670   2.651   3.312  1.00  0.00    -0.236 NA
BRANCH  14  18
ATOM     18  C   UNL     1       1.186  -0.823   2.620  1.00  0.00     0.123 C 
BRANCH  18  19
ATOM     19  C   UNL     1       0.649  -1.637   1.444  1.00  0.00     0.018 C 
ATOM     20  C   UNL     1       1.318  -1.267   0.138  1.00  0.00     0.006 C 
ENDBRANCH  18  19
ENDBRANCH  14  18
ENDBRANCH  12  13
ENDBRANCH   7  12
BRANCH  11  21
ATOM     21  C   UNL     1      -1.667   2.147   0.195  1.00  0.00    -0.038 A 
ATOM     22  C   UNL     1      -1.744   0.792  -0.146  1.00  0.00     0.004 A 
ATOM     23  C   UNL     1      -2.836   2.753   0.696  1.00  0.00     0.004 A 
ATOM     24  C   UNL     1      -2.919   0.059   0.062  1.00  0.00     0.000 A 
ATOM     25  C   UNL     1      -4.017   2.032   0.878  1.00  0.00     0.000 A 
ATOM     26  C   UNL     1      -4.055   0.679   0.571  1.00  0.00     0.000 A 
ENDBRANCH  11  21
ENDBRANCH   3   6
ENDBRANCH   1   2
BRANCH   1  27
ATOM     27  C   UNL     1      -0.746   4.712  -3.140  1.00  0.00     0.023 C 
BRANCH  27  28
ATOM     28  C   UNL     1      -2.257   4.815  -3.375  1.00  0.00     0.023 C 
BRANCH  28  29
ATOM     29  C   UNL     1      -2.643   6.097  -4.083  1.00  0.00     0.116 C 
BRANCH  29  30
ATOM     30  N   UNL     1      -1.996   6.229  -5.403  1.00  0.00    -0.352 N 
ATOM     31  C   UNL     1      -1.965   7.307  -6.281  1.00  0.00     0.251 C 
ATOM     32  H   UNL     1      -1.510   5.429  -5.709  1.00  0.00     0.163 HD
ATOM     33  O   UNL     1      -1.655   7.175  -7.449  1.00  0.00    -0.269 OA
BRANCH  31  34
ATOM     34  C   UNL     1      -2.296   8.634  -5.739  1.00  0.00     0.039 A 
ATOM     35  C   UNL     1      -3.072   9.592  -6.397  1.00  0.00     0.014 A 
ATOM     36  C   UNL     1      -1.887   8.839  -4.440  1.00  0.00     0.014 A 
ATOM     37  C   UNL     1      -3.420  10.742  -5.687  1.00  0.00     0.010 A 
ATOM     38  C   UNL     1      -2.664   9.642  -3.682  1.00  0.00     0.010 A 
ATOM     39  C   UNL     1      -3.173  10.753  -4.311  1.00  0.00    -0.014 A 
BRANCH  39  40
ATOM     40  C   UNL     1      -3.435  11.857  -3.410  1.00  0.00     0.031 A 
ATOM     41  C   UNL     1      -4.867  12.176  -3.253  1.00  0.00     0.074 A 
ATOM     42  C   UNL     1      -2.477  12.313  -2.566  1.00  0.00     0.049 A 
ATOM     43  N   UNL     1      -5.485  13.227  -3.670  1.00  0.00    -0.248 NA
ATOM     44  C   UNL     1      -5.752  11.129  -2.721  1.00  0.00     0.031 C 
ATOM     45  C   UNL     1      -1.100  11.830  -2.356  1.00  0.00     0.029 A 
ATOM     46  N   UNL     1      -2.581  13.291  -1.629  1.00  0.00    -0.354 N 
ATOM     47  C   UNL     1      -6.809  13.067  -3.276  1.00  0.00     0.074 A 
ATOM     48  C   UNL     1      -6.951  11.685  -2.902  1.00  0.00     0.031 C 
ATOM     49  C   UNL     1      -0.587  12.373  -1.227  1.00  0.00     0.029 A 
ATOM     50  C   UNL     1      -1.520  13.363  -0.731  1.00  0.00     0.049 A 
ATOM     51  H   UNL     1      -3.350  13.905  -1.589  1.00  0.00     0.167 HD
ATOM     52  C   UNL     1      -7.607  14.148  -3.057  1.00  0.00     0.037 A 
ATOM     53  C   UNL     1      -1.460  14.172   0.358  1.00  0.00     0.037 A 
ATOM     54  C   UNL     1      -7.005  15.343  -3.601  1.00  0.00     0.049 A 
ATOM     55  C   UNL     1      -2.461  15.254   0.140  1.00  0.00     0.074 A 
ATOM     56  C   UNL     1      -6.649  15.748  -4.873  1.00  0.00     0.029 A 
ATOM     57  N   UNL     1      -6.292  16.148  -2.744  1.00  0.00    -0.354 N 
ATOM     58  N   UNL     1      -2.358  16.143  -0.813  1.00  0.00    -0.248 NA
ATOM     59  C   UNL     1      -3.812  15.015   0.629  1.00  0.00     0.031 C 
ATOM     60  C   UNL     1      -5.391  16.403  -4.711  1.00  0.00     0.029 A 
ATOM     61  C   UNL     1      -5.093  16.440  -3.348  1.00  0.00     0.049 A 
ATOM     62  H   UNL     1      -6.587  16.459  -1.857  1.00  0.00     0.167 HD
ATOM     63  C   UNL     1      -3.643  16.270  -1.325  1.00  0.00     0.074 A 
ATOM     64  C   UNL     1      -4.505  15.584  -0.362  1.00  0.00     0.031 C 
ATOM     65  C   UNL     1      -3.858  16.645  -2.623  1.00  0.00     0.037 A 
BRANCH  52  66
ATOM     66  C   UNL     1      -8.733  14.203  -2.054  1.00  0.00     0.064 A 
ATOM     67  C   UNL     1      -9.557  15.345  -2.023  1.00  0.00     0.173 A 
ATOM     68  C   UNL     1      -8.866  13.331  -0.952  1.00  0.00     0.173 A 
ATOM     69  F   UNL     1      -9.516  16.245  -3.018  1.00  0.00    -0.203 F 
ATOM     70  C   UNL     1     -10.378  15.636  -0.931  1.00  0.00     0.198 A 
ATOM     71  C   UNL     1      -9.727  13.597   0.111  1.00  0.00     0.198 A 
ATOM     72  F   UNL     1      -8.099  12.247  -0.796  1.00  0.00    -0.203 F 
ATOM     73  F   UNL     1     -11.043  16.798  -0.891  1.00  0.00    -0.200 F 
ATOM     74  C   UNL     1     -10.455  14.766   0.140  1.00  0.00     0.200 A 
ATOM     75  F   UNL     1      -9.778  12.745   1.145  1.00  0.00    -0.200 F 
ATOM     76  F   UNL     1     -11.190  15.072   1.216  1.00  0.00    -0.200 F 
ENDBRANCH  52  66
BRANCH  53  77
ATOM     77  C   UNL     1      -0.894  13.851   1.692  1.00  0.00     0.064 A 
ATOM     78  C   UNL     1      -0.589  14.856   2.624  1.00  0.00     0.173 A 
ATOM     79  C   UNL     1      -0.901  12.529   2.181  1.00  0.00     0.173 A 
ATOM     80  F   UNL     1      -0.609  16.144   2.255  1.00  0.00    -0.203 F 
ATOM     81  C   UNL     1      -0.322  14.556   3.967  1.00  0.00     0.198 A 
ATOM     82  C   UNL     1      -0.634  12.231   3.519  1.00  0.00     0.198 A 
ATOM     83  F   UNL     1      -1.261  11.509   1.388  1.00  0.00    -0.203 F 
ATOM     84  F   UNL     1      -0.085  15.546   4.840  1.00  0.00    -0.200 F 
ATOM     85  C   UNL     1      -0.355  13.245   4.415  1.00  0.00     0.200 A 
ATOM     86  F   UNL     1      -0.711  10.963   3.947  1.00  0.00    -0.200 F 
ATOM     87  F   UNL     1      -0.159  12.964   5.711  1.00  0.00    -0.200 F 
ENDBRANCH  53  77
BRANCH  65  88
ATOM     88  C   UNL     1      -2.667  17.102  -3.429  1.00  0.00     0.064 A 
ATOM     89  C   UNL     1      -1.580  16.276  -3.770  1.00  0.00     0.173 A 
ATOM     90  C   UNL     1      -2.706  18.372  -4.016  1.00  0.00     0.173 A 
ATOM     91  F   UNL     1      -1.514  15.013  -3.339  1.00  0.00    -0.203 F 
ATOM     92  C   UNL     1      -0.565  16.715  -4.620  1.00  0.00     0.198 A 
ATOM     93  C   UNL     1      -1.709  18.798  -4.892  1.00  0.00     0.198 A 
ATOM     94  F   UNL     1      -3.746  19.187  -3.781  1.00  0.00    -0.203 F 
ATOM     95  F   UNL     1       0.460  15.903  -4.921  1.00  0.00    -0.200 F 
ATOM     96  C   UNL     1      -0.634  17.974  -5.187  1.00  0.00     0.200 A 
ATOM     97  F   UNL     1      -1.808  19.999  -5.478  1.00  0.00    -0.200 F 
ATOM     98  F   UNL     1       0.317  18.385  -6.037  1.00  0.00    -0.200 F 
ENDBRANCH  65  88
ENDBRANCH  39  40
ENDBRANCH  31  34
ENDBRANCH  29  30
ENDBRANCH  28  29
ENDBRANCH  27  28
ENDBRANCH   1  27
TORSDOF 16
