REMARK SMILES O=C(NCCCCNC(=O)c1ccc(-c2c3nc(c(-c4c(F)c(F)c(F)c(F)c4F)c4ccc([nH]4)c(-c4c(F)c(F)c(F)c(F)c4F)c4nc(c(-c5c(F)c(F)c(F)c(F)c5F)c5ccc2[nH]5)C=C4)C=C3)cc1)C1=Cc2cc(Cl)cc(C#Cc3ccccc3)c2O[C@@H]1C(F)(F)F
REMARK SMILES IDX 5 1 4 2 3 3 1 4 2 5 74 7 75 8 92 9 76 10 91 11 77 12 90 13
REMARK SMILES IDX 78 14 81 15 79 16 80 17 93 18 94 19 95 20 96 21 82 22 83 23
REMARK SMILES IDX 84 24 85 25 89 26 86 27 88 28 87 29 6 30 7 31 8 32 9 33
REMARK SMILES IDX 10 35 11 36 12 37 73 38 13 39 72 40 14 41 15 42 16 43 66 44
REMARK SMILES IDX 17 45 71 46 65 47 67 48 18 49 70 50 64 51 63 52 19 54 51 55
REMARK SMILES IDX 31 56 50 57 32 58 35 59 49 60 68 61 33 62 34 63 48 65 69 66
REMARK SMILES IDX 36 67 20 68 21 69 29 70 22 71 23 72 27 73 30 74 24 75 25 76
REMARK SMILES IDX 28 77 26 78 52 79 53 80 61 81 54 82 55 83 59 84 62 85 56 86
REMARK SMILES IDX 57 87 60 88 58 89 37 90 38 91 46 92 39 93 40 94 44 95 47 96
REMARK SMILES IDX 41 97 42 98 45 99 43 100
REMARK H PARENT 3 6 8 34 67 53 35 64
REMARK Flexibility Score: inf
ROOT
ATOM      1  C   UNL     1       4.325   1.550  -2.876  1.00  0.00     0.023 C 
ENDROOT
BRANCH   1   2
ATOM      2  C   UNL     1       3.789   1.239  -1.486  1.00  0.00     0.116 C 
BRANCH   2   3
ATOM      3  N   UNL     1       2.584   0.438  -1.440  1.00  0.00    -0.352 N 
ATOM      4  O   UNL     1       1.062  -0.944  -0.548  1.00  0.00    -0.270 OA
ATOM      5  C   UNL     1       2.235  -0.570  -0.584  1.00  0.00     0.251 C 
ATOM      6  H   UNL     1       1.914   0.652  -2.129  1.00  0.00     0.163 HD
BRANCH   5   7
ATOM      7  C   UNL     1       3.196  -1.177   0.385  1.00  0.00     0.067 C 
ATOM      8  C   UNL     1       4.462  -1.500   0.062  1.00  0.00     0.025 C 
ATOM      9  C   UNL     1       2.919  -0.757   1.808  1.00  0.00     0.314 C 
ATOM     10  C   UNL     1       5.445  -0.556   0.677  1.00  0.00     0.020 A 
ATOM     11  O   UNL     1       3.758   0.375   2.177  1.00  0.00    -0.474 OA
ATOM     12  C   UNL     1       6.684  -0.440   0.034  1.00  0.00     0.032 A 
ATOM     13  C   UNL     1       4.978   0.467   1.539  1.00  0.00     0.143 A 
ATOM     14  C   UNL     1       7.396   0.750   0.147  1.00  0.00     0.043 A 
ATOM     15  C   UNL     1       5.683   1.681   1.601  1.00  0.00     0.069 A 
ATOM     16  Cl  UNL     1       8.806   0.983  -0.811  1.00  0.00    -0.084 Cl
ATOM     17  C   UNL     1       6.893   1.812   0.899  1.00  0.00     0.041 A 
BRANCH   9  18
ATOM     18  C   UNL     1       3.035  -1.951   2.775  1.00  0.00     0.429 C 
ATOM     19  F   UNL     1       2.650  -1.621   4.029  1.00  0.00    -0.167 F 
ATOM     20  F   UNL     1       2.244  -2.980   2.379  1.00  0.00    -0.167 F 
ATOM     21  F   UNL     1       4.297  -2.437   2.856  1.00  0.00    -0.167 F 
ENDBRANCH   9  18
BRANCH  15  22
ATOM     22  C   UNL     1       5.122   2.883   2.163  1.00  0.00    -0.058 C 
ATOM     23  C   UNL     1       4.730   3.964   2.515  1.00  0.00    -0.062 C 
BRANCH  23  24
ATOM     24  C   UNL     1       4.349   5.295   2.901  1.00  0.00     0.025 A 
ATOM     25  C   UNL     1       4.583   6.375   2.046  1.00  0.00     0.017 A 
ATOM     26  C   UNL     1       3.792   5.537   4.154  1.00  0.00     0.017 A 
ATOM     27  C   UNL     1       4.262   7.682   2.426  1.00  0.00     0.001 A 
ATOM     28  C   UNL     1       3.488   6.845   4.549  1.00  0.00     0.001 A 
ATOM     29  C   UNL     1       3.722   7.916   3.686  1.00  0.00     0.000 A 
ENDBRANCH  23  24
ENDBRANCH  15  22
ENDBRANCH   5   7
ENDBRANCH   2   3
ENDBRANCH   1   2
BRANCH   1  30
ATOM     30  C   UNL     1       4.182   3.007  -3.283  1.00  0.00     0.023 C 
BRANCH  30  31
ATOM     31  C   UNL     1       4.822   4.031  -2.350  1.00  0.00     0.116 C 
BRANCH  31  32
ATOM     32  N   UNL     1       6.274   3.964  -2.239  1.00  0.00    -0.352 N 
ATOM     33  C   UNL     1       7.185   5.003  -2.241  1.00  0.00     0.251 C 
ATOM     34  H   UNL     1       6.655   3.061  -2.151  1.00  0.00     0.163 HD
ATOM     35  O   UNL     1       8.388   4.782  -2.154  1.00  0.00    -0.269 OA
BRANCH  33  36
ATOM     36  C   UNL     1       6.703   6.396  -2.395  1.00  0.00     0.039 A 
ATOM     37  C   UNL     1       7.288   7.230  -3.348  1.00  0.00     0.014 A 
ATOM     38  C   UNL     1       5.602   6.842  -1.665  1.00  0.00     0.014 A 
ATOM     39  C   UNL     1       6.681   8.451  -3.654  1.00  0.00     0.010 A 
ATOM     40  C   UNL     1       4.957   8.020  -2.010  1.00  0.00     0.010 A 
ATOM     41  C   UNL     1       5.473   8.818  -3.034  1.00  0.00    -0.014 A 
BRANCH  41  42
ATOM     42  C   UNL     1       4.660   9.950  -3.537  1.00  0.00     0.031 A 
ATOM     43  C   UNL     1       4.388  11.149  -2.683  1.00  0.00     0.074 A 
ATOM     44  C   UNL     1       4.065   9.824  -4.739  1.00  0.00     0.049 A 
ATOM     45  N   UNL     1       3.696  12.223  -2.966  1.00  0.00    -0.248 NA
ATOM     46  C   UNL     1       4.937  11.127  -1.319  1.00  0.00     0.031 C 
ATOM     47  C   UNL     1       4.164   8.648  -5.606  1.00  0.00     0.029 A 
ATOM     48  N   UNL     1       3.248  10.680  -5.431  1.00  0.00    -0.354 N 
ATOM     49  C   UNL     1       3.742  13.012  -1.827  1.00  0.00     0.074 A 
ATOM     50  C   UNL     1       4.461  12.258  -0.821  1.00  0.00     0.031 C 
ATOM     51  C   UNL     1       3.462   8.868  -6.727  1.00  0.00     0.029 A 
ATOM     52  C   UNL     1       2.835  10.183  -6.643  1.00  0.00     0.049 A 
ATOM     53  H   UNL     1       2.982  11.565  -5.092  1.00  0.00     0.167 HD
ATOM     54  C   UNL     1       3.253  14.264  -1.650  1.00  0.00     0.037 A 
ATOM     55  C   UNL     1       2.038  10.726  -7.582  1.00  0.00     0.037 A 
ATOM     56  C   UNL     1       2.515  14.988  -2.654  1.00  0.00     0.049 A 
ATOM     57  C   UNL     1       1.493  12.109  -7.362  1.00  0.00     0.074 A 
ATOM     58  C   UNL     1       2.035  16.284  -2.607  1.00  0.00     0.029 A 
ATOM     59  N   UNL     1       2.125  14.464  -3.881  1.00  0.00    -0.354 N 
ATOM     60  N   UNL     1       1.653  12.905  -6.333  1.00  0.00    -0.248 NA
ATOM     61  C   UNL     1       0.667  12.673  -8.437  1.00  0.00     0.031 C 
ATOM     62  C   UNL     1       1.293  16.519  -3.771  1.00  0.00     0.029 A 
ATOM     63  C   UNL     1       1.370  15.396  -4.579  1.00  0.00     0.049 A 
ATOM     64  H   UNL     1       2.351  13.563  -4.207  1.00  0.00     0.167 HD
ATOM     65  C   UNL     1       0.960  14.069  -6.638  1.00  0.00     0.074 A 
ATOM     66  C   UNL     1       0.402  13.882  -7.963  1.00  0.00     0.031 C 
ATOM     67  C   UNL     1       0.799  15.188  -5.888  1.00  0.00     0.037 A 
BRANCH  54  68
ATOM     68  C   UNL     1       3.497  14.917  -0.317  1.00  0.00     0.064 A 
ATOM     69  C   UNL     1       4.793  15.246   0.117  1.00  0.00     0.173 A 
ATOM     70  C   UNL     1       2.428  15.228   0.536  1.00  0.00     0.173 A 
ATOM     71  F   UNL     1       5.855  14.968  -0.655  1.00  0.00    -0.203 F 
ATOM     72  C   UNL     1       5.011  15.809   1.371  1.00  0.00     0.198 A 
ATOM     73  C   UNL     1       2.646  15.828   1.774  1.00  0.00     0.198 A 
ATOM     74  F   UNL     1       1.167  14.947   0.173  1.00  0.00    -0.203 F 
ATOM     75  F   UNL     1       6.262  16.043   1.790  1.00  0.00    -0.200 F 
ATOM     76  C   UNL     1       3.937  16.105   2.197  1.00  0.00     0.200 A 
ATOM     77  F   UNL     1       1.606  16.129   2.564  1.00  0.00    -0.200 F 
ATOM     78  F   UNL     1       4.148  16.644   3.405  1.00  0.00    -0.200 F 
ENDBRANCH  54  68
BRANCH  55  79
ATOM     79  C   UNL     1       1.742   9.959  -8.819  1.00  0.00     0.064 A 
ATOM     80  C   UNL     1       2.275  10.345 -10.056  1.00  0.00     0.173 A 
ATOM     81  C   UNL     1       0.958   8.796  -8.782  1.00  0.00     0.173 A 
ATOM     82  F   UNL     1       3.018  11.458 -10.146  1.00  0.00    -0.203 F 
ATOM     83  C   UNL     1       2.026   9.604 -11.210  1.00  0.00     0.198 A 
ATOM     84  C   UNL     1       0.736   8.038  -9.930  1.00  0.00     0.198 A 
ATOM     85  F   UNL     1       0.434   8.376  -7.620  1.00  0.00    -0.203 F 
ATOM     86  F   UNL     1       2.522  10.014 -12.386  1.00  0.00    -0.200 F 
ATOM     87  C   UNL     1       1.266   8.446 -11.144  1.00  0.00     0.200 A 
ATOM     88  F   UNL     1       0.020   6.908  -9.856  1.00  0.00    -0.200 F 
ATOM     89  F   UNL     1       1.044   7.723 -12.250  1.00  0.00    -0.200 F 
ENDBRANCH  55  79
BRANCH  67  90
ATOM     90  C   UNL     1      -0.016  16.301  -6.485  1.00  0.00     0.064 A 
ATOM     91  C   UNL     1      -1.402  16.179  -6.673  1.00  0.00     0.173 A 
ATOM     92  C   UNL     1       0.588  17.516  -6.841  1.00  0.00     0.173 A 
ATOM     93  F   UNL     1      -2.028  15.033  -6.364  1.00  0.00    -0.203 F 
ATOM     94  C   UNL     1      -2.145  17.221  -7.222  1.00  0.00     0.198 A 
ATOM     95  C   UNL     1      -0.164  18.569  -7.355  1.00  0.00     0.198 A 
ATOM     96  F   UNL     1       1.908  17.689  -6.678  1.00  0.00    -0.203 F 
ATOM     97  F   UNL     1      -3.457  17.061  -7.444  1.00  0.00    -0.200 F 
ATOM     98  C   UNL     1      -1.528  18.417  -7.554  1.00  0.00     0.200 A 
ATOM     99  F   UNL     1       0.432  19.730  -7.659  1.00  0.00    -0.200 F 
ATOM    100  F   UNL     1      -2.246  19.422  -8.074  1.00  0.00    -0.200 F 
ENDBRANCH  67  90
ENDBRANCH  41  42
ENDBRANCH  33  36
ENDBRANCH  31  32
ENDBRANCH  30  31
ENDBRANCH   1  30
TORSDOF 14
