REMARK SMILES CC(C)N(c1cc2c(cc1Cl)C=C(C(=O)NCCCCNC(=O)c1ccc(-c3c4nc(c(-c5c(F)c(F)c(F)c(F)c5F)c5ccc([nH]5)c(-c5c(F)c(F)c(F)c(F)c5F)c5nc(c(-c6c(F)c(F)c(F)c(F)c6F)c6ccc3[nH]6)C=C5)C=C4)cc1)[C@@H](C(F)(F)F)O2)C(C)C
REMARK SMILES IDX 18 1 17 2 16 3 14 4 15 5 13 7 5 8 6 9 10 10 7 11 9 12 11 13
REMARK SMILES IDX 8 14 92 15 12 16 87 17 4 18 2 19 1 20 3 21 93 22 94 23 95 24
REMARK SMILES IDX 88 25 89 26 90 27 91 28 19 29 20 30 21 31 22 32 23 34 24 35
REMARK SMILES IDX 25 36 86 37 26 38 85 39 27 40 28 41 29 42 79 43 30 44 84 45
REMARK SMILES IDX 78 46 80 47 31 48 83 49 77 50 76 51 32 53 64 54 44 55 63 56
REMARK SMILES IDX 45 57 48 58 62 59 81 60 46 61 47 62 61 64 82 65 49 66 33 67
REMARK SMILES IDX 34 68 42 69 35 70 36 71 40 72 43 73 37 74 38 75 41 76 39 77
REMARK SMILES IDX 65 78 66 79 74 80 67 81 68 82 72 83 75 84 69 85 70 86 73 87
REMARK SMILES IDX 71 88 50 89 51 90 59 91 52 92 53 93 57 94 60 95 54 96 55 97
REMARK SMILES IDX 58 98 56 99
REMARK H PARENT 16 6 21 33 80 52 48 63
REMARK Flexibility Score: inf
ROOT
ATOM      1  C   UNL     1      -7.410   6.335  -3.030  1.00  0.00     0.023 C 
ENDROOT
BRANCH   1   2
ATOM      2  C   UNL     1      -7.622   5.033  -3.797  1.00  0.00     0.116 C 
BRANCH   2   3
ATOM      3  N   UNL     1      -6.748   4.938  -4.952  1.00  0.00    -0.352 N 
ATOM      4  C   UNL     1      -5.585   4.317  -5.260  1.00  0.00     0.251 C 
ATOM      5  O   UNL     1      -5.167   4.529  -6.402  1.00  0.00    -0.270 OA
ATOM      6  H   UNL     1      -7.092   5.462  -5.712  1.00  0.00     0.163 HD
BRANCH   4   7
ATOM      7  C   UNL     1      -4.813   3.428  -4.344  1.00  0.00     0.067 C 
ATOM      8  C   UNL     1      -1.405   0.269  -2.320  1.00  0.00     0.060 A 
ATOM      9  C   UNL     1      -2.436   1.084  -1.816  1.00  0.00     0.074 A 
ATOM     10  C   UNL     1      -1.123   0.384  -3.703  1.00  0.00     0.065 A 
ATOM     11  C   UNL     1      -3.175   1.924  -2.648  1.00  0.00     0.130 A 
ATOM     12  C   UNL     1      -1.830   1.279  -4.524  1.00  0.00     0.034 A 
ATOM     13  Cl  UNL     1       0.031  -0.625  -4.513  1.00  0.00    -0.082 Cl
ATOM     14  C   UNL     1      -2.869   2.043  -3.999  1.00  0.00     0.019 A 
ATOM     15  O   UNL     1      -4.196   2.628  -2.071  1.00  0.00    -0.475 OA
ATOM     16  C   UNL     1      -3.644   2.961  -4.825  1.00  0.00     0.025 C 
ATOM     17  C   UNL     1      -5.274   2.997  -2.979  1.00  0.00     0.314 C 
BRANCH   8  18
ATOM     18  N   UNL     1      -0.747  -0.617  -1.443  1.00  0.00    -0.365 N 
BRANCH  18  19
ATOM     19  C   UNL     1       0.719  -0.472  -1.311  1.00  0.00     0.076 C 
ATOM     20  C   UNL     1       1.134   0.196  -0.002  1.00  0.00     0.030 C 
ATOM     21  C   UNL     1       1.476  -1.782  -1.516  1.00  0.00     0.030 C 
ENDBRANCH  18  19
BRANCH  18  22
ATOM     22  C   UNL     1      -1.616  -1.509  -0.639  1.00  0.00     0.076 C 
ATOM     23  C   UNL     1      -1.403  -2.985  -0.962  1.00  0.00     0.030 C 
ATOM     24  C   UNL     1      -1.539  -1.249   0.861  1.00  0.00     0.030 C 
ENDBRANCH  18  22
ENDBRANCH   8  18
BRANCH  17  25
ATOM     25  C   UNL     1      -6.320   1.864  -3.041  1.00  0.00     0.429 C 
ATOM     26  F   UNL     1      -6.937   1.723  -1.841  1.00  0.00    -0.167 F 
ATOM     27  F   UNL     1      -7.298   2.115  -3.945  1.00  0.00    -0.167 F 
ATOM     28  F   UNL     1      -5.785   0.667  -3.366  1.00  0.00    -0.167 F 
ENDBRANCH  17  25
ENDBRANCH   4   7
ENDBRANCH   2   3
ENDBRANCH   1   2
BRANCH   1  29
ATOM     29  C   UNL     1      -8.136   7.540  -3.629  1.00  0.00     0.023 C 
BRANCH  29  30
ATOM     30  C   UNL     1      -9.640   7.367  -3.824  1.00  0.00     0.116 C 
BRANCH  30  31
ATOM     31  N   UNL     1     -10.349   6.923  -2.631  1.00  0.00    -0.352 N 
ATOM     32  C   UNL     1     -11.649   7.202  -2.274  1.00  0.00     0.251 C 
ATOM     33  H   UNL     1      -9.839   6.358  -2.007  1.00  0.00     0.163 HD
ATOM     34  O   UNL     1     -12.119   6.808  -1.214  1.00  0.00    -0.269 OA
BRANCH  32  35
ATOM     35  C   UNL     1     -12.447   8.043  -3.183  1.00  0.00     0.039 A 
ATOM     36  C   UNL     1     -12.608   7.663  -4.518  1.00  0.00     0.014 A 
ATOM     37  C   UNL     1     -12.903   9.280  -2.724  1.00  0.00     0.014 A 
ATOM     38  C   UNL     1     -13.087   8.592  -5.433  1.00  0.00     0.010 A 
ATOM     39  C   UNL     1     -13.440  10.188  -3.636  1.00  0.00     0.010 A 
ATOM     40  C   UNL     1     -13.483   9.870  -5.003  1.00  0.00    -0.014 A 
BRANCH  40  41
ATOM     41  C   UNL     1     -13.899  10.883  -6.000  1.00  0.00     0.031 A 
ATOM     42  C   UNL     1     -13.039  12.089  -6.261  1.00  0.00     0.074 A 
ATOM     43  C   UNL     1     -15.024  10.686  -6.709  1.00  0.00     0.049 A 
ATOM     44  N   UNL     1     -13.266  13.111  -7.047  1.00  0.00    -0.248 NA
ATOM     45  C   UNL     1     -11.754  12.158  -5.546  1.00  0.00     0.031 C 
ATOM     46  C   UNL     1     -15.911   9.531  -6.574  1.00  0.00     0.029 A 
ATOM     47  N   UNL     1     -15.602  11.441  -7.696  1.00  0.00    -0.354 N 
ATOM     48  C   UNL     1     -12.170  13.952  -6.903  1.00  0.00     0.074 A 
ATOM     49  C   UNL     1     -11.279  13.329  -5.948  1.00  0.00     0.031 C 
ATOM     50  C   UNL     1     -16.898   9.630  -7.477  1.00  0.00     0.029 A 
ATOM     51  C   UNL     1     -16.746  10.884  -8.208  1.00  0.00     0.049 A 
ATOM     52  H   UNL     1     -15.232  12.298  -8.007  1.00  0.00     0.167 HD
ATOM     53  C   UNL     1     -11.933  15.136  -7.516  1.00  0.00     0.037 A 
ATOM     54  C   UNL     1     -17.589  11.343  -9.150  1.00  0.00     0.037 A 
ATOM     55  C   UNL     1     -12.814  15.743  -8.479  1.00  0.00     0.049 A 
ATOM     56  C   UNL     1     -17.317  12.672  -9.792  1.00  0.00     0.074 A 
ATOM     57  C   UNL     1     -12.683  16.959  -9.127  1.00  0.00     0.029 A 
ATOM     58  N   UNL     1     -13.986  15.166  -8.946  1.00  0.00    -0.354 N 
ATOM     59  N   UNL     1     -16.315  13.493  -9.596  1.00  0.00    -0.248 NA
ATOM     60  C   UNL     1     -18.301  13.145 -10.774  1.00  0.00     0.031 C 
ATOM     61  C   UNL     1     -13.785  17.126  -9.973  1.00  0.00     0.029 A 
ATOM     62  C   UNL     1     -14.585  15.999  -9.876  1.00  0.00     0.049 A 
ATOM     63  H   UNL     1     -14.339  14.293  -8.658  1.00  0.00     0.167 HD
ATOM     64  C   UNL     1     -16.541  14.576 -10.431  1.00  0.00     0.074 A 
ATOM     65  C   UNL     1     -17.767  14.299 -11.152  1.00  0.00     0.031 C 
ATOM     66  C   UNL     1     -15.804  15.702 -10.582  1.00  0.00     0.037 A 
BRANCH  53  67
ATOM     67  C   UNL     1     -10.677  15.870  -7.154  1.00  0.00     0.064 A 
ATOM     68  C   UNL     1      -9.427  15.471  -7.649  1.00  0.00     0.173 A 
ATOM     69  C   UNL     1     -10.732  17.021  -6.353  1.00  0.00     0.173 A 
ATOM     70  F   UNL     1      -9.322  14.368  -8.404  1.00  0.00    -0.203 F 
ATOM     71  C   UNL     1      -8.275  16.195  -7.349  1.00  0.00     0.198 A 
ATOM     72  C   UNL     1      -9.581  17.753  -6.072  1.00  0.00     0.198 A 
ATOM     73  F   UNL     1     -11.904  17.443  -5.857  1.00  0.00    -0.203 F 
ATOM     74  F   UNL     1      -7.087  15.782  -7.811  1.00  0.00    -0.200 F 
ATOM     75  C   UNL     1      -8.354  17.339  -6.568  1.00  0.00     0.200 A 
ATOM     76  F   UNL     1      -9.660  18.862  -5.323  1.00  0.00    -0.200 F 
ATOM     77  F   UNL     1      -7.247  18.041  -6.290  1.00  0.00    -0.200 F 
ENDBRANCH  53  67
BRANCH  54  78
ATOM     78  C   UNL     1     -18.765  10.527  -9.534  1.00  0.00     0.064 A 
ATOM     79  C   UNL     1     -18.806   9.867 -10.769  1.00  0.00     0.173 A 
ATOM     80  C   UNL     1     -19.848  10.354  -8.660  1.00  0.00     0.173 A 
ATOM     81  F   UNL     1     -17.801  10.020 -11.643  1.00  0.00    -0.203 F 
ATOM     82  C   UNL     1     -19.888   9.061 -11.115  1.00  0.00     0.198 A 
ATOM     83  C   UNL     1     -20.918   9.530  -8.998  1.00  0.00     0.198 A 
ATOM     84  F   UNL     1     -19.850  10.963  -7.465  1.00  0.00    -0.203 F 
ATOM     85  F   UNL     1     -19.914   8.456 -12.310  1.00  0.00    -0.200 F 
ATOM     86  C   UNL     1     -20.939   8.886 -10.226  1.00  0.00     0.200 A 
ATOM     87  F   UNL     1     -21.923   9.351  -8.130  1.00  0.00    -0.200 F 
ATOM     88  F   UNL     1     -21.971   8.098 -10.553  1.00  0.00    -0.200 F 
ENDBRANCH  54  78
BRANCH  66  89
ATOM     89  C   UNL     1     -16.294  16.707 -11.577  1.00  0.00     0.064 A 
ATOM     90  C   UNL     1     -17.374  17.553 -11.286  1.00  0.00     0.173 A 
ATOM     91  C   UNL     1     -15.657  16.849 -12.818  1.00  0.00     0.173 A 
ATOM     92  F   UNL     1     -18.021  17.443 -10.117  1.00  0.00    -0.203 F 
ATOM     93  C   UNL     1     -17.811  18.495 -12.213  1.00  0.00     0.198 A 
ATOM     94  C   UNL     1     -16.084  17.804 -13.734  1.00  0.00     0.198 A 
ATOM     95  F   UNL     1     -14.617  16.063 -13.137  1.00  0.00    -0.203 F 
ATOM     96  F   UNL     1     -18.866  19.270 -11.931  1.00  0.00    -0.200 F 
ATOM     97  C   UNL     1     -17.163  18.622 -13.434  1.00  0.00     0.200 A 
ATOM     98  F   UNL     1     -15.454  17.931 -14.910  1.00  0.00    -0.200 F 
ATOM     99  F   UNL     1     -17.585  19.530 -14.325  1.00  0.00    -0.200 F 
ENDBRANCH  66  89
ENDBRANCH  40  41
ENDBRANCH  32  35
ENDBRANCH  30  31
ENDBRANCH  29  30
ENDBRANCH   1  29
TORSDOF 15
