REMARK SMILES COc1ccc(-c2nc(SCC(=O)NCCCCNC(=O)c3ccc(-c4c5nc(c(-c6c(F)c(F)c(F)c(F)c6F)c6ccc([nH]6)c(-c6c(F)c(F)c(F)c(F)c6F)c6nc(c(-c7c(F)c(F)c(F)c(F)c7F)c7ccc4[nH]7)C=C6)C=C5)cc3)cc(-c3ccncc3)n2)cc1
REMARK SMILES IDX 15 1 14 2 12 3 13 4 11 6 10 7 9 8 7 9 8 10 93 11 86 12 85 13
REMARK SMILES IDX 6 14 3 15 4 16 95 17 5 18 94 19 2 20 1 21 87 22 88 23 92 24
REMARK SMILES IDX 89 25 91 26 90 27 16 28 17 29 18 30 19 31 20 32 21 34 22 35
REMARK SMILES IDX 23 36 84 37 24 38 83 39 25 40 26 41 27 42 77 43 28 44 82 45
REMARK SMILES IDX 76 46 78 47 29 48 81 49 75 50 74 51 30 53 62 54 42 55 61 56
REMARK SMILES IDX 43 57 46 58 60 59 79 60 44 61 45 62 59 64 80 65 47 66 31 67
REMARK SMILES IDX 32 68 40 69 33 70 34 71 38 72 41 73 35 74 36 75 39 76 37 77
REMARK SMILES IDX 63 78 64 79 72 80 65 81 66 82 70 83 73 84 67 85 68 86 71 87
REMARK SMILES IDX 69 88 48 89 49 90 57 91 50 92 51 93 55 94 58 95 52 96 53 97
REMARK SMILES IDX 56 98 54 99
REMARK H PARENT 14 5 19 33 78 52 46 63
REMARK Flexibility Score: inf
ROOT
ATOM      1  C   UNL     1       2.283   4.126 -10.248  1.00  0.00     0.116 C 
ENDROOT
BRANCH   1   2
ATOM      2  N   UNL     1       3.146   3.088 -10.774  1.00  0.00    -0.355 N 
ATOM      3  C   UNL     1       2.840   1.813 -11.134  1.00  0.00     0.230 C 
ATOM      4  O   UNL     1       3.773   1.073 -11.460  1.00  0.00    -0.274 OA
ATOM      5  H   UNL     1       4.090   3.343 -10.889  1.00  0.00     0.163 HD
BRANCH   3   6
ATOM      6  C   UNL     1       1.401   1.334 -11.205  1.00  0.00     0.176 C 
BRANCH   6   7
ATOM      7  S   UNL     1       0.566   1.172  -9.597  1.00  0.00    -0.096 SA
BRANCH   7   8
ATOM      8  C   UNL     1       1.593   0.080  -8.642  1.00  0.00     0.101 A 
ATOM      9  C   UNL     1       2.044  -0.702  -6.528  1.00  0.00     0.161 A 
ATOM     10  N   UNL     1       1.299   0.078  -7.330  1.00  0.00    -0.222 NA
ATOM     11  N   UNL     1       3.074  -1.461  -6.937  1.00  0.00    -0.228 NA
ATOM     12  C   UNL     1       3.328  -1.452  -8.259  1.00  0.00     0.076 A 
ATOM     13  C   UNL     1       2.586  -0.713  -9.158  1.00  0.00     0.064 A 
BRANCH   9  14
ATOM     14  C   UNL     1       1.674  -0.745  -5.109  1.00  0.00     0.019 A 
ATOM     15  C   UNL     1       0.933  -0.815  -2.380  1.00  0.00     0.118 A 
ATOM     16  C   UNL     1      -0.021  -1.027  -3.373  1.00  0.00     0.047 A 
ATOM     17  C   UNL     1       2.261  -0.593  -2.739  1.00  0.00     0.047 A 
ATOM     18  C   UNL     1       0.341  -0.973  -4.722  1.00  0.00     0.016 A 
ATOM     19  C   UNL     1       2.627  -0.567  -4.093  1.00  0.00     0.016 A 
BRANCH  15  20
ATOM     20  O   UNL     1       0.480  -0.909  -1.092  1.00  0.00    -0.497 OA
ATOM     21  C   UNL     1       1.059   0.025  -0.187  1.00  0.00     0.278 C 
ENDBRANCH  15  20
ENDBRANCH   9  14
BRANCH  12  22
ATOM     22  C   UNL     1       4.434  -2.290  -8.726  1.00  0.00     0.003 A 
ATOM     23  C   UNL     1       5.545  -1.723  -9.364  1.00  0.00     0.030 A 
ATOM     24  C   UNL     1       4.379  -3.682  -8.611  1.00  0.00     0.030 A 
ATOM     25  C   UNL     1       6.529  -2.560  -9.863  1.00  0.00     0.111 A 
ATOM     26  C   UNL     1       5.407  -4.435  -9.152  1.00  0.00     0.111 A 
ATOM     27  N   UNL     1       6.479  -3.905  -9.778  1.00  0.00    -0.265 NA
ENDBRANCH  12  22
ENDBRANCH   7   8
ENDBRANCH   6   7
ENDBRANCH   3   6
ENDBRANCH   1   2
BRANCH   1  28
ATOM     28  C   UNL     1       2.544   4.355  -8.759  1.00  0.00     0.023 C 
BRANCH  28  29
ATOM     29  C   UNL     1       3.951   4.865  -8.427  1.00  0.00     0.023 C 
BRANCH  29  30
ATOM     30  C   UNL     1       4.367   6.145  -9.144  1.00  0.00     0.116 C 
BRANCH  30  31
ATOM     31  N   UNL     1       3.485   7.266  -8.860  1.00  0.00    -0.352 N 
ATOM     32  C   UNL     1       3.801   8.557  -8.516  1.00  0.00     0.251 C 
ATOM     33  H   UNL     1       2.522   7.070  -8.924  1.00  0.00     0.163 HD
ATOM     34  O   UNL     1       2.916   9.338  -8.178  1.00  0.00    -0.269 OA
BRANCH  32  35
ATOM     35  C   UNL     1       5.211   8.999  -8.518  1.00  0.00     0.039 A 
ATOM     36  C   UNL     1       5.685   9.738  -7.431  1.00  0.00     0.014 A 
ATOM     37  C   UNL     1       6.065   8.685  -9.579  1.00  0.00     0.014 A 
ATOM     38  C   UNL     1       7.032  10.101  -7.375  1.00  0.00     0.010 A 
ATOM     39  C   UNL     1       7.423   8.982  -9.485  1.00  0.00     0.010 A 
ATOM     40  C   UNL     1       7.921   9.692  -8.382  1.00  0.00    -0.014 A 
BRANCH  40  41
ATOM     41  C   UNL     1       9.375   9.990  -8.291  1.00  0.00     0.031 A 
ATOM     42  C   UNL     1      10.035  10.863  -9.322  1.00  0.00     0.074 A 
ATOM     43  C   UNL     1      10.112   9.426  -7.314  1.00  0.00     0.049 A 
ATOM     44  N   UNL     1      11.300  11.176  -9.456  1.00  0.00    -0.248 NA
ATOM     45  C   UNL     1       9.163  11.443 -10.355  1.00  0.00     0.031 C 
ATOM     46  C   UNL     1       9.599   8.524  -6.282  1.00  0.00     0.029 A 
ATOM     47  N   UNL     1      11.454   9.517  -7.037  1.00  0.00    -0.354 N 
ATOM     48  C   UNL     1      11.373  11.983 -10.583  1.00  0.00     0.074 A 
ATOM     49  C   UNL     1      10.038  12.060 -11.135  1.00  0.00     0.031 C 
ATOM     50  C   UNL     1      10.608   8.157  -5.476  1.00  0.00     0.029 A 
ATOM     51  C   UNL     1      11.846   8.761  -5.958  1.00  0.00     0.049 A 
ATOM     52  H   UNL     1      12.076  10.071  -7.561  1.00  0.00     0.167 HD
ATOM     53  C   UNL     1      12.450  12.625 -11.096  1.00  0.00     0.037 A 
ATOM     54  C   UNL     1      13.068   8.565  -5.427  1.00  0.00     0.037 A 
ATOM     55  C   UNL     1      13.776  12.555 -10.539  1.00  0.00     0.049 A 
ATOM     56  C   UNL     1      14.253   9.271  -6.032  1.00  0.00     0.074 A 
ATOM     57  C   UNL     1      14.926  13.196 -10.966  1.00  0.00     0.029 A 
ATOM     58  N   UNL     1      14.130  11.795  -9.434  1.00  0.00    -0.354 N 
ATOM     59  N   UNL     1      14.298  10.080  -7.062  1.00  0.00    -0.248 NA
ATOM     60  C   UNL     1      15.557   9.043  -5.393  1.00  0.00     0.031 C 
ATOM     61  C   UNL     1      15.985  12.786 -10.151  1.00  0.00     0.029 A 
ATOM     62  C   UNL     1      15.485  11.937  -9.177  1.00  0.00     0.049 A 
ATOM     63  H   UNL     1      13.511  11.237  -8.910  1.00  0.00     0.167 HD
ATOM     64  C   UNL     1      15.623  10.480  -7.176  1.00  0.00     0.074 A 
ATOM     65  C   UNL     1      16.346   9.840  -6.098  1.00  0.00     0.031 C 
ATOM     66  C   UNL     1      16.190  11.302  -8.093  1.00  0.00     0.037 A 
BRANCH  53  67
ATOM     67  C   UNL     1      12.238  13.472 -12.318  1.00  0.00     0.064 A 
ATOM     68  C   UNL     1      11.504  14.667 -12.263  1.00  0.00     0.173 A 
ATOM     69  C   UNL     1      12.814  13.114 -13.546  1.00  0.00     0.173 A 
ATOM     70  F   UNL     1      10.922  15.050 -11.116  1.00  0.00    -0.203 F 
ATOM     71  C   UNL     1      11.331  15.457 -13.397  1.00  0.00     0.198 A 
ATOM     72  C   UNL     1      12.668  13.923 -14.670  1.00  0.00     0.198 A 
ATOM     73  F   UNL     1      13.532  11.986 -13.654  1.00  0.00    -0.203 F 
ATOM     74  F   UNL     1      10.585  16.568 -13.330  1.00  0.00    -0.200 F 
ATOM     75  C   UNL     1      11.921  15.089 -14.597  1.00  0.00     0.200 A 
ATOM     76  F   UNL     1      13.251  13.575 -15.826  1.00  0.00    -0.200 F 
ATOM     77  F   UNL     1      11.764  15.856 -15.685  1.00  0.00    -0.200 F 
ENDBRANCH  53  67
BRANCH  54  78
ATOM     78  C   UNL     1      13.237   7.663  -4.256  1.00  0.00     0.064 A 
ATOM     79  C   UNL     1      13.623   8.164  -3.004  1.00  0.00     0.173 A 
ATOM     80  C   UNL     1      13.039   6.279  -4.369  1.00  0.00     0.173 A 
ATOM     81  F   UNL     1      13.844   9.478  -2.848  1.00  0.00    -0.203 F 
ATOM     82  C   UNL     1      13.836   7.313  -1.921  1.00  0.00     0.198 A 
ATOM     83  C   UNL     1      13.218   5.433  -3.277  1.00  0.00     0.198 A 
ATOM     84  F   UNL     1      12.663   5.747  -5.542  1.00  0.00    -0.203 F 
ATOM     85  F   UNL     1      14.263   7.812  -0.754  1.00  0.00    -0.200 F 
ATOM     86  C   UNL     1      13.628   5.949  -2.057  1.00  0.00     0.200 A 
ATOM     87  F   UNL     1      13.000   4.117  -3.408  1.00  0.00    -0.200 F 
ATOM     88  F   UNL     1      13.833   5.131  -1.016  1.00  0.00    -0.200 F 
ENDBRANCH  54  78
BRANCH  66  89
ATOM     89  C   UNL     1      17.657  11.592  -7.947  1.00  0.00     0.064 A 
ATOM     90  C   UNL     1      18.633  10.617  -8.203  1.00  0.00     0.173 A 
ATOM     91  C   UNL     1      18.092  12.876  -7.584  1.00  0.00     0.173 A 
ATOM     92  F   UNL     1      18.270   9.370  -8.539  1.00  0.00    -0.203 F 
ATOM     93  C   UNL     1      19.988  10.909  -8.071  1.00  0.00     0.198 A 
ATOM     94  C   UNL     1      19.449  13.173  -7.487  1.00  0.00     0.198 A 
ATOM     95  F   UNL     1      17.201  13.848  -7.336  1.00  0.00    -0.203 F 
ATOM     96  F   UNL     1      20.900   9.947  -8.268  1.00  0.00    -0.200 F 
ATOM     97  C   UNL     1      20.395  12.188  -7.722  1.00  0.00     0.200 A 
ATOM     98  F   UNL     1      19.840  14.414  -7.166  1.00  0.00    -0.200 F 
ATOM     99  F   UNL     1      21.700  12.469  -7.604  1.00  0.00    -0.200 F 
ENDBRANCH  66  89
ENDBRANCH  40  41
ENDBRANCH  32  35
ENDBRANCH  30  31
ENDBRANCH  29  30
ENDBRANCH  28  29
ENDBRANCH   1  28
TORSDOF 16
