REMARK SMILES Cc1ccc(-c2cc(Cl)cc3c2O[C@H](C(F)(F)F)C(C(=O)NCCCCNC(=O)c2ccc(-c4c5nc(c(-c6c(F)c(F)c(F)c(F)c6F)c6ccc([nH]6)c(-c6c(F)c(F)c(F)c(F)c6F)c6nc(c(-c7c(F)c(F)c(F)c(F)c7F)c7ccc4[nH]7)C=C6)C=C5)cc2)=C3)cc1F
REMARK SMILES IDX 25 1 24 2 23 3 22 4 20 5 21 6 19 8 6 9 7 10 12 11 8 12 11 13
REMARK SMILES IDX 13 14 9 15 10 16 93 17 14 18 5 19 1 20 2 21 3 22 95 23 4 24
REMARK SMILES IDX 94 25 96 26 15 27 16 28 17 29 18 30 26 31 27 32 28 33 29 35
REMARK SMILES IDX 30 36 31 37 92 38 32 39 91 40 33 41 34 42 35 43 85 44 36 45
REMARK SMILES IDX 90 46 84 47 86 48 37 49 89 50 83 51 82 52 38 54 70 55 50 56
REMARK SMILES IDX 69 57 51 58 54 59 68 60 87 61 52 62 53 63 67 65 88 66 55 67
REMARK SMILES IDX 39 68 40 69 48 70 41 71 42 72 46 73 49 74 43 75 44 76 47 77
REMARK SMILES IDX 45 78 71 79 72 80 80 81 73 82 74 83 78 84 81 85 75 86 76 87
REMARK SMILES IDX 79 88 77 89 56 90 57 91 65 92 58 93 59 94 63 95 66 96 60 97
REMARK SMILES IDX 61 98 64 99 62 100
REMARK H PARENT 22 7 27 34 86 53 54 64
REMARK Flexibility Score: inf
ROOT
ATOM      1  C   UNL     1      -1.529  -5.728   7.659  1.00  0.00     0.023 C 
ENDROOT
BRANCH   1   2
ATOM      2  C   UNL     1      -1.605  -4.577   6.670  1.00  0.00     0.023 C 
BRANCH   2   3
ATOM      3  C   UNL     1      -1.522  -5.106   5.255  1.00  0.00     0.116 C 
BRANCH   3   4
ATOM      4  N   UNL     1      -2.807  -5.650   4.854  1.00  0.00    -0.352 N 
ATOM      5  C   UNL     1      -3.730  -5.413   3.899  1.00  0.00     0.251 C 
ATOM      6  O   UNL     1      -4.757  -6.093   3.972  1.00  0.00    -0.270 OA
ATOM      7  H   UNL     1      -3.078  -6.395   5.438  1.00  0.00     0.163 HD
BRANCH   5   8
ATOM      8  C   UNL     1      -3.565  -4.425   2.803  1.00  0.00     0.067 C 
ATOM      9  C   UNL     1      -3.152  -1.651  -0.313  1.00  0.00     0.026 A 
ATOM     10  C   UNL     1      -4.085  -1.665  -1.356  1.00  0.00     0.033 A 
ATOM     11  C   UNL     1      -3.367  -2.524   0.767  1.00  0.00     0.135 A 
ATOM     12  C   UNL     1      -5.183  -2.531  -1.310  1.00  0.00     0.042 A 
ATOM     13  C   UNL     1      -4.452  -3.405   0.811  1.00  0.00     0.019 A 
ATOM     14  O   UNL     1      -2.494  -2.426   1.815  1.00  0.00    -0.475 OA
ATOM     15  Cl  UNL     1      -6.322  -2.527  -2.600  1.00  0.00    -0.084 Cl
ATOM     16  C   UNL     1      -5.371  -3.402  -0.235  1.00  0.00     0.032 A 
ATOM     17  C   UNL     1      -4.599  -4.302   1.951  1.00  0.00     0.025 C 
ATOM     18  C   UNL     1      -2.318  -3.620   2.603  1.00  0.00     0.314 C 
BRANCH   9  19
ATOM     19  C   UNL     1      -1.972  -0.769  -0.332  1.00  0.00    -0.012 A 
ATOM     20  C   UNL     1       1.521   1.765   0.001  1.00  0.00     0.047 C 
ATOM     21  C   UNL     1       0.303   0.904  -0.133  1.00  0.00    -0.015 A 
ATOM     22  C   UNL     1      -0.984   1.454  -0.155  1.00  0.00     0.007 A 
ATOM     23  C   UNL     1       0.437  -0.480  -0.222  1.00  0.00     0.126 A 
ATOM     24  C   UNL     1      -2.108   0.625  -0.254  1.00  0.00     0.009 A 
ATOM     25  C   UNL     1      -0.675  -1.309  -0.329  1.00  0.00     0.048 A 
ATOM     26  F   UNL     1       1.657  -1.036  -0.184  1.00  0.00    -0.207 F 
ENDBRANCH   9  19
BRANCH  18  27
ATOM     27  C   UNL     1      -1.137  -4.440   2.044  1.00  0.00     0.429 C 
ATOM     28  F   UNL     1       0.036  -3.801   2.278  1.00  0.00    -0.167 F 
ATOM     29  F   UNL     1      -1.025  -5.662   2.615  1.00  0.00    -0.167 F 
ATOM     30  F   UNL     1      -1.230  -4.642   0.710  1.00  0.00    -0.167 F 
ENDBRANCH  18  27
ENDBRANCH   5   8
ENDBRANCH   3   4
ENDBRANCH   2   3
ENDBRANCH   1   2
BRANCH   1  31
ATOM     31  C   UNL     1      -0.180  -6.456   7.690  1.00  0.00     0.116 C 
BRANCH  31  32
ATOM     32  N   UNL     1       1.022  -5.682   7.396  1.00  0.00    -0.352 N 
ATOM     33  C   UNL     1       2.165  -5.372   8.099  1.00  0.00     0.251 C 
ATOM     34  H   UNL     1       1.014  -5.294   6.491  1.00  0.00     0.163 HD
ATOM     35  O   UNL     1       3.133  -4.950   7.484  1.00  0.00    -0.269 OA
BRANCH  33  36
ATOM     36  C   UNL     1       2.180  -5.335   9.577  1.00  0.00     0.039 A 
ATOM     37  C   UNL     1       1.440  -6.193  10.383  1.00  0.00     0.014 A 
ATOM     38  C   UNL     1       2.817  -4.222  10.140  1.00  0.00     0.014 A 
ATOM     39  C   UNL     1       1.036  -5.757  11.637  1.00  0.00     0.010 A 
ATOM     40  C   UNL     1       2.494  -3.833  11.426  1.00  0.00     0.010 A 
ATOM     41  C   UNL     1       1.508  -4.533  12.122  1.00  0.00    -0.014 A 
BRANCH  41  42
ATOM     42  C   UNL     1       1.060  -3.989  13.397  1.00  0.00     0.031 A 
ATOM     43  C   UNL     1       1.127  -4.854  14.595  1.00  0.00     0.074 A 
ATOM     44  C   UNL     1       0.517  -2.752  13.476  1.00  0.00     0.049 A 
ATOM     45  N   UNL     1       0.312  -4.789  15.593  1.00  0.00    -0.248 NA
ATOM     46  C   UNL     1       2.070  -5.965  14.698  1.00  0.00     0.031 C 
ATOM     47  C   UNL     1       0.241  -1.996  14.689  1.00  0.00     0.029 A 
ATOM     48  N   UNL     1      -0.042  -1.965  12.452  1.00  0.00    -0.354 N 
ATOM     49  C   UNL     1       0.819  -5.600  16.586  1.00  0.00     0.074 A 
ATOM     50  C   UNL     1       1.778  -6.437  15.913  1.00  0.00     0.031 C 
ATOM     51  C   UNL     1      -0.626  -1.009  14.410  1.00  0.00     0.029 A 
ATOM     52  C   UNL     1      -1.069  -1.189  13.040  1.00  0.00     0.049 A 
ATOM     53  H   UNL     1       0.230  -1.956  11.506  1.00  0.00     0.167 HD
ATOM     54  C   UNL     1       0.502  -5.319  17.885  1.00  0.00     0.037 A 
ATOM     55  C   UNL     1      -2.384  -1.271  12.660  1.00  0.00     0.037 A 
ATOM     56  C   UNL     1      -0.493  -4.246  17.939  1.00  0.00     0.049 A 
ATOM     57  C   UNL     1      -3.312  -1.681  13.764  1.00  0.00     0.074 A 
ATOM     58  C   UNL     1      -0.367  -2.880  18.136  1.00  0.00     0.029 A 
ATOM     59  N   UNL     1      -1.779  -4.463  17.458  1.00  0.00    -0.354 N 
ATOM     60  N   UNL     1      -2.912  -2.330  14.818  1.00  0.00    -0.248 NA
ATOM     61  C   UNL     1      -4.747  -1.424  13.767  1.00  0.00     0.031 C 
ATOM     62  C   UNL     1      -1.575  -2.268  17.724  1.00  0.00     0.029 A 
ATOM     63  C   UNL     1      -2.444  -3.261  17.308  1.00  0.00     0.049 A 
ATOM     64  H   UNL     1      -2.161  -5.347  17.253  1.00  0.00     0.167 HD
ATOM     65  C   UNL     1      -3.978  -2.558  15.643  1.00  0.00     0.074 A 
ATOM     66  C   UNL     1      -5.106  -1.970  14.943  1.00  0.00     0.031 C 
ATOM     67  C   UNL     1      -3.820  -3.208  16.832  1.00  0.00     0.037 A 
BRANCH  54  68
ATOM     68  C   UNL     1       1.304  -5.741  19.110  1.00  0.00     0.064 A 
ATOM     69  C   UNL     1       1.147  -5.042  20.332  1.00  0.00     0.173 A 
ATOM     70  C   UNL     1       2.293  -6.743  19.151  1.00  0.00     0.173 A 
ATOM     71  F   UNL     1       0.186  -4.122  20.495  1.00  0.00    -0.203 F 
ATOM     72  C   UNL     1       1.971  -5.255  21.443  1.00  0.00     0.198 A 
ATOM     73  C   UNL     1       3.129  -6.946  20.255  1.00  0.00     0.198 A 
ATOM     74  F   UNL     1       2.474  -7.606  18.151  1.00  0.00    -0.203 F 
ATOM     75  F   UNL     1       1.785  -4.532  22.557  1.00  0.00    -0.200 F 
ATOM     76  C   UNL     1       2.979  -6.192  21.397  1.00  0.00     0.200 A 
ATOM     77  F   UNL     1       4.085  -7.885  20.196  1.00  0.00    -0.200 F 
ATOM     78  F   UNL     1       3.783  -6.385  22.450  1.00  0.00    -0.200 F 
ENDBRANCH  54  68
BRANCH  55  79
ATOM     79  C   UNL     1      -2.591  -1.630  11.229  1.00  0.00     0.064 A 
ATOM     80  C   UNL     1      -2.387  -0.599  10.296  1.00  0.00     0.173 A 
ATOM     81  C   UNL     1      -2.215  -2.926  10.873  1.00  0.00     0.173 A 
ATOM     82  F   UNL     1      -2.832   0.639  10.559  1.00  0.00    -0.203 F 
ATOM     83  C   UNL     1      -1.569  -0.800   9.190  1.00  0.00     0.198 A 
ATOM     84  C   UNL     1      -1.292  -3.080   9.851  1.00  0.00     0.198 A 
ATOM     85  F   UNL     1      -2.475  -3.962  11.685  1.00  0.00    -0.203 F 
ATOM     86  F   UNL     1      -1.265   0.218   8.375  1.00  0.00    -0.200 F 
ATOM     87  C   UNL     1      -0.946  -2.021   9.027  1.00  0.00     0.200 A 
ATOM     88  F   UNL     1      -0.603  -4.218   9.771  1.00  0.00    -0.200 F 
ATOM     89  F   UNL     1       0.032  -2.163   8.122  1.00  0.00    -0.200 F 
ENDBRANCH  55  79
BRANCH  67  90
ATOM     90  C   UNL     1      -4.921  -3.731  17.720  1.00  0.00     0.064 A 
ATOM     91  C   UNL     1      -6.210  -4.056  17.269  1.00  0.00     0.173 A 
ATOM     92  C   UNL     1      -4.655  -4.051  19.075  1.00  0.00     0.173 A 
ATOM     93  F   UNL     1      -6.551  -3.940  15.979  1.00  0.00    -0.203 F 
ATOM     94  C   UNL     1      -7.183  -4.579  18.125  1.00  0.00     0.198 A 
ATOM     95  C   UNL     1      -5.606  -4.635  19.907  1.00  0.00     0.198 A 
ATOM     96  F   UNL     1      -3.453  -3.834  19.629  1.00  0.00    -0.203 F 
ATOM     97  F   UNL     1      -8.415  -4.819  17.656  1.00  0.00    -0.200 F 
ATOM     98  C   UNL     1      -6.879  -4.878  19.439  1.00  0.00     0.200 A 
ATOM     99  F   UNL     1      -5.272  -4.979  21.159  1.00  0.00    -0.200 F 
ATOM    100  F   UNL     1      -7.802  -5.421  20.244  1.00  0.00    -0.200 F 
ENDBRANCH  67  90
ENDBRANCH  41  42
ENDBRANCH  33  36
ENDBRANCH  31  32
ENDBRANCH   1  31
TORSDOF 13
