REMARK SMILES [NH3+][C@@H](Cc1cn(-c2nc(Cl)nc(N3CCOCC3)n2)c2ccccc12)C(=O)NCCCCNC(=O)c1ccc(-c2c3nc(c(-c4c(F)c(F)c(F)c(F)c4F)c4ccc([nH]4)c(-c4c(F)c(F)c(F)c(F)c4F)c4nc(c(-c5c(F)c(F)c(F)c(F)c5F)c5ccc2[nH]5)C=C4)C=C3)cc1
REMARK SMILES IDX 29 1 28 2 26 3 27 4 2 6 1 7 3 11 4 12 5 13 25 14 6 15 20 16
REMARK SMILES IDX 24 17 21 18 23 19 22 20 7 21 8 22 19 23 9 24 12 25 10 26
REMARK SMILES IDX 11 27 13 28 14 29 18 30 15 31 17 32 16 33 30 34 31 35 32 36
REMARK SMILES IDX 33 37 34 38 35 40 36 41 37 42 98 43 38 44 97 45 39 46 40 47
REMARK SMILES IDX 41 48 91 49 42 50 96 51 90 52 92 53 43 54 95 55 89 56 88 57
REMARK SMILES IDX 44 59 76 60 56 61 75 62 57 63 60 64 74 65 93 66 58 67 59 68
REMARK SMILES IDX 73 70 94 71 61 72 45 73 46 74 54 75 47 76 48 77 52 78 55 79
REMARK SMILES IDX 49 80 50 81 53 82 51 83 77 84 78 85 86 86 79 87 80 88 84 89
REMARK SMILES IDX 87 90 81 91 82 92 85 93 83 94 62 95 63 96 71 97 64 98 65 99
REMARK SMILES IDX 69 100 72 101 66 102 67 103 70 104 68 105
REMARK H PARENT 28 5 1 8 1 9 1 10 33 39 92 58 60 69
REMARK Flexibility Score: inf
ROOT
ATOM      1  C   UNL     1      -1.676  -0.318  -1.679  1.00  0.00     0.116 C 
ENDROOT
BRANCH   1   2
ATOM      2  N   UNL     1      -1.932   0.614  -0.616  1.00  0.00    -0.351 N 
ATOM      3  C   UNL     1      -1.044   1.458  -0.006  1.00  0.00     0.278 C 
ATOM      4  O   UNL     1      -1.529   2.359   0.690  1.00  0.00    -0.268 OA
ATOM      5  H   UNL     1      -2.859   0.649  -0.287  1.00  0.00     0.163 HD
BRANCH   3   6
ATOM      6  C   UNL     1       0.501   1.321  -0.143  1.00  0.00     0.275 C 
BRANCH   6   7
ATOM      7  N   UNL     1       0.989   0.019   0.366  1.00  0.00    -0.347 N 
ATOM      8  H   UNL     1       2.002  -0.030   0.259  1.00  0.00     0.345 HD
ATOM      9  H   UNL     1       0.554  -0.737  -0.162  1.00  0.00     0.345 HD
ATOM     10  H   UNL     1       0.748  -0.072   1.353  1.00  0.00     0.345 HD
ENDBRANCH   6   7
BRANCH   6  11
ATOM     11  C   UNL     1       1.137   1.835  -1.457  1.00  0.00     0.113 C 
BRANCH  11  12
ATOM     12  C   UNL     1       0.954   1.043  -2.725  1.00  0.00    -0.015 A 
ATOM     13  C   UNL     1       1.329  -0.266  -2.969  1.00  0.00     0.099 A 
ATOM     14  C   UNL     1       0.325   1.503  -3.930  1.00  0.00     0.004 A 
ATOM     15  N   UNL     1       0.842  -0.666  -4.202  1.00  0.00    -0.285 N 
ATOM     16  C   UNL     1       0.278   0.434  -4.838  1.00  0.00     0.056 A 
ATOM     17  C   UNL     1      -0.267   2.731  -4.299  1.00  0.00     0.010 A 
ATOM     18  C   UNL     1      -0.378   0.552  -6.078  1.00  0.00     0.027 A 
ATOM     19  C   UNL     1      -0.916   2.852  -5.530  1.00  0.00     0.001 A 
ATOM     20  C   UNL     1      -0.978   1.772  -6.402  1.00  0.00     0.002 A 
BRANCH  15  21
ATOM     21  C   UNL     1       0.739  -2.026  -4.626  1.00  0.00     0.240 A 
ATOM     22  N   UNL     1       1.028  -2.335  -5.880  1.00  0.00    -0.181 NA
ATOM     23  N   UNL     1       0.287  -2.893  -3.711  1.00  0.00    -0.176 NA
ATOM     24  C   UNL     1       0.866  -3.628  -6.132  1.00  0.00     0.228 A 
ATOM     25  C   UNL     1       0.079  -4.143  -4.122  1.00  0.00     0.231 A 
ATOM     26  Cl  UNL     1       1.402  -4.155  -7.668  1.00  0.00    -0.041 Cl
ATOM     27  N   UNL     1       0.414  -4.581  -5.321  1.00  0.00    -0.182 NA
BRANCH  25  28
ATOM     28  N   UNL     1      -0.524  -4.982  -3.219  1.00  0.00    -0.336 N 
ATOM     29  C   UNL     1      -1.986  -5.029  -3.252  1.00  0.00     0.148 C 
ATOM     30  C   UNL     1       0.075  -6.280  -2.933  1.00  0.00     0.148 C 
ATOM     31  C   UNL     1      -2.492  -5.546  -1.896  1.00  0.00     0.181 C 
ATOM     32  C   UNL     1      -0.469  -6.737  -1.565  1.00  0.00     0.181 C 
ATOM     33  O   UNL     1      -1.908  -6.819  -1.569  1.00  0.00    -0.378 OA
ENDBRANCH  25  28
ENDBRANCH  15  21
ENDBRANCH  11  12
ENDBRANCH   6  11
ENDBRANCH   3   6
ENDBRANCH   1   2
BRANCH   1  34
ATOM     34  C   UNL     1      -2.438  -1.626  -1.621  1.00  0.00     0.023 C 
BRANCH  34  35
ATOM     35  C   UNL     1      -3.833  -1.636  -2.238  1.00  0.00     0.023 C 
BRANCH  35  36
ATOM     36  C   UNL     1      -3.987  -1.044  -3.648  1.00  0.00     0.116 C 
BRANCH  36  37
ATOM     37  N   UNL     1      -3.051  -1.524  -4.651  1.00  0.00    -0.352 N 
ATOM     38  C   UNL     1      -3.137  -2.413  -5.688  1.00  0.00     0.251 C 
ATOM     39  H   UNL     1      -2.157  -1.120  -4.565  1.00  0.00     0.163 HD
ATOM     40  O   UNL     1      -2.289  -2.304  -6.582  1.00  0.00    -0.269 OA
BRANCH  38  41
ATOM     41  C   UNL     1      -4.080  -3.562  -5.753  1.00  0.00     0.039 A 
ATOM     42  C   UNL     1      -4.999  -3.883  -4.758  1.00  0.00     0.014 A 
ATOM     43  C   UNL     1      -3.900  -4.469  -6.818  1.00  0.00     0.014 A 
ATOM     44  C   UNL     1      -5.617  -5.127  -4.749  1.00  0.00     0.010 A 
ATOM     45  C   UNL     1      -4.540  -5.705  -6.831  1.00  0.00     0.010 A 
ATOM     46  C   UNL     1      -5.356  -6.056  -5.763  1.00  0.00    -0.014 A 
BRANCH  46  47
ATOM     47  C   UNL     1      -6.050  -7.339  -5.684  1.00  0.00     0.031 A 
ATOM     48  C   UNL     1      -7.536  -7.239  -5.635  1.00  0.00     0.074 A 
ATOM     49  C   UNL     1      -5.446  -8.544  -5.707  1.00  0.00     0.049 A 
ATOM     50  N   UNL     1      -8.323  -7.604  -4.676  1.00  0.00    -0.248 NA
ATOM     51  C   UNL     1      -8.217  -6.545  -6.738  1.00  0.00     0.031 C 
ATOM     52  C   UNL     1      -4.049  -8.866  -5.994  1.00  0.00     0.029 A 
ATOM     53  N   UNL     1      -6.015  -9.774  -5.548  1.00  0.00    -0.354 N 
ATOM     54  C   UNL     1      -9.618  -7.324  -5.106  1.00  0.00     0.074 A 
ATOM     55  C   UNL     1      -9.486  -6.571  -6.327  1.00  0.00     0.031 C 
ATOM     56  C   UNL     1      -3.936 -10.196  -6.218  1.00  0.00     0.029 A 
ATOM     57  C   UNL     1      -5.218 -10.832  -5.962  1.00  0.00     0.049 A 
ATOM     58  H   UNL     1      -6.916  -9.901  -5.170  1.00  0.00     0.167 HD
ATOM     59  C   UNL     1     -10.706  -7.893  -4.516  1.00  0.00     0.037 A 
ATOM     60  C   UNL     1      -5.617 -12.116  -6.150  1.00  0.00     0.037 A 
ATOM     61  C   UNL     1     -10.393  -8.396  -3.205  1.00  0.00     0.049 A 
ATOM     62  C   UNL     1      -6.852 -12.321  -5.350  1.00  0.00     0.074 A 
ATOM     63  C   UNL     1      -9.924  -7.823  -2.037  1.00  0.00     0.029 A 
ATOM     64  N   UNL     1     -10.230  -9.749  -3.038  1.00  0.00    -0.354 N 
ATOM     65  N   UNL     1      -6.878 -12.347  -4.046  1.00  0.00    -0.248 NA
ATOM     66  C   UNL     1      -8.129 -12.052  -5.996  1.00  0.00     0.031 C 
ATOM     67  C   UNL     1      -9.042  -8.795  -1.482  1.00  0.00     0.029 A 
ATOM     68  C   UNL     1      -9.078  -9.913  -2.314  1.00  0.00     0.049 A 
ATOM     69  H   UNL     1     -10.822 -10.460  -3.373  1.00  0.00     0.167 HD
ATOM     70  C   UNL     1      -8.042 -11.675  -3.707  1.00  0.00     0.074 A 
ATOM     71  C   UNL     1      -8.812 -11.591  -4.946  1.00  0.00     0.031 C 
ATOM     72  C   UNL     1      -8.153 -10.997  -2.529  1.00  0.00     0.037 A 
BRANCH  59  73
ATOM     73  C   UNL     1     -11.958  -8.303  -5.249  1.00  0.00     0.064 A 
ATOM     74  C   UNL     1     -13.065  -8.775  -4.513  1.00  0.00     0.173 A 
ATOM     75  C   UNL     1     -11.998  -8.554  -6.637  1.00  0.00     0.173 A 
ATOM     76  F   UNL     1     -13.127  -8.601  -3.184  1.00  0.00    -0.203 F 
ATOM     77  C   UNL     1     -14.081  -9.527  -5.108  1.00  0.00     0.198 A 
ATOM     78  C   UNL     1     -13.041  -9.259  -7.235  1.00  0.00     0.198 A 
ATOM     79  F   UNL     1     -10.983  -8.233  -7.447  1.00  0.00    -0.203 F 
ATOM     80  F   UNL     1     -15.038 -10.073  -4.346  1.00  0.00    -0.200 F 
ATOM     81  C   UNL     1     -14.062  -9.777  -6.467  1.00  0.00     0.200 A 
ATOM     82  F   UNL     1     -12.996  -9.505  -8.552  1.00  0.00    -0.200 F 
ATOM     83  F   UNL     1     -14.995 -10.556  -7.029  1.00  0.00    -0.200 F 
ENDBRANCH  59  73
BRANCH  60  84
ATOM     84  C   UNL     1      -5.197 -13.059  -7.220  1.00  0.00     0.064 A 
ATOM     85  C   UNL     1      -5.563 -14.417  -7.175  1.00  0.00     0.173 A 
ATOM     86  C   UNL     1      -4.671 -12.600  -8.444  1.00  0.00     0.173 A 
ATOM     87  F   UNL     1      -6.114 -14.932  -6.067  1.00  0.00    -0.203 F 
ATOM     88  C   UNL     1      -5.440 -15.250  -8.294  1.00  0.00     0.198 A 
ATOM     89  C   UNL     1      -4.540 -13.435  -9.555  1.00  0.00     0.198 A 
ATOM     90  F   UNL     1      -4.364 -11.309  -8.625  1.00  0.00    -0.203 F 
ATOM     91  F   UNL     1      -5.865 -16.520  -8.232  1.00  0.00    -0.200 F 
ATOM     92  C   UNL     1      -4.939 -14.755  -9.486  1.00  0.00     0.200 A 
ATOM     93  F   UNL     1      -4.085 -12.932 -10.712  1.00  0.00    -0.200 F 
ATOM     94  F   UNL     1      -4.880 -15.534 -10.575  1.00  0.00    -0.200 F 
ENDBRANCH  60  84
BRANCH  72  95
ATOM     95  C   UNL     1      -7.090 -11.181  -1.486  1.00  0.00     0.064 A 
ATOM     96  C   UNL     1      -5.742 -10.828  -1.674  1.00  0.00     0.173 A 
ATOM     97  C   UNL     1      -7.489 -11.541  -0.191  1.00  0.00     0.173 A 
ATOM     98  F   UNL     1      -5.304 -10.378  -2.856  1.00  0.00    -0.203 F 
ATOM     99  C   UNL     1      -4.834 -10.862  -0.617  1.00  0.00     0.198 A 
ATOM    100  C   UNL     1      -6.589 -11.536   0.870  1.00  0.00     0.198 A 
ATOM    101  F   UNL     1      -8.775 -11.835   0.058  1.00  0.00    -0.203 F 
ATOM    102  F   UNL     1      -3.552 -10.524  -0.820  1.00  0.00    -0.200 F 
ATOM    103  C   UNL     1      -5.261 -11.203   0.656  1.00  0.00     0.200 A 
ATOM    104  F   UNL     1      -7.019 -11.816   2.108  1.00  0.00    -0.200 F 
ATOM    105  F   UNL     1      -4.402 -11.180   1.684  1.00  0.00    -0.200 F 
ENDBRANCH  72  95
ENDBRANCH  46  47
ENDBRANCH  38  41
ENDBRANCH  36  37
ENDBRANCH  35  36
ENDBRANCH  34  35
ENDBRANCH   1  34
TORSDOF 16
