REMARK SMILES Cc1c(C(=O)NCCCCNC(=O)c2ccc(-c3c4nc(c(-c5c(F)c(F)c(F)c(F)c5F)c5ccc([nH]5)c(-c5c(F)c(F)c(F)c(F)c5F)c5nc(c(-c6c(F)c(F)c(F)c(F)c6F)c6ccc3[nH]6)C=C5)C=C4)cc2)sc2ncn(N3CCCCCC3)c(=O)c12
REMARK SMILES IDX 7 1 6 2 4 3 5 4 3 6 1 7 2 8 91 9 77 10 78 11 89 12 79 13
REMARK SMILES IDX 81 14 90 15 80 16 82 17 83 18 84 19 88 21 87 22 86 23 85 24
REMARK SMILES IDX 8 26 9 27 10 28 11 29 12 30 13 32 14 33 15 34 76 35 16 36
REMARK SMILES IDX 75 37 17 38 18 39 19 40 69 41 20 42 74 43 68 44 70 45 21 46
REMARK SMILES IDX 73 47 67 48 66 49 22 51 54 52 34 53 53 54 35 55 38 56 52 57
REMARK SMILES IDX 71 58 36 59 37 60 51 62 72 63 39 64 23 65 24 66 32 67 25 68
REMARK SMILES IDX 26 69 30 70 33 71 27 72 28 73 31 74 29 75 55 76 56 77 64 78
REMARK SMILES IDX 57 79 58 80 62 81 65 82 59 83 60 84 63 85 61 86 40 87 41 88
REMARK SMILES IDX 49 89 42 90 43 91 47 92 50 93 44 94 45 95 48 96 46 97
REMARK H PARENT 6 5 11 31 70 50 38 61
REMARK Flexibility Score: 80.00
ROOT
ATOM      1  C   UNL     1      -1.648  -0.088   4.998  1.00  0.00     0.116 C 
ENDROOT
BRANCH   1   2
ATOM      2  N   UNL     1      -1.254   0.787   3.912  1.00  0.00    -0.351 N 
ATOM      3  C   UNL     1      -0.534   0.612   2.753  1.00  0.00     0.261 C 
ATOM      4  O   UNL     1      -0.412   1.658   2.105  1.00  0.00    -0.268 OA
ATOM      5  H   UNL     1      -1.571   1.712   4.030  1.00  0.00     0.163 HD
BRANCH   3   6
ATOM      6  C   UNL     1       0.007  -0.670   2.284  1.00  0.00     0.098 A 
ATOM      7  C   UNL     1       0.826   0.025  -0.084  1.00  0.00     0.047 C 
ATOM      8  C   UNL     1       0.552  -0.952   1.024  1.00  0.00    -0.012 A 
ATOM      9  C   UNL     1       0.833  -2.365   0.881  1.00  0.00     0.082 A 
ATOM     10  S   UNL     1       0.139  -2.051   3.293  1.00  0.00    -0.110 S 
ATOM     11  C   UNL     1       0.648  -3.066   2.047  1.00  0.00     0.131 A 
ATOM     12  C   UNL     1       1.298  -3.102  -0.287  1.00  0.00     0.281 A 
ATOM     13  N   UNL     1       0.865  -4.388   2.261  1.00  0.00    -0.225 NA
ATOM     14  N   UNL     1       1.603  -4.446  -0.005  1.00  0.00    -0.210 N 
ATOM     15  O   UNL     1       1.384  -2.575  -1.392  1.00  0.00    -0.267 OA
ATOM     16  C   UNL     1       1.346  -5.013   1.234  1.00  0.00     0.226 A 
BRANCH  14  17
ATOM     17  N   UNL     1       2.147  -5.242  -1.018  1.00  0.00    -0.309 N 
BRANCH  17  18
ATOM     18  C   UNL     1       3.560  -5.121  -1.303  1.00  0.00     0.137 C 
BRANCH  18  19
ATOM     19  C   UNL     1       3.817  -4.327  -2.586  1.00  0.00     0.023 CG0
ATOM     20  G   UNL     1       3.343  -4.976  -3.889  1.00  0.00     0.000 G0
ENDBRANCH  18  19
ENDBRANCH  17  18
BRANCH  17  21
ATOM     21  C   UNL     1       1.352  -6.323  -1.552  1.00  0.00     0.137 C 
BRANCH  21  22
ATOM     22  C   UNL     1       1.729  -6.723  -2.978  1.00  0.00     0.023 C 
BRANCH  22  23
ATOM     23  C   UNL     1       1.913  -5.521  -3.906  1.00  0.00     0.002 C 
BRANCH  23  24
ATOM     24  C   UNL     1       3.343  -4.976  -3.889  1.00  0.00     0.002 CG0
ATOM     25  G   UNL     1       3.817  -4.327  -2.586  1.00  0.00     0.000 G0
ENDBRANCH  23  24
ENDBRANCH  22  23
ENDBRANCH  21  22
ENDBRANCH  17  21
ENDBRANCH  14  17
ENDBRANCH   3   6
ENDBRANCH   1   2
BRANCH   1  26
ATOM     26  C   UNL     1      -0.634  -0.044   6.144  1.00  0.00     0.023 C 
BRANCH  26  27
ATOM     27  C   UNL     1      -0.743   1.200   7.039  1.00  0.00     0.023 C 
BRANCH  27  28
ATOM     28  C   UNL     1      -2.062   1.313   7.795  1.00  0.00     0.116 C 
BRANCH  28  29
ATOM     29  N   UNL     1      -2.304   0.166   8.661  1.00  0.00    -0.352 N 
ATOM     30  C   UNL     1      -3.448  -0.138   9.367  1.00  0.00     0.251 C 
ATOM     31  H   UNL     1      -1.559  -0.471   8.752  1.00  0.00     0.163 HD
ATOM     32  O   UNL     1      -3.417  -0.879  10.336  1.00  0.00    -0.269 OA
BRANCH  30  33
ATOM     33  C   UNL     1      -4.726   0.430   8.911  1.00  0.00     0.039 A 
ATOM     34  C   UNL     1      -5.645   0.944   9.828  1.00  0.00     0.014 A 
ATOM     35  C   UNL     1      -5.003   0.410   7.542  1.00  0.00     0.014 A 
ATOM     36  C   UNL     1      -6.833   1.484   9.351  1.00  0.00     0.010 A 
ATOM     37  C   UNL     1      -6.128   1.032   7.061  1.00  0.00     0.010 A 
ATOM     38  C   UNL     1      -7.061   1.522   7.967  1.00  0.00    -0.014 A 
BRANCH  38  39
ATOM     39  C   UNL     1      -8.254   2.159   7.438  1.00  0.00     0.031 A 
ATOM     40  C   UNL     1      -8.346   3.618   7.702  1.00  0.00     0.074 A 
ATOM     41  C   UNL     1      -9.106   1.522   6.611  1.00  0.00     0.049 A 
ATOM     42  N   UNL     1      -9.188   4.230   8.466  1.00  0.00    -0.248 NA
ATOM     43  C   UNL     1      -7.296   4.489   7.152  1.00  0.00     0.031 C 
ATOM     44  C   UNL     1      -8.985   0.191   6.010  1.00  0.00     0.029 A 
ATOM     45  N   UNL     1     -10.264   1.991   6.076  1.00  0.00    -0.354 N 
ATOM     46  C   UNL     1      -8.895   5.587   8.357  1.00  0.00     0.074 A 
ATOM     47  C   UNL     1      -7.626   5.668   7.683  1.00  0.00     0.031 C 
ATOM     48  C   UNL     1      -9.925   0.040   5.049  1.00  0.00     0.029 A 
ATOM     49  C   UNL     1     -10.807   1.192   5.079  1.00  0.00     0.049 A 
ATOM     50  H   UNL     1     -10.684   2.830   6.372  1.00  0.00     0.167 HD
ATOM     51  C   UNL     1      -9.843   6.529   8.627  1.00  0.00     0.037 A 
ATOM     52  C   UNL     1     -11.899   1.481   4.329  1.00  0.00     0.037 A 
ATOM     53  C   UNL     1     -10.914   5.962   9.411  1.00  0.00     0.049 A 
ATOM     54  C   UNL     1     -12.682   2.495   5.082  1.00  0.00     0.074 A 
ATOM     55  C   UNL     1     -10.992   5.369  10.657  1.00  0.00     0.029 A 
ATOM     56  N   UNL     1     -12.070   5.598   8.761  1.00  0.00    -0.354 N 
ATOM     57  N   UNL     1     -13.270   2.251   6.222  1.00  0.00    -0.248 NA
ATOM     58  C   UNL     1     -12.406   3.897   4.806  1.00  0.00     0.031 C 
ATOM     59  C   UNL     1     -11.915   4.293  10.496  1.00  0.00     0.029 A 
ATOM     60  C   UNL     1     -12.399   4.337   9.187  1.00  0.00     0.049 A 
ATOM     61  H   UNL     1     -12.569   6.143   8.111  1.00  0.00     0.167 HD
ATOM     62  C   UNL     1     -13.062   3.394   6.980  1.00  0.00     0.074 A 
ATOM     63  C   UNL     1     -12.587   4.399   6.031  1.00  0.00     0.031 C 
ATOM     64  C   UNL     1     -13.016   3.339   8.343  1.00  0.00     0.037 A 
BRANCH  51  65
ATOM     65  C   UNL     1      -9.996   7.838   7.881  1.00  0.00     0.064 A 
ATOM     66  C   UNL     1     -11.025   8.724   8.269  1.00  0.00     0.173 A 
ATOM     67  C   UNL     1      -9.395   8.128   6.637  1.00  0.00     0.173 A 
ATOM     68  F   UNL     1     -11.672   8.557   9.432  1.00  0.00    -0.203 F 
ATOM     69  C   UNL     1     -11.483   9.744   7.430  1.00  0.00     0.198 A 
ATOM     70  C   UNL     1      -9.821   9.178   5.825  1.00  0.00     0.198 A 
ATOM     71  F   UNL     1      -8.447   7.356   6.098  1.00  0.00    -0.203 F 
ATOM     72  F   UNL     1     -12.554  10.466   7.786  1.00  0.00    -0.200 F 
ATOM     73  C   UNL     1     -10.889   9.962   6.203  1.00  0.00     0.200 A 
ATOM     74  F   UNL     1      -9.237   9.366   4.633  1.00  0.00    -0.200 F 
ATOM     75  F   UNL     1     -11.369  10.891   5.366  1.00  0.00    -0.200 F 
ENDBRANCH  51  65
BRANCH  52  76
ATOM     76  C   UNL     1     -12.125   1.201   2.891  1.00  0.00     0.064 A 
ATOM     77  C   UNL     1     -13.403   1.324   2.319  1.00  0.00     0.173 A 
ATOM     78  C   UNL     1     -11.046   1.093   1.990  1.00  0.00     0.173 A 
ATOM     79  F   UNL     1     -14.479   1.477   3.104  1.00  0.00    -0.203 F 
ATOM     80  C   UNL     1     -13.587   1.367   0.932  1.00  0.00     0.198 A 
ATOM     81  C   UNL     1     -11.232   1.133   0.607  1.00  0.00     0.198 A 
ATOM     82  F   UNL     1      -9.783   1.047   2.435  1.00  0.00    -0.203 F 
ATOM     83  F   UNL     1     -14.814   1.550   0.426  1.00  0.00    -0.200 F 
ATOM     84  C   UNL     1     -12.500   1.284   0.078  1.00  0.00     0.200 A 
ATOM     85  F   UNL     1     -10.167   1.091  -0.207  1.00  0.00    -0.200 F 
ATOM     86  F   UNL     1     -12.668   1.392  -1.247  1.00  0.00    -0.200 F 
ENDBRANCH  52  76
BRANCH  64  87
ATOM     87  C   UNL     1     -13.408   2.050   9.015  1.00  0.00     0.064 A 
ATOM     88  C   UNL     1     -12.672   0.857   8.903  1.00  0.00     0.173 A 
ATOM     89  C   UNL     1     -14.444   2.077   9.956  1.00  0.00     0.173 A 
ATOM     90  F   UNL     1     -11.612   0.774   8.093  1.00  0.00    -0.203 F 
ATOM     91  C   UNL     1     -12.970  -0.258   9.686  1.00  0.00     0.198 A 
ATOM     92  C   UNL     1     -14.720   0.974  10.761  1.00  0.00     0.198 A 
ATOM     93  F   UNL     1     -15.148   3.204  10.145  1.00  0.00    -0.203 F 
ATOM     94  F   UNL     1     -12.244  -1.379   9.565  1.00  0.00    -0.200 F 
ATOM     95  C   UNL     1     -13.986  -0.194  10.623  1.00  0.00     0.200 A 
ATOM     96  F   UNL     1     -15.672   1.057  11.700  1.00  0.00    -0.200 F 
ATOM     97  F   UNL     1     -14.238  -1.244  11.417  1.00  0.00    -0.200 F 
ENDBRANCH  64  87
ENDBRANCH  38  39
ENDBRANCH  30  33
ENDBRANCH  28  29
ENDBRANCH  27  28
ENDBRANCH  26  27
ENDBRANCH   1  26
TORSDOF 12
