REMARK SMILES C=CCn1nc(C(=O)NCCCCNC(=O)c2ccc(-c3c4nc(c(-c5c(F)c(F)c(F)c(F)c5F)c5ccc([nH]5)c(-c5c(F)c(F)c(F)c(F)c5F)c5nc(c(-c6c(F)c(F)c(F)c(F)c6F)c6ccc3[nH]6)C=C5)C=C4)cc2)c2c1CC[C@@H]([NH+]1CCC(C(C)(C)O)CC1)C2
REMARK SMILES IDX 11 1 10 2 9 3 7 4 8 5 6 7 4 8 5 9 81 10 80 11 82 12 95 13
REMARK SMILES IDX 83 14 84 15 3 16 2 17 1 18 85 19 86 20 94 21 87 23 93 24
REMARK SMILES IDX 88 25 89 26 90 27 91 28 92 29 12 31 13 32 14 33 15 34 16 36
REMARK SMILES IDX 17 37 18 38 79 39 19 40 78 41 20 42 21 43 22 44 72 45 23 46
REMARK SMILES IDX 77 47 71 48 73 49 24 50 76 51 70 52 69 53 25 55 57 56 37 57
REMARK SMILES IDX 56 58 38 59 41 60 55 61 74 62 39 63 40 64 54 66 75 67 42 68
REMARK SMILES IDX 26 69 27 70 35 71 28 72 29 73 33 74 36 75 30 76 31 77 34 78
REMARK SMILES IDX 32 79 58 80 59 81 67 82 60 83 61 84 65 85 68 86 62 87 63 88
REMARK SMILES IDX 66 89 64 90 43 91 44 92 52 93 45 94 46 95 50 96 53 97 47 98
REMARK SMILES IDX 48 99 51 100 49 101
REMARK H PARENT 9 6 85 22 92 30 14 35 73 54 41 65
REMARK Flexibility Score: inf
ROOT
ATOM      1  C   UNL     1      -2.090   7.153  -4.027  1.00  0.00     0.023 C 
ENDROOT
BRANCH   1   2
ATOM      2  C   UNL     1      -3.435   6.451  -3.744  1.00  0.00     0.116 C 
BRANCH   2   3
ATOM      3  N   UNL     1      -3.567   5.169  -4.425  1.00  0.00    -0.351 N 
ATOM      4  C   UNL     1      -3.372   3.836  -4.109  1.00  0.00     0.272 C 
ATOM      5  O   UNL     1      -3.784   3.066  -4.988  1.00  0.00    -0.267 OA
ATOM      6  H   UNL     1      -3.875   5.281  -5.353  1.00  0.00     0.163 HD
BRANCH   4   7
ATOM      7  C   UNL     1      -2.759   3.312  -2.857  1.00  0.00     0.153 A 
ATOM      8  N   UNL     1      -2.107   1.782  -1.469  1.00  0.00    -0.265 N 
ATOM      9  N   UNL     1      -2.797   1.977  -2.613  1.00  0.00    -0.167 NA
ATOM     10  C   UNL     1      -1.798   2.959  -0.855  1.00  0.00     0.043 A 
ATOM     11  C   UNL     1      -2.022   3.927  -1.811  1.00  0.00     0.012 A 
ATOM     12  C   UNL     1      -1.176   3.179   0.475  1.00  0.00     0.062 C 
ATOM     13  C   UNL     1      -1.458   5.278  -1.671  1.00  0.00     0.105 C 
ATOM     14  C   UNL     1      -0.680   4.639   0.599  1.00  0.00     0.072 C 
ATOM     15  C   UNL     1      -0.271   5.383  -0.699  1.00  0.00     0.189 C 
BRANCH   8  16
ATOM     16  C   UNL     1      -1.736   0.418  -1.078  1.00  0.00     0.171 C 
BRANCH  16  17
ATOM     17  C   UNL     1      -0.296   0.078  -1.387  1.00  0.00    -0.011 C 
ATOM     18  C   UNL     1       0.505  -0.647  -0.592  1.00  0.00     0.006 C 
ENDBRANCH  16  17
ENDBRANCH   8  16
BRANCH  15  19
ATOM     19  N   UNL     1       0.993   5.212  -1.449  1.00  0.00    -0.332 N 
ATOM     20  C   UNL     1       1.368   3.910  -1.969  1.00  0.00     0.262 C 
ATOM     21  C   UNL     1       2.166   5.870  -0.898  1.00  0.00     0.262 C 
ATOM     22  H   UNL     1       0.664   5.721  -2.269  1.00  0.00     0.348 HD
ATOM     23  C   UNL     1       1.939   2.978  -0.914  1.00  0.00     0.068 C 
ATOM     24  C   UNL     1       2.719   5.147   0.314  1.00  0.00     0.068 C 
ATOM     25  C   UNL     1       2.844   3.608   0.171  1.00  0.00     0.031 C 
BRANCH  25  26
ATOM     26  C   UNL     1       2.717   2.902   1.572  1.00  0.00     0.062 C 
ATOM     27  C   UNL     1       2.603   1.379   1.492  1.00  0.00     0.042 C 
ATOM     28  C   UNL     1       3.886   3.295   2.477  1.00  0.00     0.042 C 
BRANCH  26  29
ATOM     29  O   UNL     1       1.528   3.339   2.238  1.00  0.00    -0.390 OA
ATOM     30  H   UNL     1       0.754   3.111   1.700  1.00  0.00     0.211 HD
ENDBRANCH  26  29
ENDBRANCH  25  26
ENDBRANCH  15  19
ENDBRANCH   4   7
ENDBRANCH   2   3
ENDBRANCH   1   2
BRANCH   1  31
ATOM     31  C   UNL     1      -2.128   8.404  -4.902  1.00  0.00     0.023 C 
BRANCH  31  32
ATOM     32  C   UNL     1      -2.739   9.609  -4.197  1.00  0.00     0.116 C 
BRANCH  32  33
ATOM     33  N   UNL     1      -1.878  10.191  -3.165  1.00  0.00    -0.352 N 
ATOM     34  C   UNL     1      -2.215  11.222  -2.309  1.00  0.00     0.251 C 
ATOM     35  H   UNL     1      -0.974   9.813  -3.072  1.00  0.00     0.163 HD
ATOM     36  O   UNL     1      -1.364  11.930  -1.775  1.00  0.00    -0.269 OA
BRANCH  34  37
ATOM     37  C   UNL     1      -3.643  11.446  -2.040  1.00  0.00     0.039 A 
ATOM     38  C   UNL     1      -4.217  12.710  -2.178  1.00  0.00     0.014 A 
ATOM     39  C   UNL     1      -4.417  10.325  -1.735  1.00  0.00     0.014 A 
ATOM     40  C   UNL     1      -5.603  12.822  -2.103  1.00  0.00     0.010 A 
ATOM     41  C   UNL     1      -5.789  10.420  -1.772  1.00  0.00     0.010 A 
ATOM     42  C   UNL     1      -6.388  11.667  -1.932  1.00  0.00    -0.014 A 
BRANCH  42  43
ATOM     43  C   UNL     1      -7.838  11.739  -2.104  1.00  0.00     0.031 A 
ATOM     44  C   UNL     1      -8.266  12.342  -3.400  1.00  0.00     0.074 A 
ATOM     45  C   UNL     1      -8.719  11.132  -1.277  1.00  0.00     0.049 A 
ATOM     46  N   UNL     1      -8.917  13.445  -3.574  1.00  0.00    -0.248 NA
ATOM     47  C   UNL     1      -7.801  11.727  -4.655  1.00  0.00     0.031 C 
ATOM     48  C   UNL     1      -8.427  10.251  -0.142  1.00  0.00     0.029 A 
ATOM     49  N   UNL     1     -10.081  11.093  -1.337  1.00  0.00    -0.354 N 
ATOM     50  C   UNL     1      -9.123  13.561  -4.947  1.00  0.00     0.074 A 
ATOM     51  C   UNL     1      -8.270  12.583  -5.567  1.00  0.00     0.031 C 
ATOM     52  C   UNL     1      -9.547   9.588   0.220  1.00  0.00     0.029 A 
ATOM     53  C   UNL     1     -10.666  10.112  -0.539  1.00  0.00     0.049 A 
ATOM     54  H   UNL     1     -10.608  11.708  -1.897  1.00  0.00     0.167 HD
ATOM     55  C   UNL     1     -10.180  14.276  -5.426  1.00  0.00     0.037 A 
ATOM     56  C   UNL     1     -11.971   9.741  -0.521  1.00  0.00     0.037 A 
ATOM     57  C   UNL     1     -10.700  15.157  -4.409  1.00  0.00     0.049 A 
ATOM     58  C   UNL     1     -12.750  10.856  -1.108  1.00  0.00     0.074 A 
ATOM     59  C   UNL     1     -10.194  16.205  -3.666  1.00  0.00     0.029 A 
ATOM     60  N   UNL     1     -11.836  14.751  -3.756  1.00  0.00    -0.354 N 
ATOM     61  N   UNL     1     -12.884  12.024  -0.545  1.00  0.00    -0.248 NA
ATOM     62  C   UNL     1     -13.020  10.813  -2.535  1.00  0.00     0.031 C 
ATOM     63  C   UNL     1     -10.783  16.062  -2.374  1.00  0.00     0.029 A 
ATOM     64  C   UNL     1     -11.673  14.988  -2.420  1.00  0.00     0.049 A 
ATOM     65  H   UNL     1     -12.633  14.356  -4.178  1.00  0.00     0.167 HD
ATOM     66  C   UNL     1     -12.792  12.923  -1.594  1.00  0.00     0.074 A 
ATOM     67  C   UNL     1     -12.989  12.121  -2.800  1.00  0.00     0.031 C 
ATOM     68  C   UNL     1     -12.274  14.170  -1.393  1.00  0.00     0.037 A 
BRANCH  55  69
ATOM     69  C   UNL     1     -11.018  13.873  -6.625  1.00  0.00     0.064 A 
ATOM     70  C   UNL     1     -12.082  14.713  -7.020  1.00  0.00     0.173 A 
ATOM     71  C   UNL     1     -11.043  12.573  -7.175  1.00  0.00     0.173 A 
ATOM     72  F   UNL     1     -12.170  15.969  -6.558  1.00  0.00    -0.203 F 
ATOM     73  C   UNL     1     -13.141  14.249  -7.806  1.00  0.00     0.198 A 
ATOM     74  C   UNL     1     -12.076  12.130  -8.001  1.00  0.00     0.198 A 
ATOM     75  F   UNL     1     -10.143  11.639  -6.852  1.00  0.00    -0.203 F 
ATOM     76  F   UNL     1     -14.200  15.039  -8.027  1.00  0.00    -0.200 F 
ATOM     77  C   UNL     1     -13.143  12.954  -8.286  1.00  0.00     0.200 A 
ATOM     78  F   UNL     1     -12.067  10.864  -8.441  1.00  0.00    -0.200 F 
ATOM     79  F   UNL     1     -14.190  12.483  -8.976  1.00  0.00    -0.200 F 
ENDBRANCH  55  69
BRANCH  56  80
ATOM     80  C   UNL     1     -12.560   8.389  -0.335  1.00  0.00     0.064 A 
ATOM     81  C   UNL     1     -13.943   8.227  -0.133  1.00  0.00     0.173 A 
ATOM     82  C   UNL     1     -11.839   7.224  -0.657  1.00  0.00     0.173 A 
ATOM     83  F   UNL     1     -14.715   9.290   0.139  1.00  0.00    -0.203 F 
ATOM     84  C   UNL     1     -14.571   6.986  -0.290  1.00  0.00     0.198 A 
ATOM     85  C   UNL     1     -12.465   5.985  -0.806  1.00  0.00     0.198 A 
ATOM     86  F   UNL     1     -10.528   7.280  -0.933  1.00  0.00    -0.203 F 
ATOM     87  F   UNL     1     -15.902   6.889  -0.166  1.00  0.00    -0.200 F 
ATOM     88  C   UNL     1     -13.833   5.869  -0.642  1.00  0.00     0.200 A 
ATOM     89  F   UNL     1     -11.745   4.918  -1.182  1.00  0.00    -0.200 F 
ATOM     90  F   UNL     1     -14.442   4.696  -0.864  1.00  0.00    -0.200 F 
ENDBRANCH  56  80
BRANCH  68  91
ATOM     91  C   UNL     1     -12.133  14.649   0.026  1.00  0.00     0.064 A 
ATOM     92  C   UNL     1     -11.311  14.052   0.997  1.00  0.00     0.173 A 
ATOM     93  C   UNL     1     -12.774  15.846   0.373  1.00  0.00     0.173 A 
ATOM     94  F   UNL     1     -10.590  12.959   0.719  1.00  0.00    -0.203 F 
ATOM     95  C   UNL     1     -11.175  14.609   2.269  1.00  0.00     0.198 A 
ATOM     96  C   UNL     1     -12.606  16.421   1.629  1.00  0.00     0.198 A 
ATOM     97  F   UNL     1     -13.534  16.487  -0.529  1.00  0.00    -0.203 F 
ATOM     98  F   UNL     1     -10.399  14.012   3.186  1.00  0.00    -0.200 F 
ATOM     99  C   UNL     1     -11.817  15.796   2.580  1.00  0.00     0.200 A 
ATOM    100  F   UNL     1     -13.190  17.594   1.906  1.00  0.00    -0.200 F 
ATOM    101  F   UNL     1     -11.656  16.353   3.789  1.00  0.00    -0.200 F 
ENDBRANCH  68  91
ENDBRANCH  42  43
ENDBRANCH  34  37
ENDBRANCH  32  33
ENDBRANCH  31  32
ENDBRANCH   1  31
TORSDOF 16
