REMARK SMILES Cc1cccc(CC(=O)N[C@H]2CCCCC[C@@H]2C(=O)NCCCCNC(=O)c2ccc(-c3c4nc(c(-c5c(F)c(F)c(F)c(F)c5F)c5ccc([nH]5)c(-c5c(F)c(F)c(F)c(F)c5F)c5nc(c(-c6c(F)c(F)c(F)c(F)c6F)c6ccc3[nH]6)C=C5)C=C4)cc2)c1
REMARK SMILES IDX 21 1 20 2 18 3 19 4 17 6 11 7 10 9 8 10 9 11 7 13 6 14 1 15
REMARK SMILES IDX 2 16 3 17 91 18 4 19 5 20 16 21 15 22 14 23 13 24 12 25
REMARK SMILES IDX 22 27 23 28 24 29 25 30 26 31 27 33 28 34 29 35 90 36 30 37
REMARK SMILES IDX 89 38 31 39 32 40 33 41 83 42 34 43 88 44 82 45 84 46 35 47
REMARK SMILES IDX 87 48 81 49 80 50 36 52 68 53 48 54 67 55 49 56 52 57 66 58
REMARK SMILES IDX 85 59 50 60 51 61 65 63 86 64 53 65 37 66 38 67 46 68 39 69
REMARK SMILES IDX 40 70 44 71 47 72 41 73 42 74 45 75 43 76 69 77 70 78 78 79
REMARK SMILES IDX 71 80 72 81 76 82 79 83 73 84 74 85 77 86 75 87 54 88 55 89
REMARK SMILES IDX 63 90 56 91 57 92 61 93 64 94 58 95 59 96 62 97 60 98
REMARK H PARENT 20 5 10 12 25 32 84 51 52 62
REMARK Flexibility Score: 90.00
ROOT
ATOM      1  C   UNL     1      -1.621   6.675  -1.648  1.00  0.00     0.116 C 
ENDROOT
BRANCH   1   2
ATOM      2  N   UNL     1      -1.651   5.791  -2.801  1.00  0.00    -0.356 N 
ATOM      3  C   UNL     1      -1.171   4.556  -3.093  1.00  0.00     0.225 C 
ATOM      4  O   UNL     1      -1.593   4.113  -4.172  1.00  0.00    -0.275 OA
ATOM      5  H   UNL     1      -2.140   6.187  -3.558  1.00  0.00     0.163 HD
BRANCH   3   6
ATOM      6  C   UNL     1      -0.122   3.744  -2.275  1.00  0.00     0.101 C 
BRANCH   6   7
ATOM      7  C   UNL     1      -0.376   2.227  -2.548  1.00  0.00     0.094 CG0
ATOM      8  G   UNL     1      -0.244   1.202  -1.411  1.00  0.00     0.000 G0
BRANCH   7   9
ATOM      9  N   UNL     1       0.123   1.688  -3.839  1.00  0.00    -0.352 N 
ATOM     10  C   UNL     1       1.291   1.496  -4.498  1.00  0.00     0.224 C 
ATOM     11  O   UNL     1       1.214   0.898  -5.580  1.00  0.00    -0.275 OA
ATOM     12  H   UNL     1      -0.631   1.371  -4.387  1.00  0.00     0.163 HD
BRANCH  10  13
ATOM     13  C   UNL     1       2.649   1.952  -4.005  1.00  0.00     0.135 C 
BRANCH  13  14
ATOM     14  C   UNL     1       2.874   3.441  -4.081  1.00  0.00    -0.038 A 
ATOM     15  C   UNL     1       3.705   6.251  -1.657  1.00  0.00     0.044 C 
ATOM     16  C   UNL     1       3.397   5.526  -2.934  1.00  0.00    -0.051 A 
ATOM     17  C   UNL     1       3.008   6.237  -4.074  1.00  0.00     0.003 A 
ATOM     18  C   UNL     1       3.377   4.127  -2.967  1.00  0.00     0.007 A 
ATOM     19  C   UNL     1       2.611   5.559  -5.226  1.00  0.00     0.001 A 
ATOM     20  C   UNL     1       2.539   4.167  -5.230  1.00  0.00     0.004 A 
ENDBRANCH  13  14
ENDBRANCH  10  13
ENDBRANCH   7   9
ENDBRANCH   6   7
BRANCH   6  21
ATOM     21  C   UNL     1      -0.007   4.125  -0.795  1.00  0.00     0.015 C 
BRANCH  21  22
ATOM     22  C   UNL     1       1.197   3.610  -0.010  1.00  0.00     0.001 C 
BRANCH  22  23
ATOM     23  C   UNL     1       1.123   2.179   0.478  1.00  0.00     0.000 C 
BRANCH  23  24
ATOM     24  C   UNL     1       1.059   1.154  -0.637  1.00  0.00     0.002 C 
BRANCH  24  25
ATOM     25  C   UNL     1      -0.244   1.202  -1.411  1.00  0.00     0.026 CG0
ATOM     26  G   UNL     1      -0.376   2.227  -2.548  1.00  0.00     0.000 G0
ENDBRANCH  24  25
ENDBRANCH  23  24
ENDBRANCH  22  23
ENDBRANCH  21  22
ENDBRANCH   6  21
ENDBRANCH   3   6
ENDBRANCH   1   2
BRANCH   1  27
ATOM     27  C   UNL     1      -0.483   7.706  -1.689  1.00  0.00     0.023 C 
BRANCH  27  28
ATOM     28  C   UNL     1      -0.695   8.877  -2.662  1.00  0.00     0.023 C 
BRANCH  28  29
ATOM     29  C   UNL     1      -1.877   9.778  -2.314  1.00  0.00     0.116 C 
BRANCH  29  30
ATOM     30  N   UNL     1      -1.615  10.833  -1.341  1.00  0.00    -0.352 N 
ATOM     31  C   UNL     1      -2.507  11.523  -0.526  1.00  0.00     0.251 C 
ATOM     32  H   UNL     1      -0.671  11.094  -1.248  1.00  0.00     0.163 HD
ATOM     33  O   UNL     1      -2.140  12.463   0.137  1.00  0.00    -0.269 OA
BRANCH  31  34
ATOM     34  C   UNL     1      -3.895  11.000  -0.377  1.00  0.00     0.039 A 
ATOM     35  C   UNL     1      -4.378  10.798   0.921  1.00  0.00     0.014 A 
ATOM     36  C   UNL     1      -4.602  10.511  -1.472  1.00  0.00     0.014 A 
ATOM     37  C   UNL     1      -5.412   9.886   1.128  1.00  0.00     0.010 A 
ATOM     38  C   UNL     1      -5.554   9.530  -1.263  1.00  0.00     0.010 A 
ATOM     39  C   UNL     1      -5.909   9.166   0.040  1.00  0.00    -0.014 A 
BRANCH  39  40
ATOM     40  C   UNL     1      -6.700   7.949   0.198  1.00  0.00     0.031 A 
ATOM     41  C   UNL     1      -8.153   7.948  -0.064  1.00  0.00     0.074 A 
ATOM     42  C   UNL     1      -6.099   6.794   0.567  1.00  0.00     0.049 A 
ATOM     43  N   UNL     1      -8.997   7.189   0.553  1.00  0.00    -0.248 NA
ATOM     44  C   UNL     1      -8.777   8.830  -1.041  1.00  0.00     0.031 C 
ATOM     45  C   UNL     1      -6.696   5.460   0.594  1.00  0.00     0.029 A 
ATOM     46  N   UNL     1      -4.854   6.630   1.199  1.00  0.00    -0.354 N 
ATOM     47  C   UNL     1     -10.199   7.274  -0.112  1.00  0.00     0.074 A 
ATOM     48  C   UNL     1     -10.026   8.355  -1.057  1.00  0.00     0.031 C 
ATOM     49  C   UNL     1      -6.014   4.700   1.464  1.00  0.00     0.029 A 
ATOM     50  C   UNL     1      -5.027   5.553   2.101  1.00  0.00     0.049 A 
ATOM     51  H   UNL     1      -4.034   7.153   1.047  1.00  0.00     0.167 HD
ATOM     52  C   UNL     1     -11.163   6.333   0.109  1.00  0.00     0.037 A 
ATOM     53  C   UNL     1      -4.866   5.706   3.445  1.00  0.00     0.037 A 
ATOM     54  C   UNL     1     -10.734   5.347   1.097  1.00  0.00     0.049 A 
ATOM     55  C   UNL     1      -6.087   5.353   4.259  1.00  0.00     0.074 A 
ATOM     56  C   UNL     1     -10.207   4.071   0.973  1.00  0.00     0.029 A 
ATOM     57  N   UNL     1     -10.531   5.728   2.419  1.00  0.00    -0.354 N 
ATOM     58  N   UNL     1      -7.284   5.241   3.756  1.00  0.00    -0.248 NA
ATOM     59  C   UNL     1      -6.066   5.146   5.704  1.00  0.00     0.031 C 
ATOM     60  C   UNL     1      -9.661   3.693   2.221  1.00  0.00     0.029 A 
ATOM     61  C   UNL     1      -9.860   4.736   3.108  1.00  0.00     0.049 A 
ATOM     62  H   UNL     1     -10.823   6.584   2.808  1.00  0.00     0.167 HD
ATOM     63  C   UNL     1      -8.182   4.992   4.763  1.00  0.00     0.074 A 
ATOM     64  C   UNL     1      -7.366   4.913   5.959  1.00  0.00     0.031 C 
ATOM     65  C   UNL     1      -9.522   4.889   4.514  1.00  0.00     0.037 A 
BRANCH  52  66
ATOM     66  C   UNL     1     -12.356   6.136  -0.803  1.00  0.00     0.064 A 
ATOM     67  C   UNL     1     -12.894   4.852  -1.042  1.00  0.00     0.173 A 
ATOM     68  C   UNL     1     -12.979   7.175  -1.517  1.00  0.00     0.173 A 
ATOM     69  F   UNL     1     -12.502   3.783  -0.339  1.00  0.00    -0.203 F 
ATOM     70  C   UNL     1     -13.863   4.613  -2.020  1.00  0.00     0.198 A 
ATOM     71  C   UNL     1     -13.906   6.932  -2.537  1.00  0.00     0.198 A 
ATOM     72  F   UNL     1     -12.742   8.459  -1.216  1.00  0.00    -0.203 F 
ATOM     73  F   UNL     1     -14.321   3.368  -2.213  1.00  0.00    -0.200 F 
ATOM     74  C   UNL     1     -14.335   5.647  -2.800  1.00  0.00     0.200 A 
ATOM     75  F   UNL     1     -14.378   7.954  -3.264  1.00  0.00    -0.200 F 
ATOM     76  F   UNL     1     -15.219   5.411  -3.779  1.00  0.00    -0.200 F 
ENDBRANCH  52  66
BRANCH  53  77
ATOM     77  C   UNL     1      -3.865   6.744   3.800  1.00  0.00     0.064 A 
ATOM     78  C   UNL     1      -2.529   6.538   3.406  1.00  0.00     0.173 A 
ATOM     79  C   UNL     1      -4.243   8.042   4.157  1.00  0.00     0.173 A 
ATOM     80  F   UNL     1      -2.117   5.311   3.046  1.00  0.00    -0.203 F 
ATOM     81  C   UNL     1      -1.645   7.603   3.259  1.00  0.00     0.198 A 
ATOM     82  C   UNL     1      -3.348   9.106   4.025  1.00  0.00     0.198 A 
ATOM     83  F   UNL     1      -5.507   8.305   4.519  1.00  0.00    -0.203 F 
ATOM     84  F   UNL     1      -0.417   7.387   2.763  1.00  0.00    -0.200 F 
ATOM     85  C   UNL     1      -2.064   8.891   3.543  1.00  0.00     0.200 A 
ATOM     86  F   UNL     1      -3.759  10.357   4.277  1.00  0.00    -0.200 F 
ATOM     87  F   UNL     1      -1.246   9.927   3.313  1.00  0.00    -0.200 F 
ENDBRANCH  53  77
BRANCH  65  88
ATOM     88  C   UNL     1     -10.631   4.817   5.540  1.00  0.00     0.064 A 
ATOM     89  C   UNL     1     -10.548   5.354   6.835  1.00  0.00     0.173 A 
ATOM     90  C   UNL     1     -11.902   4.299   5.181  1.00  0.00     0.173 A 
ATOM     91  F   UNL     1      -9.446   5.986   7.259  1.00  0.00    -0.203 F 
ATOM     92  C   UNL     1     -11.627   5.315   7.724  1.00  0.00     0.198 A 
ATOM     93  C   UNL     1     -12.993   4.316   6.050  1.00  0.00     0.198 A 
ATOM     94  F   UNL     1     -12.134   3.784   3.965  1.00  0.00    -0.203 F 
ATOM     95  F   UNL     1     -11.480   5.803   8.964  1.00  0.00    -0.200 F 
ATOM     96  C   UNL     1     -12.851   4.808   7.329  1.00  0.00     0.200 A 
ATOM     97  F   UNL     1     -14.185   3.870   5.631  1.00  0.00    -0.200 F 
ATOM     98  F   UNL     1     -13.893   4.815   8.170  1.00  0.00    -0.200 F 
ENDBRANCH  65  88
ENDBRANCH  39  40
ENDBRANCH  31  34
ENDBRANCH  29  30
ENDBRANCH  28  29
ENDBRANCH  27  28
ENDBRANCH   1  27
TORSDOF 14
