REMARK SMILES CN(CCCC(=O)NCCCCNC(=O)c1ccc(-c2c3nc(c(-c4c(F)c(F)c(F)c(F)c4F)c4ccc([nH]4)c(-c4c(F)c(F)c(F)c(F)c4F)c4nc(c(-c5c(F)c(F)c(F)c(F)c5F)c5ccc2[nH]5)C=C4)C=C3)cc1)c1cccc(F)c1C(N)=O
REMARK SMILES IDX 9 1 8 2 6 3 7 4 5 6 4 7 3 8 2 9 1 10 79 11 80 12 85 13 81 14
REMARK SMILES IDX 83 15 82 16 84 17 86 18 87 19 88 20 10 23 11 24 12 25 13 26
REMARK SMILES IDX 14 27 15 29 16 30 17 31 78 32 18 33 77 34 19 35 20 36 21 37
REMARK SMILES IDX 71 38 22 39 76 40 70 41 72 42 23 43 75 44 69 45 68 46 24 48
REMARK SMILES IDX 56 49 36 50 55 51 37 52 40 53 54 54 73 55 38 56 39 57 53 59
REMARK SMILES IDX 74 60 41 61 25 62 26 63 34 64 27 65 28 66 32 67 35 68 29 69
REMARK SMILES IDX 30 70 33 71 31 72 57 73 58 74 66 75 59 76 60 77 64 78 67 79
REMARK SMILES IDX 61 80 62 81 65 82 63 83 42 84 43 85 51 86 44 87 45 88 49 89
REMARK SMILES IDX 52 90 46 91 47 92 50 93 48 94
REMARK H PARENT 8 5 87 21 87 22 13 28 72 47 40 58
REMARK Flexibility Score: inf
ROOT
ATOM      1  C   UNL     1       1.245   1.719  -3.937  1.00  0.00     0.116 C 
ENDROOT
BRANCH   1   2
ATOM      2  N   UNL     1       0.071   2.090  -4.696  1.00  0.00    -0.356 N 
ATOM      3  C   UNL     1      -1.185   2.341  -4.235  1.00  0.00     0.220 C 
ATOM      4  O   UNL     1      -2.107   2.421  -5.046  1.00  0.00    -0.275 OA
ATOM      5  H   UNL     1       0.196   2.172  -5.669  1.00  0.00     0.163 HD
BRANCH   3   6
ATOM      6  C   UNL     1      -1.408   2.591  -2.756  1.00  0.00     0.102 C 
BRANCH   6   7
ATOM      7  C   UNL     1      -1.747   1.367  -1.898  1.00  0.00     0.031 C 
BRANCH   7   8
ATOM      8  C   UNL     1      -0.610   0.545  -1.272  1.00  0.00     0.117 C 
BRANCH   8   9
ATOM      9  N   UNL     1       0.077   1.106  -0.086  1.00  0.00    -0.374 N 
ATOM     10  C   UNL     1       0.637   0.129   0.851  1.00  0.00     0.143 C 
BRANCH   9  11
ATOM     11  C   UNL     1       0.701   2.354  -0.136  1.00  0.00     0.052 A 
ATOM     12  C   UNL     1      -0.142   3.466   0.090  1.00  0.00     0.027 A 
ATOM     13  C   UNL     1       2.074   2.627  -0.367  1.00  0.00     0.098 A 
ATOM     14  C   UNL     1       0.305   4.785  -0.019  1.00  0.00     0.005 A 
ATOM     15  C   UNL     1       2.506   3.962  -0.475  1.00  0.00     0.138 A 
ATOM     16  C   UNL     1       1.633   5.032  -0.321  1.00  0.00     0.040 A 
ATOM     17  F   UNL     1       3.786   4.249  -0.764  1.00  0.00    -0.206 F 
BRANCH  13  18
ATOM     18  C   UNL     1       3.114   1.590  -0.594  1.00  0.00     0.253 C 
ATOM     19  N   UNL     1       4.314   1.757   0.040  1.00  0.00    -0.365 N 
ATOM     20  O   UNL     1       2.946   0.627  -1.338  1.00  0.00    -0.269 OA
ATOM     21  H   UNL     1       4.453   2.527   0.637  1.00  0.00     0.159 HD
ATOM     22  H   UNL     1       5.039   1.106  -0.101  1.00  0.00     0.159 HD
ENDBRANCH  13  18
ENDBRANCH   9  11
ENDBRANCH   8   9
ENDBRANCH   7   8
ENDBRANCH   6   7
ENDBRANCH   3   6
ENDBRANCH   1   2
BRANCH   1  23
ATOM     23  C   UNL     1       1.518   0.224  -4.113  1.00  0.00     0.023 C 
BRANCH  23  24
ATOM     24  C   UNL     1       2.540  -0.082  -5.192  1.00  0.00     0.023 C 
BRANCH  24  25
ATOM     25  C   UNL     1       3.930   0.466  -4.903  1.00  0.00     0.116 C 
BRANCH  25  26
ATOM     26  N   UNL     1       4.574  -0.099  -3.724  1.00  0.00    -0.352 N 
ATOM     27  C   UNL     1       5.900  -0.453  -3.596  1.00  0.00     0.251 C 
ATOM     28  H   UNL     1       4.002  -0.243  -2.936  1.00  0.00     0.163 HD
ATOM     29  O   UNL     1       6.351  -0.966  -2.577  1.00  0.00    -0.269 OA
BRANCH  27  30
ATOM     30  C   UNL     1       6.784  -0.206  -4.754  1.00  0.00     0.039 A 
ATOM     31  C   UNL     1       7.426  -1.277  -5.377  1.00  0.00     0.014 A 
ATOM     32  C   UNL     1       6.843   1.080  -5.299  1.00  0.00     0.014 A 
ATOM     33  C   UNL     1       8.064  -1.071  -6.603  1.00  0.00     0.010 A 
ATOM     34  C   UNL     1       7.397   1.261  -6.559  1.00  0.00     0.010 A 
ATOM     35  C   UNL     1       8.012   0.188  -7.226  1.00  0.00    -0.014 A 
BRANCH  35  36
ATOM     36  C   UNL     1       8.590   0.421  -8.575  1.00  0.00     0.031 A 
ATOM     37  C   UNL     1       9.696   1.425  -8.745  1.00  0.00     0.074 A 
ATOM     38  C   UNL     1       8.055  -0.182  -9.654  1.00  0.00     0.049 A 
ATOM     39  N   UNL     1      10.251   1.870  -9.844  1.00  0.00    -0.248 NA
ATOM     40  C   UNL     1      10.217   2.044  -7.516  1.00  0.00     0.031 C 
ATOM     41  C   UNL     1       6.932  -1.121  -9.633  1.00  0.00     0.029 A 
ATOM     42  N   UNL     1       8.371  -0.075 -10.987  1.00  0.00    -0.354 N 
ATOM     43  C   UNL     1      11.156   2.842  -9.439  1.00  0.00     0.074 A 
ATOM     44  C   UNL     1      11.040   2.960  -8.002  1.00  0.00     0.031 C 
ATOM     45  C   UNL     1       6.664  -1.516 -10.888  1.00  0.00     0.029 A 
ATOM     46  C   UNL     1       7.571  -0.834 -11.807  1.00  0.00     0.049 A 
ATOM     47  H   UNL     1       9.102   0.491 -11.323  1.00  0.00     0.167 HD
ATOM     48  C   UNL     1      12.024   3.555 -10.195  1.00  0.00     0.037 A 
ATOM     49  C   UNL     1       7.564  -0.957 -13.148  1.00  0.00     0.037 A 
ATOM     50  C   UNL     1      12.175   3.397 -11.616  1.00  0.00     0.049 A 
ATOM     51  C   UNL     1       8.569  -0.189 -13.963  1.00  0.00     0.074 A 
ATOM     52  C   UNL     1      13.095   3.997 -12.457  1.00  0.00     0.029 A 
ATOM     53  N   UNL     1      11.384   2.575 -12.405  1.00  0.00    -0.354 N 
ATOM     54  N   UNL     1       9.480   0.663 -13.562  1.00  0.00    -0.248 NA
ATOM     55  C   UNL     1       8.549  -0.404 -15.417  1.00  0.00     0.031 C 
ATOM     56  C   UNL     1      12.835   3.568 -13.763  1.00  0.00     0.029 A 
ATOM     57  C   UNL     1      11.781   2.668 -13.729  1.00  0.00     0.049 A 
ATOM     58  H   UNL     1      10.649   2.010 -12.074  1.00  0.00     0.167 HD
ATOM     59  C   UNL     1      10.156   1.068 -14.704  1.00  0.00     0.074 A 
ATOM     60  C   UNL     1       9.559   0.358 -15.816  1.00  0.00     0.031 C 
ATOM     61  C   UNL     1      11.180   1.948 -14.822  1.00  0.00     0.037 A 
BRANCH  48  62
ATOM     62  C   UNL     1      12.882   4.567  -9.493  1.00  0.00     0.064 A 
ATOM     63  C   UNL     1      13.911   4.183  -8.619  1.00  0.00     0.173 A 
ATOM     64  C   UNL     1      12.684   5.939  -9.711  1.00  0.00     0.173 A 
ATOM     65  F   UNL     1      14.132   2.884  -8.367  1.00  0.00    -0.203 F 
ATOM     66  C   UNL     1      14.685   5.134  -7.962  1.00  0.00     0.198 A 
ATOM     67  C   UNL     1      13.481   6.887  -9.075  1.00  0.00     0.198 A 
ATOM     68  F   UNL     1      11.718   6.360 -10.540  1.00  0.00    -0.203 F 
ATOM     69  F   UNL     1      15.623   4.744  -7.087  1.00  0.00    -0.200 F 
ATOM     70  C   UNL     1      14.474   6.485  -8.194  1.00  0.00     0.200 A 
ATOM     71  F   UNL     1      13.284   8.192  -9.310  1.00  0.00    -0.200 F 
ATOM     72  F   UNL     1      15.222   7.399  -7.562  1.00  0.00    -0.200 F 
ENDBRANCH  48  62
BRANCH  49  73
ATOM     73  C   UNL     1       6.589  -1.869 -13.801  1.00  0.00     0.064 A 
ATOM     74  C   UNL     1       7.008  -3.078 -14.373  1.00  0.00     0.173 A 
ATOM     75  C   UNL     1       5.223  -1.558 -13.859  1.00  0.00     0.173 A 
ATOM     76  F   UNL     1       8.307  -3.409 -14.362  1.00  0.00    -0.203 F 
ATOM     77  C   UNL     1       6.099  -3.936 -14.990  1.00  0.00     0.198 A 
ATOM     78  C   UNL     1       4.311  -2.427 -14.455  1.00  0.00     0.198 A 
ATOM     79  F   UNL     1       4.771  -0.414 -13.322  1.00  0.00    -0.203 F 
ATOM     80  F   UNL     1       6.532  -5.068 -15.562  1.00  0.00    -0.200 F 
ATOM     81  C   UNL     1       4.751  -3.613 -15.025  1.00  0.00     0.200 A 
ATOM     82  F   UNL     1       3.008  -2.118 -14.475  1.00  0.00    -0.200 F 
ATOM     83  F   UNL     1       3.877  -4.441 -15.613  1.00  0.00    -0.200 F 
ENDBRANCH  49  73
BRANCH  61  84
ATOM     84  C   UNL     1      11.742   2.176 -16.193  1.00  0.00     0.064 A 
ATOM     85  C   UNL     1      11.051   2.927 -17.154  1.00  0.00     0.173 A 
ATOM     86  C   UNL     1      13.015   1.688 -16.528  1.00  0.00     0.173 A 
ATOM     87  F   UNL     1       9.825   3.402 -16.885  1.00  0.00    -0.203 F 
ATOM     88  C   UNL     1      11.607   3.169 -18.407  1.00  0.00     0.198 A 
ATOM     89  C   UNL     1      13.579   1.955 -17.771  1.00  0.00     0.198 A 
ATOM     90  F   UNL     1      13.718   0.970 -15.640  1.00  0.00    -0.203 F 
ATOM     91  F   UNL     1      10.915   3.861 -19.323  1.00  0.00    -0.200 F 
ATOM     92  C   UNL     1      12.873   2.691 -18.711  1.00  0.00     0.200 A 
ATOM     93  F   UNL     1      14.807   1.503 -18.059  1.00  0.00    -0.200 F 
ATOM     94  F   UNL     1      13.412   2.937 -19.913  1.00  0.00    -0.200 F 
ENDBRANCH  61  84
ENDBRANCH  35  36
ENDBRANCH  27  30
ENDBRANCH  25  26
ENDBRANCH  24  25
ENDBRANCH  23  24
ENDBRANCH   1  23
TORSDOF 16
