REMARK SMILES Cn1cc(Cl)c(C(=O)N2CCC[C@H](c3ccc(C(=O)NCCCCNC(=O)c4ccc(-c5c6nc(c(-c7c(F)c(F)c(F)c(F)c7F)c7ccc([nH]7)c(-c7c(F)c(F)c(F)c(F)c7F)c7nc(c(-c8c(F)c(F)c(F)c(F)c8F)c8ccc5[nH]8)C=C7)C=C6)cc4)cc3)C2)n1
REMARK SMILES IDX 22 1 21 2 20 3 18 4 19 5 17 7 14 8 15 9 92 10 16 11 91 12
REMARK SMILES IDX 13 13 9 14 10 15 93 16 11 17 12 18 7 19 8 20 6 21 1 22 2 23
REMARK SMILES IDX 3 24 94 25 4 26 5 27 23 28 24 29 25 30 26 31 27 33 28 34
REMARK SMILES IDX 29 35 90 36 30 37 89 38 31 39 32 40 33 41 83 42 34 43 88 44
REMARK SMILES IDX 82 45 84 46 35 47 87 48 81 49 80 50 36 52 68 53 48 54 67 55
REMARK SMILES IDX 49 56 52 57 66 58 85 59 50 60 51 61 65 63 86 64 53 65 37 66
REMARK SMILES IDX 38 67 46 68 39 69 40 70 44 71 47 72 41 73 42 74 45 75 43 76
REMARK SMILES IDX 69 77 70 78 78 79 71 80 72 81 76 82 79 83 73 84 74 85 77 86
REMARK SMILES IDX 75 87 54 88 55 89 63 90 56 91 57 92 61 93 64 94 58 95 59 96
REMARK SMILES IDX 62 97 60 98
REMARK H PARENT 20 6 25 32 84 51 52 62
REMARK Flexibility Score: inf
ROOT
ATOM      1  C   UNL     1      -2.756   8.230   6.588  1.00  0.00     0.023 C 
ENDROOT
BRANCH   1   2
ATOM      2  C   UNL     1      -1.985   8.461   5.287  1.00  0.00     0.116 C 
BRANCH   2   3
ATOM      3  N   UNL     1      -0.692   7.817   5.352  1.00  0.00    -0.352 N 
ATOM      4  C   UNL     1      -0.273   6.576   4.944  1.00  0.00     0.251 C 
ATOM      5  O   UNL     1       0.901   6.275   5.157  1.00  0.00    -0.269 OA
ATOM      6  H   UNL     1       0.014   8.367   5.763  1.00  0.00     0.163 HD
BRANCH   4   7
ATOM      7  C   UNL     1      -1.149   5.622   4.207  1.00  0.00     0.039 A 
ATOM      8  C   UNL     1      -2.654   3.835   2.594  1.00  0.00    -0.043 A 
ATOM      9  C   UNL     1      -1.260   3.885   2.505  1.00  0.00     0.005 A 
ATOM     10  C   UNL     1      -3.273   4.638   3.564  1.00  0.00     0.005 A 
ATOM     11  C   UNL     1      -0.519   4.769   3.296  1.00  0.00     0.014 A 
ATOM     12  C   UNL     1      -2.529   5.505   4.370  1.00  0.00     0.014 A 
BRANCH   8  13
ATOM     13  C   UNL     1      -3.532   2.977   1.689  1.00  0.00     0.039 C 
ATOM     14  N   UNL     1      -2.141   2.475  -0.349  1.00  0.00    -0.337 N 
ATOM     15  C   UNL     1      -2.942   3.364  -1.182  1.00  0.00     0.120 C 
ATOM     16  C   UNL     1      -2.807   1.909   0.831  1.00  0.00     0.128 C 
ATOM     17  C   UNL     1      -3.607   4.465  -0.371  1.00  0.00     0.022 C 
ATOM     18  C   UNL     1      -4.413   3.865   0.779  1.00  0.00     0.012 C 
BRANCH  14  19
ATOM     19  C   UNL     1      -0.813   2.244  -0.731  1.00  0.00     0.275 C 
ATOM     20  O   UNL     1      -0.228   3.046  -1.462  1.00  0.00    -0.267 OA
BRANCH  19  21
ATOM     21  C   UNL     1      -0.132   1.011  -0.293  1.00  0.00     0.168 A 
ATOM     22  C   UNL     1       2.927  -0.597   0.251  1.00  0.00     0.173 C 
ATOM     23  N   UNL     1       1.528  -0.253   0.143  1.00  0.00    -0.273 N 
ATOM     24  C   UNL     1       0.487  -1.115  -0.007  1.00  0.00     0.129 A 
ATOM     25  N   UNL     1       1.172   1.038   0.062  1.00  0.00    -0.166 NA
ATOM     26  C   UNL     1      -0.596  -0.335  -0.336  1.00  0.00     0.092 A 
ATOM     27  Cl  UNL     1      -2.112  -0.918  -0.824  1.00  0.00    -0.080 Cl
ENDBRANCH  19  21
ENDBRANCH  14  19
ENDBRANCH   8  13
ENDBRANCH   4   7
ENDBRANCH   2   3
ENDBRANCH   1   2
BRANCH   1  28
ATOM     28  C   UNL     1      -2.261   9.068   7.769  1.00  0.00     0.023 C 
BRANCH  28  29
ATOM     29  C   UNL     1      -2.398  10.571   7.576  1.00  0.00     0.116 C 
BRANCH  29  30
ATOM     30  N   UNL     1      -3.764  10.990   7.309  1.00  0.00    -0.352 N 
ATOM     31  C   UNL     1      -4.360  12.189   7.616  1.00  0.00     0.251 C 
ATOM     32  H   UNL     1      -4.334  10.332   6.849  1.00  0.00     0.163 HD
ATOM     33  O   UNL     1      -5.556  12.359   7.430  1.00  0.00    -0.269 OA
BRANCH  31  34
ATOM     34  C   UNL     1      -3.538  13.260   8.214  1.00  0.00     0.039 A 
ATOM     35  C   UNL     1      -4.005  13.901   9.363  1.00  0.00     0.014 A 
ATOM     36  C   UNL     1      -2.305  13.607   7.657  1.00  0.00     0.014 A 
ATOM     37  C   UNL     1      -3.209  14.864   9.982  1.00  0.00     0.010 A 
ATOM     38  C   UNL     1      -1.481  14.510   8.318  1.00  0.00     0.010 A 
ATOM     39  C   UNL     1      -1.932  15.158   9.477  1.00  0.00    -0.014 A 
BRANCH  39  40
ATOM     40  C   UNL     1      -1.070  16.179  10.119  1.00  0.00     0.031 A 
ATOM     41  C   UNL     1      -0.718  17.433   9.367  1.00  0.00     0.074 A 
ATOM     42  C   UNL     1      -0.566  15.956  11.348  1.00  0.00     0.049 A 
ATOM     43  N   UNL     1       0.076  18.413   9.715  1.00  0.00    -0.248 NA
ATOM     44  C   UNL     1      -1.315  17.590   8.031  1.00  0.00     0.031 C 
ATOM     45  C   UNL     1      -0.796  14.756  12.153  1.00  0.00     0.029 A 
ATOM     46  N   UNL     1       0.256  16.729  12.129  1.00  0.00    -0.354 N 
ATOM     47  C   UNL     1       0.080  19.293   8.641  1.00  0.00     0.074 A 
ATOM     48  C   UNL     1      -0.735  18.701   7.603  1.00  0.00     0.031 C 
ATOM     49  C   UNL     1      -0.144  14.879  13.320  1.00  0.00     0.029 A 
ATOM     50  C   UNL     1       0.573  16.150  13.334  1.00  0.00     0.049 A 
ATOM     51  H   UNL     1       0.586  17.614  11.853  1.00  0.00     0.167 HD
ATOM     52  C   UNL     1       0.682  20.501   8.540  1.00  0.00     0.037 A 
ATOM     53  C   UNL     1       1.359  16.598  14.331  1.00  0.00     0.037 A 
ATOM     54  C   UNL     1       1.473  21.096   9.585  1.00  0.00     0.049 A 
ATOM     55  C   UNL     1       2.007  17.951  14.200  1.00  0.00     0.074 A 
ATOM     56  C   UNL     1       2.106  22.326   9.595  1.00  0.00     0.029 A 
ATOM     57  N   UNL     1       1.730  20.501  10.811  1.00  0.00    -0.354 N 
ATOM     58  N   UNL     1       1.960  18.798  13.200  1.00  0.00    -0.248 NA
ATOM     59  C   UNL     1       2.802  18.418  15.344  1.00  0.00     0.031 C 
ATOM     60  C   UNL     1       2.774  22.462  10.817  1.00  0.00     0.029 A 
ATOM     61  C   UNL     1       2.514  21.339  11.586  1.00  0.00     0.049 A 
ATOM     62  H   UNL     1       1.404  19.615  11.089  1.00  0.00     0.167 HD
ATOM     63  C   UNL     1       2.686  19.910  13.607  1.00  0.00     0.074 A 
ATOM     64  C   UNL     1       3.152  19.634  14.950  1.00  0.00     0.031 C 
ATOM     65  C   UNL     1       2.945  21.056  12.931  1.00  0.00     0.037 A 
BRANCH  52  66
ATOM     66  C   UNL     1       0.493  21.265   7.262  1.00  0.00     0.064 A 
ATOM     67  C   UNL     1      -0.752  21.816   6.918  1.00  0.00     0.173 A 
ATOM     68  C   UNL     1       1.568  21.477   6.388  1.00  0.00     0.173 A 
ATOM     69  F   UNL     1      -1.817  21.628   7.713  1.00  0.00    -0.203 F 
ATOM     70  C   UNL     1      -0.918  22.526   5.732  1.00  0.00     0.198 A 
ATOM     71  C   UNL     1       1.405  22.216   5.218  1.00  0.00     0.198 A 
ATOM     72  F   UNL     1       2.780  20.976   6.670  1.00  0.00    -0.203 F 
ATOM     73  F   UNL     1      -2.128  22.999   5.401  1.00  0.00    -0.200 F 
ATOM     74  C   UNL     1       0.161  22.733   4.888  1.00  0.00     0.200 A 
ATOM     75  F   UNL     1       2.453  22.426   4.409  1.00  0.00    -0.200 F 
ATOM     76  F   UNL     1       0.002  23.424   3.751  1.00  0.00    -0.200 F 
ENDBRANCH  52  66
BRANCH  53  77
ATOM     77  C   UNL     1       1.556  15.774  15.553  1.00  0.00     0.064 A 
ATOM     78  C   UNL     1       1.023  16.174  16.787  1.00  0.00     0.173 A 
ATOM     79  C   UNL     1       2.295  14.584  15.518  1.00  0.00     0.173 A 
ATOM     80  F   UNL     1       0.323  17.314  16.876  1.00  0.00    -0.203 F 
ATOM     81  C   UNL     1       1.249  15.431  17.944  1.00  0.00     0.198 A 
ATOM     82  C   UNL     1       2.495  13.825  16.669  1.00  0.00     0.198 A 
ATOM     83  F   UNL     1       2.820  14.152  14.361  1.00  0.00    -0.203 F 
ATOM     84  F   UNL     1       0.775  15.866  19.119  1.00  0.00    -0.200 F 
ATOM     85  C   UNL     1       1.981  14.255  17.884  1.00  0.00     0.200 A 
ATOM     86  F   UNL     1       3.191  12.682  16.604  1.00  0.00    -0.200 F 
ATOM     87  F   UNL     1       2.200  13.542  18.997  1.00  0.00    -0.200 F 
ENDBRANCH  53  77
BRANCH  65  88
ATOM     88  C   UNL     1       3.716  22.122  13.653  1.00  0.00     0.064 A 
ATOM     89  C   UNL     1       5.084  21.988  13.928  1.00  0.00     0.173 A 
ATOM     90  C   UNL     1       3.079  23.312  14.039  1.00  0.00     0.173 A 
ATOM     91  F   UNL     1       5.735  20.865  13.590  1.00  0.00    -0.203 F 
ATOM     92  C   UNL     1       5.781  22.995  14.591  1.00  0.00     0.198 A 
ATOM     93  C   UNL     1       3.786  24.329  14.674  1.00  0.00     0.198 A 
ATOM     94  F   UNL     1       1.773  23.492  13.791  1.00  0.00    -0.203 F 
ATOM     95  F   UNL     1       7.076  22.825  14.890  1.00  0.00    -0.200 F 
ATOM     96  C   UNL     1       5.133  24.166  14.957  1.00  0.00     0.200 A 
ATOM     97  F   UNL     1       3.162  25.465  15.013  1.00  0.00    -0.200 F 
ATOM     98  F   UNL     1       5.808  25.136  15.589  1.00  0.00    -0.200 F 
ENDBRANCH  65  88
ENDBRANCH  39  40
ENDBRANCH  31  34
ENDBRANCH  29  30
ENDBRANCH  28  29
ENDBRANCH   1  28
TORSDOF 14
