REMARK SMILES C#Cc1ccc2c(c1)C=C(C(=O)NCCCCNC(=O)c1ccc(-c3c4nc(c(-c5c(F)c(F)c(F)c(F)c5F)c5ccc([nH]5)c(-c5c(F)c(F)c(F)c(F)c5F)c5nc(c(-c6c(F)c(F)c(F)c(F)c6F)c6ccc3[nH]6)C=C5)C=C4)cc1)[C@@H](C(F)(F)F)O2
REMARK SMILES IDX 16 1 15 2 14 3 13 4 11 5 12 6 10 8 3 9 4 10 8 11 5 12 7 13
REMARK SMILES IDX 6 14 9 15 89 16 84 17 2 18 1 19 85 20 86 21 87 22 88 23
REMARK SMILES IDX 17 24 18 25 19 26 20 28 21 29 22 30 83 31 23 32 82 33 24 34
REMARK SMILES IDX 25 35 26 36 76 37 27 38 81 39 75 40 77 41 28 42 80 43 74 44
REMARK SMILES IDX 73 45 29 47 61 48 41 49 60 50 42 51 45 52 59 53 78 54 43 55
REMARK SMILES IDX 44 56 58 58 79 59 46 60 30 61 31 62 39 63 32 64 33 65 37 66
REMARK SMILES IDX 40 67 34 68 35 69 38 70 36 71 62 72 63 73 71 74 64 75 65 76
REMARK SMILES IDX 69 77 72 78 66 79 67 80 70 81 68 82 47 83 48 84 56 85 49 86
REMARK SMILES IDX 50 87 54 88 57 89 51 90 52 91 55 92 53 93
REMARK H PARENT 13 7 18 27 77 46 45 57
REMARK Flexibility Score: inf
ROOT
ATOM      1  C   UNL     1     -10.832   3.512   1.580  1.00  0.00     0.023 C 
ENDROOT
BRANCH   1   2
ATOM      2  C   UNL     1      -9.774   2.429   1.426  1.00  0.00     0.023 C 
BRANCH   2   3
ATOM      3  C   UNL     1      -9.023   2.512   0.105  1.00  0.00     0.116 C 
BRANCH   3   4
ATOM      4  N   UNL     1      -7.933   3.473   0.149  1.00  0.00    -0.352 N 
ATOM      5  C   UNL     1      -6.580   3.434   0.066  1.00  0.00     0.251 C 
ATOM      6  O   UNL     1      -6.011   4.529   0.101  1.00  0.00    -0.270 OA
ATOM      7  H   UNL     1      -8.264   4.392   0.272  1.00  0.00     0.163 HD
BRANCH   5   8
ATOM      8  C   UNL     1      -5.774   2.182  -0.054  1.00  0.00     0.067 C 
ATOM      9  C   UNL     1      -1.466  -0.015  -0.064  1.00  0.00     0.025 A 
ATOM     10  C   UNL     1      -2.102  -1.258  -0.065  1.00  0.00     0.021 A 
ATOM     11  C   UNL     1      -2.219   1.166  -0.042  1.00  0.00     0.029 A 
ATOM     12  C   UNL     1      -3.490  -1.325  -0.049  1.00  0.00     0.048 A 
ATOM     13  C   UNL     1      -3.616   1.103  -0.025  1.00  0.00     0.018 A 
ATOM     14  C   UNL     1      -4.234  -0.149  -0.038  1.00  0.00     0.128 A 
ATOM     15  C   UNL     1      -4.439   2.305   0.060  1.00  0.00     0.025 C 
ATOM     16  O   UNL     1      -5.583  -0.317   0.004  1.00  0.00    -0.475 OA
ATOM     17  C   UNL     1      -6.391   0.839  -0.311  1.00  0.00     0.314 C 
BRANCH   9  18
ATOM     18  C   UNL     1      -0.039   0.034  -0.070  1.00  0.00    -0.070 C 
ATOM     19  C   UNL     1       1.163   0.036  -0.071  1.00  0.00     0.010 C 
ENDBRANCH   9  18
BRANCH  17  20
ATOM     20  C   UNL     1      -6.920   0.704  -1.753  1.00  0.00     0.429 C 
ATOM     21  F   UNL     1      -7.838  -0.294  -1.826  1.00  0.00    -0.167 F 
ATOM     22  F   UNL     1      -7.544   1.823  -2.193  1.00  0.00    -0.167 F 
ATOM     23  F   UNL     1      -5.943   0.426  -2.643  1.00  0.00    -0.167 F 
ENDBRANCH  17  20
ENDBRANCH   5   8
ENDBRANCH   3   4
ENDBRANCH   2   3
ENDBRANCH   1   2
BRANCH   1  24
ATOM     24  C   UNL     1     -11.834   3.577   0.436  1.00  0.00     0.116 C 
BRANCH  24  25
ATOM     25  N   UNL     1     -12.550   2.327   0.198  1.00  0.00    -0.352 N 
ATOM     26  C   UNL     1     -13.898   2.160  -0.037  1.00  0.00     0.251 C 
ATOM     27  H   UNL     1     -12.005   1.506   0.207  1.00  0.00     0.163 HD
ATOM     28  O   UNL     1     -14.401   1.047  -0.116  1.00  0.00    -0.269 OA
BRANCH  26  29
ATOM     29  C   UNL     1     -14.727   3.375  -0.136  1.00  0.00     0.039 A 
ATOM     30  C   UNL     1     -14.301   4.421  -0.955  1.00  0.00     0.014 A 
ATOM     31  C   UNL     1     -15.813   3.534   0.726  1.00  0.00     0.014 A 
ATOM     32  C   UNL     1     -14.806   5.692  -0.734  1.00  0.00     0.010 A 
ATOM     33  C   UNL     1     -16.410   4.791   0.842  1.00  0.00     0.010 A 
ATOM     34  C   UNL     1     -15.868   5.896   0.164  1.00  0.00    -0.014 A 
BRANCH  34  35
ATOM     35  C   UNL     1     -16.388   7.273   0.368  1.00  0.00     0.031 A 
ATOM     36  C   UNL     1     -16.354   7.930   1.722  1.00  0.00     0.074 A 
ATOM     37  C   UNL     1     -16.841   7.956  -0.702  1.00  0.00     0.049 A 
ATOM     38  N   UNL     1     -16.765   9.126   2.067  1.00  0.00    -0.248 NA
ATOM     39  C   UNL     1     -15.794   7.151   2.838  1.00  0.00     0.031 C 
ATOM     40  C   UNL     1     -16.902   7.431  -2.068  1.00  0.00     0.029 A 
ATOM     41  N   UNL     1     -17.308   9.240  -0.820  1.00  0.00    -0.354 N 
ATOM     42  C   UNL     1     -16.529   9.235   3.432  1.00  0.00     0.074 A 
ATOM     43  C   UNL     1     -15.975   7.971   3.865  1.00  0.00     0.031 C 
ATOM     44  C   UNL     1     -17.317   8.400  -2.894  1.00  0.00     0.029 A 
ATOM     45  C   UNL     1     -17.641   9.583  -2.107  1.00  0.00     0.049 A 
ATOM     46  H   UNL     1     -17.396   9.855  -0.056  1.00  0.00     0.167 HD
ATOM     47  C   UNL     1     -16.740  10.300   4.243  1.00  0.00     0.037 A 
ATOM     48  C   UNL     1     -18.175  10.714  -2.602  1.00  0.00     0.037 A 
ATOM     49  C   UNL     1     -17.277  11.562   3.799  1.00  0.00     0.049 A 
ATOM     50  C   UNL     1     -18.469  11.850  -1.665  1.00  0.00     0.074 A 
ATOM     51  C   UNL     1     -17.512  12.706   4.542  1.00  0.00     0.029 A 
ATOM     52  N   UNL     1     -17.663  11.847   2.497  1.00  0.00    -0.354 N 
ATOM     53  N   UNL     1     -18.226  11.944  -0.381  1.00  0.00    -0.248 NA
ATOM     54  C   UNL     1     -19.114  13.034  -2.244  1.00  0.00     0.031 C 
ATOM     55  C   UNL     1     -18.102  13.657   3.708  1.00  0.00     0.029 A 
ATOM     56  C   UNL     1     -18.166  13.138   2.425  1.00  0.00     0.049 A 
ATOM     57  H   UNL     1     -17.591  11.226   1.736  1.00  0.00     0.167 HD
ATOM     58  C   UNL     1     -18.666  13.205  -0.002  1.00  0.00     0.074 A 
ATOM     59  C   UNL     1     -19.171  13.847  -1.198  1.00  0.00     0.031 C 
ATOM     60  C   UNL     1     -18.656  13.773   1.228  1.00  0.00     0.037 A 
BRANCH  47  61
ATOM     61  C   UNL     1     -16.398  10.163   5.701  1.00  0.00     0.064 A 
ATOM     62  C   UNL     1     -15.069  10.083   6.143  1.00  0.00     0.173 A 
ATOM     63  C   UNL     1     -17.409  10.209   6.676  1.00  0.00     0.173 A 
ATOM     64  F   UNL     1     -14.065  10.028   5.256  1.00  0.00    -0.203 F 
ATOM     65  C   UNL     1     -14.766  10.039   7.502  1.00  0.00     0.198 A 
ATOM     66  C   UNL     1     -17.100  10.201   8.034  1.00  0.00     0.198 A 
ATOM     67  F   UNL     1     -18.697  10.296   6.312  1.00  0.00    -0.203 F 
ATOM     68  F   UNL     1     -13.491   9.928   7.899  1.00  0.00    -0.200 F 
ATOM     69  C   UNL     1     -15.780  10.111   8.446  1.00  0.00     0.200 A 
ATOM     70  F   UNL     1     -18.080  10.291   8.944  1.00  0.00    -0.200 F 
ATOM     71  F   UNL     1     -15.483  10.094   9.753  1.00  0.00    -0.200 F 
ENDBRANCH  47  61
BRANCH  48  72
ATOM     72  C   UNL     1     -18.462  10.814  -4.057  1.00  0.00     0.064 A 
ATOM     73  C   UNL     1     -17.753  11.708  -4.870  1.00  0.00     0.173 A 
ATOM     74  C   UNL     1     -19.422   9.994  -4.671  1.00  0.00     0.173 A 
ATOM     75  F   UNL     1     -16.837  12.523  -4.328  1.00  0.00    -0.203 F 
ATOM     76  C   UNL     1     -18.002  11.786  -6.238  1.00  0.00     0.198 A 
ATOM     77  C   UNL     1     -19.642  10.047  -6.045  1.00  0.00     0.198 A 
ATOM     78  F   UNL     1     -20.123   9.115  -3.939  1.00  0.00    -0.203 F 
ATOM     79  F   UNL     1     -17.338  12.678  -6.986  1.00  0.00    -0.200 F 
ATOM     80  C   UNL     1     -18.938  10.948  -6.826  1.00  0.00     0.200 A 
ATOM     81  F   UNL     1     -20.529   9.217  -6.611  1.00  0.00    -0.200 F 
ATOM     82  F   UNL     1     -19.162  11.012  -8.146  1.00  0.00    -0.200 F 
ENDBRANCH  48  72
BRANCH  60  83
ATOM     83  C   UNL     1     -19.178  15.176   1.353  1.00  0.00     0.064 A 
ATOM     84  C   UNL     1     -20.544  15.467   1.221  1.00  0.00     0.173 A 
ATOM     85  C   UNL     1     -18.312  16.228   1.690  1.00  0.00     0.173 A 
ATOM     86  F   UNL     1     -21.412  14.501   0.886  1.00  0.00    -0.203 F 
ATOM     87  C   UNL     1     -21.020  16.762   1.408  1.00  0.00     0.198 A 
ATOM     88  C   UNL     1     -18.797  17.513   1.913  1.00  0.00     0.198 A 
ATOM     89  F   UNL     1     -16.998  16.003   1.836  1.00  0.00    -0.203 F 
ATOM     90  F   UNL     1     -22.323  17.024   1.238  1.00  0.00    -0.200 F 
ATOM     91  C   UNL     1     -20.150  17.780   1.767  1.00  0.00     0.200 A 
ATOM     92  F   UNL     1     -17.957  18.491   2.281  1.00  0.00    -0.200 F 
ATOM     93  F   UNL     1     -20.615  19.020   1.971  1.00  0.00    -0.200 F 
ENDBRANCH  60  83
ENDBRANCH  34  35
ENDBRANCH  26  29
ENDBRANCH  24  25
ENDBRANCH   1  24
TORSDOF 13
