REMARK SMILES CC(C)n1c2c(c3ccccc31)[C@@H](c1ccccc1)N(CC(=O)NCCCCNC(=O)c1ccc(-c3c4nc(c(-c5c(F)c(F)c(F)c(F)c5F)c5ccc([nH]5)c(-c5c(F)c(F)c(F)c(F)c5F)c5nc(c(-c6c(F)c(F)c(F)c(F)c6F)c6ccc3[nH]6)C=C5)C=C4)cc1)C2=O
REMARK SMILES IDX 26 1 25 2 24 3 22 4 23 5 21 7 20 8 4 9 5 10 12 11 6 12 95 13
REMARK SMILES IDX 7 14 11 15 13 16 96 17 8 18 10 19 9 20 2 21 1 22 3 23 14 24
REMARK SMILES IDX 15 25 19 26 16 27 18 28 17 29 27 30 28 31 29 32 30 33 31 35
REMARK SMILES IDX 32 36 33 37 94 38 34 39 93 40 35 41 36 42 37 43 87 44 38 45
REMARK SMILES IDX 92 46 86 47 88 48 39 49 91 50 85 51 84 52 40 54 72 55 52 56
REMARK SMILES IDX 71 57 53 58 56 59 70 60 89 61 54 62 55 63 69 65 90 66 57 67
REMARK SMILES IDX 41 68 42 69 50 70 43 71 44 72 48 73 51 74 45 75 46 76 49 77
REMARK SMILES IDX 47 78 73 79 74 80 82 81 75 82 76 83 80 84 83 85 77 86 78 87
REMARK SMILES IDX 81 88 79 89 58 90 59 91 67 92 60 93 61 94 65 95 68 96 62 97
REMARK SMILES IDX 63 98 66 99 64 100
REMARK H PARENT 24 6 29 34 88 53 56 64
REMARK Flexibility Score: inf
ROOT
ATOM      1  C   UNL     1      -2.224  -3.085   4.110  1.00  0.00     0.023 C 
ENDROOT
BRANCH   1   2
ATOM      2  C   UNL     1      -2.424  -4.579   3.861  1.00  0.00     0.116 C 
BRANCH   2   3
ATOM      3  N   UNL     1      -3.822  -4.915   3.714  1.00  0.00    -0.355 N 
ATOM      4  C   UNL     1      -4.473  -5.309   2.579  1.00  0.00     0.239 C 
ATOM      5  O   UNL     1      -5.690  -5.500   2.635  1.00  0.00    -0.273 OA
ATOM      6  H   UNL     1      -4.372  -4.852   4.528  1.00  0.00     0.163 HD
BRANCH   4   7
ATOM      7  C   UNL     1      -3.702  -5.455   1.260  1.00  0.00     0.220 C 
BRANCH   7   8
ATOM      8  N   UNL     1      -3.316  -4.157   0.733  1.00  0.00    -0.317 N 
ATOM      9  N   UNL     1      -1.272  -1.226   0.598  1.00  0.00    -0.334 N 
ATOM     10  C   UNL     1      -2.092  -2.312   0.552  1.00  0.00     0.114 A 
ATOM     11  C   UNL     1      -2.086  -0.092   0.678  1.00  0.00     0.049 A 
ATOM     12  C   UNL     1      -3.399  -1.915   0.511  1.00  0.00     0.018 A 
ATOM     13  C   UNL     1      -1.990  -3.728   0.649  1.00  0.00     0.272 C 
ATOM     14  C   UNL     1      -3.433  -0.520   0.613  1.00  0.00     0.006 A 
ATOM     15  C   UNL     1      -1.790   1.275   0.815  1.00  0.00     0.027 A 
ATOM     16  C   UNL     1      -4.314  -3.083   0.479  1.00  0.00     0.150 C 
ATOM     17  O   UNL     1      -0.975  -4.402   0.768  1.00  0.00    -0.267 OA
ATOM     18  C   UNL     1      -4.475   0.423   0.671  1.00  0.00     0.011 A 
ATOM     19  C   UNL     1      -2.845   2.195   0.853  1.00  0.00     0.002 A 
ATOM     20  C   UNL     1      -4.169   1.779   0.781  1.00  0.00     0.001 A 
BRANCH   9  21
ATOM     21  C   UNL     1       0.188  -1.320   0.606  1.00  0.00     0.082 C 
ATOM     22  C   UNL     1       0.911  -0.266  -0.234  1.00  0.00     0.031 C 
ATOM     23  C   UNL     1       0.751  -1.368   2.025  1.00  0.00     0.031 C 
ENDBRANCH   9  21
BRANCH  16  24
ATOM     24  C   UNL     1      -4.944  -3.222  -0.898  1.00  0.00    -0.021 A 
ATOM     25  C   UNL     1      -5.923  -4.218  -1.079  1.00  0.00     0.006 A 
ATOM     26  C   UNL     1      -4.583  -2.460  -2.026  1.00  0.00     0.006 A 
ATOM     27  C   UNL     1      -6.484  -4.468  -2.335  1.00  0.00     0.000 A 
ATOM     28  C   UNL     1      -5.161  -2.693  -3.276  1.00  0.00     0.000 A 
ATOM     29  C   UNL     1      -6.101  -3.705  -3.434  1.00  0.00     0.000 A 
ENDBRANCH  16  24
ENDBRANCH   7   8
ENDBRANCH   4   7
ENDBRANCH   2   3
ENDBRANCH   1   2
BRANCH   1  30
ATOM     30  C   UNL     1      -2.547  -2.618   5.534  1.00  0.00     0.023 C 
BRANCH  30  31
ATOM     31  C   UNL     1      -1.923  -3.488   6.626  1.00  0.00     0.116 C 
BRANCH  31  32
ATOM     32  N   UNL     1      -0.493  -3.662   6.468  1.00  0.00    -0.352 N 
ATOM     33  C   UNL     1       0.616  -3.025   6.941  1.00  0.00     0.251 C 
ATOM     34  H   UNL     1      -0.269  -4.420   5.881  1.00  0.00     0.163 HD
ATOM     35  O   UNL     1       1.702  -3.539   6.662  1.00  0.00    -0.269 OA
BRANCH  33  36
ATOM     36  C   UNL     1       0.605  -1.738   7.679  1.00  0.00     0.039 A 
ATOM     37  C   UNL     1      -0.537  -1.025   8.048  1.00  0.00     0.014 A 
ATOM     38  C   UNL     1       1.868  -1.164   7.914  1.00  0.00     0.014 A 
ATOM     39  C   UNL     1      -0.435   0.283   8.490  1.00  0.00     0.010 A 
ATOM     40  C   UNL     1       1.979   0.133   8.383  1.00  0.00     0.010 A 
ATOM     41  C   UNL     1       0.821   0.876   8.584  1.00  0.00    -0.014 A 
BRANCH  41  42
ATOM     42  C   UNL     1       0.877   2.293   8.910  1.00  0.00     0.031 A 
ATOM     43  C   UNL     1       0.348   2.661  10.257  1.00  0.00     0.074 A 
ATOM     44  C   UNL     1       1.474   3.160   8.066  1.00  0.00     0.049 A 
ATOM     45  N   UNL     1      -0.529   3.562  10.570  1.00  0.00    -0.248 NA
ATOM     46  C   UNL     1       0.792   1.843  11.401  1.00  0.00     0.031 C 
ATOM     47  C   UNL     1       2.228   2.866   6.842  1.00  0.00     0.029 A 
ATOM     48  N   UNL     1       1.630   4.502   8.193  1.00  0.00    -0.354 N 
ATOM     49  C   UNL     1      -0.642   3.526  11.960  1.00  0.00     0.074 A 
ATOM     50  C   UNL     1       0.111   2.384  12.410  1.00  0.00     0.031 C 
ATOM     51  C   UNL     1       2.967   3.945   6.502  1.00  0.00     0.029 A 
ATOM     52  C   UNL     1       2.631   5.036   7.395  1.00  0.00     0.049 A 
ATOM     53  H   UNL     1       1.080   5.050   8.799  1.00  0.00     0.167 HD
ATOM     54  C   UNL     1      -1.209   4.532  12.681  1.00  0.00     0.037 A 
ATOM     55  C   UNL     1       3.205   6.254   7.557  1.00  0.00     0.037 A 
ATOM     56  C   UNL     1      -2.049   5.370  11.878  1.00  0.00     0.049 A 
ATOM     57  C   UNL     1       2.284   7.065   8.395  1.00  0.00     0.074 A 
ATOM     58  C   UNL     1      -3.246   5.180  11.216  1.00  0.00     0.029 A 
ATOM     59  N   UNL     1      -1.522   6.527  11.364  1.00  0.00    -0.354 N 
ATOM     60  N   UNL     1       1.105   7.460   8.001  1.00  0.00    -0.248 NA
ATOM     61  C   UNL     1       2.484   7.024   9.838  1.00  0.00     0.031 C 
ATOM     62  C   UNL     1      -3.124   5.933  10.013  1.00  0.00     0.029 A 
ATOM     63  C   UNL     1      -1.888   6.579  10.042  1.00  0.00     0.049 A 
ATOM     64  H   UNL     1      -0.984   7.193  11.850  1.00  0.00     0.167 HD
ATOM     65  C   UNL     1       0.294   7.328   9.120  1.00  0.00     0.074 A 
ATOM     66  C   UNL     1       1.212   7.109  10.236  1.00  0.00     0.031 C 
ATOM     67  C   UNL     1      -1.050   7.122   9.001  1.00  0.00     0.037 A 
BRANCH  54  68
ATOM     68  C   UNL     1      -0.771   4.908  14.066  1.00  0.00     0.064 A 
ATOM     69  C   UNL     1      -1.590   5.704  14.887  1.00  0.00     0.173 A 
ATOM     70  C   UNL     1       0.558   4.728  14.508  1.00  0.00     0.173 A 
ATOM     71  F   UNL     1      -2.857   5.967  14.535  1.00  0.00    -0.203 F 
ATOM     72  C   UNL     1      -1.100   6.302  16.052  1.00  0.00     0.198 A 
ATOM     73  C   UNL     1       1.029   5.286  15.694  1.00  0.00     0.198 A 
ATOM     74  F   UNL     1       1.467   4.095  13.754  1.00  0.00    -0.203 F 
ATOM     75  F   UNL     1      -1.883   7.130  16.757  1.00  0.00    -0.200 F 
ATOM     76  C   UNL     1       0.208   6.092  16.454  1.00  0.00     0.200 A 
ATOM     77  F   UNL     1       2.306   5.090  16.053  1.00  0.00    -0.200 F 
ATOM     78  F   UNL     1       0.692   6.702  17.544  1.00  0.00    -0.200 F 
ENDBRANCH  54  68
BRANCH  55  79
ATOM     79  C   UNL     1       4.647   6.578   7.419  1.00  0.00     0.064 A 
ATOM     80  C   UNL     1       5.081   7.910   7.329  1.00  0.00     0.173 A 
ATOM     81  C   UNL     1       5.646   5.610   7.655  1.00  0.00     0.173 A 
ATOM     82  F   UNL     1       4.190   8.897   7.156  1.00  0.00    -0.203 F 
ATOM     83  C   UNL     1       6.429   8.255   7.488  1.00  0.00     0.198 A 
ATOM     84  C   UNL     1       6.989   5.954   7.805  1.00  0.00     0.198 A 
ATOM     85  F   UNL     1       5.327   4.322   7.842  1.00  0.00    -0.203 F 
ATOM     86  F   UNL     1       6.798   9.543   7.457  1.00  0.00    -0.200 F 
ATOM     87  C   UNL     1       7.379   7.277   7.735  1.00  0.00     0.200 A 
ATOM     88  F   UNL     1       7.892   5.002   8.081  1.00  0.00    -0.200 F 
ATOM     89  F   UNL     1       8.659   7.613   7.948  1.00  0.00    -0.200 F 
ENDBRANCH  55  79
BRANCH  67  90
ATOM     90  C   UNL     1      -1.656   7.226   7.629  1.00  0.00     0.064 A 
ATOM     91  C   UNL     1      -1.349   6.348   6.574  1.00  0.00     0.173 A 
ATOM     92  C   UNL     1      -2.703   8.133   7.424  1.00  0.00     0.173 A 
ATOM     93  F   UNL     1      -0.436   5.382   6.726  1.00  0.00    -0.203 F 
ATOM     94  C   UNL     1      -2.031   6.404   5.359  1.00  0.00     0.198 A 
ATOM     95  C   UNL     1      -3.408   8.164   6.223  1.00  0.00     0.198 A 
ATOM     96  F   UNL     1      -3.082   8.954   8.415  1.00  0.00    -0.203 F 
ATOM     97  F   UNL     1      -1.715   5.556   4.368  1.00  0.00    -0.200 F 
ATOM     98  C   UNL     1      -3.067   7.307   5.189  1.00  0.00     0.200 A 
ATOM     99  F   UNL     1      -4.443   9.002   6.081  1.00  0.00    -0.200 F 
ATOM    100  F   UNL     1      -3.757   7.330   4.040  1.00  0.00    -0.200 F 
ENDBRANCH  67  90
ENDBRANCH  41  42
ENDBRANCH  33  36
ENDBRANCH  31  32
ENDBRANCH  30  31
ENDBRANCH   1  30
TORSDOF 14
