REMARK SMILES COc1ccc(/C=C/c2cc(C(=O)NCCCCNC(=O)c3ccc(-c4c5nc(c(-c6c(F)c(F)c(F)c(F)c6F)c6ccc([nH]6)c(-c6c(F)c(F)c(F)c(F)c6F)c6nc(c(-c7c(F)c(F)c(F)c(F)c7F)c7ccc4[nH]7)C=C6)C=C5)cc3)c3ccccc3n2)c(OC)c1
REMARK SMILES IDX 16 1 15 2 14 3 12 4 13 5 11 7 9 8 10 9 91 10 90 11 85 12
REMARK SMILES IDX 89 13 86 14 88 15 87 16 8 17 7 18 6 19 3 20 4 21 95 22 5 23
REMARK SMILES IDX 92 24 2 25 1 26 93 27 94 28 17 29 18 30 19 31 20 32 21 34
REMARK SMILES IDX 22 35 23 36 84 37 24 38 83 39 25 40 26 41 27 42 77 43 28 44
REMARK SMILES IDX 82 45 76 46 78 47 29 48 81 49 75 50 74 51 30 53 62 54 42 55
REMARK SMILES IDX 61 56 43 57 46 58 60 59 79 60 44 61 45 62 59 64 80 65 47 66
REMARK SMILES IDX 31 67 32 68 40 69 33 70 34 71 38 72 41 73 35 74 36 75 39 76
REMARK SMILES IDX 37 77 63 78 64 79 72 80 65 81 66 82 70 83 73 84 67 85 68 86
REMARK SMILES IDX 71 87 69 88 48 89 49 90 57 91 50 92 51 93 55 94 58 95 52 96
REMARK SMILES IDX 53 97 56 98 54 99
REMARK H PARENT 14 6 19 33 78 52 46 63
REMARK Flexibility Score: inf
ROOT
ATOM      1  C   UNL     1       3.966 -12.214   1.611  1.00  0.00     0.023 C 
ENDROOT
BRANCH   1   2
ATOM      2  C   UNL     1       4.252 -11.177   2.701  1.00  0.00     0.116 C 
BRANCH   2   3
ATOM      3  N   UNL     1       5.174 -10.190   2.173  1.00  0.00    -0.352 N 
ATOM      4  C   UNL     1       4.838  -9.060   1.471  1.00  0.00     0.252 C 
ATOM      5  O   UNL     1       5.501  -8.719   0.499  1.00  0.00    -0.269 OA
ATOM      6  H   UNL     1       6.133 -10.346   2.334  1.00  0.00     0.163 HD
BRANCH   4   7
ATOM      7  C   UNL     1       3.809  -8.180   2.054  1.00  0.00     0.051 A 
ATOM      8  C   UNL     1       1.607  -7.574   2.583  1.00  0.00     0.065 A 
ATOM      9  C   UNL     1       2.449  -8.463   1.943  1.00  0.00     0.042 A 
ATOM     10  N   UNL     1       2.055  -6.808   3.600  1.00  0.00    -0.248 NA
ATOM     11  C   UNL     1       3.278  -6.314   3.436  1.00  0.00     0.072 A 
ATOM     12  C   UNL     1       4.205  -6.933   2.588  1.00  0.00     0.013 A 
ATOM     13  C   UNL     1       3.536  -5.053   3.946  1.00  0.00     0.029 A 
ATOM     14  C   UNL     1       5.359  -6.210   2.207  1.00  0.00     0.011 A 
ATOM     15  C   UNL     1       4.634  -4.318   3.506  1.00  0.00     0.002 A 
ATOM     16  C   UNL     1       5.535  -4.891   2.618  1.00  0.00     0.001 A 
BRANCH   8  17
ATOM     17  C   UNL     1       0.620  -6.766   1.807  1.00  0.00     0.029 C 
ATOM     18  C   UNL     1       1.193  -5.793   1.055  1.00  0.00     0.014 C 
BRANCH  18  19
ATOM     19  C   UNL     1       0.794  -4.364   0.946  1.00  0.00     0.017 A 
ATOM     20  C   UNL     1       0.151  -1.608   0.926  1.00  0.00     0.122 A 
ATOM     21  C   UNL     1      -0.737  -2.540   1.457  1.00  0.00     0.047 A 
ATOM     22  C   UNL     1       1.386  -2.038   0.447  1.00  0.00     0.093 A 
ATOM     23  C   UNL     1      -0.426  -3.905   1.457  1.00  0.00     0.016 A 
ATOM     24  C   UNL     1       1.723  -3.400   0.465  1.00  0.00     0.129 A 
BRANCH  20  25
ATOM     25  O   UNL     1      -0.266  -0.305   0.954  1.00  0.00    -0.497 OA
ATOM     26  C   UNL     1       0.337   0.554  -0.011  1.00  0.00     0.278 C 
ENDBRANCH  20  25
BRANCH  24  27
ATOM     27  O   UNL     1       2.952  -3.855   0.034  1.00  0.00    -0.496 OA
ATOM     28  C   UNL     1       4.003  -2.898  -0.080  1.00  0.00     0.278 C 
ENDBRANCH  24  27
ENDBRANCH  18  19
ENDBRANCH   8  17
ENDBRANCH   4   7
ENDBRANCH   2   3
ENDBRANCH   1   2
BRANCH   1  29
ATOM     29  C   UNL     1       5.211 -12.979   1.138  1.00  0.00     0.023 C 
BRANCH  29  30
ATOM     30  C   UNL     1       6.007 -13.652   2.250  1.00  0.00     0.116 C 
BRANCH  30  31
ATOM     31  N   UNL     1       5.186 -14.536   3.062  1.00  0.00    -0.352 N 
ATOM     32  C   UNL     1       5.484 -15.788   3.541  1.00  0.00     0.251 C 
ATOM     33  H   UNL     1       4.296 -14.190   3.301  1.00  0.00     0.163 HD
ATOM     34  O   UNL     1       4.630 -16.469   4.086  1.00  0.00    -0.269 OA
BRANCH  32  35
ATOM     35  C   UNL     1       6.851 -16.310   3.356  1.00  0.00     0.039 A 
ATOM     36  C   UNL     1       7.015 -17.578   2.796  1.00  0.00     0.014 A 
ATOM     37  C   UNL     1       7.958 -15.531   3.700  1.00  0.00     0.014 A 
ATOM     38  C   UNL     1       8.301 -18.044   2.527  1.00  0.00     0.010 A 
ATOM     39  C   UNL     1       9.234 -15.966   3.363  1.00  0.00     0.010 A 
ATOM     40  C   UNL     1       9.417 -17.227   2.776  1.00  0.00    -0.014 A 
BRANCH  40  41
ATOM     41  C   UNL     1      10.785 -17.680   2.428  1.00  0.00     0.031 A 
ATOM     42  C   UNL     1      11.804 -17.893   3.510  1.00  0.00     0.074 A 
ATOM     43  C   UNL     1      11.120 -17.843   1.134  1.00  0.00     0.049 A 
ATOM     44  N   UNL     1      13.062 -18.238   3.407  1.00  0.00    -0.248 NA
ATOM     45  C   UNL     1      11.357 -17.661   4.893  1.00  0.00     0.031 C 
ATOM     46  C   UNL     1      10.229 -17.617  -0.005  1.00  0.00     0.029 A 
ATOM     47  N   UNL     1      12.304 -18.230   0.557  1.00  0.00    -0.354 N 
ATOM     48  C   UNL     1      13.556 -18.253   4.704  1.00  0.00     0.074 A 
ATOM     49  C   UNL     1      12.482 -17.823   5.572  1.00  0.00     0.031 C 
ATOM     50  C   UNL     1      10.888 -17.894  -1.141  1.00  0.00     0.029 A 
ATOM     51  C   UNL     1      12.258 -18.278  -0.815  1.00  0.00     0.049 A 
ATOM     52  H   UNL     1      13.109 -18.453   1.078  1.00  0.00     0.167 HD
ATOM     53  C   UNL     1      14.787 -18.619   5.133  1.00  0.00     0.037 A 
ATOM     54  C   UNL     1      13.217 -18.590  -1.706  1.00  0.00     0.037 A 
ATOM     55  C   UNL     1      15.844 -19.063   4.262  1.00  0.00     0.049 A 
ATOM     56  C   UNL     1      14.582 -18.977  -1.203  1.00  0.00     0.074 A 
ATOM     57  C   UNL     1      17.109 -19.510   4.599  1.00  0.00     0.029 A 
ATOM     58  N   UNL     1      15.759 -19.108   2.878  1.00  0.00    -0.354 N 
ATOM     59  N   UNL     1      15.017 -19.062   0.031  1.00  0.00    -0.248 NA
ATOM     60  C   UNL     1      15.588 -19.319  -2.218  1.00  0.00     0.031 C 
ATOM     61  C   UNL     1      17.808 -19.772   3.417  1.00  0.00     0.029 A 
ATOM     62  C   UNL     1      16.959 -19.549   2.345  1.00  0.00     0.049 A 
ATOM     63  H   UNL     1      14.963 -18.863   2.352  1.00  0.00     0.167 HD
ATOM     64  C   UNL     1      16.333 -19.495  -0.057  1.00  0.00     0.074 A 
ATOM     65  C   UNL     1      16.620 -19.672  -1.465  1.00  0.00     0.031 C 
ATOM     66  C   UNL     1      17.224 -19.726   0.939  1.00  0.00     0.037 A 
BRANCH  53  67
ATOM     67  C   UNL     1      15.056 -18.555   6.609  1.00  0.00     0.064 A 
ATOM     68  C   UNL     1      14.429 -19.427   7.513  1.00  0.00     0.173 A 
ATOM     69  C   UNL     1      15.977 -17.631   7.126  1.00  0.00     0.173 A 
ATOM     70  F   UNL     1      13.531 -20.323   7.074  1.00  0.00    -0.203 F 
ATOM     71  C   UNL     1      14.689 -19.355   8.879  1.00  0.00     0.198 A 
ATOM     72  C   UNL     1      16.261 -17.584   8.488  1.00  0.00     0.198 A 
ATOM     73  F   UNL     1      16.609 -16.776   6.308  1.00  0.00    -0.203 F 
ATOM     74  F   UNL     1      14.037 -20.162   9.727  1.00  0.00    -0.200 F 
ATOM     75  C   UNL     1      15.610 -18.440   9.364  1.00  0.00     0.200 A 
ATOM     76  F   UNL     1      17.162 -16.709   8.954  1.00  0.00    -0.200 F 
ATOM     77  F   UNL     1      15.866 -18.377  10.678  1.00  0.00    -0.200 F 
ENDBRANCH  53  67
BRANCH  54  78
ATOM     78  C   UNL     1      12.916 -18.569  -3.162  1.00  0.00     0.064 A 
ATOM     79  C   UNL     1      12.890 -19.755  -3.910  1.00  0.00     0.173 A 
ATOM     80  C   UNL     1      12.658 -17.368  -3.839  1.00  0.00     0.173 A 
ATOM     81  F   UNL     1      13.149 -20.928  -3.313  1.00  0.00    -0.203 F 
ATOM     82  C   UNL     1      12.643 -19.738  -5.281  1.00  0.00     0.198 A 
ATOM     83  C   UNL     1      12.379 -17.355  -5.204  1.00  0.00     0.198 A 
ATOM     84  F   UNL     1      12.665 -16.205  -3.170  1.00  0.00    -0.203 F 
ATOM     85  F   UNL     1      12.675 -20.881  -5.980  1.00  0.00    -0.200 F 
ATOM     86  C   UNL     1      12.382 -18.538  -5.926  1.00  0.00     0.200 A 
ATOM     87  F   UNL     1      12.111 -16.195  -5.820  1.00  0.00    -0.200 F 
ATOM     88  F   UNL     1      12.141 -18.522  -7.244  1.00  0.00    -0.200 F 
ENDBRANCH  54  78
BRANCH  66  89
ATOM     89  C   UNL     1      18.582 -20.232   0.544  1.00  0.00     0.064 A 
ATOM     90  C   UNL     1      19.513 -19.415  -0.114  1.00  0.00     0.173 A 
ATOM     91  C   UNL     1      18.971 -21.542   0.867  1.00  0.00     0.173 A 
ATOM     92  F   UNL     1      19.186 -18.160  -0.458  1.00  0.00    -0.203 F 
ATOM     93  C   UNL     1      20.772 -19.899  -0.460  1.00  0.00     0.198 A 
ATOM     94  C   UNL     1      20.242 -22.011   0.551  1.00  0.00     0.198 A 
ATOM     95  F   UNL     1      18.122 -22.362   1.503  1.00  0.00    -0.203 F 
ATOM     96  F   UNL     1      21.625 -19.117  -1.136  1.00  0.00    -0.200 F 
ATOM     97  C   UNL     1      21.138 -21.193  -0.120  1.00  0.00     0.200 A 
ATOM     98  F   UNL     1      20.601 -23.255   0.896  1.00  0.00    -0.200 F 
ATOM     99  F   UNL     1      22.354 -21.653  -0.445  1.00  0.00    -0.200 F 
ENDBRANCH  66  89
ENDBRANCH  40  41
ENDBRANCH  32  35
ENDBRANCH  30  31
ENDBRANCH  29  30
ENDBRANCH   1  29
TORSDOF 15
