REMARK SMILES C[N@@H+](CC(=O)NCCCCNC(=O)c1ccc(-c2c3nc(c(-c4c(F)c(F)c(F)c(F)c4F)c4ccc([nH]4)c(-c4c(F)c(F)c(F)c(F)c4F)c4nc(c(-c5c(F)c(F)c(F)c(F)c5F)c5ccc2[nH]5)C=C4)C=C3)cc1)Cc1csc(-c2ccco2)n1
REMARK SMILES IDX 7 1 6 2 4 3 5 4 3 6 2 7 1 8 77 10 78 11 79 12 87 13 80 14
REMARK SMILES IDX 81 15 82 16 83 17 86 18 84 19 85 20 8 21 9 22 10 23 11 24
REMARK SMILES IDX 12 25 13 27 14 28 15 29 76 30 16 31 75 32 17 33 18 34 19 35
REMARK SMILES IDX 69 36 20 37 74 38 68 39 70 40 21 41 73 42 67 43 66 44 22 46
REMARK SMILES IDX 54 47 34 48 53 49 35 50 38 51 52 52 71 53 36 54 37 55 51 57
REMARK SMILES IDX 72 58 39 59 23 60 24 61 32 62 25 63 26 64 30 65 33 66 27 67
REMARK SMILES IDX 28 68 31 69 29 70 55 71 56 72 64 73 57 74 58 75 62 76 65 77
REMARK SMILES IDX 59 78 60 79 63 80 61 81 40 82 41 83 49 84 42 85 43 86 47 87
REMARK SMILES IDX 50 88 44 89 45 90 48 91 46 92
REMARK H PARENT 6 5 2 9 11 26 70 45 38 56
REMARK Flexibility Score: inf
ROOT
ATOM      1  C   UNL     1      -0.625   1.465   0.618  1.00  0.00     0.116 C 
ENDROOT
BRANCH   1   2
ATOM      2  N   UNL     1      -1.429   1.123  -0.535  1.00  0.00    -0.351 N 
ATOM      3  C   UNL     1      -1.609  -0.092  -1.131  1.00  0.00     0.275 C 
ATOM      4  O   UNL     1      -2.449  -0.174  -2.033  1.00  0.00    -0.269 OA
ATOM      5  H   UNL     1      -1.916   1.873  -0.948  1.00  0.00     0.163 HD
BRANCH   3   6
ATOM      6  C   UNL     1      -0.840  -1.327  -0.657  1.00  0.00     0.363 C 
BRANCH   6   7
ATOM      7  N   UNL     1       0.559  -1.348  -1.056  1.00  0.00    -0.325 N 
ATOM      8  C   UNL     1       1.598  -1.123  -0.087  1.00  0.00     0.333 C 
ATOM      9  H   UNL     1       0.149  -2.273  -0.928  1.00  0.00     0.348 HD
BRANCH   7  10
ATOM     10  C   UNL     1       0.951  -1.498  -2.447  1.00  0.00     0.320 C 
BRANCH  10  11
ATOM     11  C   UNL     1       0.553  -0.332  -3.307  1.00  0.00     0.106 A 
ATOM     12  C   UNL     1      -0.378  -0.385  -4.330  1.00  0.00     0.097 A 
ATOM     13  N   UNL     1       1.127   0.926  -3.117  1.00  0.00    -0.232 NA
ATOM     14  S   UNL     1      -0.636   1.172  -4.985  1.00  0.00    -0.119 S 
ATOM     15  C   UNL     1       0.530   1.806  -3.900  1.00  0.00     0.159 A 
BRANCH  15  16
ATOM     16  C   UNL     1       0.803   3.217  -3.854  1.00  0.00     0.162 A 
ATOM     17  C   UNL     1       2.000   3.863  -3.581  1.00  0.00     0.053 A 
ATOM     18  O   UNL     1      -0.168   4.175  -4.041  1.00  0.00    -0.462 OA
ATOM     19  C   UNL     1       1.743   5.257  -3.599  1.00  0.00     0.043 A 
ATOM     20  C   UNL     1       0.405   5.392  -3.874  1.00  0.00     0.196 A 
ENDBRANCH  15  16
ENDBRANCH  10  11
ENDBRANCH   7  10
ENDBRANCH   6   7
ENDBRANCH   3   6
ENDBRANCH   1   2
BRANCH   1  21
ATOM     21  C   UNL     1       0.633   2.248   0.254  1.00  0.00     0.023 C 
BRANCH  21  22
ATOM     22  C   UNL     1       0.382   3.632  -0.332  1.00  0.00     0.023 C 
BRANCH  22  23
ATOM     23  C   UNL     1      -0.356   4.605   0.570  1.00  0.00     0.116 C 
BRANCH  23  24
ATOM     24  N   UNL     1       0.382   4.933   1.781  1.00  0.00    -0.352 N 
ATOM     25  C   UNL     1       0.817   6.155   2.240  1.00  0.00     0.251 C 
ATOM     26  H   UNL     1       0.603   4.166   2.357  1.00  0.00     0.163 HD
ATOM     27  O   UNL     1       1.550   6.225   3.217  1.00  0.00    -0.269 OA
BRANCH  25  28
ATOM     28  C   UNL     1       0.428   7.387   1.519  1.00  0.00     0.039 A 
ATOM     29  C   UNL     1       1.408   8.341   1.232  1.00  0.00     0.014 A 
ATOM     30  C   UNL     1      -0.886   7.579   1.089  1.00  0.00     0.014 A 
ATOM     31  C   UNL     1       1.091   9.436   0.426  1.00  0.00     0.010 A 
ATOM     32  C   UNL     1      -1.178   8.616   0.210  1.00  0.00     0.010 A 
ATOM     33  C   UNL     1      -0.190   9.550  -0.137  1.00  0.00    -0.014 A 
BRANCH  33  34
ATOM     34  C   UNL     1      -0.523  10.622  -1.108  1.00  0.00     0.031 A 
ATOM     35  C   UNL     1      -1.596  11.622  -0.783  1.00  0.00     0.074 A 
ATOM     36  C   UNL     1       0.072  10.634  -2.317  1.00  0.00     0.049 A 
ATOM     37  N   UNL     1      -2.116  12.555  -1.540  1.00  0.00    -0.248 NA
ATOM     38  C   UNL     1      -2.186  11.541   0.562  1.00  0.00     0.031 C 
ATOM     39  C   UNL     1       1.096   9.689  -2.766  1.00  0.00     0.029 A 
ATOM     40  N   UNL     1      -0.110  11.463  -3.396  1.00  0.00    -0.354 N 
ATOM     41  C   UNL     1      -3.103  13.156  -0.770  1.00  0.00     0.074 A 
ATOM     42  C   UNL     1      -3.148  12.447   0.490  1.00  0.00     0.031 C 
ATOM     43  C   UNL     1       1.468  10.005  -4.017  1.00  0.00     0.029 A 
ATOM     44  C   UNL     1       0.677  11.143  -4.475  1.00  0.00     0.049 A 
ATOM     45  H   UNL     1      -0.745  12.215  -3.396  1.00  0.00     0.167 HD
ATOM     46  C   UNL     1      -3.883  14.219  -1.078  1.00  0.00     0.037 A 
ATOM     47  C   UNL     1       0.742  11.696  -5.701  1.00  0.00     0.037 A 
ATOM     48  C   UNL     1      -3.813  14.937  -2.323  1.00  0.00     0.049 A 
ATOM     49  C   UNL     1      -0.159  12.855  -6.031  1.00  0.00     0.074 A 
ATOM     50  C   UNL     1      -4.500  16.076  -2.703  1.00  0.00     0.029 A 
ATOM     51  N   UNL     1      -3.010  14.577  -3.396  1.00  0.00    -0.354 N 
ATOM     52  N   UNL     1      -1.035  13.464  -5.270  1.00  0.00    -0.248 NA
ATOM     53  C   UNL     1      -0.068  13.398  -7.394  1.00  0.00     0.031 C 
ATOM     54  C   UNL     1      -4.151  16.376  -4.023  1.00  0.00     0.029 A 
ATOM     55  C   UNL     1      -3.212  15.451  -4.452  1.00  0.00     0.049 A 
ATOM     56  H   UNL     1      -2.388  13.814  -3.405  1.00  0.00     0.167 HD
ATOM     57  C   UNL     1      -1.590  14.467  -6.052  1.00  0.00     0.074 A 
ATOM     58  C   UNL     1      -0.936  14.399  -7.343  1.00  0.00     0.031 C 
ATOM     59  C   UNL     1      -2.557  15.361  -5.732  1.00  0.00     0.037 A 
BRANCH  46  60
ATOM     60  C   UNL     1      -4.877  14.669  -0.047  1.00  0.00     0.064 A 
ATOM     61  C   UNL     1      -4.470  15.270   1.155  1.00  0.00     0.173 A 
ATOM     62  C   UNL     1      -6.253  14.517  -0.270  1.00  0.00     0.173 A 
ATOM     63  F   UNL     1      -3.164  15.428   1.422  1.00  0.00    -0.203 F 
ATOM     64  C   UNL     1      -5.402  15.668   2.110  1.00  0.00     0.198 A 
ATOM     65  C   UNL     1      -7.184  14.945   0.674  1.00  0.00     0.198 A 
ATOM     66  F   UNL     1      -6.697  13.955  -1.404  1.00  0.00    -0.203 F 
ATOM     67  F   UNL     1      -4.986  16.186   3.273  1.00  0.00    -0.200 F 
ATOM     68  C   UNL     1      -6.758  15.510   1.866  1.00  0.00     0.200 A 
ATOM     69  F   UNL     1      -8.494  14.803   0.432  1.00  0.00    -0.200 F 
ATOM     70  F   UNL     1      -7.654  15.895   2.785  1.00  0.00    -0.200 F 
ENDBRANCH  46  60
BRANCH  47  71
ATOM     71  C   UNL     1       1.704  11.167  -6.703  1.00  0.00     0.064 A 
ATOM     72  C   UNL     1       2.821  11.921  -7.091  1.00  0.00     0.173 A 
ATOM     73  C   UNL     1       1.536   9.902  -7.284  1.00  0.00     0.173 A 
ATOM     74  F   UNL     1       3.012  13.145  -6.578  1.00  0.00    -0.203 F 
ATOM     75  C   UNL     1       3.727  11.433  -8.030  1.00  0.00     0.198 A 
ATOM     76  C   UNL     1       2.458   9.405  -8.204  1.00  0.00     0.198 A 
ATOM     77  F   UNL     1       0.487   9.139  -6.943  1.00  0.00    -0.203 F 
ATOM     78  F   UNL     1       4.767  12.189  -8.408  1.00  0.00    -0.200 F 
ATOM     79  C   UNL     1       3.549  10.173  -8.581  1.00  0.00     0.200 A 
ATOM     80  F   UNL     1       2.290   8.181  -8.723  1.00  0.00    -0.200 F 
ATOM     81  F   UNL     1       4.426   9.701  -9.477  1.00  0.00    -0.200 F 
ENDBRANCH  47  71
BRANCH  59  82
ATOM     82  C   UNL     1      -2.967  16.341  -6.792  1.00  0.00     0.064 A 
ATOM     83  C   UNL     1      -3.744  15.944  -7.889  1.00  0.00     0.173 A 
ATOM     84  C   UNL     1      -2.629  17.698  -6.680  1.00  0.00     0.173 A 
ATOM     85  F   UNL     1      -4.078  14.655  -8.049  1.00  0.00    -0.203 F 
ATOM     86  C   UNL     1      -4.157  16.869  -8.844  1.00  0.00     0.198 A 
ATOM     87  C   UNL     1      -3.067  18.624  -7.621  1.00  0.00     0.198 A 
ATOM     88  F   UNL     1      -1.890  18.127  -5.645  1.00  0.00    -0.203 F 
ATOM     89  F   UNL     1      -4.869  16.463  -9.904  1.00  0.00    -0.200 F 
ATOM     90  C   UNL     1      -3.827  18.209  -8.704  1.00  0.00     0.200 A 
ATOM     91  F   UNL     1      -2.757  19.920  -7.478  1.00  0.00    -0.200 F 
ATOM     92  F   UNL     1      -4.237  19.100  -9.617  1.00  0.00    -0.200 F 
ENDBRANCH  59  82
ENDBRANCH  33  34
ENDBRANCH  25  28
ENDBRANCH  23  24
ENDBRANCH  22  23
ENDBRANCH  21  22
ENDBRANCH   1  21
TORSDOF 15
