REMARK SMILES CCCCc1[nH]ncc1C(=O)NCCCCNC(=O)c1ccc(-c2c3nc(c(-c4c(F)c(F)c(F)c(F)c4F)c4ccc([nH]4)c(-c4c(F)c(F)c(F)c(F)c4F)c4nc(c(-c5c(F)c(F)c(F)c(F)c5F)c5ccc2[nH]5)C=C4)C=C3)cc1
REMARK SMILES IDX 14 1 13 2 12 3 10 4 11 5 9 7 5 8 6 9 7 10 8 12 4 13 3 14
REMARK SMILES IDX 2 15 1 16 15 17 16 18 17 19 18 20 19 22 20 23 21 24 82 25
REMARK SMILES IDX 22 26 81 27 23 28 24 29 25 30 75 31 26 32 80 33 74 34 76 35
REMARK SMILES IDX 27 36 79 37 73 38 72 39 28 41 60 42 40 43 59 44 41 45 44 46
REMARK SMILES IDX 58 47 77 48 42 49 43 50 57 52 78 53 45 54 29 55 30 56 38 57
REMARK SMILES IDX 31 58 32 59 36 60 39 61 33 62 34 63 37 64 35 65 61 66 62 67
REMARK SMILES IDX 70 68 63 69 64 70 68 71 71 72 65 73 66 74 69 75 67 76 46 77
REMARK SMILES IDX 47 78 55 79 48 80 49 81 53 82 56 83 50 84 51 85 54 86 52 87
REMARK H PARENT 12 6 6 11 17 21 76 40 44 51
REMARK Flexibility Score: inf
ROOT
ATOM      1  C   UNL     1       1.818   0.435  -5.175  1.00  0.00     0.023 C 
ENDROOT
BRANCH   1   2
ATOM      2  C   UNL     1       0.997   1.718  -5.030  1.00  0.00     0.116 C 
BRANCH   2   3
ATOM      3  N   UNL     1      -0.293   1.573  -5.652  1.00  0.00    -0.352 N 
ATOM      4  C   UNL     1      -1.542   1.293  -5.176  1.00  0.00     0.254 C 
ATOM      5  O   UNL     1      -2.428   1.321  -6.037  1.00  0.00    -0.269 OA
ATOM      6  H   UNL     1      -0.270   1.705  -6.627  1.00  0.00     0.163 HD
BRANCH   4   7
ATOM      7  C   UNL     1      -1.899   1.016  -3.783  1.00  0.00     0.080 A 
ATOM      8  C   UNL     1      -1.262   0.607  -2.609  1.00  0.00     0.048 A 
ATOM      9  N   UNL     1      -2.257   0.474  -1.669  1.00  0.00    -0.282 N 
ATOM     10  N   UNL     1      -3.478   0.769  -2.106  1.00  0.00    -0.183 NA
ATOM     11  H   UNL     1      -2.080   0.183  -0.745  1.00  0.00     0.190 HD
ATOM     12  C   UNL     1      -3.271   1.080  -3.382  1.00  0.00     0.149 A 
BRANCH   8  13
ATOM     13  C   UNL     1       0.117   0.230  -2.184  1.00  0.00     0.056 C 
BRANCH  13  14
ATOM     14  C   UNL     1       0.842   1.345  -1.417  1.00  0.00     0.006 C 
BRANCH  14  15
ATOM     15  C   UNL     1       0.584   1.369   0.094  1.00  0.00    -0.003 C 
ATOM     16  C   UNL     1       1.127   0.146   0.818  1.00  0.00     0.004 C 
ENDBRANCH  14  15
ENDBRANCH  13  14
ENDBRANCH   8  13
ENDBRANCH   4   7
ENDBRANCH   2   3
ENDBRANCH   1   2
BRANCH   1  17
ATOM     17  C   UNL     1       2.631   0.331  -6.464  1.00  0.00     0.023 C 
BRANCH  17  18
ATOM     18  C   UNL     1       3.761   1.345  -6.583  1.00  0.00     0.116 C 
BRANCH  18  19
ATOM     19  N   UNL     1       4.730   1.284  -5.496  1.00  0.00    -0.352 N 
ATOM     20  C   UNL     1       6.060   1.633  -5.532  1.00  0.00     0.251 C 
ATOM     21  H   UNL     1       4.392   0.953  -4.633  1.00  0.00     0.163 HD
ATOM     22  O   UNL     1       6.785   1.473  -4.557  1.00  0.00    -0.269 OA
BRANCH  20  23
ATOM     23  C   UNL     1       6.611   2.153  -6.797  1.00  0.00     0.039 A 
ATOM     24  C   UNL     1       7.690   1.489  -7.385  1.00  0.00     0.014 A 
ATOM     25  C   UNL     1       5.984   3.218  -7.447  1.00  0.00     0.014 A 
ATOM     26  C   UNL     1       8.084   1.837  -8.677  1.00  0.00     0.010 A 
ATOM     27  C   UNL     1       6.331   3.513  -8.758  1.00  0.00     0.010 A 
ATOM     28  C   UNL     1       7.374   2.816  -9.389  1.00  0.00    -0.014 A 
BRANCH  28  29
ATOM     29  C   UNL     1       7.680   3.121 -10.807  1.00  0.00     0.031 A 
ATOM     30  C   UNL     1       8.162   4.490 -11.186  1.00  0.00     0.074 A 
ATOM     31  C   UNL     1       7.409   2.207 -11.759  1.00  0.00     0.049 A 
ATOM     32  N   UNL     1       8.340   5.006 -12.375  1.00  0.00    -0.248 NA
ATOM     33  C   UNL     1       8.442   5.416 -10.078  1.00  0.00     0.031 C 
ATOM     34  C   UNL     1       6.876   0.865 -11.519  1.00  0.00     0.029 A 
ATOM     35  N   UNL     1       7.519   2.280 -13.125  1.00  0.00    -0.354 N 
ATOM     36  C   UNL     1       8.719   6.323 -12.158  1.00  0.00     0.074 A 
ATOM     37  C   UNL     1       8.706   6.540 -10.727  1.00  0.00     0.031 C 
ATOM     38  C   UNL     1       6.710   0.240 -12.696  1.00  0.00     0.029 A 
ATOM     39  C   UNL     1       7.092   1.148 -13.774  1.00  0.00     0.049 A 
ATOM     40  H   UNL     1       7.871   3.071 -13.596  1.00  0.00     0.167 HD
ATOM     41  C   UNL     1       9.063   7.261 -13.071  1.00  0.00     0.037 A 
ATOM     42  C   UNL     1       7.005   0.878 -15.090  1.00  0.00     0.037 A 
ATOM     43  C   UNL     1       9.121   7.025 -14.488  1.00  0.00     0.049 A 
ATOM     44  C   UNL     1       7.435   1.922 -16.084  1.00  0.00     0.074 A 
ATOM     45  C   UNL     1       9.551   7.878 -15.488  1.00  0.00     0.029 A 
ATOM     46  N   UNL     1       8.740   5.842 -15.105  1.00  0.00    -0.354 N 
ATOM     47  N   UNL     1       7.866   3.140 -15.865  1.00  0.00    -0.248 NA
ATOM     48  C   UNL     1       7.371   1.553 -17.505  1.00  0.00     0.031 C 
ATOM     49  C   UNL     1       9.398   7.224 -16.715  1.00  0.00     0.029 A 
ATOM     50  C   UNL     1       8.908   5.950 -16.475  1.00  0.00     0.049 A 
ATOM     51  H   UNL     1       8.400   5.045 -14.638  1.00  0.00     0.167 HD
ATOM     52  C   UNL     1       8.146   3.676 -17.114  1.00  0.00     0.074 A 
ATOM     53  C   UNL     1       7.844   2.647 -18.088  1.00  0.00     0.031 C 
ATOM     54  C   UNL     1       8.610   4.910 -17.426  1.00  0.00     0.037 A 
BRANCH  41  55
ATOM     55  C   UNL     1       9.406   8.628 -12.559  1.00  0.00     0.064 A 
ATOM     56  C   UNL     1      10.590   8.871 -11.848  1.00  0.00     0.173 A 
ATOM     57  C   UNL     1       8.547   9.711 -12.797  1.00  0.00     0.173 A 
ATOM     58  F   UNL     1      11.437   7.865 -11.583  1.00  0.00    -0.203 F 
ATOM     59  C   UNL     1      10.886  10.143 -11.365  1.00  0.00     0.198 A 
ATOM     60  C   UNL     1       8.860  10.987 -12.337  1.00  0.00     0.198 A 
ATOM     61  F   UNL     1       7.404   9.532 -13.475  1.00  0.00    -0.203 F 
ATOM     62  F   UNL     1      11.997  10.341 -10.642  1.00  0.00    -0.200 F 
ATOM     63  C   UNL     1      10.024  11.200 -11.614  1.00  0.00     0.200 A 
ATOM     64  F   UNL     1       8.031  12.010 -12.586  1.00  0.00    -0.200 F 
ATOM     65  F   UNL     1      10.311  12.424 -11.149  1.00  0.00    -0.200 F 
ENDBRANCH  41  55
BRANCH  42  66
ATOM     66  C   UNL     1       6.508  -0.447 -15.539  1.00  0.00     0.064 A 
ATOM     67  C   UNL     1       7.385  -1.397 -16.078  1.00  0.00     0.173 A 
ATOM     68  C   UNL     1       5.154  -0.795 -15.425  1.00  0.00     0.173 A 
ATOM     69  F   UNL     1       8.685  -1.100 -16.224  1.00  0.00    -0.203 F 
ATOM     70  C   UNL     1       6.926  -2.643 -16.498  1.00  0.00     0.198 A 
ATOM     71  C   UNL     1       4.700  -2.051 -15.825  1.00  0.00     0.198 A 
ATOM     72  F   UNL     1       4.277   0.078 -14.909  1.00  0.00    -0.203 F 
ATOM     73  F   UNL     1       7.780  -3.522 -17.040  1.00  0.00    -0.200 F 
ATOM     74  C   UNL     1       5.585  -2.971 -16.366  1.00  0.00     0.200 A 
ATOM     75  F   UNL     1       3.406  -2.369 -15.683  1.00  0.00    -0.200 F 
ATOM     76  F   UNL     1       5.145  -4.173 -16.763  1.00  0.00    -0.200 F 
ENDBRANCH  42  66
BRANCH  54  77
ATOM     77  C   UNL     1       8.849   5.210 -18.875  1.00  0.00     0.064 A 
ATOM     78  C   UNL     1       7.788   5.472 -19.752  1.00  0.00     0.173 A 
ATOM     79  C   UNL     1      10.158   5.300 -19.373  1.00  0.00     0.173 A 
ATOM     80  F   UNL     1       6.520   5.383 -19.323  1.00  0.00    -0.203 F 
ATOM     81  C   UNL     1       8.028   5.804 -21.082  1.00  0.00     0.198 A 
ATOM     82  C   UNL     1      10.394   5.655 -20.698  1.00  0.00     0.198 A 
ATOM     83  F   UNL     1      11.205   5.062 -18.570  1.00  0.00    -0.203 F 
ATOM     84  F   UNL     1       6.999   6.024 -21.912  1.00  0.00    -0.200 F 
ATOM     85  C   UNL     1       9.330   5.904 -21.552  1.00  0.00     0.200 A 
ATOM     86  F   UNL     1      11.653   5.761 -21.147  1.00  0.00    -0.200 F 
ATOM     87  F   UNL     1       9.559   6.237 -22.829  1.00  0.00    -0.200 F 
ENDBRANCH  54  77
ENDBRANCH  28  29
ENDBRANCH  20  23
ENDBRANCH  18  19
ENDBRANCH  17  18
ENDBRANCH   1  17
TORSDOF 14
