REMARK SMILES CC1=C[C@@H](C)[C@H]2C(=O)N([C@H](Cc3ccccc3)C(=O)NCCCCNC(=O)c3ccc(-c4c5nc(c(-c6c(F)c(F)c(F)c(F)c6F)c6ccc([nH]6)c(-c6c(F)c(F)c(F)c(F)c6F)c6nc(c(-c7c(F)c(F)c(F)c(F)c7F)c7ccc4[nH]7)C=C6)C=C5)cc3)C(=O)[C@H]2C1
REMARK SMILES IDX 22 1 21 2 20 3 18 4 19 5 10 7 9 8 1 9 2 10 3 11 94 12 4 13
REMARK SMILES IDX 93 14 6 15 5 16 91 17 7 18 92 19 8 20 11 21 12 22 13 23
REMARK SMILES IDX 17 24 14 25 16 26 15 27 23 28 24 29 25 30 26 31 27 33 28 34
REMARK SMILES IDX 29 35 90 36 30 37 89 38 31 39 32 40 33 41 83 42 34 43 88 44
REMARK SMILES IDX 82 45 84 46 35 47 87 48 81 49 80 50 36 52 68 53 48 54 67 55
REMARK SMILES IDX 49 56 52 57 66 58 85 59 50 60 51 61 65 63 86 64 53 65 37 66
REMARK SMILES IDX 38 67 46 68 39 69 40 70 44 71 47 72 41 73 42 74 45 75 43 76
REMARK SMILES IDX 69 77 70 78 78 79 71 80 72 81 76 82 79 83 73 84 74 85 77 86
REMARK SMILES IDX 75 87 54 88 55 89 63 90 56 91 57 92 61 93 64 94 58 95 59 96
REMARK SMILES IDX 62 97 60 98
REMARK H PARENT 20 6 25 32 84 51 52 62
REMARK Flexibility Score: inf
ROOT
ATOM      1  C   UNL     1      -0.318   5.168   4.767  1.00  0.00     0.023 C 
ENDROOT
BRANCH   1   2
ATOM      2  C   UNL     1       0.173   6.409   4.045  1.00  0.00     0.116 C 
BRANCH   2   3
ATOM      3  N   UNL     1       1.596   6.502   3.870  1.00  0.00    -0.354 N 
ATOM      4  C   UNL     1       2.275   6.804   2.724  1.00  0.00     0.243 C 
ATOM      5  O   UNL     1       3.500   6.958   2.803  1.00  0.00    -0.273 OA
ATOM      6  H   UNL     1       2.145   6.327   4.668  1.00  0.00     0.163 HD
BRANCH   4   7
ATOM      7  C   UNL     1       1.573   6.836   1.345  1.00  0.00     0.186 C 
BRANCH   7   8
ATOM      8  N   UNL     1       0.559   7.928   1.209  1.00  0.00    -0.269 N 
ATOM      9  C   UNL     1      -4.717   9.889  -0.025  1.00  0.00     0.039 C 
ATOM     10  C   UNL     1      -3.304   9.897   0.489  1.00  0.00    -0.076 C 
ATOM     11  C   UNL     1      -3.043  10.183   1.770  1.00  0.00    -0.024 C 
ATOM     12  C   UNL     1      -2.232   9.559  -0.507  1.00  0.00     0.044 C 
ATOM     13  C   UNL     1      -1.689  10.112   2.408  1.00  0.00     0.022 C 
ATOM     14  C   UNL     1      -0.812   9.443   0.037  1.00  0.00     0.096 C 
ATOM     15  C   UNL     1      -0.513  10.026   1.409  1.00  0.00     0.098 C 
ATOM     16  C   UNL     1      -1.775   8.987   3.432  1.00  0.00     0.013 C 
ATOM     17  C   UNL     1      -0.275   8.033   0.123  1.00  0.00     0.234 C 
ATOM     18  C   UNL     1       0.634   9.139   1.854  1.00  0.00     0.234 C 
ATOM     19  O   UNL     1      -0.447   7.192  -0.748  1.00  0.00    -0.274 OA
ATOM     20  O   UNL     1       1.461   9.484   2.683  1.00  0.00    -0.274 OA
ENDBRANCH   7   8
BRANCH   7  21
ATOM     21  C   UNL     1       1.053   5.417   0.904  1.00  0.00     0.071 C 
BRANCH  21  22
ATOM     22  C   UNL     1       1.392   4.165   1.698  1.00  0.00    -0.045 A 
ATOM     23  C   UNL     1       0.373   3.233   1.970  1.00  0.00     0.004 A 
ATOM     24  C   UNL     1       2.672   3.903   2.203  1.00  0.00     0.004 A 
ATOM     25  C   UNL     1       0.593   2.159   2.839  1.00  0.00     0.000 A 
ATOM     26  C   UNL     1       2.882   2.851   3.100  1.00  0.00     0.000 A 
ATOM     27  C   UNL     1       1.838   1.994   3.437  1.00  0.00     0.000 A 
ENDBRANCH  21  22
ENDBRANCH   7  21
ENDBRANCH   4   7
ENDBRANCH   2   3
ENDBRANCH   1   2
BRANCH   1  28
ATOM     28  C   UNL     1      -0.059   5.139   6.262  1.00  0.00     0.023 C 
BRANCH  28  29
ATOM     29  C   UNL     1      -0.599   6.334   7.027  1.00  0.00     0.116 C 
BRANCH  29  30
ATOM     30  N   UNL     1      -2.032   6.546   6.853  1.00  0.00    -0.352 N 
ATOM     31  C   UNL     1      -2.983   6.766   7.823  1.00  0.00     0.251 C 
ATOM     32  H   UNL     1      -2.359   6.530   5.925  1.00  0.00     0.163 HD
ATOM     33  O   UNL     1      -4.174   6.834   7.540  1.00  0.00    -0.269 OA
BRANCH  31  34
ATOM     34  C   UNL     1      -2.538   6.872   9.225  1.00  0.00     0.039 A 
ATOM     35  C   UNL     1      -3.108   6.035  10.185  1.00  0.00     0.014 A 
ATOM     36  C   UNL     1      -1.469   7.710   9.549  1.00  0.00     0.014 A 
ATOM     37  C   UNL     1      -2.539   5.972  11.458  1.00  0.00     0.010 A 
ATOM     38  C   UNL     1      -0.843   7.567  10.778  1.00  0.00     0.010 A 
ATOM     39  C   UNL     1      -1.373   6.699  11.747  1.00  0.00    -0.014 A 
BRANCH  39  40
ATOM     40  C   UNL     1      -0.690   6.585  13.059  1.00  0.00     0.031 A 
ATOM     41  C   UNL     1      -0.548   7.803  13.928  1.00  0.00     0.074 A 
ATOM     42  C   UNL     1      -0.131   5.417  13.429  1.00  0.00     0.049 A 
ATOM     43  N   UNL     1       0.091   7.944  15.061  1.00  0.00    -0.248 NA
ATOM     44  C   UNL     1      -1.173   9.042  13.435  1.00  0.00     0.031 C 
ATOM     45  C   UNL     1      -0.146   4.181  12.644  1.00  0.00     0.029 A 
ATOM     46  N   UNL     1       0.572   5.081  14.559  1.00  0.00    -0.354 N 
ATOM     47  C   UNL     1      -0.037   9.285  15.399  1.00  0.00     0.074 A 
ATOM     48  C   UNL     1      -0.754   9.930  14.322  1.00  0.00     0.031 C 
ATOM     49  C   UNL     1       0.488   3.216  13.329  1.00  0.00     0.029 A 
ATOM     50  C   UNL     1       0.987   3.772  14.583  1.00  0.00     0.049 A 
ATOM     51  H   UNL     1       0.761   5.719  15.285  1.00  0.00     0.167 HD
ATOM     52  C   UNL     1       0.377   9.916  16.523  1.00  0.00     0.037 A 
ATOM     53  C   UNL     1       1.692   3.099  15.513  1.00  0.00     0.037 A 
ATOM     54  C   UNL     1       1.052   9.261  17.609  1.00  0.00     0.049 A 
ATOM     55  C   UNL     1       2.128   3.820  16.761  1.00  0.00     0.074 A 
ATOM     56  C   UNL     1       1.451   9.791  18.823  1.00  0.00     0.029 A 
ATOM     57  N   UNL     1       1.426   7.925  17.612  1.00  0.00    -0.354 N 
ATOM     58  N   UNL     1       1.934   5.070  17.106  1.00  0.00    -0.248 NA
ATOM     59  C   UNL     1       2.875   3.034  17.752  1.00  0.00     0.031 C 
ATOM     60  C   UNL     1       2.103   8.785  19.544  1.00  0.00     0.029 A 
ATOM     61  C   UNL     1       2.068   7.617  18.800  1.00  0.00     0.049 A 
ATOM     62  H   UNL     1       1.260   7.290  16.878  1.00  0.00     0.167 HD
ATOM     63  C   UNL     1       2.506   5.213  18.363  1.00  0.00     0.074 A 
ATOM     64  C   UNL     1       3.043   3.917  18.726  1.00  0.00     0.031 C 
ATOM     65  C   UNL     1       2.582   6.317  19.146  1.00  0.00     0.037 A 
BRANCH  52  66
ATOM     66  C   UNL     1       0.095  11.386  16.632  1.00  0.00     0.064 A 
ATOM     67  C   UNL     1      -1.212  11.876  16.782  1.00  0.00     0.173 A 
ATOM     68  C   UNL     1       1.143  12.317  16.601  1.00  0.00     0.173 A 
ATOM     69  F   UNL     1      -2.252  11.028  16.802  1.00  0.00    -0.203 F 
ATOM     70  C   UNL     1      -1.462  13.243  16.861  1.00  0.00     0.198 A 
ATOM     71  C   UNL     1       0.893  13.682  16.713  1.00  0.00     0.198 A 
ATOM     72  F   UNL     1       2.412  11.904  16.462  1.00  0.00    -0.203 F 
ATOM     73  F   UNL     1      -2.723  13.688  16.944  1.00  0.00    -0.200 F 
ATOM     74  C   UNL     1      -0.409  14.144  16.834  1.00  0.00     0.200 A 
ATOM     75  F   UNL     1       1.912  14.552  16.699  1.00  0.00    -0.200 F 
ATOM     76  F   UNL     1      -0.650  15.460  16.913  1.00  0.00    -0.200 F 
ENDBRANCH  52  66
BRANCH  53  77
ATOM     77  C   UNL     1       1.996   1.657  15.322  1.00  0.00     0.064 A 
ATOM     78  C   UNL     1       1.379   0.682  16.119  1.00  0.00     0.173 A 
ATOM     79  C   UNL     1       2.908   1.222  14.351  1.00  0.00     0.173 A 
ATOM     80  F   UNL     1       0.513   1.051  17.076  1.00  0.00    -0.203 F 
ATOM     81  C   UNL     1       1.679  -0.670  15.968  1.00  0.00     0.198 A 
ATOM     82  C   UNL     1       3.187  -0.134  14.181  1.00  0.00     0.198 A 
ATOM     83  F   UNL     1       3.522   2.112  13.558  1.00  0.00    -0.203 F 
ATOM     84  F   UNL     1       1.109  -1.575  16.775  1.00  0.00    -0.200 F 
ATOM     85  C   UNL     1       2.579  -1.077  14.995  1.00  0.00     0.200 A 
ATOM     86  F   UNL     1       4.048  -0.525  13.231  1.00  0.00    -0.200 F 
ATOM     87  F   UNL     1       2.866  -2.378  14.848  1.00  0.00    -0.200 F 
ENDBRANCH  53  77
BRANCH  65  88
ATOM     88  C   UNL     1       3.234   6.163  20.488  1.00  0.00     0.064 A 
ATOM     89  C   UNL     1       4.620   6.001  20.619  1.00  0.00     0.173 A 
ATOM     90  C   UNL     1       2.464   6.226  21.660  1.00  0.00     0.173 A 
ATOM     91  F   UNL     1       5.397   5.920  19.528  1.00  0.00    -0.203 F 
ATOM     92  C   UNL     1       5.210   5.883  21.875  1.00  0.00     0.198 A 
ATOM     93  C   UNL     1       3.061   6.138  22.914  1.00  0.00     0.198 A 
ATOM     94  F   UNL     1       1.134   6.388  21.588  1.00  0.00    -0.203 F 
ATOM     95  F   UNL     1       6.531   5.682  21.976  1.00  0.00    -0.200 F 
ATOM     96  C   UNL     1       4.431   5.959  23.020  1.00  0.00     0.200 A 
ATOM     97  F   UNL     1       2.309   6.227  24.020  1.00  0.00    -0.200 F 
ATOM     98  F   UNL     1       5.002   5.854  24.228  1.00  0.00    -0.200 F 
ENDBRANCH  65  88
ENDBRANCH  39  40
ENDBRANCH  31  34
ENDBRANCH  29  30
ENDBRANCH  28  29
ENDBRANCH   1  28
TORSDOF 14
