REMARK SMILES C/C(=N\Nc1ccc(C(=O)NCCCCNC(=O)c2ccc(-c3c4nc(c(-c5c(F)c(F)c(F)c(F)c5F)c5ccc([nH]5)c(-c5c(F)c(F)c(F)c(F)c5F)c5nc(c(-c6c(F)c(F)c(F)c(F)c6F)c6ccc3[nH]6)C=C5)C=C4)cc2)cc1)c1cccc(S(=O)(=O)N(C)C)c1
REMARK SMILES IDX 12 1 11 2 9 3 10 4 8 6 5 7 6 8 83 9 7 10 82 11 4 12 3 14
REMARK SMILES IDX 1 15 2 16 84 17 85 18 95 19 86 20 88 21 87 22 89 23 90 24
REMARK SMILES IDX 91 25 92 26 93 27 94 28 13 29 14 30 15 31 16 32 17 33 18 35
REMARK SMILES IDX 19 36 20 37 81 38 21 39 80 40 22 41 23 42 24 43 74 44 25 45
REMARK SMILES IDX 79 46 73 47 75 48 26 49 78 50 72 51 71 52 27 54 59 55 39 56
REMARK SMILES IDX 58 57 40 58 43 59 57 60 76 61 41 62 42 63 56 65 77 66 44 67
REMARK SMILES IDX 28 68 29 69 37 70 30 71 31 72 35 73 38 74 32 75 33 76 36 77
REMARK SMILES IDX 34 78 60 79 61 80 69 81 62 82 63 83 67 84 70 85 64 86 65 87
REMARK SMILES IDX 68 88 66 89 45 90 46 91 54 92 47 93 48 94 52 95 55 96 49 97
REMARK SMILES IDX 50 98 53 99 51 100
REMARK H PARENT 11 5 4 13 16 34 75 53 43 64
REMARK Flexibility Score: inf
ROOT
ATOM      1  C   UNL     1       0.748  -4.714   0.937  1.00  0.00     0.116 C 
ENDROOT
BRANCH   1   2
ATOM      2  N   UNL     1       0.767  -5.328  -0.378  1.00  0.00    -0.352 N 
ATOM      3  C   UNL     1       0.414  -4.835  -1.611  1.00  0.00     0.251 C 
ATOM      4  O   UNL     1       0.582  -5.548  -2.598  1.00  0.00    -0.269 OA
ATOM      5  H   UNL     1       1.087  -6.259  -0.389  1.00  0.00     0.163 HD
BRANCH   3   6
ATOM      6  C   UNL     1      -0.067  -3.441  -1.791  1.00  0.00     0.039 A 
ATOM      7  C   UNL     1      -0.583  -0.695  -2.066  1.00  0.00     0.056 A 
ATOM      8  C   UNL     1       0.117  -1.389  -3.063  1.00  0.00     0.028 A 
ATOM      9  C   UNL     1      -1.136  -1.412  -1.006  1.00  0.00     0.028 A 
ATOM     10  C   UNL     1       0.393  -2.749  -2.916  1.00  0.00     0.016 A 
ATOM     11  C   UNL     1      -0.912  -2.786  -0.891  1.00  0.00     0.016 A 
BRANCH   7  12
ATOM     12  N   UNL     1      -0.531   0.705  -2.071  1.00  0.00    -0.278 N 
ATOM     13  H   UNL     1      -0.639   1.154  -2.941  1.00  0.00     0.190 HD
BRANCH  12  14
ATOM     14  N   UNL     1      -0.343   1.495  -0.986  1.00  0.00    -0.180 NA
ATOM     15  C   UNL     1       1.640   0.143  -0.249  1.00  0.00     0.069 C 
ATOM     16  C   UNL     1       0.677   1.321  -0.184  1.00  0.00     0.065 C 
BRANCH  16  17
ATOM     17  C   UNL     1       0.963   2.419   0.816  1.00  0.00    -0.001 A 
ATOM     18  C   UNL     1       0.067   3.494   0.929  1.00  0.00     0.010 A 
ATOM     19  C   UNL     1       2.191   2.501   1.481  1.00  0.00     0.031 A 
ATOM     20  C   UNL     1       0.422   4.655   1.626  1.00  0.00     0.002 A 
ATOM     21  C   UNL     1       2.579   3.697   2.091  1.00  0.00     0.083 A 
ATOM     22  C   UNL     1       1.697   4.774   2.175  1.00  0.00     0.022 A 
BRANCH  21  23
ATOM     23  S   UNL     1       4.257   3.912   2.642  1.00  0.00     0.242 S 
ATOM     24  O   UNL     1       4.725   5.185   2.126  1.00  0.00    -0.207 OA
ATOM     25  O   UNL     1       4.264   3.615   4.054  1.00  0.00    -0.207 OA
BRANCH  23  26
ATOM     26  N   UNL     1       5.157   2.690   1.831  1.00  0.00    -0.204 NA
ATOM     27  C   UNL     1       5.286   2.846   0.360  1.00  0.00     0.124 C 
ATOM     28  C   UNL     1       6.487   2.454   2.447  1.00  0.00     0.124 C 
ENDBRANCH  23  26
ENDBRANCH  21  23
ENDBRANCH  16  17
ENDBRANCH  12  14
ENDBRANCH   7  12
ENDBRANCH   3   6
ENDBRANCH   1   2
BRANCH   1  29
ATOM     29  C   UNL     1      -0.492  -5.147   1.721  1.00  0.00     0.023 C 
BRANCH  29  30
ATOM     30  C   UNL     1      -0.448  -6.591   2.223  1.00  0.00     0.023 C 
BRANCH  30  31
ATOM     31  C   UNL     1       0.620  -6.874   3.271  1.00  0.00     0.116 C 
BRANCH  31  32
ATOM     32  N   UNL     1       0.465  -6.072   4.475  1.00  0.00    -0.352 N 
ATOM     33  C   UNL     1       0.686  -6.428   5.782  1.00  0.00     0.251 C 
ATOM     34  H   UNL     1       0.159  -5.147   4.332  1.00  0.00     0.163 HD
ATOM     35  O   UNL     1       0.399  -5.656   6.691  1.00  0.00    -0.269 OA
BRANCH  33  36
ATOM     36  C   UNL     1       1.234  -7.764   6.094  1.00  0.00     0.039 A 
ATOM     37  C   UNL     1       0.613  -8.526   7.087  1.00  0.00     0.014 A 
ATOM     38  C   UNL     1       2.338  -8.270   5.402  1.00  0.00     0.014 A 
ATOM     39  C   UNL     1       1.055  -9.826   7.338  1.00  0.00     0.010 A 
ATOM     40  C   UNL     1       2.739  -9.586   5.610  1.00  0.00     0.010 A 
ATOM     41  C   UNL     1       2.097 -10.377   6.576  1.00  0.00    -0.014 A 
BRANCH  41  42
ATOM     42  C   UNL     1       2.520 -11.785   6.762  1.00  0.00     0.031 A 
ATOM     43  C   UNL     1       3.884 -12.099   7.303  1.00  0.00     0.074 A 
ATOM     44  C   UNL     1       1.700 -12.779   6.371  1.00  0.00     0.049 A 
ATOM     45  N   UNL     1       4.460 -13.263   7.469  1.00  0.00    -0.248 NA
ATOM     46  C   UNL     1       4.723 -10.953   7.684  1.00  0.00     0.031 C 
ATOM     47  C   UNL     1       0.374 -12.597   5.779  1.00  0.00     0.029 A 
ATOM     48  N   UNL     1       1.868 -14.140   6.399  1.00  0.00    -0.354 N 
ATOM     49  C   UNL     1       5.732 -12.988   7.952  1.00  0.00     0.074 A 
ATOM     50  C   UNL     1       5.859 -11.548   8.016  1.00  0.00     0.031 C 
ATOM     51  C   UNL     1      -0.158 -13.801   5.513  1.00  0.00     0.029 A 
ATOM     52  C   UNL     1       0.800 -14.836   5.891  1.00  0.00     0.049 A 
ATOM     53  H   UNL     1       2.678 -14.576   6.751  1.00  0.00     0.167 HD
ATOM     54  C   UNL     1       6.698 -13.860   8.326  1.00  0.00     0.037 A 
ATOM     55  C   UNL     1       0.616 -16.161   5.743  1.00  0.00     0.037 A 
ATOM     56  C   UNL     1       6.556 -15.292   8.295  1.00  0.00     0.049 A 
ATOM     57  C   UNL     1       1.694 -17.108   6.192  1.00  0.00     0.074 A 
ATOM     58  C   UNL     1       7.449 -16.258   8.723  1.00  0.00     0.029 A 
ATOM     59  N   UNL     1       5.444 -15.962   7.807  1.00  0.00    -0.354 N 
ATOM     60  N   UNL     1       2.865 -16.839   6.713  1.00  0.00    -0.248 NA
ATOM     61  C   UNL     1       1.419 -18.544   6.039  1.00  0.00     0.031 C 
ATOM     62  C   UNL     1       6.890 -17.515   8.464  1.00  0.00     0.029 A 
ATOM     63  C   UNL     1       5.635 -17.331   7.909  1.00  0.00     0.049 A 
ATOM     64  H   UNL     1       4.638 -15.529   7.442  1.00  0.00     0.167 HD
ATOM     65  C   UNL     1       3.459 -18.066   6.970  1.00  0.00     0.074 A 
ATOM     66  C   UNL     1       2.513 -19.083   6.559  1.00  0.00     0.031 C 
ATOM     67  C   UNL     1       4.679 -18.327   7.499  1.00  0.00     0.037 A 
BRANCH  54  68
ATOM     68  C   UNL     1       7.996 -13.286   8.810  1.00  0.00     0.064 A 
ATOM     69  C   UNL     1       8.098 -12.656  10.059  1.00  0.00     0.173 A 
ATOM     70  C   UNL     1       9.156 -13.394   8.030  1.00  0.00     0.173 A 
ATOM     71  F   UNL     1       7.013 -12.516  10.835  1.00  0.00    -0.203 F 
ATOM     72  C   UNL     1       9.310 -12.131  10.498  1.00  0.00     0.198 A 
ATOM     73  C   UNL     1      10.373 -12.891   8.484  1.00  0.00     0.198 A 
ATOM     74  F   UNL     1       9.112 -13.991   6.830  1.00  0.00    -0.203 F 
ATOM     75  F   UNL     1       9.375 -11.493  11.675  1.00  0.00    -0.200 F 
ATOM     76  C   UNL     1      10.447 -12.254   9.714  1.00  0.00     0.200 A 
ATOM     77  F   UNL     1      11.473 -13.018   7.729  1.00  0.00    -0.200 F 
ATOM     78  F   UNL     1      11.614 -11.752  10.140  1.00  0.00    -0.200 F 
ENDBRANCH  54  68
BRANCH  55  79
ATOM     79  C   UNL     1      -0.655 -16.670   5.171  1.00  0.00     0.064 A 
ATOM     80  C   UNL     1      -1.606 -17.299   5.987  1.00  0.00     0.173 A 
ATOM     81  C   UNL     1      -0.951 -16.531   3.808  1.00  0.00     0.173 A 
ATOM     82  F   UNL     1      -1.356 -17.471   7.293  1.00  0.00    -0.203 F 
ATOM     83  C   UNL     1      -2.799 -17.784   5.457  1.00  0.00     0.198 A 
ATOM     84  C   UNL     1      -2.155 -16.996   3.284  1.00  0.00     0.198 A 
ATOM     85  F   UNL     1      -0.075 -15.931   2.989  1.00  0.00    -0.203 F 
ATOM     86  F   UNL     1      -3.675 -18.413   6.252  1.00  0.00    -0.200 F 
ATOM     87  C   UNL     1      -3.075 -17.627   4.107  1.00  0.00     0.200 A 
ATOM     88  F   UNL     1      -2.423 -16.834   1.981  1.00  0.00    -0.200 F 
ATOM     89  F   UNL     1      -4.225 -18.090   3.599  1.00  0.00    -0.200 F 
ENDBRANCH  55  79
BRANCH  67  90
ATOM     90  C   UNL     1       5.050 -19.767   7.685  1.00  0.00     0.064 A 
ATOM     91  C   UNL     1       5.410 -20.576   6.598  1.00  0.00     0.173 A 
ATOM     92  C   UNL     1       5.082 -20.332   8.968  1.00  0.00     0.173 A 
ATOM     93  F   UNL     1       5.378 -20.084   5.351  1.00  0.00    -0.203 F 
ATOM     94  C   UNL     1       5.770 -21.907   6.788  1.00  0.00     0.198 A 
ATOM     95  C   UNL     1       5.466 -21.657   9.157  1.00  0.00     0.198 A 
ATOM     96  F   UNL     1       4.750 -19.596  10.040  1.00  0.00    -0.203 F 
ATOM     97  F   UNL     1       6.073 -22.674   5.731  1.00  0.00    -0.200 F 
ATOM     98  C   UNL     1       5.804 -22.444   8.066  1.00  0.00     0.200 A 
ATOM     99  F   UNL     1       5.507 -22.172  10.393  1.00  0.00    -0.200 F 
ATOM    100  F   UNL     1       6.157 -23.724   8.247  1.00  0.00    -0.200 F 
ENDBRANCH  67  90
ENDBRANCH  41  42
ENDBRANCH  33  36
ENDBRANCH  31  32
ENDBRANCH  30  31
ENDBRANCH  29  30
ENDBRANCH   1  29
TORSDOF 16
