REMARK SMILES CCC[C@@H](C(=O)NCCCCNC(=O)c1ccc(-c2c3nc(c(-c4c(F)c(F)c(F)c(F)c4F)c4ccc([nH]4)c(-c4c(F)c(F)c(F)c(F)c4F)c4nc(c(-c5c(F)c(F)c(F)c(F)c5F)c5ccc2[nH]5)C=C4)C=C3)cc1)n1nc(/C=C/c2ccc(OC)cc2)ccc1=O
REMARK SMILES IDX 8 1 7 2 5 3 6 4 4 6 3 7 2 8 1 9 78 10 79 11 93 12 80 13
REMARK SMILES IDX 92 14 94 15 91 16 81 17 82 18 83 19 84 20 90 21 85 22 89 23
REMARK SMILES IDX 86 24 87 25 88 26 9 27 10 28 11 29 12 30 13 31 14 33 15 34
REMARK SMILES IDX 16 35 77 36 17 37 76 38 18 39 19 40 20 41 70 42 21 43 75 44
REMARK SMILES IDX 69 45 71 46 22 47 74 48 68 49 67 50 23 52 55 53 35 54 54 55
REMARK SMILES IDX 36 56 39 57 53 58 72 59 37 60 38 61 52 63 73 64 40 65 24 66
REMARK SMILES IDX 25 67 33 68 26 69 27 70 31 71 34 72 28 73 29 74 32 75 30 76
REMARK SMILES IDX 56 77 57 78 65 79 58 80 59 81 63 82 66 83 60 84 61 85 64 86
REMARK SMILES IDX 62 87 41 88 42 89 50 90 43 91 44 92 48 93 51 94 45 95 46 96
REMARK SMILES IDX 49 97 47 98
REMARK H PARENT 7 5 12 32 71 51 39 62
REMARK Flexibility Score: inf
ROOT
ATOM      1  C   UNL     1      -1.521   0.394   0.525  1.00  0.00     0.116 C 
ENDROOT
BRANCH   1   2
ATOM      2  N   UNL     1      -1.742   0.556   1.945  1.00  0.00    -0.354 N 
ATOM      3  C   UNL     1      -0.854   0.701   2.975  1.00  0.00     0.245 C 
ATOM      4  O   UNL     1      -1.343   0.618   4.107  1.00  0.00    -0.273 OA
ATOM      5  H   UNL     1      -2.689   0.564   2.215  1.00  0.00     0.163 HD
BRANCH   3   6
ATOM      6  C   UNL     1       0.656   0.971   2.718  1.00  0.00     0.200 C 
BRANCH   6   7
ATOM      7  C   UNL     1       1.508  -0.297   2.444  1.00  0.00     0.037 C 
BRANCH   7   8
ATOM      8  C   UNL     1       1.637  -0.874   1.036  1.00  0.00    -0.001 C 
ATOM      9  C   UNL     1       2.204   0.054  -0.020  1.00  0.00     0.004 C 
ENDBRANCH   7   8
ENDBRANCH   6   7
BRANCH   6  10
ATOM     10  N   UNL     1       1.145   1.699   3.934  1.00  0.00    -0.217 N 
ATOM     11  N   UNL     1       0.892   3.079   3.977  1.00  0.00    -0.170 NA
ATOM     12  C   UNL     1       1.583   0.987   5.053  1.00  0.00     0.267 A 
ATOM     13  C   UNL     1       1.222   3.724   5.061  1.00  0.00     0.084 A 
ATOM     14  C   UNL     1       2.106   1.790   6.165  1.00  0.00     0.075 A 
ATOM     15  O   UNL     1       1.642  -0.234   5.174  1.00  0.00    -0.268 OA
ATOM     16  C   UNL     1       1.962   3.111   6.184  1.00  0.00     0.036 A 
BRANCH  13  17
ATOM     17  C   UNL     1       0.787   5.152   5.239  1.00  0.00     0.031 C 
ATOM     18  C   UNL     1       1.158   5.955   6.252  1.00  0.00     0.010 C 
BRANCH  18  19
ATOM     19  C   UNL     1       0.626   7.294   6.542  1.00  0.00    -0.025 A 
ATOM     20  C   UNL     1       1.503   8.275   7.018  1.00  0.00     0.012 A 
ATOM     21  C   UNL     1      -0.745   7.575   6.516  1.00  0.00     0.012 A 
ATOM     22  C   UNL     1       1.019   9.514   7.446  1.00  0.00     0.047 A 
ATOM     23  C   UNL     1      -1.229   8.818   6.950  1.00  0.00     0.047 A 
ATOM     24  C   UNL     1      -0.348   9.793   7.417  1.00  0.00     0.118 A 
BRANCH  24  25
ATOM     25  O   UNL     1      -0.684  11.034   7.883  1.00  0.00    -0.497 OA
ATOM     26  C   UNL     1      -2.057  11.395   7.828  1.00  0.00     0.278 C 
ENDBRANCH  24  25
ENDBRANCH  18  19
ENDBRANCH  13  17
ENDBRANCH   6  10
ENDBRANCH   3   6
ENDBRANCH   1   2
BRANCH   1  27
ATOM     27  C   UNL     1      -1.687  -1.078   0.134  1.00  0.00     0.023 C 
BRANCH  27  28
ATOM     28  C   UNL     1      -3.115  -1.502  -0.181  1.00  0.00     0.023 C 
BRANCH  28  29
ATOM     29  C   UNL     1      -3.672  -0.916  -1.469  1.00  0.00     0.116 C 
BRANCH  29  30
ATOM     30  N   UNL     1      -2.923  -1.297  -2.660  1.00  0.00    -0.352 N 
ATOM     31  C   UNL     1      -3.402  -1.643  -3.903  1.00  0.00     0.251 C 
ATOM     32  H   UNL     1      -1.943  -1.308  -2.562  1.00  0.00     0.163 HD
ATOM     33  O   UNL     1      -2.645  -2.017  -4.787  1.00  0.00    -0.269 OA
BRANCH  31  34
ATOM     34  C   UNL     1      -4.860  -1.603  -4.138  1.00  0.00     0.039 A 
ATOM     35  C   UNL     1      -5.488  -2.727  -4.678  1.00  0.00     0.014 A 
ATOM     36  C   UNL     1      -5.607  -0.491  -3.744  1.00  0.00     0.014 A 
ATOM     37  C   UNL     1      -6.881  -2.770  -4.739  1.00  0.00     0.010 A 
ATOM     38  C   UNL     1      -6.993  -0.573  -3.720  1.00  0.00     0.010 A 
ATOM     39  C   UNL     1      -7.644  -1.714  -4.214  1.00  0.00    -0.014 A 
BRANCH  39  40
ATOM     40  C   UNL     1      -9.125  -1.773  -4.171  1.00  0.00     0.031 A 
ATOM     41  C   UNL     1      -9.933  -0.761  -4.932  1.00  0.00     0.074 A 
ATOM     42  C   UNL     1      -9.737  -2.675  -3.380  1.00  0.00     0.049 A 
ATOM     43  N   UNL     1     -11.228  -0.570  -4.941  1.00  0.00    -0.248 NA
ATOM     44  C   UNL     1      -9.181   0.191  -5.766  1.00  0.00     0.031 C 
ATOM     45  C   UNL     1      -9.060  -3.667  -2.542  1.00  0.00     0.029 A 
ATOM     46  N   UNL     1     -11.070  -2.894  -3.140  1.00  0.00    -0.354 N 
ATOM     47  C   UNL     1     -11.439   0.533  -5.756  1.00  0.00     0.074 A 
ATOM     48  C   UNL     1     -10.139   1.006  -6.178  1.00  0.00     0.031 C 
ATOM     49  C   UNL     1      -9.981  -4.402  -1.898  1.00  0.00     0.029 A 
ATOM     50  C   UNL     1     -11.311  -3.913  -2.251  1.00  0.00     0.049 A 
ATOM     51  H   UNL     1     -11.787  -2.371  -3.566  1.00  0.00     0.167 HD
ATOM     52  C   UNL     1     -12.614   1.084  -6.142  1.00  0.00     0.037 A 
ATOM     53  C   UNL     1     -12.474  -4.394  -1.773  1.00  0.00     0.037 A 
ATOM     54  C   UNL     1     -13.905   0.585  -5.755  1.00  0.00     0.049 A 
ATOM     55  C   UNL     1     -13.767  -3.786  -2.244  1.00  0.00     0.074 A 
ATOM     56  C   UNL     1     -15.156   1.030  -6.143  1.00  0.00     0.029 A 
ATOM     57  N   UNL     1     -14.109  -0.483  -4.892  1.00  0.00    -0.354 N 
ATOM     58  N   UNL     1     -13.957  -2.784  -3.067  1.00  0.00    -0.248 NA
ATOM     59  C   UNL     1     -15.006  -4.381  -1.726  1.00  0.00     0.031 C 
ATOM     60  C   UNL     1     -16.118   0.252  -5.491  1.00  0.00     0.029 A 
ATOM     61  C   UNL     1     -15.466  -0.704  -4.728  1.00  0.00     0.049 A 
ATOM     62  H   UNL     1     -13.395  -1.005  -4.461  1.00  0.00     0.167 HD
ATOM     63  C   UNL     1     -15.333  -2.644  -3.186  1.00  0.00     0.074 A 
ATOM     64  C   UNL     1     -15.930  -3.674  -2.361  1.00  0.00     0.031 C 
ATOM     65  C   UNL     1     -16.039  -1.743  -3.911  1.00  0.00     0.037 A 
BRANCH  52  66
ATOM     66  C   UNL     1     -12.550   2.282  -7.044  1.00  0.00     0.064 A 
ATOM     67  C   UNL     1     -12.129   2.173  -8.378  1.00  0.00     0.173 A 
ATOM     68  C   UNL     1     -12.929   3.548  -6.576  1.00  0.00     0.173 A 
ATOM     69  F   UNL     1     -11.741   0.986  -8.869  1.00  0.00    -0.203 F 
ATOM     70  C   UNL     1     -12.060   3.293  -9.201  1.00  0.00     0.198 A 
ATOM     71  C   UNL     1     -12.888   4.662  -7.411  1.00  0.00     0.198 A 
ATOM     72  F   UNL     1     -13.341   3.707  -5.309  1.00  0.00    -0.203 F 
ATOM     73  F   UNL     1     -11.603   3.174 -10.456  1.00  0.00    -0.200 F 
ATOM     74  C   UNL     1     -12.445   4.535  -8.720  1.00  0.00     0.200 A 
ATOM     75  F   UNL     1     -13.270   5.860  -6.948  1.00  0.00    -0.200 F 
ATOM     76  F   UNL     1     -12.381   5.612  -9.514  1.00  0.00    -0.200 F 
ENDBRANCH  52  66
BRANCH  53  77
ATOM     77  C   UNL     1     -12.470  -5.534  -0.820  1.00  0.00     0.064 A 
ATOM     78  C   UNL     1     -12.908  -6.804  -1.220  1.00  0.00     0.173 A 
ATOM     79  C   UNL     1     -12.034  -5.381   0.503  1.00  0.00     0.173 A 
ATOM     80  F   UNL     1     -13.354  -6.994  -2.471  1.00  0.00    -0.203 F 
ATOM     81  C   UNL     1     -12.929  -7.873  -0.328  1.00  0.00     0.198 A 
ATOM     82  C   UNL     1     -12.030  -6.457   1.389  1.00  0.00     0.198 A 
ATOM     83  F   UNL     1     -11.599  -4.187   0.933  1.00  0.00    -0.203 F 
ATOM     84  F   UNL     1     -13.393  -9.066  -0.725  1.00  0.00    -0.200 F 
ATOM     85  C   UNL     1     -12.485  -7.700   0.975  1.00  0.00     0.200 A 
ATOM     86  F   UNL     1     -11.590  -6.289   2.643  1.00  0.00    -0.200 F 
ATOM     87  F   UNL     1     -12.503  -8.729   1.833  1.00  0.00    -0.200 F 
ENDBRANCH  53  77
BRANCH  65  88
ATOM     88  C   UNL     1     -17.534  -1.850  -3.872  1.00  0.00     0.064 A 
ATOM     89  C   UNL     1     -18.268  -1.458  -2.744  1.00  0.00     0.173 A 
ATOM     90  C   UNL     1     -18.241  -2.307  -4.994  1.00  0.00     0.173 A 
ATOM     91  F   UNL     1     -17.635  -1.028  -1.642  1.00  0.00    -0.203 F 
ATOM     92  C   UNL     1     -19.658  -1.539  -2.733  1.00  0.00     0.198 A 
ATOM     93  C   UNL     1     -19.632  -2.362  -4.989  1.00  0.00     0.198 A 
ATOM     94  F   UNL     1     -17.583  -2.688  -6.099  1.00  0.00    -0.203 F 
ATOM     95  F   UNL     1     -20.338  -1.196  -1.631  1.00  0.00    -0.200 F 
ATOM     96  C   UNL     1     -20.338  -1.983  -3.858  1.00  0.00     0.200 A 
ATOM     97  F   UNL     1     -20.288  -2.780  -6.080  1.00  0.00    -0.200 F 
ATOM     98  F   UNL     1     -21.676  -2.053  -3.848  1.00  0.00    -0.200 F 
ENDBRANCH  65  88
ENDBRANCH  39  40
ENDBRANCH  31  34
ENDBRANCH  29  30
ENDBRANCH  28  29
ENDBRANCH  27  28
ENDBRANCH   1  27
TORSDOF 17
