REMARK SMILES CC(C)Oc1ccc(-c2ccc(/C(=C\c3ccc(S(C)(=O)=O)cc3)C(=O)NCCCCNC(=O)c3ccc(-c4c5nc(c(-c6c(F)c(F)c(F)c(F)c6F)c6ccc([nH]6)c(-c6c(F)c(F)c(F)c(F)c6F)c6nc(c(-c7c(F)c(F)c(F)c(F)c7F)c7ccc4[nH]7)C=C6)C=C5)cc3)cc2)cc1
REMARK SMILES IDX 28 1 27 2 25 3 26 4 13 6 14 7 12 8 9 9 10 10 99 11 11 12
REMARK SMILES IDX 98 13 8 14 5 15 6 16 101 17 7 18 100 19 4 20 2 21 1 22 3 23
REMARK SMILES IDX 15 24 16 25 24 26 17 27 23 28 18 29 19 30 20 31 21 32 22 33
REMARK SMILES IDX 29 34 30 35 31 36 32 37 33 38 34 40 35 41 36 42 97 43 37 44
REMARK SMILES IDX 96 45 38 46 39 47 40 48 90 49 41 50 95 51 89 52 91 53 42 54
REMARK SMILES IDX 94 55 88 56 87 57 43 59 75 60 55 61 74 62 56 63 59 64 73 65
REMARK SMILES IDX 92 66 57 67 58 68 72 70 93 71 60 72 44 73 45 74 53 75 46 76
REMARK SMILES IDX 47 77 51 78 54 79 48 80 49 81 52 82 50 83 76 84 77 85 85 86
REMARK SMILES IDX 78 87 79 88 83 89 86 90 80 91 81 92 84 93 82 94 61 95 62 96
REMARK SMILES IDX 70 97 63 98 64 99 68 100 71 101 65 102 66 103 69 104 67 105
REMARK H PARENT 27 5 32 39 91 58 59 69
REMARK Flexibility Score: inf
ROOT
ATOM      1  C   UNL     1      -7.981 -10.376   0.192  1.00  0.00     0.116 C 
ENDROOT
BRANCH   1   2
ATOM      2  N   UNL     1      -7.563  -9.339   1.110  1.00  0.00    -0.352 N 
ATOM      3  C   UNL     1      -6.764  -8.242   1.020  1.00  0.00     0.251 C 
ATOM      4  O   UNL     1      -6.674  -7.610   2.076  1.00  0.00    -0.269 OA
ATOM      5  H   UNL     1      -7.947  -9.453   2.009  1.00  0.00     0.163 HD
BRANCH   3   6
ATOM      6  C   UNL     1      -6.079  -7.764  -0.260  1.00  0.00     0.047 C 
ATOM      7  C   UNL     1      -5.808  -8.661  -1.240  1.00  0.00     0.022 C 
BRANCH   6   8
ATOM      8  C   UNL     1      -5.554  -6.350  -0.335  1.00  0.00    -0.013 A 
ATOM      9  C   UNL     1      -4.101  -3.869  -0.526  1.00  0.00    -0.018 A 
ATOM     10  C   UNL     1      -4.754  -4.428  -1.632  1.00  0.00     0.009 A 
ATOM     11  C   UNL     1      -4.294  -4.517   0.699  1.00  0.00     0.009 A 
ATOM     12  C   UNL     1      -5.510  -5.608  -1.523  1.00  0.00     0.009 A 
ATOM     13  C   UNL     1      -4.970  -5.742   0.785  1.00  0.00     0.009 A 
BRANCH   9  14
ATOM     14  C   UNL     1      -3.220  -2.682  -0.644  1.00  0.00    -0.018 A 
ATOM     15  C   UNL     1      -1.491  -0.440  -0.862  1.00  0.00     0.119 A 
ATOM     16  C   UNL     1      -2.572  -0.585  -1.726  1.00  0.00     0.047 A 
ATOM     17  C   UNL     1      -1.284  -1.387   0.130  1.00  0.00     0.047 A 
ATOM     18  C   UNL     1      -3.425  -1.692  -1.619  1.00  0.00     0.012 A 
ATOM     19  C   UNL     1      -2.122  -2.503   0.220  1.00  0.00     0.012 A 
BRANCH  15  20
ATOM     20  O   UNL     1      -0.765   0.709  -0.965  1.00  0.00    -0.491 OA
BRANCH  20  21
ATOM     21  C   UNL     1       0.646   0.607  -1.220  1.00  0.00     0.167 C 
ATOM     22  C   UNL     1       1.466   0.281   0.025  1.00  0.00     0.052 C 
ATOM     23  C   UNL     1       1.004  -0.281  -2.410  1.00  0.00     0.052 C 
ENDBRANCH  20  21
ENDBRANCH  15  20
ENDBRANCH   9  14
ENDBRANCH   6   8
BRANCH   7  24
ATOM     24  C   UNL     1      -5.304  -8.434  -2.603  1.00  0.00    -0.025 A 
ATOM     25  C   UNL     1      -6.234  -8.438  -3.657  1.00  0.00     0.009 A 
ATOM     26  C   UNL     1      -3.963  -8.140  -2.861  1.00  0.00     0.009 A 
ATOM     27  C   UNL     1      -5.841  -8.084  -4.948  1.00  0.00     0.021 A 
ATOM     28  C   UNL     1      -3.563  -7.785  -4.152  1.00  0.00     0.021 A 
ATOM     29  C   UNL     1      -4.506  -7.749  -5.185  1.00  0.00     0.067 A 
BRANCH  29  30
ATOM     30  S   UNL     1      -4.042  -7.156  -6.796  1.00  0.00     0.175 S 
ATOM     31  C   UNL     1      -3.969  -8.624  -7.784  1.00  0.00     0.163 C 
ATOM     32  O   UNL     1      -5.136  -6.336  -7.278  1.00  0.00    -0.224 OA
ATOM     33  O   UNL     1      -2.698  -6.618  -6.696  1.00  0.00    -0.224 OA
ENDBRANCH  29  30
ENDBRANCH   7  24
ENDBRANCH   3   6
ENDBRANCH   1   2
BRANCH   1  34
ATOM     34  C   UNL     1      -7.085 -11.610   0.339  1.00  0.00     0.023 C 
BRANCH  34  35
ATOM     35  C   UNL     1      -7.362 -12.446   1.592  1.00  0.00     0.023 C 
BRANCH  35  36
ATOM     36  C   UNL     1      -8.792 -12.954   1.718  1.00  0.00     0.116 C 
BRANCH  36  37
ATOM     37  N   UNL     1      -9.245 -13.679   0.541  1.00  0.00    -0.352 N 
ATOM     38  C   UNL     1     -10.121 -14.732   0.469  1.00  0.00     0.251 C 
ATOM     39  H   UNL     1      -8.875 -13.372  -0.318  1.00  0.00     0.163 HD
ATOM     40  O   UNL     1     -10.309 -15.314  -0.593  1.00  0.00    -0.269 OA
BRANCH  38  41
ATOM     41  C   UNL     1     -10.807 -15.180   1.696  1.00  0.00     0.039 A 
ATOM     42  C   UNL     1     -10.819 -16.542   1.999  1.00  0.00     0.014 A 
ATOM     43  C   UNL     1     -11.410 -14.256   2.554  1.00  0.00     0.014 A 
ATOM     44  C   UNL     1     -11.395 -16.974   3.193  1.00  0.00     0.010 A 
ATOM     45  C   UNL     1     -11.908 -14.678   3.780  1.00  0.00     0.010 A 
ATOM     46  C   UNL     1     -11.917 -16.042   4.106  1.00  0.00    -0.014 A 
BRANCH  46  47
ATOM     47  C   UNL     1     -12.496 -16.485   5.398  1.00  0.00     0.031 A 
ATOM     48  C   UNL     1     -13.954 -16.260   5.685  1.00  0.00     0.074 A 
ATOM     49  C   UNL     1     -11.699 -17.048   6.326  1.00  0.00     0.049 A 
ATOM     50  N   UNL     1     -14.641 -16.552   6.761  1.00  0.00    -0.248 NA
ATOM     51  C   UNL     1     -14.741 -15.594   4.636  1.00  0.00     0.031 C 
ATOM     52  C   UNL     1     -10.258 -17.268   6.183  1.00  0.00     0.029 A 
ATOM     53  N   UNL     1     -11.987 -17.537   7.575  1.00  0.00    -0.354 N 
ATOM     54  C   UNL     1     -15.931 -16.098   6.519  1.00  0.00     0.074 A 
ATOM     55  C   UNL     1     -15.917 -15.451   5.226  1.00  0.00     0.031 C 
ATOM     56  C   UNL     1      -9.795 -17.878   7.286  1.00  0.00     0.029 A 
ATOM     57  C   UNL     1     -10.896 -18.058   8.227  1.00  0.00     0.049 A 
ATOM     58  H   UNL     1     -12.890 -17.517   7.967  1.00  0.00     0.167 HD
ATOM     59  C   UNL     1     -17.034 -16.235   7.293  1.00  0.00     0.037 A 
ATOM     60  C   UNL     1     -10.799 -18.619   9.447  1.00  0.00     0.037 A 
ATOM     61  C   UNL     1     -17.044 -16.896   8.571  1.00  0.00     0.049 A 
ATOM     62  C   UNL     1     -12.040 -18.755  10.289  1.00  0.00     0.074 A 
ATOM     63  C   UNL     1     -18.116 -17.131   9.413  1.00  0.00     0.029 A 
ATOM     64  N   UNL     1     -15.923 -17.427   9.193  1.00  0.00    -0.354 N 
ATOM     65  N   UNL     1     -13.270 -18.388  10.019  1.00  0.00    -0.248 NA
ATOM     66  C   UNL     1     -11.880 -19.397  11.600  1.00  0.00     0.031 C 
ATOM     67  C   UNL     1     -17.635 -17.757  10.568  1.00  0.00     0.029 A 
ATOM     68  C   UNL     1     -16.275 -17.971  10.418  1.00  0.00     0.049 A 
ATOM     69  H   UNL     1     -15.012 -17.418   8.820  1.00  0.00     0.167 HD
ATOM     70  C   UNL     1     -14.034 -18.786  11.107  1.00  0.00     0.074 A 
ATOM     71  C   UNL     1     -13.132 -19.438  12.033  1.00  0.00     0.031 C 
ATOM     72  C   UNL     1     -15.364 -18.627  11.322  1.00  0.00     0.037 A 
BRANCH  59  73
ATOM     73  C   UNL     1     -18.322 -15.662   6.772  1.00  0.00     0.064 A 
ATOM     74  C   UNL     1     -18.972 -16.207   5.653  1.00  0.00     0.173 A 
ATOM     75  C   UNL     1     -18.930 -14.574   7.415  1.00  0.00     0.173 A 
ATOM     76  F   UNL     1     -18.428 -17.240   4.992  1.00  0.00    -0.203 F 
ATOM     77  C   UNL     1     -20.163 -15.664   5.179  1.00  0.00     0.198 A 
ATOM     78  C   UNL     1     -20.140 -14.055   6.960  1.00  0.00     0.198 A 
ATOM     79  F   UNL     1     -18.355 -14.016   8.491  1.00  0.00    -0.203 F 
ATOM     80  F   UNL     1     -20.735 -16.166   4.076  1.00  0.00    -0.200 F 
ATOM     81  C   UNL     1     -20.750 -14.594   5.837  1.00  0.00     0.200 A 
ATOM     82  F   UNL     1     -20.713 -13.030   7.605  1.00  0.00    -0.200 F 
ATOM     83  F   UNL     1     -21.901 -14.078   5.385  1.00  0.00    -0.200 F 
ENDBRANCH  59  73
BRANCH  60  84
ATOM     84  C   UNL     1      -9.489 -19.126   9.934  1.00  0.00     0.064 A 
ATOM     85  C   UNL     1      -9.268 -20.500  10.113  1.00  0.00     0.173 A 
ATOM     86  C   UNL     1      -8.437 -18.253  10.245  1.00  0.00     0.173 A 
ATOM     87  F   UNL     1     -10.249 -21.375   9.847  1.00  0.00    -0.203 F 
ATOM     88  C   UNL     1      -8.059 -20.977  10.613  1.00  0.00     0.198 A 
ATOM     89  C   UNL     1      -7.216 -18.733  10.714  1.00  0.00     0.198 A 
ATOM     90  F   UNL     1      -8.591 -16.930  10.084  1.00  0.00    -0.203 F 
ATOM     91  F   UNL     1      -7.896 -22.290  10.827  1.00  0.00    -0.200 F 
ATOM     92  C   UNL     1      -7.031 -20.094  10.908  1.00  0.00     0.200 A 
ATOM     93  F   UNL     1      -6.220 -17.878  10.982  1.00  0.00    -0.200 F 
ATOM     94  F   UNL     1      -5.868 -20.553  11.388  1.00  0.00    -0.200 F 
ENDBRANCH  60  84
BRANCH  72  95
ATOM     95  C   UNL     1     -15.931 -19.215  12.583  1.00  0.00     0.064 A 
ATOM     96  C   UNL     1     -15.636 -18.685  13.848  1.00  0.00     0.173 A 
ATOM     97  C   UNL     1     -16.802 -20.315  12.520  1.00  0.00     0.173 A 
ATOM     98  F   UNL     1     -14.799 -17.643  13.965  1.00  0.00    -0.203 F 
ATOM     99  C   UNL     1     -16.160 -19.258  15.004  1.00  0.00     0.198 A 
ATOM    100  C   UNL     1     -17.353 -20.861  13.675  1.00  0.00     0.198 A 
ATOM    101  F   UNL     1     -17.125 -20.855  11.335  1.00  0.00    -0.203 F 
ATOM    102  F   UNL     1     -15.813 -18.774  16.205  1.00  0.00    -0.200 F 
ATOM    103  C   UNL     1     -17.022 -20.340  14.917  1.00  0.00     0.200 A 
ATOM    104  F   UNL     1     -18.200 -21.896  13.587  1.00  0.00    -0.200 F 
ATOM    105  F   UNL     1     -17.527 -20.888  16.030  1.00  0.00    -0.200 F 
ENDBRANCH  72  95
ENDBRANCH  46  47
ENDBRANCH  38  41
ENDBRANCH  36  37
ENDBRANCH  35  36
ENDBRANCH  34  35
ENDBRANCH   1  34
TORSDOF 17
