REMARK SMILES Cc1cccc(C(=O)Nc2ccc(-c3nnc(S[C@H](C(=O)NCCCCNC(=O)c4ccc(-c5c6nc(c(-c7c(F)c(F)c(F)c(F)c7F)c7ccc([nH]7)c(-c7c(F)c(F)c(F)c(F)c7F)c7nc(c(-c8c(F)c(F)c(F)c(F)c8F)c8ccc5[nH]8)C=C7)C=C6)cc4)C(C)C)n3C)cc2)c1
REMARK SMILES IDX 23 1 22 2 20 3 21 4 19 6 18 7 17 8 14 9 15 10 96 11 16 12
REMARK SMILES IDX 97 13 13 14 10 15 11 16 99 17 12 18 98 19 9 20 7 21 8 22
REMARK SMILES IDX 6 24 1 25 2 26 3 27 100 28 4 29 5 30 93 31 94 32 95 33 24 34
REMARK SMILES IDX 25 35 26 36 27 37 28 38 29 40 30 41 31 42 92 43 32 44 91 45
REMARK SMILES IDX 33 46 34 47 35 48 85 49 36 50 90 51 84 52 86 53 37 54 89 55
REMARK SMILES IDX 83 56 82 57 38 59 70 60 50 61 69 62 51 63 54 64 68 65 87 66
REMARK SMILES IDX 52 67 53 68 67 70 88 71 55 72 39 73 40 74 48 75 41 76 42 77
REMARK SMILES IDX 46 78 49 79 43 80 44 81 47 82 45 83 71 84 72 85 80 86 73 87
REMARK SMILES IDX 74 88 78 89 81 90 75 91 76 92 79 93 77 94 56 95 57 96 65 97
REMARK SMILES IDX 58 98 59 99 63 100 66 101 60 102 61 103 64 104 62 105
REMARK H PARENT 22 5 9 23 27 39 86 58 54 69
REMARK Flexibility Score: inf
ROOT
ATOM      1  C   UNL     1       7.045   6.489  -0.968  1.00  0.00     0.116 C 
ENDROOT
BRANCH   1   2
ATOM      2  N   UNL     1       7.577   5.143  -1.103  1.00  0.00    -0.355 N 
ATOM      3  C   UNL     1       8.072   4.437  -2.160  1.00  0.00     0.233 C 
ATOM      4  O   UNL     1       8.966   3.624  -1.881  1.00  0.00    -0.274 OA
ATOM      5  H   UNL     1       7.582   4.637  -0.258  1.00  0.00     0.163 HD
BRANCH   3   6
ATOM      6  C   UNL     1       7.600   4.545  -3.622  1.00  0.00     0.146 C 
BRANCH   6   7
ATOM      7  S   UNL     1       6.433   3.228  -4.130  1.00  0.00    -0.072 SA
BRANCH   7   8
ATOM      8  C   UNL     1       6.118   2.111  -2.865  1.00  0.00     0.192 A 
ATOM      9  C   UNL     1       5.343   0.307  -1.869  1.00  0.00     0.164 A 
ATOM     10  N   UNL     1       5.972   1.052  -0.977  1.00  0.00    -0.129 NA
ATOM     11  N   UNL     1       5.358   0.984  -3.071  1.00  0.00    -0.305 N 
ATOM     12  N   UNL     1       6.454   2.178  -1.602  1.00  0.00    -0.123 NA
ATOM     13  C   UNL     1       4.617   0.617  -4.252  1.00  0.00     0.154 C 
BRANCH   9  14
ATOM     14  C   UNL     1       4.719  -0.989  -1.590  1.00  0.00     0.019 A 
ATOM     15  C   UNL     1       3.811  -3.534  -0.804  1.00  0.00     0.041 A 
ATOM     16  C   UNL     1       3.552  -2.422  -0.003  1.00  0.00     0.027 A 
ATOM     17  C   UNL     1       4.388  -3.355  -2.062  1.00  0.00     0.027 A 
ATOM     18  C   UNL     1       4.030  -1.164  -0.383  1.00  0.00     0.014 A 
ATOM     19  C   UNL     1       4.859  -2.092  -2.444  1.00  0.00     0.014 A 
BRANCH  15  20
ATOM     20  N   UNL     1       3.549  -4.796  -0.253  1.00  0.00    -0.322 N 
ATOM     21  C   UNL     1       4.234  -5.993  -0.351  1.00  0.00     0.255 C 
ATOM     22  O   UNL     1       3.682  -7.013   0.066  1.00  0.00    -0.269 OA
ATOM     23  H   UNL     1       2.735  -4.838   0.299  1.00  0.00     0.170 HD
BRANCH  21  24
ATOM     24  C   UNL     1       5.644  -6.093  -0.843  1.00  0.00     0.040 A 
ATOM     25  C   UNL     1       8.683  -3.917  -1.576  1.00  0.00     0.044 C 
ATOM     26  C   UNL     1       7.812  -5.130  -1.420  1.00  0.00    -0.050 A 
ATOM     27  C   UNL     1       8.239  -6.377  -1.881  1.00  0.00     0.003 A 
ATOM     28  C   UNL     1       6.549  -5.023  -0.822  1.00  0.00     0.017 A 
ATOM     29  C   UNL     1       7.396  -7.484  -1.792  1.00  0.00     0.001 A 
ATOM     30  C   UNL     1       6.097  -7.338  -1.297  1.00  0.00     0.014 A 
ENDBRANCH  21  24
ENDBRANCH  15  20
ENDBRANCH   9  14
ENDBRANCH   7   8
ENDBRANCH   6   7
BRANCH   6  31
ATOM     31  C   UNL     1       7.140   5.924  -4.164  1.00  0.00     0.006 C 
ATOM     32  C   UNL     1       8.301   6.933  -4.137  1.00  0.00     0.009 C 
ATOM     33  C   UNL     1       6.590   5.918  -5.604  1.00  0.00     0.009 C 
ENDBRANCH   6  31
ENDBRANCH   3   6
ENDBRANCH   1   2
BRANCH   1  34
ATOM     34  C   UNL     1       5.607   6.567  -0.451  1.00  0.00     0.023 C 
BRANCH  34  35
ATOM     35  C   UNL     1       5.418   6.210   1.026  1.00  0.00     0.023 C 
BRANCH  35  36
ATOM     36  C   UNL     1       6.130   7.132   2.014  1.00  0.00     0.116 C 
BRANCH  36  37
ATOM     37  N   UNL     1       5.406   8.330   2.419  1.00  0.00    -0.352 N 
ATOM     38  C   UNL     1       5.859   9.417   3.164  1.00  0.00     0.251 C 
ATOM     39  H   UNL     1       4.467   8.378   2.126  1.00  0.00     0.163 HD
ATOM     40  O   UNL     1       5.089  10.294   3.506  1.00  0.00    -0.269 OA
BRANCH  38  41
ATOM     41  C   UNL     1       7.319   9.568   3.420  1.00  0.00     0.039 A 
ATOM     42  C   UNL     1       7.908  10.813   3.165  1.00  0.00     0.014 A 
ATOM     43  C   UNL     1       8.124   8.466   3.683  1.00  0.00     0.014 A 
ATOM     44  C   UNL     1       9.277  10.882   2.899  1.00  0.00     0.010 A 
ATOM     45  C   UNL     1       9.455   8.507   3.312  1.00  0.00     0.010 A 
ATOM     46  C   UNL     1      10.016   9.700   2.849  1.00  0.00    -0.014 A 
BRANCH  46  47
ATOM     47  C   UNL     1      11.330   9.598   2.223  1.00  0.00     0.031 A 
ATOM     48  C   UNL     1      12.554   9.437   3.032  1.00  0.00     0.074 A 
ATOM     49  C   UNL     1      11.444   9.570   0.875  1.00  0.00     0.049 A 
ATOM     50  N   UNL     1      13.720   9.832   2.641  1.00  0.00    -0.248 NA
ATOM     51  C   UNL     1      12.559   8.826   4.355  1.00  0.00     0.031 C 
ATOM     52  C   UNL     1      12.633   9.217   0.100  1.00  0.00     0.029 A 
ATOM     53  N   UNL     1      10.538  10.045  -0.086  1.00  0.00    -0.354 N 
ATOM     54  C   UNL     1      14.645   9.297   3.501  1.00  0.00     0.074 A 
ATOM     55  C   UNL     1      13.873   8.734   4.588  1.00  0.00     0.031 C 
ATOM     56  C   UNL     1      12.533   9.763  -1.120  1.00  0.00     0.029 A 
ATOM     57  C   UNL     1      11.334  10.576  -1.134  1.00  0.00     0.049 A 
ATOM     58  H   UNL     1       9.555  10.017  -0.041  1.00  0.00     0.167 HD
ATOM     59  C   UNL     1      15.962   9.266   3.154  1.00  0.00     0.037 A 
ATOM     60  C   UNL     1      11.265  11.895  -1.476  1.00  0.00     0.037 A 
ATOM     61  C   UNL     1      16.209   9.834   1.833  1.00  0.00     0.049 A 
ATOM     62  C   UNL     1      12.558  12.662  -1.301  1.00  0.00     0.074 A 
ATOM     63  C   UNL     1      16.423   9.296   0.574  1.00  0.00     0.029 A 
ATOM     64  N   UNL     1      15.970  11.181   1.629  1.00  0.00    -0.354 N 
ATOM     65  N   UNL     1      13.671  12.137  -0.872  1.00  0.00    -0.248 NA
ATOM     66  C   UNL     1      12.664  14.110  -1.487  1.00  0.00     0.031 C 
ATOM     67  C   UNL     1      16.343  10.345  -0.384  1.00  0.00     0.029 A 
ATOM     68  C   UNL     1      16.073  11.518   0.293  1.00  0.00     0.049 A 
ATOM     69  H   UNL     1      15.755  11.820   2.346  1.00  0.00     0.167 HD
ATOM     70  C   UNL     1      14.588  13.132  -0.653  1.00  0.00     0.074 A 
ATOM     71  C   UNL     1      13.914  14.350  -1.058  1.00  0.00     0.031 C 
ATOM     72  C   UNL     1      15.815  12.890  -0.107  1.00  0.00     0.037 A 
BRANCH  59  73
ATOM     73  C   UNL     1      16.982   8.489   3.943  1.00  0.00     0.064 A 
ATOM     74  C   UNL     1      18.022   7.784   3.306  1.00  0.00     0.173 A 
ATOM     75  C   UNL     1      16.954   8.383   5.346  1.00  0.00     0.173 A 
ATOM     76  F   UNL     1      18.223   7.872   1.986  1.00  0.00    -0.203 F 
ATOM     77  C   UNL     1      18.890   6.944   4.007  1.00  0.00     0.198 A 
ATOM     78  C   UNL     1      17.784   7.499   6.041  1.00  0.00     0.198 A 
ATOM     79  F   UNL     1      16.134   9.150   6.079  1.00  0.00    -0.203 F 
ATOM     80  F   UNL     1      19.856   6.289   3.349  1.00  0.00    -0.200 F 
ATOM     81  C   UNL     1      18.745   6.770   5.369  1.00  0.00     0.200 A 
ATOM     82  F   UNL     1      17.639   7.351   7.365  1.00  0.00    -0.200 F 
ATOM     83  F   UNL     1      19.537   5.917   6.031  1.00  0.00    -0.200 F 
ENDBRANCH  59  73
BRANCH  60  84
ATOM     84  C   UNL     1       9.898  12.444  -1.277  1.00  0.00     0.064 A 
ATOM     85  C   UNL     1       8.849  11.850  -2.009  1.00  0.00     0.173 A 
ATOM     86  C   UNL     1       9.566  13.154  -0.119  1.00  0.00     0.173 A 
ATOM     87  F   UNL     1       9.117  11.166  -3.134  1.00  0.00    -0.203 F 
ATOM     88  C   UNL     1       7.554  11.810  -1.501  1.00  0.00     0.198 A 
ATOM     89  C   UNL     1       8.258  13.143   0.365  1.00  0.00     0.198 A 
ATOM     90  F   UNL     1      10.521  13.739   0.618  1.00  0.00    -0.203 F 
ATOM     91  F   UNL     1       6.614  11.088  -2.128  1.00  0.00    -0.200 F 
ATOM     92  C   UNL     1       7.269  12.427  -0.296  1.00  0.00     0.200 A 
ATOM     93  F   UNL     1       7.981  13.736   1.535  1.00  0.00    -0.200 F 
ATOM     94  F   UNL     1       6.055  12.289   0.255  1.00  0.00    -0.200 F 
ENDBRANCH  60  84
BRANCH  72  95
ATOM     95  C   UNL     1      16.869  13.941   0.102  1.00  0.00     0.064 A 
ATOM     96  C   UNL     1      17.148  14.928  -0.857  1.00  0.00     0.173 A 
ATOM     97  C   UNL     1      17.723  13.915   1.226  1.00  0.00     0.173 A 
ATOM     98  F   UNL     1      16.457  14.988  -2.005  1.00  0.00    -0.203 F 
ATOM     99  C   UNL     1      18.168  15.865  -0.672  1.00  0.00     0.198 A 
ATOM    100  C   UNL     1      18.773  14.817   1.383  1.00  0.00     0.198 A 
ATOM    101  F   UNL     1      17.553  13.028   2.216  1.00  0.00    -0.203 F 
ATOM    102  F   UNL     1      18.362  16.825  -1.587  1.00  0.00    -0.200 F 
ATOM    103  C   UNL     1      18.986  15.804   0.442  1.00  0.00     0.200 A 
ATOM    104  F   UNL     1      19.574  14.725   2.454  1.00  0.00    -0.200 F 
ATOM    105  F   UNL     1      19.976  16.691   0.608  1.00  0.00    -0.200 F 
ENDBRANCH  72  95
ENDBRANCH  46  47
ENDBRANCH  38  41
ENDBRANCH  36  37
ENDBRANCH  35  36
ENDBRANCH  34  35
ENDBRANCH   1  34
TORSDOF 17
