REMARK SMILES O=C(NCCCCNC(=O)[C@@H]1CCCC[C@@H]1C(=O)Nc1nc(-c2ccc(Cl)c(Cl)c2)cs1)c1ccc(-c2c3nc(c(-c4c(F)c(F)c(F)c(F)c4F)c4ccc([nH]4)c(-c4c(F)c(F)c(F)c(F)c4F)c4nc(c(-c5c(F)c(F)c(F)c(F)c5F)c5ccc2[nH]5)C=C4)C=C3)cc1
REMARK SMILES IDX 6 1 5 2 4 3 3 4 1 5 2 6 33 8 34 9 95 10 35 11 94 12 36 13
REMARK SMILES IDX 37 14 38 15 88 16 39 17 93 18 87 19 89 20 40 21 92 22 86 23
REMARK SMILES IDX 85 24 41 26 73 27 53 28 72 29 54 30 57 31 71 32 90 33 55 34
REMARK SMILES IDX 56 35 70 37 91 38 58 39 42 40 43 41 51 42 44 43 45 44 49 45
REMARK SMILES IDX 52 46 46 47 47 48 50 49 48 50 74 51 75 52 83 53 76 54 77 55
REMARK SMILES IDX 81 56 84 57 78 58 79 59 82 60 80 61 59 62 60 63 68 64 61 65
REMARK SMILES IDX 62 66 66 67 69 68 63 69 64 70 67 71 65 72 7 73 8 74 9 75
REMARK SMILES IDX 10 77 11 78 12 79 16 80 13 81 15 82 14 83 17 84 18 85 19 86
REMARK SMILES IDX 20 88 21 89 32 90 22 91 31 92 23 93 24 94 30 95 25 96 28 97
REMARK SMILES IDX 26 98 29 99 27 100
REMARK H PARENT 3 7 89 25 57 36 8 76 19 87
REMARK Flexibility Score: inf
ROOT
ATOM      1  C   UNL     1       4.760   0.068  -3.723  1.00  0.00     0.023 C 
ENDROOT
BRANCH   1   2
ATOM      2  C   UNL     1       5.226  -0.466  -2.379  1.00  0.00     0.023 C 
BRANCH   2   3
ATOM      3  C   UNL     1       4.718   0.293  -1.162  1.00  0.00     0.116 C 
BRANCH   3   4
ATOM      4  N   UNL     1       3.263   0.322  -1.046  1.00  0.00    -0.352 N 
ATOM      5  O   UNL     1       1.222  -0.158  -0.200  1.00  0.00    -0.269 OA
ATOM      6  C   UNL     1       2.434  -0.215  -0.081  1.00  0.00     0.251 C 
ATOM      7  H   UNL     1       2.800   0.801  -1.770  1.00  0.00     0.163 HD
BRANCH   6   8
ATOM      8  C   UNL     1       3.040  -0.909   1.076  1.00  0.00     0.039 A 
ATOM      9  C   UNL     1       4.108  -0.328   1.752  1.00  0.00     0.014 A 
ATOM     10  C   UNL     1       2.591  -2.184   1.431  1.00  0.00     0.014 A 
ATOM     11  C   UNL     1       4.882  -1.111   2.593  1.00  0.00     0.010 A 
ATOM     12  C   UNL     1       3.297  -2.926   2.384  1.00  0.00     0.010 A 
ATOM     13  C   UNL     1       4.488  -2.420   2.926  1.00  0.00    -0.014 A 
BRANCH  13  14
ATOM     14  C   UNL     1       5.345  -3.198   3.859  1.00  0.00     0.031 A 
ATOM     15  C   UNL     1       6.019  -4.476   3.437  1.00  0.00     0.074 A 
ATOM     16  C   UNL     1       5.595  -2.674   5.076  1.00  0.00     0.049 A 
ATOM     17  N   UNL     1       6.862  -5.222   4.110  1.00  0.00    -0.248 NA
ATOM     18  C   UNL     1       5.707  -4.995   2.097  1.00  0.00     0.031 C 
ATOM     19  C   UNL     1       4.984  -1.449   5.600  1.00  0.00     0.029 A 
ATOM     20  N   UNL     1       6.457  -3.063   6.066  1.00  0.00    -0.354 N 
ATOM     21  C   UNL     1       7.157  -6.304   3.291  1.00  0.00     0.074 A 
ATOM     22  C   UNL     1       6.391  -6.132   2.075  1.00  0.00     0.031 C 
ATOM     23  C   UNL     1       5.555  -1.138   6.770  1.00  0.00     0.029 A 
ATOM     24  C   UNL     1       6.512  -2.181   7.118  1.00  0.00     0.049 A 
ATOM     25  H   UNL     1       6.986  -3.893   6.028  1.00  0.00     0.167 HD
ATOM     26  C   UNL     1       7.995  -7.342   3.532  1.00  0.00     0.037 A 
ATOM     27  C   UNL     1       7.245  -2.208   8.246  1.00  0.00     0.037 A 
ATOM     28  C   UNL     1       8.777  -7.494   4.734  1.00  0.00     0.049 A 
ATOM     29  C   UNL     1       8.188  -3.351   8.468  1.00  0.00     0.074 A 
ATOM     30  C   UNL     1       9.652  -8.512   5.074  1.00  0.00     0.029 A 
ATOM     31  N   UNL     1       8.785  -6.594   5.790  1.00  0.00    -0.354 N 
ATOM     32  N   UNL     1       8.442  -4.374   7.689  1.00  0.00    -0.248 NA
ATOM     33  C   UNL     1       8.939  -3.351   9.729  1.00  0.00     0.031 C 
ATOM     34  C   UNL     1      10.168  -8.241   6.347  1.00  0.00     0.029 A 
ATOM     35  C   UNL     1       9.646  -7.035   6.783  1.00  0.00     0.049 A 
ATOM     36  H   UNL     1       8.258  -5.763   5.827  1.00  0.00     0.167 HD
ATOM     37  C   UNL     1       9.372  -5.145   8.368  1.00  0.00     0.074 A 
ATOM     38  C   UNL     1       9.672  -4.448   9.602  1.00  0.00     0.031 C 
ATOM     39  C   UNL     1       9.916  -6.334   8.011  1.00  0.00     0.037 A 
BRANCH  26  40
ATOM     40  C   UNL     1       8.110  -8.411   2.483  1.00  0.00     0.064 A 
ATOM     41  C   UNL     1       8.810  -8.196   1.287  1.00  0.00     0.173 A 
ATOM     42  C   UNL     1       7.572  -9.688   2.707  1.00  0.00     0.173 A 
ATOM     43  F   UNL     1       9.333  -6.991   1.018  1.00  0.00    -0.203 F 
ATOM     44  C   UNL     1       8.956  -9.216   0.349  1.00  0.00     0.198 A 
ATOM     45  C   UNL     1       7.740 -10.712   1.778  1.00  0.00     0.198 A 
ATOM     46  F   UNL     1       6.898  -9.948   3.837  1.00  0.00    -0.203 F 
ATOM     47  F   UNL     1       9.604  -8.979  -0.801  1.00  0.00    -0.200 F 
ATOM     48  C   UNL     1       8.429 -10.475   0.599  1.00  0.00     0.200 A 
ATOM     49  F   UNL     1       7.239 -11.930   2.026  1.00  0.00    -0.200 F 
ATOM     50  F   UNL     1       8.582 -11.458  -0.299  1.00  0.00    -0.200 F 
ENDBRANCH  26  40
BRANCH  27  51
ATOM     51  C   UNL     1       7.092  -1.121   9.245  1.00  0.00     0.064 A 
ATOM     52  C   UNL     1       8.123  -0.203   9.482  1.00  0.00     0.173 A 
ATOM     53  C   UNL     1       5.895  -0.960   9.959  1.00  0.00     0.173 A 
ATOM     54  F   UNL     1       9.292  -0.326   8.836  1.00  0.00    -0.203 F 
ATOM     55  C   UNL     1       7.966   0.829  10.405  1.00  0.00     0.198 A 
ATOM     56  C   UNL     1       5.728   0.091  10.856  1.00  0.00     0.198 A 
ATOM     57  F   UNL     1       4.876  -1.808   9.761  1.00  0.00    -0.203 F 
ATOM     58  F   UNL     1       8.980   1.673  10.642  1.00  0.00    -0.200 F 
ATOM     59  C   UNL     1       6.766   0.981  11.084  1.00  0.00     0.200 A 
ATOM     60  F   UNL     1       4.559   0.245  11.492  1.00  0.00    -0.200 F 
ATOM     61  F   UNL     1       6.611   1.983  11.959  1.00  0.00    -0.200 F 
ENDBRANCH  27  51
BRANCH  39  62
ATOM     62  C   UNL     1      10.880  -6.947   8.980  1.00  0.00     0.064 A 
ATOM     63  C   UNL     1      10.437  -7.520  10.182  1.00  0.00     0.173 A 
ATOM     64  C   UNL     1      12.255  -6.960   8.709  1.00  0.00     0.173 A 
ATOM     65  F   UNL     1       9.132  -7.515  10.491  1.00  0.00    -0.203 F 
ATOM     66  C   UNL     1      11.342  -8.054  11.094  1.00  0.00     0.198 A 
ATOM     67  C   UNL     1      13.155  -7.518   9.613  1.00  0.00     0.198 A 
ATOM     68  F   UNL     1      12.726  -6.427   7.572  1.00  0.00    -0.203 F 
ATOM     69  F   UNL     1      10.903  -8.546  12.261  1.00  0.00    -0.200 F 
ATOM     70  C   UNL     1      12.699  -8.055  10.808  1.00  0.00     0.200 A 
ATOM     71  F   UNL     1      14.466  -7.524   9.333  1.00  0.00    -0.200 F 
ATOM     72  F   UNL     1      13.570  -8.563  11.691  1.00  0.00    -0.200 F 
ENDBRANCH  39  62
ENDBRANCH  13  14
ENDBRANCH   6   8
ENDBRANCH   3   4
ENDBRANCH   2   3
ENDBRANCH   1   2
BRANCH   1  73
ATOM     73  C   UNL     1       4.876   1.570  -3.926  1.00  0.00     0.116 C 
BRANCH  73  74
ATOM     74  N   UNL     1       6.215   2.104  -3.905  1.00  0.00    -0.356 N 
ATOM     75  C   UNL     1       6.716   3.285  -4.357  1.00  0.00     0.223 C 
ATOM     76  H   UNL     1       6.883   1.511  -3.491  1.00  0.00     0.163 HD
ATOM     77  O   UNL     1       7.855   3.545  -3.946  1.00  0.00    -0.275 OA
BRANCH  75  78
ATOM     78  C   UNL     1       6.066   4.189  -5.432  1.00  0.00     0.091 C 
ATOM     79  C   UNL     1       6.551   5.647  -5.226  1.00  0.00     0.014 C 
ATOM     80  C   UNL     1       4.552   4.122  -5.717  1.00  0.00     0.091 C 
ATOM     81  C   UNL     1       6.072   6.608  -6.311  1.00  0.00     0.001 C 
ATOM     82  C   UNL     1       4.138   5.102  -6.829  1.00  0.00     0.014 C 
ATOM     83  C   UNL     1       4.571   6.532  -6.536  1.00  0.00     0.001 C 
BRANCH  80  84
ATOM     84  C   UNL     1       3.673   4.377  -4.487  1.00  0.00     0.230 C 
ATOM     85  O   UNL     1       4.091   5.018  -3.519  1.00  0.00    -0.274 OA
ATOM     86  N   UNL     1       2.373   3.974  -4.441  1.00  0.00    -0.302 N 
ATOM     87  H   UNL     1       1.802   4.428  -3.779  1.00  0.00     0.172 HD
BRANCH  86  88
ATOM     88  C   UNL     1       1.766   3.018  -5.200  1.00  0.00     0.189 A 
ATOM     89  N   UNL     1       2.288   2.193  -6.070  1.00  0.00    -0.220 NA
ATOM     90  S   UNL     1       0.104   2.813  -4.862  1.00  0.00    -0.105 S 
ATOM     91  C   UNL     1       1.319   1.306  -6.498  1.00  0.00     0.084 A 
ATOM     92  C   UNL     1       0.058   1.504  -5.972  1.00  0.00     0.097 A 
BRANCH  91  93
ATOM     93  C   UNL     1       1.631   0.221  -7.405  1.00  0.00     0.003 A 
ATOM     94  C   UNL     1       2.244  -0.940  -6.919  1.00  0.00     0.012 A 
ATOM     95  C   UNL     1       1.316   0.322  -8.763  1.00  0.00     0.032 A 
ATOM     96  C   UNL     1       2.524  -2.002  -7.783  1.00  0.00     0.023 A 
ATOM     97  C   UNL     1       1.597  -0.740  -9.630  1.00  0.00     0.060 A 
ATOM     98  C   UNL     1       2.198  -1.906  -9.139  1.00  0.00     0.059 A 
ATOM     99  Cl  UNL     1       1.171  -0.550 -11.294  1.00  0.00    -0.083 Cl
ATOM    100  Cl  UNL     1       2.557  -3.261 -10.149  1.00  0.00    -0.083 Cl
ENDBRANCH  91  93
ENDBRANCH  86  88
ENDBRANCH  80  84
ENDBRANCH  75  78
ENDBRANCH  73  74
ENDBRANCH   1  73
TORSDOF 14
