REMARK SMILES O=C(NCCCCNC(=O)[C@H]1CCCCC[C@H]1NC(=O)c1c(F)cccc1Cl)c1ccc(-c2c3nc(c(-c4c(F)c(F)c(F)c(F)c4F)c4ccc([nH]4)c(-c4c(F)c(F)c(F)c(F)c4F)c4nc(c(-c5c(F)c(F)c(F)c(F)c5F)c5ccc2[nH]5)C=C4)C=C3)cc1
REMARK SMILES IDX 6 1 5 2 4 3 3 4 1 5 2 6 29 8 30 9 91 10 31 11 90 12 32 13
REMARK SMILES IDX 33 14 34 15 84 16 35 17 89 18 83 19 85 20 36 21 88 22 82 23
REMARK SMILES IDX 81 24 37 26 69 27 49 28 68 29 50 30 53 31 67 32 86 33 51 34
REMARK SMILES IDX 52 35 66 37 87 38 54 39 38 40 39 41 47 42 40 43 41 44 45 45
REMARK SMILES IDX 48 46 42 47 43 48 46 49 44 50 70 51 71 52 79 53 72 54 73 55
REMARK SMILES IDX 77 56 80 57 74 58 75 59 78 60 76 61 55 62 56 63 64 64 57 65
REMARK SMILES IDX 58 66 62 67 65 68 59 69 60 70 63 71 61 72 7 73 8 74 9 75
REMARK SMILES IDX 10 77 11 78 12 79 13 80 14 81 17 83 16 84 15 85 18 87 19 88
REMARK SMILES IDX 20 90 21 91 22 92 27 93 23 94 24 95 26 96 28 97 25 98
REMARK H PARENT 3 7 85 25 53 36 8 76 18 89
REMARK Flexibility Score: 100.00
ROOT
ATOM      1  C   UNL     1       3.830  -5.525   9.003  1.00  0.00     0.023 C 
ENDROOT
BRANCH   1   2
ATOM      2  C   UNL     1       2.405  -5.130   9.379  1.00  0.00     0.023 C 
BRANCH   2   3
ATOM      3  C   UNL     1       1.310  -5.644   8.447  1.00  0.00     0.116 C 
BRANCH   3   4
ATOM      4  N   UNL     1       1.384  -7.079   8.193  1.00  0.00    -0.352 N 
ATOM      5  O   UNL     1       0.658  -9.222   8.137  1.00  0.00    -0.269 OA
ATOM      6  C   UNL     1       0.409  -8.037   8.312  1.00  0.00     0.251 C 
ATOM      7  H   UNL     1       2.262  -7.407   7.893  1.00  0.00     0.163 HD
BRANCH   6   8
ATOM      8  C   UNL     1      -0.940  -7.613   8.717  1.00  0.00     0.039 A 
ATOM      9  C   UNL     1      -1.587  -6.581   8.032  1.00  0.00     0.014 A 
ATOM     10  C   UNL     1      -1.512  -8.200   9.845  1.00  0.00     0.014 A 
ATOM     11  C   UNL     1      -2.737  -6.024   8.574  1.00  0.00     0.010 A 
ATOM     12  C   UNL     1      -2.706  -7.689  10.345  1.00  0.00     0.010 A 
ATOM     13  C   UNL     1      -3.300  -6.570   9.739  1.00  0.00    -0.014 A 
BRANCH  13  14
ATOM     14  C   UNL     1      -4.527  -5.979  10.315  1.00  0.00     0.031 A 
ATOM     15  C   UNL     1      -4.495  -5.314  11.659  1.00  0.00     0.074 A 
ATOM     16  C   UNL     1      -5.675  -6.073   9.623  1.00  0.00     0.049 A 
ATOM     17  N   UNL     1      -5.486  -4.838  12.368  1.00  0.00    -0.248 NA
ATOM     18  C   UNL     1      -3.177  -5.173  12.298  1.00  0.00     0.031 C 
ATOM     19  C   UNL     1      -5.814  -6.699   8.307  1.00  0.00     0.029 A 
ATOM     20  N   UNL     1      -6.942  -5.655   9.933  1.00  0.00    -0.354 N 
ATOM     21  C   UNL     1      -4.920  -4.374  13.547  1.00  0.00     0.074 A 
ATOM     22  C   UNL     1      -3.498  -4.632  13.465  1.00  0.00     0.031 C 
ATOM     23  C   UNL     1      -7.094  -6.621   7.919  1.00  0.00     0.029 A 
ATOM     24  C   UNL     1      -7.871  -5.995   8.983  1.00  0.00     0.049 A 
ATOM     25  H   UNL     1      -7.163  -5.161  10.755  1.00  0.00     0.167 HD
ATOM     26  C   UNL     1      -5.538  -3.787  14.600  1.00  0.00     0.037 A 
ATOM     27  C   UNL     1      -9.208  -5.853   8.986  1.00  0.00     0.037 A 
ATOM     28  C   UNL     1      -6.950  -3.509  14.654  1.00  0.00     0.049 A 
ATOM     29  C   UNL     1      -9.871  -5.210  10.166  1.00  0.00     0.074 A 
ATOM     30  C   UNL     1      -7.667  -2.864  15.647  1.00  0.00     0.029 A 
ATOM     31  N   UNL     1      -7.861  -3.864  13.669  1.00  0.00    -0.354 N 
ATOM     32  N   UNL     1      -9.327  -4.754  11.268  1.00  0.00    -0.248 NA
ATOM     33  C   UNL     1     -11.330  -5.064  10.108  1.00  0.00     0.031 C 
ATOM     34  C   UNL     1      -9.017  -2.863  15.280  1.00  0.00     0.029 A 
ATOM     35  C   UNL     1      -9.137  -3.473  14.041  1.00  0.00     0.049 A 
ATOM     36  H   UNL     1      -7.634  -4.326  12.829  1.00  0.00     0.167 HD
ATOM     37  C   UNL     1     -10.371  -4.259  12.032  1.00  0.00     0.074 A 
ATOM     38  C   UNL     1     -11.583  -4.460  11.262  1.00  0.00     0.031 C 
ATOM     39  C   UNL     1     -10.329  -3.688  13.260  1.00  0.00     0.037 A 
BRANCH  26  40
ATOM     40  C   UNL     1      -4.698  -3.430  15.789  1.00  0.00     0.064 A 
ATOM     41  C   UNL     1      -3.804  -2.349  15.767  1.00  0.00     0.173 A 
ATOM     42  C   UNL     1      -4.813  -4.162  16.981  1.00  0.00     0.173 A 
ATOM     43  F   UNL     1      -3.647  -1.626  14.648  1.00  0.00    -0.203 F 
ATOM     44  C   UNL     1      -3.038  -2.031  16.886  1.00  0.00     0.198 A 
ATOM     45  C   UNL     1      -4.064  -3.826  18.105  1.00  0.00     0.198 A 
ATOM     46  F   UNL     1      -5.657  -5.202  17.056  1.00  0.00    -0.203 F 
ATOM     47  F   UNL     1      -2.160  -1.020  16.830  1.00  0.00    -0.200 F 
ATOM     48  C   UNL     1      -3.172  -2.765  18.055  1.00  0.00     0.200 A 
ATOM     49  F   UNL     1      -4.201  -4.532  19.236  1.00  0.00    -0.200 F 
ATOM     50  F   UNL     1      -2.436  -2.456  19.131  1.00  0.00    -0.200 F 
ENDBRANCH  26  40
BRANCH  27  51
ATOM     51  C   UNL     1      -9.981  -6.357   7.827  1.00  0.00     0.064 A 
ATOM     52  C   UNL     1     -10.514  -5.476   6.879  1.00  0.00     0.173 A 
ATOM     53  C   UNL     1     -10.123  -7.735   7.600  1.00  0.00     0.173 A 
ATOM     54  F   UNL     1     -10.411  -4.152   7.063  1.00  0.00    -0.203 F 
ATOM     55  C   UNL     1     -11.159  -5.955   5.741  1.00  0.00     0.198 A 
ATOM     56  C   UNL     1     -10.748  -8.212   6.451  1.00  0.00     0.198 A 
ATOM     57  F   UNL     1      -9.617  -8.615   8.476  1.00  0.00    -0.203 F 
ATOM     58  F   UNL     1     -11.672  -5.094   4.852  1.00  0.00    -0.200 F 
ATOM     59  C   UNL     1     -11.265  -7.322   5.522  1.00  0.00     0.200 A 
ATOM     60  F   UNL     1     -10.831  -9.532   6.235  1.00  0.00    -0.200 F 
ATOM     61  F   UNL     1     -11.864  -7.780   4.415  1.00  0.00    -0.200 F 
ENDBRANCH  27  51
BRANCH  39  62
ATOM     62  C   UNL     1     -11.629  -3.225  13.841  1.00  0.00     0.064 A 
ATOM     63  C   UNL     1     -12.541  -4.131  14.399  1.00  0.00     0.173 A 
ATOM     64  C   UNL     1     -11.939  -1.858  13.887  1.00  0.00     0.173 A 
ATOM     65  F   UNL     1     -12.292  -5.449  14.363  1.00  0.00    -0.203 F 
ATOM     66  C   UNL     1     -13.726  -3.684  14.977  1.00  0.00     0.198 A 
ATOM     67  C   UNL     1     -13.115  -1.414  14.482  1.00  0.00     0.198 A 
ATOM     68  F   UNL     1     -11.094  -0.956  13.366  1.00  0.00    -0.203 F 
ATOM     69  F   UNL     1     -14.598  -4.567  15.481  1.00  0.00    -0.200 F 
ATOM     70  C   UNL     1     -14.008  -2.326  15.024  1.00  0.00     0.200 A 
ATOM     71  F   UNL     1     -13.383  -0.102  14.534  1.00  0.00    -0.200 F 
ATOM     72  F   UNL     1     -15.145  -1.897  15.588  1.00  0.00    -0.200 F 
ENDBRANCH  39  62
ENDBRANCH  13  14
ENDBRANCH   6   8
ENDBRANCH   3   4
ENDBRANCH   2   3
ENDBRANCH   1   2
BRANCH   1  73
ATOM     73  C   UNL     1       4.155  -5.377   7.526  1.00  0.00     0.116 C 
BRANCH  73  74
ATOM     74  N   UNL     1       4.302  -4.016   7.080  1.00  0.00    -0.356 N 
ATOM     75  C   UNL     1       5.042  -3.543   6.043  1.00  0.00     0.225 C 
ATOM     76  H   UNL     1       3.802  -3.341   7.593  1.00  0.00     0.163 HD
ATOM     77  O   UNL     1       4.776  -2.405   5.641  1.00  0.00    -0.275 OA
BRANCH  75  78
ATOM     78  C   UNL     1       6.227  -4.305   5.437  1.00  0.00     0.101 C 
BRANCH  78  79
ATOM     79  C   UNL     1       7.470  -4.250   6.355  1.00  0.00     0.015 C 
BRANCH  79  80
ATOM     80  C   UNL     1       7.636  -5.271   7.472  1.00  0.00     0.001 C 
BRANCH  80  81
ATOM     81  C   UNL     1       8.069  -6.662   7.030  1.00  0.00     0.000 CG0
ATOM     82  G   UNL     1       7.193  -7.366   6.004  1.00  0.00     0.000 G0
ENDBRANCH  80  81
ENDBRANCH  79  80
ENDBRANCH  78  79
BRANCH  78  83
ATOM     83  C   UNL     1       5.965  -5.571   4.575  1.00  0.00     0.094 C 
BRANCH  83  84
ATOM     84  C   UNL     1       7.066  -6.644   4.660  1.00  0.00     0.026 C 
BRANCH  84  85
ATOM     85  C   UNL     1       7.193  -7.366   6.004  1.00  0.00     0.002 CG0
ATOM     86  G   UNL     1       8.069  -6.662   7.030  1.00  0.00     0.000 G0
ENDBRANCH  84  85
ENDBRANCH  83  84
BRANCH  83  87
ATOM     87  N   UNL     1       4.661  -6.218   4.731  1.00  0.00    -0.348 N 
ATOM     88  C   UNL     1       3.469  -6.079   4.075  1.00  0.00     0.256 C 
ATOM     89  H   UNL     1       4.638  -6.888   5.453  1.00  0.00     0.164 HD
ATOM     90  O   UNL     1       2.483  -6.665   4.518  1.00  0.00    -0.269 OA
BRANCH  88  91
ATOM     91  C   UNL     1       3.341  -5.307   2.836  1.00  0.00     0.094 A 
ATOM     92  C   UNL     1       4.034  -5.743   1.706  1.00  0.00     0.137 A 
ATOM     93  C   UNL     1       2.380  -4.299   2.701  1.00  0.00     0.056 A 
ATOM     94  F   UNL     1       4.922  -6.745   1.791  1.00  0.00    -0.206 F 
ATOM     95  C   UNL     1       3.798  -5.177   0.455  1.00  0.00     0.040 A 
ATOM     96  C   UNL     1       2.137  -3.732   1.443  1.00  0.00     0.021 A 
ATOM     97  Cl  UNL     1       1.463  -3.702   4.040  1.00  0.00    -0.083 Cl
ATOM     98  C   UNL     1       2.842  -4.173   0.321  1.00  0.00     0.005 A 
ENDBRANCH  88  91
ENDBRANCH  83  87
ENDBRANCH  78  83
ENDBRANCH  75  78
ENDBRANCH  73  74
ENDBRANCH   1  73
TORSDOF 13
