REMARK SMILES O=C(NCCCCNC(=O)c1cccc(CS(=O)(=O)Nc2ncccn2)c1)c1ccc(-c2c3nc(c(-c4c(F)c(F)c(F)c(F)c4F)c4ccc([nH]4)c(-c4c(F)c(F)c(F)c(F)c4F)c4nc(c(-c5c(F)c(F)c(F)c(F)c5F)c5ccc2[nH]5)C=C4)C=C3)cc1
REMARK SMILES IDX 6 1 5 2 4 3 3 4 1 5 2 6 28 8 29 9 90 10 30 11 89 12 31 13
REMARK SMILES IDX 32 14 33 15 83 16 34 17 88 18 82 19 84 20 35 21 87 22 81 23
REMARK SMILES IDX 80 24 36 26 68 27 48 28 67 29 49 30 52 31 66 32 85 33 50 34
REMARK SMILES IDX 51 35 65 37 86 38 53 39 37 40 38 41 46 42 39 43 40 44 44 45
REMARK SMILES IDX 47 46 41 47 42 48 45 49 43 50 69 51 70 52 78 53 71 54 72 55
REMARK SMILES IDX 76 56 79 57 73 58 74 59 77 60 75 61 54 62 55 63 63 64 56 65
REMARK SMILES IDX 57 66 61 67 64 68 58 69 59 70 62 71 60 72 7 73 8 74 9 75
REMARK SMILES IDX 10 77 11 78 12 79 27 80 13 81 15 82 14 83 16 84 17 85 18 86
REMARK SMILES IDX 19 87 20 88 21 90 22 91 26 92 23 93 25 94 24 95
REMARK H PARENT 3 7 84 25 52 36 8 76 20 89
REMARK Flexibility Score: inf
ROOT
ATOM      1  C   UNL     1       4.215  -3.704  -1.268  1.00  0.00     0.023 C 
ENDROOT
BRANCH   1   2
ATOM      2  C   UNL     1       4.741  -2.688  -0.259  1.00  0.00     0.023 C 
BRANCH   2   3
ATOM      3  C   UNL     1       4.518  -1.229  -0.633  1.00  0.00     0.116 C 
BRANCH   3   4
ATOM      4  N   UNL     1       3.110  -0.881  -0.768  1.00  0.00    -0.352 N 
ATOM      5  O   UNL     1       1.147   0.098  -0.226  1.00  0.00    -0.269 OA
ATOM      6  C   UNL     1       2.362   0.035  -0.066  1.00  0.00     0.251 C 
ATOM      7  H   UNL     1       2.622  -1.375  -1.466  1.00  0.00     0.163 HD
BRANCH   6   8
ATOM      8  C   UNL     1       3.026   0.921   0.912  1.00  0.00     0.039 A 
ATOM      9  C   UNL     1       4.208   1.581   0.578  1.00  0.00     0.014 A 
ATOM     10  C   UNL     1       2.480   1.058   2.192  1.00  0.00     0.014 A 
ATOM     11  C   UNL     1       4.943   2.213   1.572  1.00  0.00     0.010 A 
ATOM     12  C   UNL     1       3.174   1.781   3.166  1.00  0.00     0.010 A 
ATOM     13  C   UNL     1       4.438   2.317   2.879  1.00  0.00    -0.014 A 
BRANCH  13  14
ATOM     14  C   UNL     1       5.257   3.000   3.914  1.00  0.00     0.031 A 
ATOM     15  C   UNL     1       5.788   2.249   5.106  1.00  0.00     0.074 A 
ATOM     16  C   UNL     1       5.573   4.297   3.738  1.00  0.00     0.049 A 
ATOM     17  N   UNL     1       6.568   2.676   6.068  1.00  0.00    -0.248 NA
ATOM     18  C   UNL     1       5.389   0.841   5.244  1.00  0.00     0.031 C 
ATOM     19  C   UNL     1       5.108   5.131   2.628  1.00  0.00     0.029 A 
ATOM     20  N   UNL     1       6.383   5.131   4.464  1.00  0.00    -0.354 N 
ATOM     21  C   UNL     1       6.726   1.604   6.938  1.00  0.00     0.074 A 
ATOM     22  C   UNL     1       5.947   0.509   6.400  1.00  0.00     0.031 C 
ATOM     23  C   UNL     1       5.690   6.336   2.710  1.00  0.00     0.029 A 
ATOM     24  C   UNL     1       6.521   6.379   3.908  1.00  0.00     0.049 A 
ATOM     25  H   UNL     1       6.823   4.862   5.303  1.00  0.00     0.167 HD
ATOM     26  C   UNL     1       7.458   1.540   8.076  1.00  0.00     0.037 A 
ATOM     27  C   UNL     1       7.237   7.442   4.316  1.00  0.00     0.037 A 
ATOM     28  C   UNL     1       8.262   2.620   8.588  1.00  0.00     0.049 A 
ATOM     29  C   UNL     1       8.052   7.335   5.572  1.00  0.00     0.074 A 
ATOM     30  C   UNL     1       9.074   2.636   9.710  1.00  0.00     0.029 A 
ATOM     31  N   UNL     1       8.358   3.876   8.008  1.00  0.00    -0.354 N 
ATOM     32  N   UNL     1       8.214   6.306   6.367  1.00  0.00    -0.248 NA
ATOM     33  C   UNL     1       8.781   8.540   5.989  1.00  0.00     0.031 C 
ATOM     34  C   UNL     1       9.632   3.914   9.830  1.00  0.00     0.029 A 
ATOM     35  C   UNL     1       9.202   4.681   8.758  1.00  0.00     0.049 A 
ATOM     36  H   UNL     1       7.895   4.156   7.186  1.00  0.00     0.167 HD
ATOM     37  C   UNL     1       9.075   6.731   7.368  1.00  0.00     0.074 A 
ATOM     38  C   UNL     1       9.418   8.106   7.067  1.00  0.00     0.031 C 
ATOM     39  C   UNL     1       9.537   6.045   8.441  1.00  0.00     0.037 A 
BRANCH  26  40
ATOM     40  C   UNL     1       7.415   0.261   8.863  1.00  0.00     0.064 A 
ATOM     41  C   UNL     1       8.064  -0.901   8.423  1.00  0.00     0.173 A 
ATOM     42  C   UNL     1       6.753   0.215  10.100  1.00  0.00     0.173 A 
ATOM     43  F   UNL     1       8.700  -0.914   7.242  1.00  0.00    -0.203 F 
ATOM     44  C   UNL     1       8.035  -2.069   9.183  1.00  0.00     0.198 A 
ATOM     45  C   UNL     1       6.747  -0.946  10.869  1.00  0.00     0.198 A 
ATOM     46  F   UNL     1       6.121   1.301  10.570  1.00  0.00    -0.203 F 
ATOM     47  F   UNL     1       8.629  -3.179   8.725  1.00  0.00    -0.200 F 
ATOM     48  C   UNL     1       7.383  -2.088  10.407  1.00  0.00     0.200 A 
ATOM     49  F   UNL     1       6.126  -0.960  12.056  1.00  0.00    -0.200 F 
ATOM     50  F   UNL     1       7.363  -3.211  11.140  1.00  0.00    -0.200 F 
ENDBRANCH  26  40
BRANCH  27  51
ATOM     51  C   UNL     1       7.223   8.690   3.513  1.00  0.00     0.064 A 
ATOM     52  C   UNL     1       8.360   9.102   2.805  1.00  0.00     0.173 A 
ATOM     53  C   UNL     1       6.070   9.483   3.420  1.00  0.00     0.173 A 
ATOM     54  F   UNL     1       9.490   8.384   2.877  1.00  0.00    -0.203 F 
ATOM     55  C   UNL     1       8.347  10.268   2.042  1.00  0.00     0.198 A 
ATOM     56  C   UNL     1       6.050  10.633   2.635  1.00  0.00     0.198 A 
ATOM     57  F   UNL     1       4.955   9.126   4.074  1.00  0.00    -0.203 F 
ATOM     58  F   UNL     1       9.457  10.658   1.402  1.00  0.00    -0.200 F 
ATOM     59  C   UNL     1       7.191  11.028   1.952  1.00  0.00     0.200 A 
ATOM     60  F   UNL     1       4.926  11.354   2.536  1.00  0.00    -0.200 F 
ATOM     61  F   UNL     1       7.176  12.143   1.209  1.00  0.00    -0.200 F 
ENDBRANCH  27  51
BRANCH  39  62
ATOM     62  C   UNL     1      10.487   6.766   9.350  1.00  0.00     0.064 A 
ATOM     63  C   UNL     1      10.050   7.780  10.214  1.00  0.00     0.173 A 
ATOM     64  C   UNL     1      11.848   6.428   9.365  1.00  0.00     0.173 A 
ATOM     65  F   UNL     1       8.760   8.151  10.222  1.00  0.00    -0.203 F 
ATOM     66  C   UNL     1      10.947   8.451  11.040  1.00  0.00     0.198 A 
ATOM     67  C   UNL     1      12.738   7.082  10.212  1.00  0.00     0.198 A 
ATOM     68  F   UNL     1      12.314   5.461   8.560  1.00  0.00    -0.203 F 
ATOM     69  F   UNL     1      10.517   9.452  11.821  1.00  0.00    -0.200 F 
ATOM     70  C   UNL     1      12.289   8.098  11.042  1.00  0.00     0.200 A 
ATOM     71  F   UNL     1      14.032   6.734  10.220  1.00  0.00    -0.200 F 
ATOM     72  F   UNL     1      13.151   8.745  11.837  1.00  0.00    -0.200 F 
ENDBRANCH  39  62
ENDBRANCH  13  14
ENDBRANCH   6   8
ENDBRANCH   3   4
ENDBRANCH   2   3
ENDBRANCH   1   2
BRANCH   1  73
ATOM     73  C   UNL     1       4.679  -3.489  -2.704  1.00  0.00     0.116 C 
BRANCH  73  74
ATOM     74  N   UNL     1       6.125  -3.558  -2.836  1.00  0.00    -0.352 N 
ATOM     75  C   UNL     1       6.871  -4.316  -3.705  1.00  0.00     0.251 C 
ATOM     76  H   UNL     1       6.638  -2.985  -2.221  1.00  0.00     0.163 HD
ATOM     77  O   UNL     1       8.093  -4.347  -3.606  1.00  0.00    -0.269 OA
BRANCH  75  78
ATOM     78  C   UNL     1       6.197  -5.065  -4.783  1.00  0.00     0.040 A 
ATOM     79  C   UNL     1       6.490  -6.411  -4.984  1.00  0.00     0.014 A 
ATOM     80  C   UNL     1       5.317  -4.398  -5.641  1.00  0.00     0.018 A 
ATOM     81  C   UNL     1       5.859  -7.098  -6.022  1.00  0.00     0.001 A 
ATOM     82  C   UNL     1       4.706  -5.068  -6.710  1.00  0.00    -0.030 A 
ATOM     83  C   UNL     1       4.965  -6.435  -6.872  1.00  0.00     0.005 A 
BRANCH  82  84
ATOM     84  C   UNL     1       3.758  -4.296  -7.585  1.00  0.00     0.195 C 
BRANCH  84  85
ATOM     85  S   UNL     1       4.183  -4.291  -9.334  1.00  0.00     0.239 S 
ATOM     86  O   UNL     1       4.043  -5.639  -9.853  1.00  0.00    -0.206 OA
ATOM     87  O   UNL     1       3.397  -3.237  -9.950  1.00  0.00    -0.206 OA
BRANCH  85  88
ATOM     88  N   UNL     1       5.767  -3.851  -9.568  1.00  0.00    -0.251 N 
ATOM     89  H   UNL     1       6.274  -4.163 -10.352  1.00  0.00     0.183 HD
BRANCH  88  90
ATOM     90  C   UNL     1       6.354  -3.021  -8.612  1.00  0.00     0.236 A 
ATOM     91  N   UNL     1       5.982  -1.742  -8.599  1.00  0.00    -0.221 NA
ATOM     92  N   UNL     1       7.323  -3.576  -7.883  1.00  0.00    -0.221 NA
ATOM     93  C   UNL     1       6.674  -0.954  -7.750  1.00  0.00     0.117 A 
ATOM     94  C   UNL     1       7.966  -2.753  -7.035  1.00  0.00     0.117 A 
ATOM     95  C   UNL     1       7.681  -1.413  -6.929  1.00  0.00     0.040 A 
ENDBRANCH  88  90
ENDBRANCH  85  88
ENDBRANCH  84  85
ENDBRANCH  82  84
ENDBRANCH  75  78
ENDBRANCH  73  74
ENDBRANCH   1  73
TORSDOF 15
