REMARK SMILES O=C(NCCCCNC(=O)c1ccc(-c2c3nc(c(-c4c(F)c(F)c(F)c(F)c4F)c4ccc([nH]4)c(-c4c(F)c(F)c(F)c(F)c4F)c4nc(c(-c5c(F)c(F)c(F)c(F)c5F)c5ccc2[nH]5)C=C4)C=C3)cc1)c1ccc(C#CC#C[C@H]2C[C@@H](O)C2)cc1
REMARK SMILES IDX 4 1 3 2 1 3 2 4 74 6 75 7 88 8 76 9 87 10 77 11 78 12 79 13
REMARK SMILES IDX 80 14 81 15 82 16 86 17 83 18 84 19 85 20 5 22 6 23 7 24
REMARK SMILES IDX 8 25 9 26 10 28 11 29 12 30 73 31 13 32 72 33 14 34 15 35
REMARK SMILES IDX 16 36 66 37 17 38 71 39 65 40 67 41 18 42 70 43 64 44 63 45
REMARK SMILES IDX 19 47 51 48 31 49 50 50 32 51 35 52 49 53 68 54 33 55 34 56
REMARK SMILES IDX 48 58 69 59 36 60 20 61 21 62 29 63 22 64 23 65 27 66 30 67
REMARK SMILES IDX 24 68 25 69 28 70 26 71 52 72 53 73 61 74 54 75 55 76 59 77
REMARK SMILES IDX 62 78 56 79 57 80 60 81 58 82 37 83 38 84 46 85 39 86 40 87
REMARK SMILES IDX 44 88 47 89 41 90 42 91 45 92 43 93
REMARK H PARENT 3 5 85 21 8 27 67 46 35 57
REMARK Flexibility Score: inf
ROOT
ATOM      1  C   UNL     1       4.570  -1.079   0.104  1.00  0.00     0.116 C 
ENDROOT
BRANCH   1   2
ATOM      2  N   UNL     1       3.137  -0.892  -0.051  1.00  0.00    -0.352 N 
ATOM      3  O   UNL     1       1.173   0.213   0.026  1.00  0.00    -0.269 OA
ATOM      4  C   UNL     1       2.399   0.263   0.031  1.00  0.00     0.251 C 
ATOM      5  H   UNL     1       2.623  -1.710  -0.242  1.00  0.00     0.163 HD
BRANCH   4   6
ATOM      6  C   UNL     1       3.081   1.569   0.156  1.00  0.00     0.039 A 
ATOM      7  C   UNL     1       4.099   1.940  -0.730  1.00  0.00     0.015 A 
ATOM      8  C   UNL     1       2.682   2.438   1.175  1.00  0.00     0.015 A 
ATOM      9  C   UNL     1       4.780   3.143  -0.538  1.00  0.00     0.018 A 
ATOM     10  C   UNL     1       3.352   3.651   1.352  1.00  0.00     0.018 A 
ATOM     11  C   UNL     1       4.410   3.996   0.506  1.00  0.00     0.026 A 
BRANCH  11  12
ATOM     12  C   UNL     1       5.113   5.225   0.700  1.00  0.00    -0.053 C 
ATOM     13  C   UNL     1       5.719   6.254   0.837  1.00  0.00    -0.010 C 
BRANCH  13  14
ATOM     14  C   UNL     1       6.518   7.550   0.975  1.00  0.00    -0.015 C 
ATOM     15  C   UNL     1       7.194   8.541   1.046  1.00  0.00    -0.085 C 
BRANCH  15  16
ATOM     16  C   UNL     1       8.072   9.684   1.094  1.00  0.00     0.070 C 
ATOM     17  C   UNL     1       7.443  11.069   0.795  1.00  0.00     0.048 C 
ATOM     18  C   UNL     1       8.397  10.243   2.503  1.00  0.00     0.048 C 
ATOM     19  C   UNL     1       8.425  11.646   1.847  1.00  0.00     0.116 C 
BRANCH  19  20
ATOM     20  O   UNL     1       7.955  12.746   2.642  1.00  0.00    -0.393 OA
ATOM     21  H   UNL     1       7.089  12.525   3.019  1.00  0.00     0.210 HD
ENDBRANCH  19  20
ENDBRANCH  15  16
ENDBRANCH  13  14
ENDBRANCH  11  12
ENDBRANCH   4   6
ENDBRANCH   1   2
BRANCH   1  22
ATOM     22  C   UNL     1       4.920  -1.977   1.286  1.00  0.00     0.023 C 
BRANCH  22  23
ATOM     23  C   UNL     1       4.438  -3.421   1.169  1.00  0.00     0.023 C 
BRANCH  23  24
ATOM     24  C   UNL     1       4.856  -4.144  -0.106  1.00  0.00     0.116 C 
BRANCH  24  25
ATOM     25  N   UNL     1       6.300  -4.228  -0.268  1.00  0.00    -0.352 N 
ATOM     26  C   UNL     1       7.095  -5.328  -0.480  1.00  0.00     0.251 C 
ATOM     27  H   UNL     1       6.778  -3.368  -0.218  1.00  0.00     0.163 HD
ATOM     28  O   UNL     1       8.317  -5.220  -0.451  1.00  0.00    -0.269 OA
BRANCH  26  29
ATOM     29  C   UNL     1       6.478  -6.652  -0.710  1.00  0.00     0.039 A 
ATOM     30  C   UNL     1       6.995  -7.763  -0.038  1.00  0.00     0.014 A 
ATOM     31  C   UNL     1       5.386  -6.799  -1.569  1.00  0.00     0.014 A 
ATOM     32  C   UNL     1       6.367  -9.004  -0.169  1.00  0.00     0.010 A 
ATOM     33  C   UNL     1       4.708  -8.013  -1.626  1.00  0.00     0.010 A 
ATOM     34  C   UNL     1       5.191  -9.130  -0.927  1.00  0.00    -0.014 A 
BRANCH  34  35
ATOM     35  C   UNL     1       4.453 -10.418  -0.994  1.00  0.00     0.031 A 
ATOM     36  C   UNL     1       4.272 -11.122  -2.310  1.00  0.00     0.074 A 
ATOM     37  C   UNL     1       3.894 -10.926   0.123  1.00  0.00     0.049 A 
ATOM     38  N   UNL     1       3.612 -12.221  -2.579  1.00  0.00    -0.248 NA
ATOM     39  C   UNL     1       4.894 -10.496  -3.487  1.00  0.00     0.031 C 
ATOM     40  C   UNL     1       3.959 -10.317   1.453  1.00  0.00     0.029 A 
ATOM     41  N   UNL     1       3.153 -12.066   0.317  1.00  0.00    -0.354 N 
ATOM     42  C   UNL     1       3.733 -12.410  -3.949  1.00  0.00     0.074 A 
ATOM     43  C   UNL     1       4.474 -11.281  -4.467  1.00  0.00     0.031 C 
ATOM     44  C   UNL     1       3.313 -11.102   2.329  1.00  0.00     0.029 A 
ATOM     45  C   UNL     1       2.743 -12.242   1.617  1.00  0.00     0.049 A 
ATOM     46  H   UNL     1       2.935 -12.697  -0.406  1.00  0.00     0.167 HD
ATOM     47  C   UNL     1       3.288 -13.444  -4.703  1.00  0.00     0.037 A 
ATOM     48  C   UNL     1       1.983 -13.207   2.171  1.00  0.00     0.037 A 
ATOM     49  C   UNL     1       2.558 -14.570  -4.182  1.00  0.00     0.049 A 
ATOM     50  C   UNL     1       1.469 -14.324   1.302  1.00  0.00     0.074 A 
ATOM     51  C   UNL     1       2.108 -15.692  -4.856  1.00  0.00     0.029 A 
ATOM     52  N   UNL     1       2.159 -14.712  -2.860  1.00  0.00    -0.354 N 
ATOM     53  N   UNL     1       1.653 -14.530   0.021  1.00  0.00    -0.248 NA
ATOM     54  C   UNL     1       0.644 -15.348   1.960  1.00  0.00     0.031 C 
ATOM     55  C   UNL     1       1.377 -16.477  -3.959  1.00  0.00     0.029 A 
ATOM     56  C   UNL     1       1.438 -15.886  -2.707  1.00  0.00     0.049 A 
ATOM     57  H   UNL     1       2.359 -14.073  -2.138  1.00  0.00     0.167 HD
ATOM     58  C   UNL     1       0.999 -15.720  -0.273  1.00  0.00     0.074 A 
ATOM     59  C   UNL     1       0.429 -16.199   0.968  1.00  0.00     0.031 C 
ATOM     60  C   UNL     1       0.881 -16.358  -1.464  1.00  0.00     0.037 A 
BRANCH  47  61
ATOM     61  C   UNL     1       3.572 -13.403  -6.179  1.00  0.00     0.064 A 
ATOM     62  C   UNL     1       4.877 -13.520  -6.685  1.00  0.00     0.173 A 
ATOM     63  C   UNL     1       2.522 -13.287  -7.103  1.00  0.00     0.173 A 
ATOM     64  F   UNL     1       5.920 -13.624  -5.847  1.00  0.00    -0.203 F 
ATOM     65  C   UNL     1       5.121 -13.487  -8.056  1.00  0.00     0.198 A 
ATOM     66  C   UNL     1       2.767 -13.294  -8.474  1.00  0.00     0.198 A 
ATOM     67  F   UNL     1       1.254 -13.180  -6.678  1.00  0.00    -0.203 F 
ATOM     68  F   UNL     1       6.381 -13.543  -8.511  1.00  0.00    -0.200 F 
ATOM     69  C   UNL     1       4.066 -13.383  -8.949  1.00  0.00     0.200 A 
ATOM     70  F   UNL     1       1.744 -13.212  -9.336  1.00  0.00    -0.200 F 
ATOM     71  F   UNL     1       4.302 -13.363 -10.268  1.00  0.00    -0.200 F 
ENDBRANCH  47  61
BRANCH  48  72
ATOM     72  C   UNL     1       1.667 -13.167   3.625  1.00  0.00     0.064 A 
ATOM     73  C   UNL     1       2.159 -14.146   4.499  1.00  0.00     0.173 A 
ATOM     74  C   UNL     1       0.850 -12.163   4.167  1.00  0.00     0.173 A 
ATOM     75  F   UNL     1       2.927 -15.139   4.028  1.00  0.00    -0.203 F 
ATOM     76  C   UNL     1       1.822 -14.141   5.851  1.00  0.00     0.198 A 
ATOM     77  C   UNL     1       0.544 -12.138   5.526  1.00  0.00     0.198 A 
ATOM     78  F   UNL     1       0.356 -11.198   3.377  1.00  0.00    -0.203 F 
ATOM     79  F   UNL     1       2.257 -15.124   6.651  1.00  0.00    -0.200 F 
ATOM     80  C   UNL     1       1.020 -13.134   6.365  1.00  0.00     0.200 A 
ATOM     81  F   UNL     1      -0.216 -11.152   6.021  1.00  0.00    -0.200 F 
ATOM     82  F   UNL     1       0.698 -13.128   7.666  1.00  0.00    -0.200 F 
ENDBRANCH  48  72
BRANCH  60  83
ATOM     83  C   UNL     1       0.147 -17.670  -1.478  1.00  0.00     0.064 A 
ATOM     84  C   UNL     1      -1.237 -17.750  -1.263  1.00  0.00     0.173 A 
ATOM     85  C   UNL     1       0.836 -18.863  -1.751  1.00  0.00     0.173 A 
ATOM     86  F   UNL     1      -1.943 -16.642  -0.986  1.00  0.00    -0.203 F 
ATOM     87  C   UNL     1      -1.897 -18.976  -1.286  1.00  0.00     0.198 A 
ATOM     88  C   UNL     1       0.166 -20.082  -1.812  1.00  0.00     0.198 A 
ATOM     89  F   UNL     1       2.159 -18.845  -1.974  1.00  0.00    -0.203 F 
ATOM     90  F   UNL     1      -3.209 -19.034  -1.017  1.00  0.00    -0.200 F 
ATOM     91  C   UNL     1      -1.197 -20.139  -1.569  1.00  0.00     0.200 A 
ATOM     92  F   UNL     1       0.842 -21.201  -2.107  1.00  0.00    -0.200 F 
ATOM     93  F   UNL     1      -1.835 -21.317  -1.601  1.00  0.00    -0.200 F 
ENDBRANCH  60  83
ENDBRANCH  34  35
ENDBRANCH  26  29
ENDBRANCH  24  25
ENDBRANCH  23  24
ENDBRANCH  22  23
ENDBRANCH   1  22
TORSDOF 15
