REMARK SMILES C[C@H]1CC[C@H]([NH2+]Cc2c(C(=O)NCCCCNC(=O)c3ccc(-c4c5nc(c(-c6c(F)c(F)c(F)c(F)c6F)c6ccc([nH]6)c(-c6c(F)c(F)c(F)c(F)c6F)c6nc(c(-c7c(F)c(F)c(F)c(F)c7F)c7ccc4[nH]7)C=C6)C=C5)cc3)n(Cc3ccccc3F)c3ccccc23)CC1
REMARK SMILES IDX 14 1 13 2 12 3 10 4 11 5 9 7 8 8 97 9 83 10 92 11 96 12
REMARK SMILES IDX 93 13 95 14 94 15 7 16 6 17 5 20 1 21 2 22 3 23 99 24 4 25
REMARK SMILES IDX 98 26 84 27 85 28 86 29 90 30 87 31 89 32 91 33 88 34 15 35
REMARK SMILES IDX 16 36 17 37 18 38 19 40 20 41 21 42 82 43 22 44 81 45 23 46
REMARK SMILES IDX 24 47 25 48 75 49 26 50 80 51 74 52 76 53 27 54 79 55 73 56
REMARK SMILES IDX 72 57 28 59 60 60 40 61 59 62 41 63 44 64 58 65 77 66 42 67
REMARK SMILES IDX 43 68 57 70 78 71 45 72 29 73 30 74 38 75 31 76 32 77 36 78
REMARK SMILES IDX 39 79 33 80 34 81 37 82 35 83 61 84 62 85 70 86 63 87 64 88
REMARK SMILES IDX 68 89 71 90 65 91 66 92 69 93 67 94 46 95 47 96 55 97 48 98
REMARK SMILES IDX 49 99 53 100 56 101 50 102 51 103 54 104 52 105
REMARK H PARENT 12 6 6 18 6 19 17 39 76 58 44 69
REMARK Flexibility Score: inf
ROOT
ATOM      1  C   UNL     1      -4.522   1.645   2.161  1.00  0.00     0.023 C 
ENDROOT
BRANCH   1   2
ATOM      2  C   UNL     1      -3.895   0.343   1.676  1.00  0.00     0.116 C 
BRANCH   2   3
ATOM      3  N   UNL     1      -2.901  -0.286   2.505  1.00  0.00    -0.351 N 
ATOM      4  C   UNL     1      -2.285  -1.502   2.327  1.00  0.00     0.268 C 
ATOM      5  O   UNL     1      -1.357  -1.712   3.142  1.00  0.00    -0.268 OA
ATOM      6  H   UNL     1      -2.627   0.220   3.303  1.00  0.00     0.163 HD
BRANCH   4   7
ATOM      7  C   UNL     1      -2.688  -2.514   1.341  1.00  0.00     0.117 A 
ATOM      8  C   UNL     1      -3.325  -2.445   0.081  1.00  0.00     0.045 A 
ATOM      9  C   UNL     1      -3.854  -3.755  -0.159  1.00  0.00     0.009 A 
ATOM     10  N   UNL     1      -2.306  -3.880   1.423  1.00  0.00    -0.331 N 
ATOM     11  C   UNL     1      -3.012  -4.635   0.495  1.00  0.00     0.049 A 
ATOM     12  C   UNL     1      -4.851  -4.263  -1.020  1.00  0.00     0.011 A 
ATOM     13  C   UNL     1      -2.988  -5.997   0.145  1.00  0.00     0.027 A 
ATOM     14  C   UNL     1      -4.952  -5.639  -1.226  1.00  0.00     0.001 A 
ATOM     15  C   UNL     1      -3.998  -6.490  -0.687  1.00  0.00     0.002 A 
BRANCH   8  16
ATOM     16  C   UNL     1      -3.550  -1.391  -0.967  1.00  0.00     0.300 C 
BRANCH  16  17
ATOM     17  N   UNL     1      -2.632  -0.267  -1.018  1.00  0.00    -0.340 N 
ATOM     18  H   UNL     1      -3.027   0.382  -1.698  1.00  0.00     0.346 HD
ATOM     19  H   UNL     1      -2.574  -0.018  -0.031  1.00  0.00     0.346 HD
BRANCH  17  20
ATOM     20  C   UNL     1      -1.214  -0.387  -1.360  1.00  0.00     0.182 C 
ATOM     21  C   UNL     1       3.076  -0.051  -0.300  1.00  0.00     0.007 C 
ATOM     22  C   UNL     1       1.558  -0.151  -0.272  1.00  0.00    -0.014 C 
ATOM     23  C   UNL     1       1.064  -1.444  -0.927  1.00  0.00     0.009 C 
ATOM     24  C   UNL     1       0.911   1.042  -0.973  1.00  0.00     0.009 C 
ATOM     25  C   UNL     1      -0.448  -1.566  -0.760  1.00  0.00     0.065 C 
ATOM     26  C   UNL     1      -0.605   0.951  -0.880  1.00  0.00     0.065 C 
ENDBRANCH  17  20
ENDBRANCH  16  17
ENDBRANCH   8  16
BRANCH  10  27
ATOM     27  C   UNL     1      -1.233  -4.459   2.254  1.00  0.00     0.161 C 
BRANCH  27  28
ATOM     28  C   UNL     1      -1.702  -5.168   3.504  1.00  0.00     0.008 A 
ATOM     29  C   UNL     1      -2.482  -6.337   3.465  1.00  0.00     0.008 A 
ATOM     30  C   UNL     1      -1.294  -4.726   4.765  1.00  0.00     0.128 A 
ATOM     31  C   UNL     1      -2.874  -7.003   4.629  1.00  0.00     0.001 A 
ATOM     32  C   UNL     1      -1.689  -5.376   5.936  1.00  0.00     0.039 A 
ATOM     33  F   UNL     1      -0.463  -3.681   4.878  1.00  0.00    -0.207 F 
ATOM     34  C   UNL     1      -2.489  -6.514   5.869  1.00  0.00     0.003 A 
ENDBRANCH  27  28
ENDBRANCH  10  27
ENDBRANCH   4   7
ENDBRANCH   2   3
ENDBRANCH   1   2
BRANCH   1  35
ATOM     35  C   UNL     1      -3.712   2.932   1.912  1.00  0.00     0.023 C 
BRANCH  35  36
ATOM     36  C   UNL     1      -3.137   3.168   0.505  1.00  0.00     0.116 C 
BRANCH  36  37
ATOM     37  N   UNL     1      -4.066   3.282  -0.605  1.00  0.00    -0.352 N 
ATOM     38  C   UNL     1      -4.518   4.390  -1.274  1.00  0.00     0.251 C 
ATOM     39  H   UNL     1      -4.430   2.427  -0.929  1.00  0.00     0.163 HD
ATOM     40  O   UNL     1      -4.791   4.277  -2.480  1.00  0.00    -0.269 OA
BRANCH  38  41
ATOM     41  C   UNL     1      -4.882   5.638  -0.569  1.00  0.00     0.039 A 
ATOM     42  C   UNL     1      -4.344   6.013   0.658  1.00  0.00     0.014 A 
ATOM     43  C   UNL     1      -5.950   6.376  -1.109  1.00  0.00     0.014 A 
ATOM     44  C   UNL     1      -4.996   6.947   1.436  1.00  0.00     0.010 A 
ATOM     45  C   UNL     1      -6.574   7.359  -0.356  1.00  0.00     0.010 A 
ATOM     46  C   UNL     1      -6.140   7.578   0.948  1.00  0.00    -0.014 A 
BRANCH  46  47
ATOM     47  C   UNL     1      -6.778   8.528   1.845  1.00  0.00     0.031 A 
ATOM     48  C   UNL     1      -5.904   9.657   2.269  1.00  0.00     0.074 A 
ATOM     49  C   UNL     1      -8.063   8.421   2.231  1.00  0.00     0.049 A 
ATOM     50  N   UNL     1      -5.573  10.015   3.468  1.00  0.00    -0.248 NA
ATOM     51  C   UNL     1      -5.217  10.406   1.205  1.00  0.00     0.031 C 
ATOM     52  C   UNL     1      -9.093   7.521   1.710  1.00  0.00     0.029 A 
ATOM     53  N   UNL     1      -8.743   9.188   3.126  1.00  0.00    -0.354 N 
ATOM     54  C   UNL     1      -4.750  11.130   3.318  1.00  0.00     0.074 A 
ATOM     55  C   UNL     1      -4.467  11.249   1.913  1.00  0.00     0.031 C 
ATOM     56  C   UNL     1     -10.305   7.952   2.125  1.00  0.00     0.029 A 
ATOM     57  C   UNL     1     -10.121   9.071   3.034  1.00  0.00     0.049 A 
ATOM     58  H   UNL     1      -8.297   9.773   3.779  1.00  0.00     0.167 HD
ATOM     59  C   UNL     1      -4.514  11.991   4.344  1.00  0.00     0.037 A 
ATOM     60  C   UNL     1     -11.033   9.903   3.592  1.00  0.00     0.037 A 
ATOM     61  C   UNL     1      -4.738  11.367   5.619  1.00  0.00     0.049 A 
ATOM     62  C   UNL     1     -10.358  10.633   4.696  1.00  0.00     0.074 A 
ATOM     63  C   UNL     1      -4.158  10.308   6.290  1.00  0.00     0.029 A 
ATOM     64  N   UNL     1      -5.909  11.629   6.283  1.00  0.00    -0.354 N 
ATOM     65  N   UNL     1      -9.954  10.076   5.804  1.00  0.00    -0.248 NA
ATOM     66  C   UNL     1      -9.749  11.918   4.386  1.00  0.00     0.031 C 
ATOM     67  C   UNL     1      -5.225   9.690   7.002  1.00  0.00     0.029 A 
ATOM     68  C   UNL     1      -6.381  10.432   6.754  1.00  0.00     0.049 A 
ATOM     69  H   UNL     1      -6.332  12.511   6.399  1.00  0.00     0.167 HD
ATOM     70  C   UNL     1      -8.764  10.719   6.110  1.00  0.00     0.074 A 
ATOM     71  C   UNL     1      -8.740  11.904   5.260  1.00  0.00     0.031 C 
ATOM     72  C   UNL     1      -7.782  10.087   6.816  1.00  0.00     0.037 A 
BRANCH  59  73
ATOM     73  C   UNL     1      -4.400  13.486   4.176  1.00  0.00     0.064 A 
ATOM     74  C   UNL     1      -4.061  14.284   5.287  1.00  0.00     0.173 A 
ATOM     75  C   UNL     1      -4.897  14.187   3.055  1.00  0.00     0.173 A 
ATOM     76  F   UNL     1      -3.597  13.726   6.416  1.00  0.00    -0.203 F 
ATOM     77  C   UNL     1      -4.280  15.665   5.300  1.00  0.00     0.198 A 
ATOM     78  C   UNL     1      -5.063  15.570   3.052  1.00  0.00     0.198 A 
ATOM     79  F   UNL     1      -5.348  13.560   1.963  1.00  0.00    -0.203 F 
ATOM     80  F   UNL     1      -4.063  16.362   6.423  1.00  0.00    -0.200 F 
ATOM     81  C   UNL     1      -4.787  16.305   4.184  1.00  0.00     0.200 A 
ATOM     82  F   UNL     1      -5.573  16.169   1.966  1.00  0.00    -0.200 F 
ATOM     83  F   UNL     1      -5.056  17.617   4.215  1.00  0.00    -0.200 F 
ENDBRANCH  59  73
BRANCH  60  84
ATOM     84  C   UNL     1     -12.328  10.336   3.013  1.00  0.00     0.064 A 
ATOM     85  C   UNL     1     -13.294  10.982   3.801  1.00  0.00     0.173 A 
ATOM     86  C   UNL     1     -12.543  10.361   1.619  1.00  0.00     0.173 A 
ATOM     87  F   UNL     1     -13.142  11.052   5.131  1.00  0.00    -0.203 F 
ATOM     88  C   UNL     1     -14.398  11.625   3.229  1.00  0.00     0.198 A 
ATOM     89  C   UNL     1     -13.650  10.991   1.051  1.00  0.00     0.198 A 
ATOM     90  F   UNL     1     -11.636   9.859   0.770  1.00  0.00    -0.203 F 
ATOM     91  F   UNL     1     -15.266  12.284   4.009  1.00  0.00    -0.200 F 
ATOM     92  C   UNL     1     -14.571  11.634   1.855  1.00  0.00     0.200 A 
ATOM     93  F   UNL     1     -13.784  11.022  -0.282  1.00  0.00    -0.200 F 
ATOM     94  F   UNL     1     -15.598  12.296   1.303  1.00  0.00    -0.200 F 
ENDBRANCH  60  84
BRANCH  72  95
ATOM     95  C   UNL     1      -8.111   8.782   7.482  1.00  0.00     0.064 A 
ATOM     96  C   UNL     1      -8.448   7.614   6.777  1.00  0.00     0.173 A 
ATOM     97  C   UNL     1      -7.879   8.662   8.860  1.00  0.00     0.173 A 
ATOM     98  F   UNL     1      -8.589   7.628   5.446  1.00  0.00    -0.203 F 
ATOM     99  C   UNL     1      -8.567   6.387   7.428  1.00  0.00     0.198 A 
ATOM    100  C   UNL     1      -7.962   7.429   9.500  1.00  0.00     0.198 A 
ATOM    101  F   UNL     1      -7.499   9.734   9.573  1.00  0.00    -0.203 F 
ATOM    102  F   UNL     1      -8.881   5.285   6.732  1.00  0.00    -0.200 F 
ATOM    103  C   UNL     1      -8.311   6.294   8.786  1.00  0.00     0.200 A 
ATOM    104  F   UNL     1      -7.661   7.333  10.803  1.00  0.00    -0.200 F 
ATOM    105  F   UNL     1      -8.364   5.104   9.400  1.00  0.00    -0.200 F 
ENDBRANCH  72  95
ENDBRANCH  46  47
ENDBRANCH  38  41
ENDBRANCH  36  37
ENDBRANCH  35  36
ENDBRANCH   1  35
TORSDOF 16
