REMARK SMILES CCc1ccsc1C(=O)N(CC(=O)NCCCCNC(=O)c1ccc(-c2c3nc(c(-c4c(F)c(F)c(F)c(F)c4F)c4ccc([nH]4)c(-c4c(F)c(F)c(F)c(F)c4F)c4nc(c(-c5c(F)c(F)c(F)c(F)c5F)c5ccc2[nH]5)C=C4)C=C3)cc1)c1ccccc1N
REMARK SMILES IDX 15 1 14 2 12 3 13 4 11 6 10 7 8 8 9 9 7 10 3 11 4 12 5 13
REMARK SMILES IDX 6 14 2 15 1 16 85 17 86 18 90 19 87 20 89 21 88 22 91 23
REMARK SMILES IDX 16 26 17 27 18 28 19 29 20 30 21 32 22 33 23 34 84 35 24 36
REMARK SMILES IDX 83 37 25 38 26 39 27 40 77 41 28 42 82 43 76 44 78 45 29 46
REMARK SMILES IDX 81 47 75 48 74 49 30 51 62 52 42 53 61 54 43 55 46 56 60 57
REMARK SMILES IDX 79 58 44 59 45 60 59 62 80 63 47 64 31 65 32 66 40 67 33 68
REMARK SMILES IDX 34 69 38 70 41 71 35 72 36 73 39 74 37 75 63 76 64 77 72 78
REMARK SMILES IDX 65 79 66 80 70 81 73 82 67 83 68 84 71 85 69 86 48 87 49 88
REMARK SMILES IDX 57 89 50 90 51 91 55 92 58 93 52 94 53 95 56 96 54 97
REMARK H PARENT 14 5 91 24 91 25 19 31 78 50 46 61
REMARK Flexibility Score: inf
ROOT
ATOM      1  C   UNL     1       2.749   3.266   1.991  1.00  0.00     0.116 C 
ENDROOT
BRANCH   1   2
ATOM      2  N   UNL     1       2.184   2.301   2.907  1.00  0.00    -0.355 N 
ATOM      3  C   UNL     1       0.932   1.787   3.020  1.00  0.00     0.240 C 
ATOM      4  O   UNL     1       0.829   0.781   3.735  1.00  0.00    -0.273 OA
ATOM      5  H   UNL     1       2.824   1.953   3.570  1.00  0.00     0.163 HD
BRANCH   3   6
ATOM      6  C   UNL     1      -0.305   2.281   2.244  1.00  0.00     0.226 C 
BRANCH   6   7
ATOM      7  N   UNL     1      -0.442   3.664   1.806  1.00  0.00    -0.296 N 
BRANCH   7   8
ATOM      8  C   UNL     1      -0.125   4.167   0.516  1.00  0.00     0.269 C 
ATOM      9  O   UNL     1      -0.272   5.392   0.366  1.00  0.00    -0.268 OA
BRANCH   8  10
ATOM     10  C   UNL     1       0.474   3.397  -0.648  1.00  0.00     0.096 A 
ATOM     11  C   UNL     1       0.875   2.094  -1.035  1.00  0.00    -0.025 A 
ATOM     12  C   UNL     1       1.530   2.105  -2.332  1.00  0.00     0.016 A 
ATOM     13  C   UNL     1       1.611   3.334  -2.919  1.00  0.00     0.066 A 
ATOM     14  S   UNL     1       0.871   4.510  -1.976  1.00  0.00    -0.138 S 
BRANCH  11  15
ATOM     15  C   UNL     1       0.742   0.773  -0.307  1.00  0.00     0.034 C 
ATOM     16  C   UNL     1       1.401  -0.455  -0.927  1.00  0.00     0.009 C 
ENDBRANCH  11  15
ENDBRANCH   8  10
ENDBRANCH   7   8
BRANCH   7  17
ATOM     17  C   UNL     1      -1.125   4.496   2.813  1.00  0.00     0.068 A 
ATOM     18  C   UNL     1      -0.799   4.292   4.176  1.00  0.00     0.028 A 
ATOM     19  C   UNL     1      -2.196   5.382   2.527  1.00  0.00     0.056 A 
ATOM     20  C   UNL     1      -1.548   4.845   5.216  1.00  0.00     0.002 A 
ATOM     21  C   UNL     1      -2.969   5.888   3.592  1.00  0.00     0.028 A 
ATOM     22  C   UNL     1      -2.652   5.625   4.923  1.00  0.00     0.002 A 
BRANCH  19  23
ATOM     23  N   UNL     1      -2.683   5.620   1.234  1.00  0.00    -0.397 N 
ATOM     24  H   UNL     1      -2.185   5.290   0.451  1.00  0.00     0.156 HD
ATOM     25  H   UNL     1      -3.524   6.117   1.108  1.00  0.00     0.156 HD
ENDBRANCH  19  23
ENDBRANCH   7  17
ENDBRANCH   6   7
ENDBRANCH   3   6
ENDBRANCH   1   2
BRANCH   1  26
ATOM     26  C   UNL     1       2.875   4.669   2.569  1.00  0.00     0.023 C 
BRANCH  26  27
ATOM     27  C   UNL     1       3.929   4.808   3.667  1.00  0.00     0.023 C 
BRANCH  27  28
ATOM     28  C   UNL     1       5.334   4.352   3.288  1.00  0.00     0.116 C 
BRANCH  28  29
ATOM     29  N   UNL     1       5.888   5.052   2.139  1.00  0.00    -0.352 N 
ATOM     30  C   UNL     1       7.181   5.471   1.933  1.00  0.00     0.251 C 
ATOM     31  H   UNL     1       5.253   5.254   1.415  1.00  0.00     0.163 HD
ATOM     32  O   UNL     1       7.472   6.135   0.943  1.00  0.00    -0.269 OA
BRANCH  30  33
ATOM     33  C   UNL     1       8.219   5.152   2.936  1.00  0.00     0.039 A 
ATOM     34  C   UNL     1       9.046   6.178   3.397  1.00  0.00     0.014 A 
ATOM     35  C   UNL     1       8.354   3.857   3.444  1.00  0.00     0.014 A 
ATOM     36  C   UNL     1       9.959   5.923   4.423  1.00  0.00     0.010 A 
ATOM     37  C   UNL     1       9.213   3.620   4.513  1.00  0.00     0.010 A 
ATOM     38  C   UNL     1      10.021   4.651   5.016  1.00  0.00    -0.014 A 
BRANCH  38  39
ATOM     39  C   UNL     1      10.923   4.384   6.166  1.00  0.00     0.031 A 
ATOM     40  C   UNL     1      12.058   3.408   6.025  1.00  0.00     0.074 A 
ATOM     41  C   UNL     1      10.689   4.982   7.351  1.00  0.00     0.049 A 
ATOM     42  N   UNL     1      12.912   2.996   6.927  1.00  0.00    -0.248 NA
ATOM     43  C   UNL     1      12.243   2.797   4.699  1.00  0.00     0.031 C 
ATOM     44  C   UNL     1       9.596   5.917   7.627  1.00  0.00     0.029 A 
ATOM     45  N   UNL     1      11.353   4.886   8.549  1.00  0.00    -0.354 N 
ATOM     46  C   UNL     1      13.731   2.079   6.280  1.00  0.00     0.074 A 
ATOM     47  C   UNL     1      13.234   1.948   4.928  1.00  0.00     0.031 C 
ATOM     48  C   UNL     1       9.682   6.329   8.903  1.00  0.00     0.029 A 
ATOM     49  C   UNL     1      10.809   5.662   9.545  1.00  0.00     0.049 A 
ATOM     50  H   UNL     1      12.145   4.316   8.682  1.00  0.00     0.167 HD
ATOM     51  C   UNL     1      14.817   1.429   6.761  1.00  0.00     0.037 A 
ATOM     52  C   UNL     1      11.179   5.812  10.831  1.00  0.00     0.037 A 
ATOM     53  C   UNL     1      15.322   1.572   8.101  1.00  0.00     0.049 A 
ATOM     54  C   UNL     1      12.376   5.056  11.344  1.00  0.00     0.074 A 
ATOM     55  C   UNL     1      16.430   0.974   8.676  1.00  0.00     0.029 A 
ATOM     56  N   UNL     1      14.752   2.377   9.076  1.00  0.00    -0.354 N 
ATOM     57  N   UNL     1      13.172   4.233  10.707  1.00  0.00    -0.248 NA
ATOM     58  C   UNL     1      12.728   5.257  12.757  1.00  0.00     0.031 C 
ATOM     59  C   UNL     1      16.512   1.391  10.008  1.00  0.00     0.029 A 
ATOM     60  C   UNL     1      15.480   2.283  10.251  1.00  0.00     0.049 A 
ATOM     61  H   UNL     1      13.949   2.933   8.952  1.00  0.00     0.167 HD
ATOM     62  C   UNL     1      14.138   3.848  11.627  1.00  0.00     0.074 A 
ATOM     63  C   UNL     1      13.837   4.539  12.863  1.00  0.00     0.031 C 
ATOM     64  C   UNL     1      15.180   2.997  11.465  1.00  0.00     0.037 A 
BRANCH  51  65
ATOM     65  C   UNL     1      15.549   0.515   5.823  1.00  0.00     0.064 A 
ATOM     66  C   UNL     1      16.309   1.021   4.757  1.00  0.00     0.173 A 
ATOM     67  C   UNL     1      15.534  -0.875   6.017  1.00  0.00     0.173 A 
ATOM     68  F   UNL     1      16.345   2.341   4.521  1.00  0.00    -0.203 F 
ATOM     69  C   UNL     1      17.008   0.169   3.907  1.00  0.00     0.198 A 
ATOM     70  C   UNL     1      16.259  -1.722   5.182  1.00  0.00     0.198 A 
ATOM     71  F   UNL     1      14.828  -1.410   7.024  1.00  0.00    -0.203 F 
ATOM     72  F   UNL     1      17.692   0.673   2.871  1.00  0.00    -0.200 F 
ATOM     73  C   UNL     1      16.990  -1.200   4.125  1.00  0.00     0.200 A 
ATOM     74  F   UNL     1      16.250  -3.044   5.401  1.00  0.00    -0.200 F 
ATOM     75  F   UNL     1      17.673  -2.018   3.313  1.00  0.00    -0.200 F 
ENDBRANCH  51  65
BRANCH  52  76
ATOM     76  C   UNL     1      10.429   6.732  11.727  1.00  0.00     0.064 A 
ATOM     77  C   UNL     1      11.025   7.906  12.211  1.00  0.00     0.173 A 
ATOM     78  C   UNL     1       9.125   6.441  12.152  1.00  0.00     0.173 A 
ATOM     79  F   UNL     1      12.280   8.216  11.852  1.00  0.00    -0.203 F 
ATOM     80  C   UNL     1      10.358   8.735  13.110  1.00  0.00     0.198 A 
ATOM     81  C   UNL     1       8.447   7.287  13.027  1.00  0.00     0.198 A 
ATOM     82  F   UNL     1       8.508   5.332  11.716  1.00  0.00    -0.203 F 
ATOM     83  F   UNL     1      10.976   9.817  13.604  1.00  0.00    -0.200 F 
ATOM     84  C   UNL     1       9.069   8.427  13.515  1.00  0.00     0.200 A 
ATOM     85  F   UNL     1       7.197   6.992  13.407  1.00  0.00    -0.200 F 
ATOM     86  F   UNL     1       8.430   9.220  14.386  1.00  0.00    -0.200 F 
ENDBRANCH  52  76
BRANCH  64  87
ATOM     87  C   UNL     1      16.100   2.807  12.635  1.00  0.00     0.064 A 
ATOM     88  C   UNL     1      15.707   2.089  13.774  1.00  0.00     0.173 A 
ATOM     89  C   UNL     1      17.404   3.324  12.601  1.00  0.00     0.173 A 
ATOM     90  F   UNL     1      14.465   1.588  13.860  1.00  0.00    -0.203 F 
ATOM     91  C   UNL     1      16.576   1.922  14.848  1.00  0.00     0.198 A 
ATOM     92  C   UNL     1      18.280   3.128  13.665  1.00  0.00     0.198 A 
ATOM     93  F   UNL     1      17.832   4.012  11.531  1.00  0.00    -0.203 F 
ATOM     94  F   UNL     1      16.161   1.277  15.948  1.00  0.00    -0.200 F 
ATOM     95  C   UNL     1      17.863   2.435  14.791  1.00  0.00     0.200 A 
ATOM     96  F   UNL     1      19.528   3.614  13.602  1.00  0.00    -0.200 F 
ATOM     97  F   UNL     1      18.699   2.268  15.825  1.00  0.00    -0.200 F 
ENDBRANCH  64  87
ENDBRANCH  38  39
ENDBRANCH  30  33
ENDBRANCH  28  29
ENDBRANCH  27  28
ENDBRANCH  26  27
ENDBRANCH   1  26
TORSDOF 17
