REMARK SMILES CC[C@H](C(=O)NCCCCNC(=O)c1ccc(-c2c3nc(c(-c4c(F)c(F)c(F)c(F)c4F)c4ccc([nH]4)c(-c4c(F)c(F)c(F)c(F)c4F)c4nc(c(-c5c(F)c(F)c(F)c(F)c5F)c5ccc2[nH]5)C=C4)C=C3)cc1)[N@H+](C)[C@H]1CC[C@H]([NH3+])CC1
REMARK SMILES IDX 8 1 7 2 6 3 4 4 5 5 3 7 2 8 1 9 77 10 78 11 79 13 80 14
REMARK SMILES IDX 85 15 81 16 84 17 82 18 83 19 9 23 10 24 11 25 12 26 13 28
REMARK SMILES IDX 14 29 15 30 76 31 16 32 75 33 17 34 18 35 19 36 69 37 20 38
REMARK SMILES IDX 74 39 68 40 70 41 21 42 73 43 67 44 66 45 22 47 54 48 34 49
REMARK SMILES IDX 53 50 35 51 38 52 52 53 71 54 36 55 37 56 51 58 72 59 39 60
REMARK SMILES IDX 23 61 24 62 32 63 25 64 26 65 30 66 33 67 27 68 28 69 31 70
REMARK SMILES IDX 29 71 55 72 56 73 64 74 57 75 58 76 62 77 65 78 59 79 60 80
REMARK SMILES IDX 63 81 61 82 40 83 41 84 49 85 42 86 43 87 47 88 50 89 44 90
REMARK SMILES IDX 45 91 48 92 46 93
REMARK H PARENT 6 6 77 12 83 20 83 21 83 22 11 27 70 46 38 57
REMARK Flexibility Score: inf
ROOT
ATOM      1  C   UNL     1       3.602  -0.232   0.612  1.00  0.00     0.023 C 
ENDROOT
BRANCH   1   2
ATOM      2  C   UNL     1       2.258  -0.621   0.008  1.00  0.00     0.116 C 
BRANCH   2   3
ATOM      3  N   UNL     1       1.443   0.546  -0.268  1.00  0.00    -0.351 N 
ATOM      4  C   UNL     1       0.690   0.828  -1.378  1.00  0.00     0.278 C 
ATOM      5  O   UNL     1       0.084   1.901  -1.387  1.00  0.00    -0.268 OA
ATOM      6  H   UNL     1       1.428   1.230   0.440  1.00  0.00     0.163 HD
BRANCH   4   7
ATOM      7  C   UNL     1       0.599  -0.244  -2.495  1.00  0.00     0.273 C 
BRANCH   7   8
ATOM      8  C   UNL     1      -0.289  -1.434  -2.037  1.00  0.00     0.072 C 
ATOM      9  C   UNL     1      -1.443  -1.116  -1.096  1.00  0.00     0.011 C 
ENDBRANCH   7   8
BRANCH   7  10
ATOM     10  N   UNL     1       0.284   0.370  -3.816  1.00  0.00    -0.325 N 
ATOM     11  C   UNL     1      -1.129   0.676  -4.002  1.00  0.00     0.333 C 
ATOM     12  H   UNL     1       0.716   1.294  -3.799  1.00  0.00     0.348 HD
BRANCH  10  13
ATOM     13  C   UNL     1       0.959  -0.293  -4.962  1.00  0.00     0.184 C 
ATOM     14  C   UNL     1       0.671   0.390  -6.319  1.00  0.00     0.071 C 
ATOM     15  C   UNL     1       0.717  -1.815  -5.053  1.00  0.00     0.071 C 
ATOM     16  C   UNL     1       1.378  -0.300  -7.490  1.00  0.00     0.071 C 
ATOM     17  C   UNL     1       1.409  -2.468  -6.245  1.00  0.00     0.071 C 
ATOM     18  C   UNL     1       1.009  -1.784  -7.548  1.00  0.00     0.181 C 
BRANCH  18  19
ATOM     19  N   UNL     1       1.663  -2.454  -8.668  1.00  0.00    -0.355 N 
ATOM     20  H   UNL     1       2.675  -2.397  -8.553  1.00  0.00     0.344 HD
ATOM     21  H   UNL     1       1.394  -1.998  -9.540  1.00  0.00     0.344 HD
ATOM     22  H   UNL     1       1.378  -3.432  -8.693  1.00  0.00     0.344 HD
ENDBRANCH  18  19
ENDBRANCH  10  13
ENDBRANCH   7  10
ENDBRANCH   4   7
ENDBRANCH   2   3
ENDBRANCH   1   2
BRANCH   1  23
ATOM     23  C   UNL     1       3.512   0.371   2.012  1.00  0.00     0.023 C 
BRANCH  23  24
ATOM     24  C   UNL     1       2.830  -0.518   3.045  1.00  0.00     0.116 C 
BRANCH  24  25
ATOM     25  N   UNL     1       3.527  -1.782   3.240  1.00  0.00    -0.352 N 
ATOM     26  C   UNL     1       4.039  -2.319   4.395  1.00  0.00     0.251 C 
ATOM     27  H   UNL     1       3.648  -2.327   2.430  1.00  0.00     0.163 HD
ATOM     28  O   UNL     1       4.758  -3.313   4.352  1.00  0.00    -0.269 OA
BRANCH  26  29
ATOM     29  C   UNL     1       3.743  -1.676   5.691  1.00  0.00     0.039 A 
ATOM     30  C   UNL     1       4.788  -1.450   6.590  1.00  0.00     0.014 A 
ATOM     31  C   UNL     1       2.442  -1.276   6.005  1.00  0.00     0.014 A 
ATOM     32  C   UNL     1       4.538  -0.756   7.775  1.00  0.00     0.010 A 
ATOM     33  C   UNL     1       2.212  -0.511   7.144  1.00  0.00     0.010 A 
ATOM     34  C   UNL     1       3.257  -0.245   8.042  1.00  0.00    -0.014 A 
BRANCH  34  35
ATOM     35  C   UNL     1       2.992   0.572   9.253  1.00  0.00     0.031 A 
ATOM     36  C   UNL     1       2.022   0.086  10.294  1.00  0.00     0.074 A 
ATOM     37  C   UNL     1       3.577   1.779   9.386  1.00  0.00     0.049 A 
ATOM     38  N   UNL     1       1.613   0.681  11.387  1.00  0.00    -0.248 NA
ATOM     39  C   UNL     1       1.410  -1.232  10.065  1.00  0.00     0.031 C 
ATOM     40  C   UNL     1       4.499   2.382   8.422  1.00  0.00     0.029 A 
ATOM     41  N   UNL     1       3.477   2.719  10.381  1.00  0.00    -0.354 N 
ATOM     42  C   UNL     1       0.693  -0.184  11.965  1.00  0.00     0.074 A 
ATOM     43  C   UNL     1       0.556  -1.315  11.073  1.00  0.00     0.031 C 
ATOM     44  C   UNL     1       4.900   3.576   8.885  1.00  0.00     0.029 A 
ATOM     45  C   UNL     1       4.232   3.844  10.154  1.00  0.00     0.049 A 
ATOM     46  H   UNL     1       2.916   2.599  11.181  1.00  0.00     0.167 HD
ATOM     47  C   UNL     1       0.041  -0.059  13.146  1.00  0.00     0.037 A 
ATOM     48  C   UNL     1       4.362   4.969  10.884  1.00  0.00     0.037 A 
ATOM     49  C   UNL     1       0.193   1.061  14.038  1.00  0.00     0.049 A 
ATOM     50  C   UNL     1       3.606   5.093  12.180  1.00  0.00     0.074 A 
ATOM     51  C   UNL     1      -0.381   1.256  15.282  1.00  0.00     0.029 A 
ATOM     52  N   UNL     1       0.971   2.179  13.777  1.00  0.00    -0.354 N 
ATOM     53  N   UNL     1       2.796   4.236  12.753  1.00  0.00    -0.248 NA
ATOM     54  C   UNL     1       3.788   6.341  12.935  1.00  0.00     0.031 C 
ATOM     55  C   UNL     1       0.004   2.517  15.748  1.00  0.00     0.029 A 
ATOM     56  C   UNL     1       0.869   3.081  14.824  1.00  0.00     0.049 A 
ATOM     57  H   UNL     1       1.515   2.313  12.967  1.00  0.00     0.167 HD
ATOM     58  C   UNL     1       2.398   4.825  13.945  1.00  0.00     0.074 A 
ATOM     59  C   UNL     1       3.069   6.106  14.023  1.00  0.00     0.031 C 
ATOM     60  C   UNL     1       1.551   4.349  14.891  1.00  0.00     0.037 A 
BRANCH  47  61
ATOM     61  C   UNL     1      -0.897  -1.163  13.543  1.00  0.00     0.064 A 
ATOM     62  C   UNL     1      -0.428  -2.441  13.886  1.00  0.00     0.173 A 
ATOM     63  C   UNL     1      -2.279  -0.932  13.618  1.00  0.00     0.173 A 
ATOM     64  F   UNL     1       0.883  -2.719  13.821  1.00  0.00    -0.203 F 
ATOM     65  C   UNL     1      -1.308  -3.453  14.258  1.00  0.00     0.198 A 
ATOM     66  C   UNL     1      -3.154  -1.937  14.024  1.00  0.00     0.198 A 
ATOM     67  F   UNL     1      -2.782   0.272  13.307  1.00  0.00    -0.203 F 
ATOM     68  F   UNL     1      -0.841  -4.679  14.530  1.00  0.00    -0.200 F 
ATOM     69  C   UNL     1      -2.669  -3.198  14.335  1.00  0.00     0.200 A 
ATOM     70  F   UNL     1      -4.467  -1.684  14.113  1.00  0.00    -0.200 F 
ATOM     71  F   UNL     1      -3.515  -4.170  14.703  1.00  0.00    -0.200 F 
ENDBRANCH  47  61
BRANCH  48  72
ATOM     72  C   UNL     1       5.256   6.062  10.418  1.00  0.00     0.064 A 
ATOM     73  C   UNL     1       6.430   6.380  11.116  1.00  0.00     0.173 A 
ATOM     74  C   UNL     1       4.952   6.821   9.278  1.00  0.00     0.173 A 
ATOM     75  F   UNL     1       6.755   5.698  12.224  1.00  0.00    -0.203 F 
ATOM     76  C   UNL     1       7.249   7.431  10.709  1.00  0.00     0.198 A 
ATOM     77  C   UNL     1       5.789   7.850   8.852  1.00  0.00     0.198 A 
ATOM     78  F   UNL     1       3.844   6.555   8.569  1.00  0.00    -0.203 F 
ATOM     79  F   UNL     1       8.335   7.748  11.428  1.00  0.00    -0.200 F 
ATOM     80  C   UNL     1       6.931   8.162   9.574  1.00  0.00     0.200 A 
ATOM     81  F   UNL     1       5.486   8.543   7.746  1.00  0.00    -0.200 F 
ATOM     82  F   UNL     1       7.720   9.171   9.182  1.00  0.00    -0.200 F 
ENDBRANCH  48  72
BRANCH  60  83
ATOM     83  C   UNL     1       1.331   5.198  16.111  1.00  0.00     0.064 A 
ATOM     84  C   UNL     1       0.613   6.401  16.056  1.00  0.00     0.173 A 
ATOM     85  C   UNL     1       1.815   4.779  17.361  1.00  0.00     0.173 A 
ATOM     86  F   UNL     1       0.142   6.853  14.884  1.00  0.00    -0.203 F 
ATOM     87  C   UNL     1       0.411   7.168  17.201  1.00  0.00     0.198 A 
ATOM     88  C   UNL     1       1.581   5.531  18.509  1.00  0.00     0.198 A 
ATOM     89  F   UNL     1       2.502   3.632  17.472  1.00  0.00    -0.203 F 
ATOM     90  F   UNL     1      -0.232   8.340  17.114  1.00  0.00    -0.200 F 
ATOM     91  C   UNL     1       0.887   6.728  18.427  1.00  0.00     0.200 A 
ATOM     92  F   UNL     1       2.027   5.095  19.696  1.00  0.00    -0.200 F 
ATOM     93  F   UNL     1       0.684   7.463  19.529  1.00  0.00    -0.200 F 
ENDBRANCH  60  83
ENDBRANCH  34  35
ENDBRANCH  26  29
ENDBRANCH  24  25
ENDBRANCH  23  24
ENDBRANCH   1  23
TORSDOF 15
