REMARK SMILES Cc1cc(OCC(=O)NCCCCNC(=O)c2ccc(-c3c4nc(c(-c5c(F)c(F)c(F)c(F)c5F)c5ccc([nH]5)c(-c5c(F)c(F)c(F)c(F)c5F)c5nc(c(-c6c(F)c(F)c(F)c(F)c6F)c6ccc3[nH]6)C=C5)C=C4)cc2)nc(-n2nc(C)cc2C)n1
REMARK SMILES IDX 11 1 10 2 9 3 7 4 8 5 6 7 5 8 4 9 1 10 2 11 3 12 89 13 81 14
REMARK SMILES IDX 80 15 82 16 83 17 87 18 84 19 86 20 88 21 85 22 12 23 13 24
REMARK SMILES IDX 14 25 15 26 16 28 17 29 18 30 79 31 19 32 78 33 20 34 21 35
REMARK SMILES IDX 22 36 72 37 23 38 77 39 71 40 73 41 24 42 76 43 70 44 69 45
REMARK SMILES IDX 25 47 57 48 37 49 56 50 38 51 41 52 55 53 74 54 39 55 40 56
REMARK SMILES IDX 54 58 75 59 42 60 26 61 27 62 35 63 28 64 29 65 33 66 36 67
REMARK SMILES IDX 30 68 31 69 34 70 32 71 58 72 59 73 67 74 60 75 61 76 65 77
REMARK SMILES IDX 68 78 62 79 63 80 66 81 64 82 43 83 44 84 52 85 45 86 46 87
REMARK SMILES IDX 50 88 53 89 47 90 48 91 51 92 49 93
REMARK H PARENT 9 6 14 27 73 46 41 57
REMARK Flexibility Score: inf
ROOT
ATOM      1  C   UNL     1       2.781  -2.007   3.277  1.00  0.00     0.023 C 
ENDROOT
BRANCH   1   2
ATOM      2  C   UNL     1       2.660  -3.339   2.537  1.00  0.00     0.116 C 
BRANCH   2   3
ATOM      3  N   UNL     1       1.278  -3.728   2.335  1.00  0.00    -0.353 N 
ATOM      4  C   UNL     1       0.582  -3.820   1.167  1.00  0.00     0.258 C 
ATOM      5  O   UNL     1      -0.600  -4.168   1.213  1.00  0.00    -0.271 OA
ATOM      6  H   UNL     1       0.776  -3.957   3.150  1.00  0.00     0.163 HD
BRANCH   4   7
ATOM      7  C   UNL     1       1.271  -3.517  -0.173  1.00  0.00     0.331 C 
BRANCH   7   8
ATOM      8  O   UNL     1       1.824  -2.231  -0.374  1.00  0.00    -0.467 OA
BRANCH   8   9
ATOM      9  C   UNL     1       1.001  -1.147  -0.273  1.00  0.00     0.218 A 
ATOM     10  C   UNL     1      -2.521   0.046   0.120  1.00  0.00     0.067 C 
ATOM     11  C   UNL     1      -1.024  -0.015   0.071  1.00  0.00     0.047 A 
ATOM     12  C   UNL     1      -0.373  -1.199  -0.201  1.00  0.00     0.092 A 
ATOM     13  N   UNL     1      -0.362   1.142   0.248  1.00  0.00    -0.216 NA
ATOM     14  C   UNL     1       0.975   1.124   0.038  1.00  0.00     0.254 A 
ATOM     15  N   UNL     1       1.683   0.008  -0.224  1.00  0.00    -0.175 NA
BRANCH  14  16
ATOM     16  N   UNL     1       1.660   2.389   0.072  1.00  0.00    -0.203 N 
ATOM     17  N   UNL     1       2.685   2.677  -0.786  1.00  0.00    -0.170 NA
ATOM     18  C   UNL     1       1.353   3.486   0.869  1.00  0.00     0.045 A 
ATOM     19  C   UNL     1       2.857   3.999  -0.674  1.00  0.00     0.060 A 
ATOM     20  C   UNL     1       2.088   4.541   0.374  1.00  0.00     0.049 A 
ATOM     21  C   UNL     1       0.446   3.415   2.041  1.00  0.00     0.067 C 
ATOM     22  C   UNL     1       3.774   4.721  -1.590  1.00  0.00     0.069 C 
ENDBRANCH  14  16
ENDBRANCH   8   9
ENDBRANCH   7   8
ENDBRANCH   4   7
ENDBRANCH   2   3
ENDBRANCH   1   2
BRANCH   1  23
ATOM     23  C   UNL     1       2.158  -1.977   4.676  1.00  0.00     0.023 C 
BRANCH  23  24
ATOM     24  C   UNL     1       2.631  -3.062   5.639  1.00  0.00     0.116 C 
BRANCH  24  25
ATOM     25  N   UNL     1       4.059  -3.011   5.905  1.00  0.00    -0.352 N 
ATOM     26  C   UNL     1       4.728  -3.051   7.104  1.00  0.00     0.251 C 
ATOM     27  H   UNL     1       4.632  -2.937   5.107  1.00  0.00     0.163 HD
ATOM     28  O   UNL     1       5.944  -2.870   7.135  1.00  0.00    -0.269 OA
BRANCH  26  29
ATOM     29  C   UNL     1       3.991  -3.275   8.367  1.00  0.00     0.039 A 
ATOM     30  C   UNL     1       4.297  -2.477   9.474  1.00  0.00     0.014 A 
ATOM     31  C   UNL     1       3.008  -4.262   8.470  1.00  0.00     0.014 A 
ATOM     32  C   UNL     1       3.568  -2.619  10.658  1.00  0.00     0.010 A 
ATOM     33  C   UNL     1       2.231  -4.351   9.625  1.00  0.00     0.010 A 
ATOM     34  C   UNL     1       2.501  -3.530  10.730  1.00  0.00    -0.014 A 
BRANCH  34  35
ATOM     35  C   UNL     1       1.654  -3.626  11.949  1.00  0.00     0.031 A 
ATOM     36  C   UNL     1       1.606  -4.902  12.744  1.00  0.00     0.074 A 
ATOM     37  C   UNL     1       0.879  -2.583  12.306  1.00  0.00     0.049 A 
ATOM     38  N   UNL     1       0.882  -5.196  13.796  1.00  0.00    -0.248 NA
ATOM     39  C   UNL     1       2.466  -6.001  12.281  1.00  0.00     0.031 C 
ATOM     40  C   UNL     1       0.801  -1.306  11.595  1.00  0.00     0.029 A 
ATOM     41  N   UNL     1       0.001  -2.434  13.352  1.00  0.00    -0.354 N 
ATOM     42  C   UNL     1       1.193  -6.513  14.112  1.00  0.00     0.074 A 
ATOM     43  C   UNL     1       2.124  -6.979  13.107  1.00  0.00     0.031 C 
ATOM     44  C   UNL     1      -0.055  -0.496  12.238  1.00  0.00     0.029 A 
ATOM     45  C   UNL     1      -0.621  -1.209  13.379  1.00  0.00     0.049 A 
ATOM     46  H   UNL     1      -0.167  -3.138  14.019  1.00  0.00     0.167 HD
ATOM     47  C   UNL     1       0.760  -7.257  15.158  1.00  0.00     0.037 A 
ATOM     48  C   UNL     1      -1.549  -0.718  14.223  1.00  0.00     0.037 A 
ATOM     49  C   UNL     1      -0.156  -6.785  16.165  1.00  0.00     0.049 A 
ATOM     50  C   UNL     1      -2.033  -1.576  15.362  1.00  0.00     0.074 A 
ATOM     51  C   UNL     1      -0.613  -7.445  17.292  1.00  0.00     0.029 A 
ATOM     52  N   UNL     1      -0.760  -5.536  16.161  1.00  0.00    -0.354 N 
ATOM     53  N   UNL     1      -1.679  -2.794  15.691  1.00  0.00    -0.248 NA
ATOM     54  C   UNL     1      -3.043  -0.985  16.252  1.00  0.00     0.031 C 
ATOM     55  C   UNL     1      -1.538  -6.619  17.939  1.00  0.00     0.029 A 
ATOM     56  C   UNL     1      -1.608  -5.418  17.252  1.00  0.00     0.049 A 
ATOM     57  H   UNL     1      -0.609  -4.838  15.485  1.00  0.00     0.167 HD
ATOM     58  C   UNL     1      -2.394  -3.103  16.841  1.00  0.00     0.074 A 
ATOM     59  C   UNL     1      -3.192  -1.937  17.161  1.00  0.00     0.031 C 
ATOM     60  C   UNL     1      -2.391  -4.249  17.566  1.00  0.00     0.037 A 
BRANCH  47  61
ATOM     61  C   UNL     1       1.272  -8.666  15.268  1.00  0.00     0.064 A 
ATOM     62  C   UNL     1       2.616  -8.941  15.566  1.00  0.00     0.173 A 
ATOM     63  C   UNL     1       0.402  -9.755  15.109  1.00  0.00     0.173 A 
ATOM     64  F   UNL     1       3.493  -7.938  15.719  1.00  0.00    -0.203 F 
ATOM     65  C   UNL     1       3.075 -10.252  15.667  1.00  0.00     0.198 A 
ATOM     66  C   UNL     1       0.857 -11.064  15.245  1.00  0.00     0.198 A 
ATOM     67  F   UNL     1      -0.894  -9.551  14.831  1.00  0.00    -0.203 F 
ATOM     68  F   UNL     1       4.374 -10.489  15.897  1.00  0.00    -0.200 F 
ATOM     69  C   UNL     1       2.195 -11.312  15.514  1.00  0.00     0.200 A 
ATOM     70  F   UNL     1       0.001 -12.087  15.113  1.00  0.00    -0.200 F 
ATOM     71  F   UNL     1       2.637 -12.573  15.619  1.00  0.00    -0.200 F 
ENDBRANCH  47  61
BRANCH  48  72
ATOM     72  C   UNL     1      -2.071   0.662  14.037  1.00  0.00     0.064 A 
ATOM     73  C   UNL     1      -1.787   1.672  14.967  1.00  0.00     0.173 A 
ATOM     74  C   UNL     1      -2.874   0.998  12.937  1.00  0.00     0.173 A 
ATOM     75  F   UNL     1      -1.041   1.396  16.047  1.00  0.00    -0.203 F 
ATOM     76  C   UNL     1      -2.306   2.956  14.818  1.00  0.00     0.198 A 
ATOM     77  C   UNL     1      -3.366   2.291  12.772  1.00  0.00     0.198 A 
ATOM     78  F   UNL     1      -3.174   0.071  12.015  1.00  0.00    -0.203 F 
ATOM     79  F   UNL     1      -2.062   3.887  15.751  1.00  0.00    -0.200 F 
ATOM     80  C   UNL     1      -3.090   3.267  13.718  1.00  0.00     0.200 A 
ATOM     81  F   UNL     1      -4.110   2.591  11.698  1.00  0.00    -0.200 F 
ATOM     82  F   UNL     1      -3.587   4.503  13.573  1.00  0.00    -0.200 F 
ENDBRANCH  48  72
BRANCH  60  83
ATOM     83  C   UNL     1      -3.241  -4.286  18.804  1.00  0.00     0.064 A 
ATOM     84  C   UNL     1      -4.643  -4.314  18.740  1.00  0.00     0.173 A 
ATOM     85  C   UNL     1      -2.643  -4.330  20.073  1.00  0.00     0.173 A 
ATOM     86  F   UNL     1      -5.265  -4.259  17.553  1.00  0.00    -0.203 F 
ATOM     87  C   UNL     1      -5.412  -4.355  19.900  1.00  0.00     0.198 A 
ATOM     88  C   UNL     1      -3.415  -4.407  21.229  1.00  0.00     0.198 A 
ATOM     89  F   UNL     1      -1.307  -4.313  20.192  1.00  0.00    -0.203 F 
ATOM     90  F   UNL     1      -6.749  -4.325  19.816  1.00  0.00    -0.200 F 
ATOM     91  C   UNL     1      -4.798  -4.409  21.142  1.00  0.00     0.200 A 
ATOM     92  F   UNL     1      -2.819  -4.476  22.427  1.00  0.00    -0.200 F 
ATOM     93  F   UNL     1      -5.540  -4.457  22.257  1.00  0.00    -0.200 F 
ENDBRANCH  60  83
ENDBRANCH  34  35
ENDBRANCH  26  29
ENDBRANCH  24  25
ENDBRANCH  23  24
ENDBRANCH   1  23
TORSDOF 14
