REMARK SMILES Cc1ccc(C(C)(C)C)c(OCC(=O)c2nc(C)c(C(=O)NCCCCNC(=O)c3ccc(-c4c5nc(c(-c6c(F)c(F)c(F)c(F)c6F)c6ccc([nH]6)c(-c6c(F)c(F)c(F)c(F)c6F)c6nc(c(-c7c(F)c(F)c(F)c(F)c7F)c7ccc4[nH]7)C=C6)C=C5)cc3)s2)c1
REMARK SMILES IDX 23 1 22 2 20 3 21 4 19 6 15 7 16 8 93 9 17 10 18 11 13 12
REMARK SMILES IDX 14 13 12 14 11 15 10 16 1 17 2 18 3 19 94 20 4 21 5 22 6 23
REMARK SMILES IDX 7 24 8 25 9 26 24 27 25 28 26 29 27 30 28 31 29 33 30 34
REMARK SMILES IDX 31 35 92 36 32 37 91 38 33 39 34 40 35 41 85 42 36 43 90 44
REMARK SMILES IDX 84 45 86 46 37 47 89 48 83 49 82 50 38 52 70 53 50 54 69 55
REMARK SMILES IDX 51 56 54 57 68 58 87 59 52 60 53 61 67 63 88 64 55 65 39 66
REMARK SMILES IDX 40 67 48 68 41 69 42 70 46 71 49 72 43 73 44 74 47 75 45 76
REMARK SMILES IDX 71 77 72 78 80 79 73 80 74 81 78 82 81 83 75 84 76 85 79 86
REMARK SMILES IDX 77 87 56 88 57 89 65 90 58 91 59 92 63 93 66 94 60 95 61 96
REMARK SMILES IDX 64 97 62 98
REMARK H PARENT 22 5 27 32 86 51 54 62
REMARK Flexibility Score: inf
ROOT
ATOM      1  C   UNL     1      -2.277   4.194   7.660  1.00  0.00     0.116 C 
ENDROOT
BRANCH   1   2
ATOM      2  N   UNL     1      -2.973   3.353   6.718  1.00  0.00    -0.351 N 
ATOM      3  C   UNL     1      -2.843   3.082   5.381  1.00  0.00     0.263 C 
ATOM      4  O   UNL     1      -3.688   2.259   5.003  1.00  0.00    -0.268 OA
ATOM      5  H   UNL     1      -3.716   2.858   7.133  1.00  0.00     0.163 HD
BRANCH   3   6
ATOM      6  C   UNL     1      -1.848   3.651   4.469  1.00  0.00     0.115 A 
ATOM      7  C   UNL     1      -0.628   3.933   2.333  1.00  0.00     0.164 A 
ATOM      8  N   UNL     1      -0.147   4.729   3.254  1.00  0.00    -0.237 NA
ATOM      9  S   UNL     1      -1.906   2.958   2.854  1.00  0.00    -0.105 S 
ATOM     10  C   UNL     1      -0.843   4.618   4.455  1.00  0.00     0.062 A 
ATOM     11  C   UNL     1      -0.336   5.586   5.456  1.00  0.00     0.068 C 
BRANCH   7  12
ATOM     12  C   UNL     1      -0.059   3.915   0.992  1.00  0.00     0.228 C 
ATOM     13  O   UNL     1       1.107   4.257   0.758  1.00  0.00    -0.288 OA
BRANCH  12  14
ATOM     14  C   UNL     1      -0.968   3.582  -0.199  1.00  0.00     0.313 C 
BRANCH  14  15
ATOM     15  O   UNL     1      -1.687   2.370  -0.257  1.00  0.00    -0.485 OA
BRANCH  15  16
ATOM     16  C   UNL     1      -1.029   1.175  -0.217  1.00  0.00     0.123 A 
ATOM     17  C   UNL     1       2.534  -0.214  -0.132  1.00  0.00     0.044 C 
ATOM     18  C   UNL     1       1.035  -0.141  -0.125  1.00  0.00    -0.047 A 
ATOM     19  C   UNL     1       0.277  -1.296   0.011  1.00  0.00     0.004 A 
ATOM     20  C   UNL     1       0.374   1.082  -0.270  1.00  0.00     0.050 A 
ATOM     21  C   UNL     1      -1.118  -1.222   0.011  1.00  0.00     0.008 A 
ATOM     22  C   UNL     1      -1.814   0.006  -0.099  1.00  0.00    -0.000 A 
BRANCH  22  23
ATOM     23  C   UNL     1      -3.366  -0.047  -0.098  1.00  0.00    -0.010 C 
ATOM     24  C   UNL     1      -3.832  -0.851  -1.336  1.00  0.00     0.016 C 
ATOM     25  C   UNL     1      -3.861  -0.758   1.185  1.00  0.00     0.016 C 
ATOM     26  C   UNL     1      -4.123   1.300  -0.159  1.00  0.00     0.016 C 
ENDBRANCH  22  23
ENDBRANCH  15  16
ENDBRANCH  14  15
ENDBRANCH  12  14
ENDBRANCH   7  12
ENDBRANCH   3   6
ENDBRANCH   1   2
BRANCH   1  27
ATOM     27  C   UNL     1      -2.878   5.608   7.715  1.00  0.00     0.023 C 
BRANCH  27  28
ATOM     28  C   UNL     1      -4.163   5.740   8.535  1.00  0.00     0.023 C 
BRANCH  28  29
ATOM     29  C   UNL     1      -3.916   5.664  10.034  1.00  0.00     0.116 C 
BRANCH  29  30
ATOM     30  N   UNL     1      -3.504   6.912  10.663  1.00  0.00    -0.352 N 
ATOM     31  C   UNL     1      -2.912   7.129  11.902  1.00  0.00     0.251 C 
ATOM     32  H   UNL     1      -3.671   7.724  10.132  1.00  0.00     0.163 HD
ATOM     33  O   UNL     1      -2.736   8.264  12.305  1.00  0.00    -0.269 OA
BRANCH  31  34
ATOM     34  C   UNL     1      -2.366   5.975  12.668  1.00  0.00     0.039 A 
ATOM     35  C   UNL     1      -1.094   6.104  13.242  1.00  0.00     0.014 A 
ATOM     36  C   UNL     1      -2.985   4.731  12.635  1.00  0.00     0.014 A 
ATOM     37  C   UNL     1      -0.351   4.958  13.524  1.00  0.00     0.010 A 
ATOM     38  C   UNL     1      -2.209   3.600  12.784  1.00  0.00     0.010 A 
ATOM     39  C   UNL     1      -0.871   3.714  13.168  1.00  0.00    -0.014 A 
BRANCH  39  40
ATOM     40  C   UNL     1      -0.055   2.512  13.032  1.00  0.00     0.031 A 
ATOM     41  C   UNL     1      -0.200   1.378  13.968  1.00  0.00     0.074 A 
ATOM     42  C   UNL     1       0.774   2.387  11.970  1.00  0.00     0.049 A 
ATOM     43  N   UNL     1       0.755   0.553  14.247  1.00  0.00    -0.248 NA
ATOM     44  C   UNL     1      -1.438   1.089  14.682  1.00  0.00     0.031 C 
ATOM     45  C   UNL     1       1.438   1.170  11.509  1.00  0.00     0.029 A 
ATOM     46  N   UNL     1       1.325   3.406  11.175  1.00  0.00    -0.354 N 
ATOM     47  C   UNL     1       0.201  -0.504  14.930  1.00  0.00     0.074 A 
ATOM     48  C   UNL     1      -1.152  -0.095  15.233  1.00  0.00     0.031 C 
ATOM     49  C   UNL     1       2.488   1.509  10.745  1.00  0.00     0.029 A 
ATOM     50  C   UNL     1       2.614   2.954  10.807  1.00  0.00     0.049 A 
ATOM     51  H   UNL     1       0.901   4.259  10.924  1.00  0.00     0.167 HD
ATOM     52  C   UNL     1       0.887  -1.677  15.045  1.00  0.00     0.037 A 
ATOM     53  C   UNL     1       3.744   3.625  11.172  1.00  0.00     0.037 A 
ATOM     54  C   UNL     1       2.179  -1.615  14.372  1.00  0.00     0.049 A 
ATOM     55  C   UNL     1       4.714   2.803  11.985  1.00  0.00     0.074 A 
ATOM     56  C   UNL     1       2.590  -2.036  13.118  1.00  0.00     0.029 A 
ATOM     57  N   UNL     1       3.179  -0.777  14.853  1.00  0.00    -0.354 N 
ATOM     58  N   UNL     1       4.384   1.715  12.620  1.00  0.00    -0.248 NA
ATOM     59  C   UNL     1       6.111   3.172  12.195  1.00  0.00     0.031 C 
ATOM     60  C   UNL     1       3.836  -1.434  12.834  1.00  0.00     0.029 A 
ATOM     61  C   UNL     1       4.187  -0.647  13.917  1.00  0.00     0.049 A 
ATOM     62  H   UNL     1       3.170  -0.339  15.735  1.00  0.00     0.167 HD
ATOM     63  C   UNL     1       5.457   1.268  13.347  1.00  0.00     0.074 A 
ATOM     64  C   UNL     1       6.522   2.198  13.025  1.00  0.00     0.031 C 
ATOM     65  C   UNL     1       5.355   0.181  14.167  1.00  0.00     0.037 A 
BRANCH  52  66
ATOM     66  C   UNL     1       0.228  -2.961  15.488  1.00  0.00     0.064 A 
ATOM     67  C   UNL     1       0.550  -4.198  14.891  1.00  0.00     0.173 A 
ATOM     68  C   UNL     1      -0.775  -3.018  16.472  1.00  0.00     0.173 A 
ATOM     69  F   UNL     1       1.558  -4.317  14.019  1.00  0.00    -0.203 F 
ATOM     70  C   UNL     1      -0.166  -5.367  15.158  1.00  0.00     0.198 A 
ATOM     71  C   UNL     1      -1.527  -4.175  16.702  1.00  0.00     0.198 A 
ATOM     72  F   UNL     1      -1.038  -1.958  17.250  1.00  0.00    -0.203 F 
ATOM     73  F   UNL     1       0.172  -6.508  14.543  1.00  0.00    -0.200 F 
ATOM     74  C   UNL     1      -1.232  -5.346  16.033  1.00  0.00     0.200 A 
ATOM     75  F   UNL     1      -2.550  -4.142  17.569  1.00  0.00    -0.200 F 
ATOM     76  F   UNL     1      -1.958  -6.452  16.243  1.00  0.00    -0.200 F 
ENDBRANCH  52  66
BRANCH  53  77
ATOM     77  C   UNL     1       3.529   5.083  11.348  1.00  0.00     0.064 A 
ATOM     78  C   UNL     1       3.161   5.847  10.225  1.00  0.00     0.173 A 
ATOM     79  C   UNL     1       3.301   5.636  12.614  1.00  0.00     0.173 A 
ATOM     80  F   UNL     1       3.349   5.355   8.989  1.00  0.00    -0.203 F 
ATOM     81  C   UNL     1       2.487   7.058  10.363  1.00  0.00     0.198 A 
ATOM     82  C   UNL     1       2.636   6.856  12.748  1.00  0.00     0.198 A 
ATOM     83  F   UNL     1       3.608   4.946  13.721  1.00  0.00    -0.203 F 
ATOM     84  F   UNL     1       2.043   7.703   9.275  1.00  0.00    -0.200 F 
ATOM     85  C   UNL     1       2.201   7.547  11.626  1.00  0.00     0.200 A 
ATOM     86  F   UNL     1       2.327   7.314  13.970  1.00  0.00    -0.200 F 
ATOM     87  F   UNL     1       1.465   8.659  11.764  1.00  0.00    -0.200 F 
ENDBRANCH  53  77
BRANCH  65  88
ATOM     88  C   UNL     1       6.366  -0.271  15.195  1.00  0.00     0.064 A 
ATOM     89  C   UNL     1       7.278   0.586  15.833  1.00  0.00     0.173 A 
ATOM     90  C   UNL     1       6.344  -1.602  15.682  1.00  0.00     0.173 A 
ATOM     91  F   UNL     1       7.318   1.895  15.554  1.00  0.00    -0.203 F 
ATOM     92  C   UNL     1       8.144   0.134  16.834  1.00  0.00     0.198 A 
ATOM     93  C   UNL     1       7.167  -2.035  16.721  1.00  0.00     0.198 A 
ATOM     94  F   UNL     1       5.501  -2.519  15.184  1.00  0.00    -0.203 F 
ATOM     95  F   UNL     1       9.024   0.984  17.381  1.00  0.00    -0.200 F 
ATOM     96  C   UNL     1       8.080  -1.171  17.286  1.00  0.00     0.200 A 
ATOM     97  F   UNL     1       7.053  -3.288  17.183  1.00  0.00    -0.200 F 
ATOM     98  F   UNL     1       8.879  -1.586  18.277  1.00  0.00    -0.200 F 
ENDBRANCH  65  88
ENDBRANCH  39  40
ENDBRANCH  31  34
ENDBRANCH  29  30
ENDBRANCH  28  29
ENDBRANCH  27  28
ENDBRANCH   1  27
TORSDOF 16
