REMARK SMILES N#Cc1ccc(C(F)(F)F)nc1N1CCOC[C@H]1C(=O)NCCCCNC(=O)c1ccc(-c2c3nc(c(-c4c(F)c(F)c(F)c(F)c4F)c4ccc([nH]4)c(-c4c(F)c(F)c(F)c(F)c4F)c4nc(c(-c5c(F)c(F)c(F)c(F)c5F)c5ccc2[nH]5)C=C4)C=C3)cc1
REMARK SMILES IDX 23 1 22 2 21 3 19 4 20 5 18 7 13 8 14 9 15 10 17 11 16 12
REMARK SMILES IDX 12 13 3 14 4 15 5 16 11 17 6 18 2 19 1 20 7 21 8 22 9 23
REMARK SMILES IDX 10 24 24 25 25 26 26 27 27 28 28 30 29 31 30 32 91 33 31 34
REMARK SMILES IDX 90 35 32 36 33 37 34 38 84 39 35 40 89 41 83 42 85 43 36 44
REMARK SMILES IDX 88 45 82 46 81 47 37 49 69 50 49 51 68 52 50 53 53 54 67 55
REMARK SMILES IDX 86 56 51 57 52 58 66 60 87 61 54 62 38 63 39 64 47 65 40 66
REMARK SMILES IDX 41 67 45 68 48 69 42 70 43 71 46 72 44 73 70 74 71 75 79 76
REMARK SMILES IDX 72 77 73 78 77 79 80 80 74 81 75 82 78 83 76 84 55 85 56 86
REMARK SMILES IDX 64 87 57 88 58 89 62 90 65 91 59 92 60 93 63 94 61 95
REMARK H PARENT 21 6 26 29 85 48 53 59
REMARK Flexibility Score: inf
ROOT
ATOM      1  C   UNL     1       0.742  -4.139   3.456  1.00  0.00     0.023 C 
ENDROOT
BRANCH   1   2
ATOM      2  C   UNL     1       0.944  -5.020   2.220  1.00  0.00     0.116 C 
BRANCH   2   3
ATOM      3  N   UNL     1      -0.210  -4.992   1.350  1.00  0.00    -0.354 N 
ATOM      4  C   UNL     1      -0.510  -4.330   0.200  1.00  0.00     0.245 C 
ATOM      5  O   UNL     1      -1.614  -4.634  -0.282  1.00  0.00    -0.273 OA
ATOM      6  H   UNL     1      -0.937  -5.582   1.655  1.00  0.00     0.163 HD
BRANCH   4   7
ATOM      7  C   UNL     1       0.411  -3.353  -0.575  1.00  0.00     0.199 C 
ATOM      8  N   UNL     1       0.740  -2.057   0.068  1.00  0.00    -0.339 N 
ATOM      9  C   UNL     1       1.873  -2.045   0.983  1.00  0.00     0.147 C 
ATOM     10  C   UNL     1       3.091  -2.727   0.355  1.00  0.00     0.181 C 
ATOM     11  C   UNL     1       1.703  -4.027  -1.088  1.00  0.00     0.195 C 
ATOM     12  O   UNL     1       2.791  -4.037  -0.148  1.00  0.00    -0.377 OA
BRANCH   8  13
ATOM     13  C   UNL     1      -0.035  -0.929  -0.112  1.00  0.00     0.148 A 
ATOM     14  C   UNL     1       0.518   0.358  -0.247  1.00  0.00     0.095 A 
ATOM     15  C   UNL     1      -0.312   1.480  -0.236  1.00  0.00     0.025 A 
ATOM     16  C   UNL     1      -1.684   1.312  -0.165  1.00  0.00     0.035 A 
ATOM     17  N   UNL     1      -1.381  -1.086  -0.116  1.00  0.00    -0.225 NA
ATOM     18  C   UNL     1      -2.199   0.018  -0.142  1.00  0.00     0.146 A 
BRANCH  14  19
ATOM     19  C   UNL     1       1.920   0.579  -0.451  1.00  0.00     0.103 C 
ATOM     20  N   UNL     1       3.056   0.761  -0.588  1.00  0.00    -0.192 NA
ENDBRANCH  14  19
BRANCH  18  21
ATOM     21  C   UNL     1      -3.717  -0.158  -0.143  1.00  0.00     0.433 C 
ATOM     22  F   UNL     1      -4.184  -0.816  -1.241  1.00  0.00    -0.165 F 
ATOM     23  F   UNL     1      -4.186  -0.831   0.945  1.00  0.00    -0.165 F 
ATOM     24  F   UNL     1      -4.385   1.039  -0.137  1.00  0.00    -0.165 F 
ENDBRANCH  18  21
ENDBRANCH   8  13
ENDBRANCH   4   7
ENDBRANCH   2   3
ENDBRANCH   1   2
BRANCH   1  25
ATOM     25  C   UNL     1       0.323  -4.893   4.704  1.00  0.00     0.023 C 
BRANCH  25  26
ATOM     26  C   UNL     1       1.341  -5.919   5.164  1.00  0.00     0.116 C 
BRANCH  26  27
ATOM     27  N   UNL     1       2.648  -5.360   5.490  1.00  0.00    -0.352 N 
ATOM     28  C   UNL     1       3.471  -5.718   6.534  1.00  0.00     0.251 C 
ATOM     29  H   UNL     1       2.979  -4.647   4.897  1.00  0.00     0.163 HD
ATOM     30  O   UNL     1       4.499  -5.099   6.779  1.00  0.00    -0.269 OA
BRANCH  28  31
ATOM     31  C   UNL     1       3.054  -6.854   7.377  1.00  0.00     0.039 A 
ATOM     32  C   UNL     1       3.005  -6.699   8.761  1.00  0.00     0.014 A 
ATOM     33  C   UNL     1       2.599  -8.027   6.771  1.00  0.00     0.014 A 
ATOM     34  C   UNL     1       2.453  -7.717   9.536  1.00  0.00     0.010 A 
ATOM     35  C   UNL     1       1.921  -8.967   7.528  1.00  0.00     0.010 A 
ATOM     36  C   UNL     1       1.882  -8.847   8.923  1.00  0.00    -0.014 A 
BRANCH  36  37
ATOM     37  C   UNL     1       1.320  -9.958   9.727  1.00  0.00     0.031 A 
ATOM     38  C   UNL     1       1.925 -11.333   9.605  1.00  0.00     0.074 A 
ATOM     39  C   UNL     1       0.269  -9.743  10.541  1.00  0.00     0.049 A 
ATOM     40  N   UNL     1       1.584 -12.446  10.203  1.00  0.00    -0.248 NA
ATOM     41  C   UNL     1       3.043 -11.488   8.657  1.00  0.00     0.031 C 
ATOM     42  C   UNL     1      -0.434  -8.470  10.704  1.00  0.00     0.029 A 
ATOM     43  N   UNL     1      -0.387 -10.595  11.393  1.00  0.00    -0.354 N 
ATOM     44  C   UNL     1       2.439 -13.418   9.701  1.00  0.00     0.074 A 
ATOM     45  C   UNL     1       3.245 -12.794   8.679  1.00  0.00     0.031 C 
ATOM     46  C   UNL     1      -1.389  -8.611  11.639  1.00  0.00     0.029 A 
ATOM     47  C   UNL     1      -1.394  -9.993  12.107  1.00  0.00     0.049 A 
ATOM     48  H   UNL     1      -0.157 -11.548  11.484  1.00  0.00     0.167 HD
ATOM     49  C   UNL     1       2.578 -14.707  10.089  1.00  0.00     0.037 A 
ATOM     50  C   UNL     1      -2.223 -10.506  13.036  1.00  0.00     0.037 A 
ATOM     51  C   UNL     1       1.785 -15.321  11.118  1.00  0.00     0.049 A 
ATOM     52  C   UNL     1      -2.071 -11.955  13.422  1.00  0.00     0.074 A 
ATOM     53  C   UNL     1       1.856 -16.611  11.608  1.00  0.00     0.029 A 
ATOM     54  N   UNL     1       0.770 -14.680  11.815  1.00  0.00    -0.354 N 
ATOM     55  N   UNL     1      -1.215 -12.849  12.987  1.00  0.00    -0.248 NA
ATOM     56  C   UNL     1      -2.996 -12.461  14.444  1.00  0.00     0.031 C 
ATOM     57  C   UNL     1       0.843 -16.771  12.559  1.00  0.00     0.029 A 
ATOM     58  C   UNL     1       0.195 -15.557  12.720  1.00  0.00     0.049 A 
ATOM     59  H   UNL     1       0.500 -13.743  11.685  1.00  0.00     0.167 HD
ATOM     60  C   UNL     1      -1.465 -14.005  13.716  1.00  0.00     0.074 A 
ATOM     61  C   UNL     1      -2.540 -13.689  14.634  1.00  0.00     0.031 C 
ATOM     62  C   UNL     1      -0.863 -15.218  13.638  1.00  0.00     0.037 A 
BRANCH  49  63
ATOM     63  C   UNL     1       3.634 -15.527   9.402  1.00  0.00     0.064 A 
ATOM     64  C   UNL     1       5.002 -15.246   9.554  1.00  0.00     0.173 A 
ATOM     65  C   UNL     1       3.277 -16.618   8.596  1.00  0.00     0.173 A 
ATOM     66  F   UNL     1       5.400 -14.203  10.298  1.00  0.00    -0.203 F 
ATOM     67  C   UNL     1       5.968 -16.005   8.899  1.00  0.00     0.198 A 
ATOM     68  C   UNL     1       4.248 -17.399   7.976  1.00  0.00     0.198 A 
ATOM     69  F   UNL     1       1.986 -16.932   8.414  1.00  0.00    -0.203 F 
ATOM     70  F   UNL     1       7.263 -15.677   9.010  1.00  0.00    -0.200 F 
ATOM     71  C   UNL     1       5.592 -17.087   8.119  1.00  0.00     0.200 A 
ATOM     72  F   UNL     1       3.883 -18.454   7.234  1.00  0.00    -0.200 F 
ATOM     73  F   UNL     1       6.523 -17.823   7.498  1.00  0.00    -0.200 F 
ENDBRANCH  49  63
BRANCH  50  74
ATOM     74  C   UNL     1      -3.248  -9.649  13.694  1.00  0.00     0.064 A 
ATOM     75  C   UNL     1      -3.189  -9.378  15.069  1.00  0.00     0.173 A 
ATOM     76  C   UNL     1      -4.333  -9.127  12.976  1.00  0.00     0.173 A 
ATOM     77  F   UNL     1      -2.179  -9.867  15.806  1.00  0.00    -0.203 F 
ATOM     78  C   UNL     1      -4.198  -8.661  15.708  1.00  0.00     0.198 A 
ATOM     79  C   UNL     1      -5.322  -8.375  13.609  1.00  0.00     0.198 A 
ATOM     80  F   UNL     1      -4.436  -9.346  11.657  1.00  0.00    -0.203 F 
ATOM     81  F   UNL     1      -4.154  -8.486  17.036  1.00  0.00    -0.200 F 
ATOM     82  C   UNL     1      -5.263  -8.158  14.977  1.00  0.00     0.200 A 
ATOM     83  F   UNL     1      -6.339  -7.875  12.895  1.00  0.00    -0.200 F 
ATOM     84  F   UNL     1      -6.238  -7.476  15.592  1.00  0.00    -0.200 F 
ENDBRANCH  50  74
BRANCH  62  85
ATOM     85  C   UNL     1      -1.302 -16.268  14.622  1.00  0.00     0.064 A 
ATOM     86  C   UNL     1      -2.589 -16.825  14.598  1.00  0.00     0.173 A 
ATOM     87  C   UNL     1      -0.411 -16.724  15.607  1.00  0.00     0.173 A 
ATOM     88  F   UNL     1      -3.483 -16.422  13.682  1.00  0.00    -0.203 F 
ATOM     89  C   UNL     1      -2.987 -17.749  15.560  1.00  0.00     0.198 A 
ATOM     90  C   UNL     1      -0.797 -17.684  16.537  1.00  0.00     0.198 A 
ATOM     91  F   UNL     1       0.839 -16.240  15.667  1.00  0.00    -0.203 F 
ATOM     92  F   UNL     1      -4.250 -18.199  15.571  1.00  0.00    -0.200 F 
ATOM     93  C   UNL     1      -2.090 -18.181  16.525  1.00  0.00     0.200 A 
ATOM     94  F   UNL     1       0.081 -18.118  17.452  1.00  0.00    -0.200 F 
ATOM     95  F   UNL     1      -2.476 -19.069  17.452  1.00  0.00    -0.200 F 
ENDBRANCH  62  85
ENDBRANCH  36  37
ENDBRANCH  28  31
ENDBRANCH  26  27
ENDBRANCH  25  26
ENDBRANCH   1  25
TORSDOF 14
