REMARK SMILES C[C@H](NC(=O)OCc1ccccc1)C(=O)NCC(=O)N1CCC[C@H]1C(=O)NCCCCNC(=O)c1ccc(-c2c3nc(c(-c4c(F)c(F)c(F)c(F)c4F)c4ccc([nH]4)c(-c4c(F)c(F)c(F)c(F)c4F)c4nc(c(-c5c(F)c(F)c(F)c(F)c5F)c5ccc2[nH]5)C=C4)C=C3)cc1
REMARK SMILES IDX 20 1 21 2 22 3 23 4 24 5 18 6 19 7 17 8 16 9 14 10 15 11
REMARK SMILES IDX 2 13 1 14 3 15 4 16 5 18 6 19 7 20 8 21 9 22 13 23 10 24
REMARK SMILES IDX 12 25 11 26 25 27 26 28 27 29 28 31 29 32 30 33 31 34 32 35
REMARK SMILES IDX 33 36 34 38 35 39 36 40 97 41 37 42 96 43 38 44 39 45 40 46
REMARK SMILES IDX 90 47 41 48 95 49 89 50 91 51 42 52 94 53 88 54 87 55 43 57
REMARK SMILES IDX 75 58 55 59 74 60 56 61 59 62 73 63 92 64 57 65 58 66 72 68
REMARK SMILES IDX 93 69 60 70 44 71 45 72 53 73 46 74 47 75 51 76 54 77 48 78
REMARK SMILES IDX 49 79 52 80 50 81 76 82 77 83 85 84 78 85 79 86 83 87 86 88
REMARK SMILES IDX 80 89 81 90 84 91 82 92 61 93 62 94 70 95 63 96 64 97 68 98
REMARK SMILES IDX 71 99 65 100 66 101 69 102 67 103
REMARK H PARENT 16 12 3 17 27 30 32 37 91 56 59 67
REMARK Flexibility Score: inf
ROOT
ATOM      1  N   UNL     1      -1.264   0.574  -2.156  1.00  0.00    -0.329 N 
ATOM      2  C   UNL     1      -1.605  -0.760  -1.711  1.00  0.00     0.120 C 
ATOM      3  C   UNL     1      -0.553  -1.630  -2.369  1.00  0.00     0.024 C 
ATOM      4  C   UNL     1      -0.317  -0.963  -3.715  1.00  0.00     0.037 C 
ATOM      5  C   UNL     1      -0.758   0.512  -3.543  1.00  0.00     0.174 C 
ENDROOT
BRANCH   1   6
ATOM      6  C   UNL     1      -1.120   1.729  -1.425  1.00  0.00     0.242 C 
ATOM      7  O   UNL     1      -0.781   2.775  -1.996  1.00  0.00    -0.273 OA
BRANCH   6   8
ATOM      8  C   UNL     1      -1.510   1.867   0.058  1.00  0.00     0.216 C 
BRANCH   8   9
ATOM      9  N   UNL     1      -1.733   0.745   0.934  1.00  0.00    -0.345 N 
ATOM     10  C   UNL     1      -0.869   0.035   1.704  1.00  0.00     0.242 C 
ATOM     11  O   UNL     1      -1.377  -0.778   2.485  1.00  0.00    -0.273 OA
ATOM     12  H   UNL     1      -2.668   0.443   0.984  1.00  0.00     0.164 HD
BRANCH  10  13
ATOM     13  C   UNL     1       0.662   0.244   1.695  1.00  0.00     0.171 C 
ATOM     14  C   UNL     1       1.084   1.418   2.564  1.00  0.00     0.042 C 
BRANCH  13  15
ATOM     15  N   UNL     1       1.277   0.138   0.374  1.00  0.00    -0.310 N 
ATOM     16  C   UNL     1       1.738   1.063  -0.509  1.00  0.00     0.408 C 
ATOM     17  H   UNL     1       1.377  -0.790   0.061  1.00  0.00     0.167 HD
ATOM     18  O   UNL     1       2.070   0.717  -1.633  1.00  0.00    -0.225 OA
BRANCH  16  19
ATOM     19  O   UNL     1       1.729   2.328  -0.038  1.00  0.00    -0.445 OA
BRANCH  19  20
ATOM     20  C   UNL     1       1.992   3.353  -1.012  1.00  0.00     0.270 C 
BRANCH  20  21
ATOM     21  C   UNL     1       3.441   3.486  -1.392  1.00  0.00    -0.011 A 
ATOM     22  C   UNL     1       4.460   3.386  -0.442  1.00  0.00     0.007 A 
ATOM     23  C   UNL     1       3.770   3.735  -2.734  1.00  0.00     0.007 A 
ATOM     24  C   UNL     1       5.793   3.494  -0.837  1.00  0.00     0.000 A 
ATOM     25  C   UNL     1       5.101   3.845  -3.126  1.00  0.00     0.000 A 
ATOM     26  C   UNL     1       6.112   3.718  -2.177  1.00  0.00     0.000 A 
ENDBRANCH  20  21
ENDBRANCH  19  20
ENDBRANCH  16  19
ENDBRANCH  13  15
ENDBRANCH  10  13
ENDBRANCH   8   9
ENDBRANCH   6   8
ENDBRANCH   1   6
BRANCH   5  27
ATOM     27  C   UNL     1      -1.665   0.856  -4.762  1.00  0.00     0.242 C 
ATOM     28  O   UNL     1      -1.365   0.447  -5.893  1.00  0.00    -0.273 OA
ATOM     29  N   UNL     1      -2.736   1.684  -4.729  1.00  0.00    -0.354 N 
ATOM     30  H   UNL     1      -3.236   1.730  -5.576  1.00  0.00     0.163 HD
BRANCH  29  31
ATOM     31  C   UNL     1      -3.279   2.509  -3.681  1.00  0.00     0.116 C 
BRANCH  31  32
ATOM     32  C   UNL     1      -2.735   3.936  -3.765  1.00  0.00     0.023 C 
BRANCH  32  33
ATOM     33  C   UNL     1      -3.588   4.868  -4.620  1.00  0.00     0.023 C 
BRANCH  33  34
ATOM     34  C   UNL     1      -5.027   4.999  -4.144  1.00  0.00     0.116 C 
BRANCH  34  35
ATOM     35  N   UNL     1      -5.156   5.436  -2.759  1.00  0.00    -0.352 N 
ATOM     36  C   UNL     1      -6.184   6.167  -2.212  1.00  0.00     0.251 C 
ATOM     37  H   UNL     1      -4.427   5.180  -2.149  1.00  0.00     0.163 HD
ATOM     38  O   UNL     1      -6.147   6.563  -1.055  1.00  0.00    -0.269 OA
BRANCH  36  39
ATOM     39  C   UNL     1      -7.321   6.502  -3.090  1.00  0.00     0.039 A 
ATOM     40  C   UNL     1      -7.642   7.842  -3.299  1.00  0.00     0.014 A 
ATOM     41  C   UNL     1      -7.954   5.487  -3.811  1.00  0.00     0.014 A 
ATOM     42  C   UNL     1      -8.561   8.171  -4.295  1.00  0.00     0.010 A 
ATOM     43  C   UNL     1      -8.785   5.823  -4.868  1.00  0.00     0.010 A 
ATOM     44  C   UNL     1      -9.105   7.167  -5.115  1.00  0.00    -0.014 A 
BRANCH  44  45
ATOM     45  C   UNL     1     -10.026   7.497  -6.229  1.00  0.00     0.031 A 
ATOM     46  C   UNL     1     -11.432   6.968  -6.215  1.00  0.00     0.074 A 
ATOM     47  C   UNL     1      -9.581   8.211  -7.280  1.00  0.00     0.049 A 
ATOM     48  N   UNL     1     -12.378   7.101  -7.110  1.00  0.00    -0.248 NA
ATOM     49  C   UNL     1     -11.814   6.148  -5.055  1.00  0.00     0.031 C 
ATOM     50  C   UNL     1      -8.224   8.738  -7.433  1.00  0.00     0.029 A 
ATOM     51  N   UNL     1     -10.226   8.618  -8.421  1.00  0.00    -0.354 N 
ATOM     52  C   UNL     1     -13.455   6.370  -6.626  1.00  0.00     0.074 A 
ATOM     53  C   UNL     1     -13.020   5.733  -5.404  1.00  0.00     0.031 C 
ATOM     54  C   UNL     1      -8.151   9.437  -8.577  1.00  0.00     0.029 A 
ATOM     55  C   UNL     1      -9.440   9.370  -9.259  1.00  0.00     0.049 A 
ATOM     56  H   UNL     1     -11.163   8.391  -8.620  1.00  0.00     0.167 HD
ATOM     57  C   UNL     1     -14.705   6.266  -7.138  1.00  0.00     0.037 A 
ATOM     58  C   UNL     1      -9.731   9.943 -10.442  1.00  0.00     0.037 A 
ATOM     59  C   UNL     1     -15.132   6.913  -8.350  1.00  0.00     0.049 A 
ATOM     60  C   UNL     1     -11.115   9.784 -11.012  1.00  0.00     0.074 A 
ATOM     61  C   UNL     1     -16.388   6.924  -8.927  1.00  0.00     0.029 A 
ATOM     62  N   UNL     1     -14.303   7.655  -9.181  1.00  0.00    -0.354 N 
ATOM     63  N   UNL     1     -12.152   9.161 -10.509  1.00  0.00    -0.248 NA
ATOM     64  C   UNL     1     -11.367  10.415 -12.314  1.00  0.00     0.031 C 
ATOM     65  C   UNL     1     -16.304   7.614 -10.141  1.00  0.00     0.029 A 
ATOM     66  C   UNL     1     -15.013   8.097 -10.286  1.00  0.00     0.049 A 
ATOM     67  H   UNL     1     -13.351   7.841  -9.010  1.00  0.00     0.167 HD
ATOM     68  C   UNL     1     -13.189   9.351 -11.413  1.00  0.00     0.074 A 
ATOM     69  C   UNL     1     -12.655  10.158 -12.491  1.00  0.00     0.031 C 
ATOM     70  C   UNL     1     -14.468   8.902 -11.352  1.00  0.00     0.037 A 
BRANCH  57  71
ATOM     71  C   UNL     1     -15.682   5.403  -6.388  1.00  0.00     0.064 A 
ATOM     72  C   UNL     1     -16.124   5.733  -5.095  1.00  0.00     0.173 A 
ATOM     73  C   UNL     1     -16.166   4.217  -6.958  1.00  0.00     0.173 A 
ATOM     74  F   UNL     1     -15.685   6.850  -4.495  1.00  0.00    -0.203 F 
ATOM     75  C   UNL     1     -16.963   4.880  -4.383  1.00  0.00     0.198 A 
ATOM     76  C   UNL     1     -17.040   3.387  -6.260  1.00  0.00     0.198 A 
ATOM     77  F   UNL     1     -15.785   3.853  -8.192  1.00  0.00    -0.203 F 
ATOM     78  F   UNL     1     -17.299   5.175  -3.119  1.00  0.00    -0.200 F 
ATOM     79  C   UNL     1     -17.423   3.710  -4.967  1.00  0.00     0.200 A 
ATOM     80  F   UNL     1     -17.497   2.265  -6.832  1.00  0.00    -0.200 F 
ATOM     81  F   UNL     1     -18.225   2.886  -4.278  1.00  0.00    -0.200 F 
ENDBRANCH  57  71
BRANCH  58  82
ATOM     82  C   UNL     1      -8.705  10.763 -11.138  1.00  0.00     0.064 A 
ATOM     83  C   UNL     1      -8.849  12.155 -11.233  1.00  0.00     0.173 A 
ATOM     84  C   UNL     1      -7.557  10.186 -11.700  1.00  0.00     0.173 A 
ATOM     85  F   UNL     1      -9.939  12.751 -10.727  1.00  0.00    -0.203 F 
ATOM     86  C   UNL     1      -7.890  12.936 -11.874  1.00  0.00     0.198 A 
ATOM     87  C   UNL     1      -6.585  10.972 -12.317  1.00  0.00     0.198 A 
ATOM     88  F   UNL     1      -7.369   8.860 -11.632  1.00  0.00    -0.203 F 
ATOM     89  F   UNL     1      -8.071  14.259 -11.982  1.00  0.00    -0.200 F 
ATOM     90  C   UNL     1      -6.755  12.346 -12.408  1.00  0.00     0.200 A 
ATOM     91  F   UNL     1      -5.482  10.400 -12.817  1.00  0.00    -0.200 F 
ATOM     92  F   UNL     1      -5.828  13.099 -13.014  1.00  0.00    -0.200 F 
ENDBRANCH  58  82
BRANCH  70  93
ATOM     93  C   UNL     1     -15.395   9.306 -12.464  1.00  0.00     0.064 A 
ATOM     94  C   UNL     1     -15.259   8.800 -13.765  1.00  0.00     0.173 A 
ATOM     95  C   UNL     1     -16.463  10.182 -12.211  1.00  0.00     0.173 A 
ATOM     96  F   UNL     1     -14.248   7.971 -14.066  1.00  0.00    -0.203 F 
ATOM     97  C   UNL     1     -16.139   9.178 -14.777  1.00  0.00     0.198 A 
ATOM     98  C   UNL     1     -17.362  10.528 -13.215  1.00  0.00     0.198 A 
ATOM     99  F   UNL     1     -16.645  10.690 -10.982  1.00  0.00    -0.203 F 
ATOM    100  F   UNL     1     -15.957   8.725 -16.025  1.00  0.00    -0.200 F 
ATOM    101  C   UNL     1     -17.194  10.034 -14.499  1.00  0.00     0.200 A 
ATOM    102  F   UNL     1     -18.392  11.340 -12.939  1.00  0.00    -0.200 F 
ATOM    103  F   UNL     1     -18.046  10.388 -15.471  1.00  0.00    -0.200 F 
ENDBRANCH  70  93
ENDBRANCH  44  45
ENDBRANCH  36  39
ENDBRANCH  34  35
ENDBRANCH  33  34
ENDBRANCH  32  33
ENDBRANCH  31  32
ENDBRANCH  29  31
ENDBRANCH   5  27
TORSDOF 19
