REMARK SMILES CC(=O)N1CCC2(CC1)C[C@H](C(=O)NCCCCNC(=O)c1ccc(-c3c4nc(c(-c5c(F)c(F)c(F)c(F)c5F)c5ccc([nH]5)c(-c5c(F)c(F)c(F)c(F)c5F)c5nc(c(-c6c(F)c(F)c(F)c(F)c6F)c6ccc3[nH]6)C=C5)C=C4)cc1)[N@H+](Cc1ncc[nH]1)C2
REMARK SMILES IDX 16 1 15 2 14 3 12 4 13 5 11 7 1 8 2 9 3 10 4 11 5 12 9 13
REMARK SMILES IDX 6 14 8 15 7 16 10 17 92 18 85 19 86 21 87 22 88 23 91 24
REMARK SMILES IDX 89 25 90 26 17 28 18 29 19 30 20 31 21 33 22 34 23 35 84 36
REMARK SMILES IDX 24 37 83 38 25 39 26 40 27 41 77 42 28 43 82 44 76 45 78 46
REMARK SMILES IDX 29 47 81 48 75 49 74 50 30 52 62 53 42 54 61 55 43 56 46 57
REMARK SMILES IDX 60 58 79 59 44 60 45 61 59 63 80 64 47 65 31 66 32 67 40 68
REMARK SMILES IDX 33 69 34 70 38 71 41 72 35 73 36 74 39 75 37 76 63 77 64 78
REMARK SMILES IDX 72 79 65 80 66 81 70 82 73 83 67 84 68 85 71 86 69 87 48 88
REMARK SMILES IDX 49 89 57 90 50 91 51 92 55 93 58 94 52 95 53 96 56 97 54 98
REMARK H PARENT 14 6 85 20 91 27 19 32 78 51 46 62
REMARK Flexibility Score: inf
ROOT
ATOM      1  C   UNL     1       3.244  -7.850   5.285  1.00  0.00     0.023 C 
ENDROOT
BRANCH   1   2
ATOM      2  C   UNL     1       2.227  -6.964   4.567  1.00  0.00     0.116 C 
BRANCH   2   3
ATOM      3  N   UNL     1       1.056  -6.735   5.385  1.00  0.00    -0.351 N 
ATOM      4  C   UNL     1       0.645  -5.584   6.003  1.00  0.00     0.278 C 
ATOM      5  O   UNL     1      -0.121  -5.734   6.957  1.00  0.00    -0.268 OA
ATOM      6  H   UNL     1       0.472  -7.517   5.516  1.00  0.00     0.163 HD
BRANCH   4   7
ATOM      7  C   UNL     1       1.250  -4.240   5.543  1.00  0.00     0.275 C 
ATOM      8  C   UNL     1       1.583   0.143  -0.152  1.00  0.00     0.114 C 
ATOM      9  C   UNL     1       0.734   0.549   1.018  1.00  0.00     0.219 C 
ATOM     10  O   UNL     1      -0.301   1.191   0.832  1.00  0.00    -0.275 OA
ATOM     11  N   UNL     1       1.086   0.053   2.261  1.00  0.00    -0.343 N 
ATOM     12  C   UNL     1       0.015  -0.184   3.200  1.00  0.00     0.120 C 
ATOM     13  C   UNL     1       2.395  -0.431   2.697  1.00  0.00     0.120 C 
ATOM     14  C   UNL     1      -0.106  -1.696   3.360  1.00  0.00     0.034 C 
ATOM     15  C   UNL     1       2.357  -1.918   3.070  1.00  0.00     0.034 C 
ATOM     16  C   UNL     1       1.160  -2.324   3.980  1.00  0.00     0.029 C 
ATOM     17  C   UNL     1       1.070  -3.871   4.062  1.00  0.00     0.088 C 
ATOM     18  C   UNL     1       1.325  -1.911   5.460  1.00  0.00     0.270 C 
ATOM     19  N   UNL     1       0.853  -3.027   6.291  1.00  0.00    -0.318 N 
ATOM     20  H   UNL     1       1.291  -3.033   7.212  1.00  0.00     0.349 HD
BRANCH  19  21
ATOM     21  C   UNL     1      -0.533  -2.931   6.795  1.00  0.00     0.339 C 
BRANCH  21  22
ATOM     22  C   UNL     1      -1.683  -3.146   5.846  1.00  0.00     0.161 A 
ATOM     23  N   UNL     1      -1.875  -4.138   4.994  1.00  0.00    -0.236 NA
ATOM     24  N   UNL     1      -2.716  -2.237   5.739  1.00  0.00    -0.344 N 
ATOM     25  C   UNL     1      -2.987  -3.812   4.263  1.00  0.00     0.131 A 
ATOM     26  C   UNL     1      -3.509  -2.616   4.689  1.00  0.00     0.104 A 
ATOM     27  H   UNL     1      -2.858  -1.453   6.318  1.00  0.00     0.167 HD
ENDBRANCH  21  22
ENDBRANCH  19  21
ENDBRANCH   4   7
ENDBRANCH   2   3
ENDBRANCH   1   2
BRANCH   1  28
ATOM     28  C   UNL     1       2.739  -9.247   5.648  1.00  0.00     0.023 C 
BRANCH  28  29
ATOM     29  C   UNL     1       2.134 -10.036   4.494  1.00  0.00     0.116 C 
BRANCH  29  30
ATOM     30  N   UNL     1       3.076 -10.258   3.409  1.00  0.00    -0.352 N 
ATOM     31  C   UNL     1       3.415 -11.430   2.775  1.00  0.00     0.251 C 
ATOM     32  H   UNL     1       3.538  -9.453   3.081  1.00  0.00     0.163 HD
ATOM     33  O   UNL     1       4.342 -11.454   1.977  1.00  0.00    -0.269 OA
BRANCH  31  34
ATOM     34  C   UNL     1       2.675 -12.673   3.088  1.00  0.00     0.039 A 
ATOM     35  C   UNL     1       3.399 -13.845   3.321  1.00  0.00     0.014 A 
ATOM     36  C   UNL     1       1.281 -12.680   3.168  1.00  0.00     0.014 A 
ATOM     37  C   UNL     1       2.726 -15.007   3.706  1.00  0.00     0.010 A 
ATOM     38  C   UNL     1       0.620 -13.815   3.630  1.00  0.00     0.010 A 
ATOM     39  C   UNL     1       1.336 -14.990   3.904  1.00  0.00    -0.014 A 
BRANCH  39  40
ATOM     40  C   UNL     1       0.616 -16.190   4.404  1.00  0.00     0.031 A 
ATOM     41  C   UNL     1      -0.430 -16.855   3.552  1.00  0.00     0.074 A 
ATOM     42  C   UNL     1       0.860 -16.644   5.649  1.00  0.00     0.049 A 
ATOM     43  N   UNL     1      -1.211 -17.867   3.838  1.00  0.00    -0.248 NA
ATOM     44  C   UNL     1      -0.645 -16.294   2.209  1.00  0.00     0.031 C 
ATOM     45  C   UNL     1       1.815 -16.058   6.591  1.00  0.00     0.029 A 
ATOM     46  N   UNL     1       0.316 -17.697   6.343  1.00  0.00    -0.354 N 
ATOM     47  C   UNL     1      -2.011 -18.055   2.719  1.00  0.00     0.074 A 
ATOM     48  C   UNL     1      -1.665 -17.018   1.772  1.00  0.00     0.031 C 
ATOM     49  C   UNL     1       1.806 -16.770   7.729  1.00  0.00     0.029 A 
ATOM     50  C   UNL     1       0.814 -17.835   7.616  1.00  0.00     0.049 A 
ATOM     51  H   UNL     1      -0.368 -18.296   5.964  1.00  0.00     0.167 HD
ATOM     52  C   UNL     1      -2.934 -19.020   2.492  1.00  0.00     0.037 A 
ATOM     53  C   UNL     1       0.498 -18.713   8.587  1.00  0.00     0.037 A 
ATOM     54  C   UNL     1      -3.265 -20.061   3.430  1.00  0.00     0.049 A 
ATOM     55  C   UNL     1      -0.548 -19.762   8.315  1.00  0.00     0.074 A 
ATOM     56  C   UNL     1      -4.149 -21.114   3.273  1.00  0.00     0.029 A 
ATOM     57  N   UNL     1      -2.728 -20.176   4.704  1.00  0.00    -0.354 N 
ATOM     58  N   UNL     1      -1.247 -19.974   7.226  1.00  0.00    -0.248 NA
ATOM     59  C   UNL     1      -0.844 -20.701   9.407  1.00  0.00     0.031 C 
ATOM     60  C   UNL     1      -4.189 -21.834   4.471  1.00  0.00     0.029 A 
ATOM     61  C   UNL     1      -3.282 -21.269   5.353  1.00  0.00     0.049 A 
ATOM     62  H   UNL     1      -2.055 -19.571   5.091  1.00  0.00     0.167 HD
ATOM     63  C   UNL     1      -2.037 -21.084   7.489  1.00  0.00     0.074 A 
ATOM     64  C   UNL     1      -1.720 -21.514   8.834  1.00  0.00     0.031 C 
ATOM     65  C   UNL     1      -2.946 -21.693   6.688  1.00  0.00     0.037 A 
BRANCH  52  66
ATOM     66  C   UNL     1      -3.651 -19.003   1.172  1.00  0.00     0.064 A 
ATOM     67  C   UNL     1      -2.989 -19.305  -0.029  1.00  0.00     0.173 A 
ATOM     68  C   UNL     1      -5.026 -18.733   1.111  1.00  0.00     0.173 A 
ATOM     69  F   UNL     1      -1.672 -19.562  -0.028  1.00  0.00    -0.203 F 
ATOM     70  C   UNL     1      -3.671 -19.311  -1.242  1.00  0.00     0.198 A 
ATOM     71  C   UNL     1      -5.712 -18.772  -0.101  1.00  0.00     0.198 A 
ATOM     72  F   UNL     1      -5.710 -18.445   2.228  1.00  0.00    -0.203 F 
ATOM     73  F   UNL     1      -3.007 -19.556  -2.381  1.00  0.00    -0.200 F 
ATOM     74  C   UNL     1      -5.033 -19.054  -1.276  1.00  0.00     0.200 A 
ATOM     75  F   UNL     1      -7.031 -18.539  -0.130  1.00  0.00    -0.200 F 
ATOM     76  F   UNL     1      -5.691 -19.073  -2.444  1.00  0.00    -0.200 F 
ENDBRANCH  52  66
BRANCH  53  77
ATOM     77  C   UNL     1       1.183 -18.650   9.906  1.00  0.00     0.064 A 
ATOM     78  C   UNL     1       2.041 -19.677  10.325  1.00  0.00     0.173 A 
ATOM     79  C   UNL     1       0.977 -17.577  10.786  1.00  0.00     0.173 A 
ATOM     80  F   UNL     1       2.256 -20.735   9.529  1.00  0.00    -0.203 F 
ATOM     81  C   UNL     1       2.640 -19.649  11.582  1.00  0.00     0.198 A 
ATOM     82  C   UNL     1       1.603 -17.533  12.029  1.00  0.00     0.198 A 
ATOM     83  F   UNL     1       0.170 -16.565  10.434  1.00  0.00    -0.203 F 
ATOM     84  F   UNL     1       3.407 -20.674  11.979  1.00  0.00    -0.200 F 
ATOM     85  C   UNL     1       2.425 -18.575  12.432  1.00  0.00     0.200 A 
ATOM     86  F   UNL     1       1.405 -16.485  12.840  1.00  0.00    -0.200 F 
ATOM     87  F   UNL     1       3.000 -18.548  13.642  1.00  0.00    -0.200 F 
ENDBRANCH  53  77
BRANCH  65  88
ATOM     88  C   UNL     1      -3.630 -22.919   7.225  1.00  0.00     0.064 A 
ATOM     89  C   UNL     1      -4.574 -22.846   8.260  1.00  0.00     0.173 A 
ATOM     90  C   UNL     1      -3.364 -24.179   6.668  1.00  0.00     0.173 A 
ATOM     91  F   UNL     1      -4.854 -21.668   8.837  1.00  0.00    -0.203 F 
ATOM     92  C   UNL     1      -5.204 -23.993   8.736  1.00  0.00     0.198 A 
ATOM     93  C   UNL     1      -4.021 -25.319   7.122  1.00  0.00     0.198 A 
ATOM     94  F   UNL     1      -2.475 -24.304   5.670  1.00  0.00    -0.203 F 
ATOM     95  F   UNL     1      -6.062 -23.907   9.762  1.00  0.00    -0.200 F 
ATOM     96  C   UNL     1      -4.933 -25.226   8.162  1.00  0.00     0.200 A 
ATOM     97  F   UNL     1      -3.771 -26.506   6.554  1.00  0.00    -0.200 F 
ATOM     98  F   UNL     1      -5.547 -26.328   8.616  1.00  0.00    -0.200 F 
ENDBRANCH  65  88
ENDBRANCH  39  40
ENDBRANCH  31  34
ENDBRANCH  29  30
ENDBRANCH  28  29
ENDBRANCH   1  28
TORSDOF 13
