REMARK SMILES C=C1c2ccccc2C(=O)N1[C@](C)(C(=O)NCCCCNC(=O)c1ccc(-c2c3nc(c(-c4c(F)c(F)c(F)c(F)c4F)c4ccc([nH]4)c(-c4c(F)c(F)c(F)c(F)c4F)c4nc(c(-c5c(F)c(F)c(F)c(F)c5F)c5ccc2[nH]5)C=C4)C=C3)cc1)C(F)(F)F
REMARK SMILES IDX 19 1 18 2 17 3 16 4 14 5 15 6 12 8 13 9 11 10 1 11 2 12 3 13
REMARK SMILES IDX 4 14 8 15 9 16 5 17 7 18 10 19 6 20 87 21 88 22 89 23 90 24
REMARK SMILES IDX 20 25 21 26 22 27 23 29 24 30 25 31 86 32 26 33 85 34 27 35
REMARK SMILES IDX 28 36 29 37 79 38 30 39 84 40 78 41 80 42 31 43 83 44 77 45
REMARK SMILES IDX 76 46 32 48 64 49 44 50 63 51 45 52 48 53 62 54 81 55 46 56
REMARK SMILES IDX 47 57 61 59 82 60 49 61 33 62 34 63 42 64 35 65 36 66 40 67
REMARK SMILES IDX 43 68 37 69 38 70 41 71 39 72 65 73 66 74 74 75 67 76 68 77
REMARK SMILES IDX 72 78 75 79 69 80 70 81 73 82 71 83 50 84 51 85 59 86 52 87
REMARK SMILES IDX 53 88 57 89 60 90 54 91 55 92 58 93 56 94
REMARK H PARENT 16 7 21 28 80 47 48 58
REMARK Flexibility Score: inf
ROOT
ATOM      1  C   UNL     1       1.008  -4.468  -2.943  1.00  0.00     0.023 C 
ENDROOT
BRANCH   1   2
ATOM      2  C   UNL     1       0.557  -3.388  -1.963  1.00  0.00     0.023 C 
BRANCH   2   3
ATOM      3  C   UNL     1       1.633  -2.855  -1.029  1.00  0.00     0.116 C 
BRANCH   3   4
ATOM      4  N   UNL     1       2.685  -2.092  -1.674  1.00  0.00    -0.354 N 
ATOM      5  C   UNL     1       3.558  -1.177  -1.149  1.00  0.00     0.255 C 
ATOM      6  O   UNL     1       4.663  -1.171  -1.711  1.00  0.00    -0.272 OA
ATOM      7  H   UNL     1       2.787  -2.257  -2.639  1.00  0.00     0.163 HD
BRANCH   5   8
ATOM      8  C   UNL     1       3.283  -0.259   0.088  1.00  0.00     0.219 C 
ATOM      9  C   UNL     1       1.792  -0.000   0.389  1.00  0.00     0.056 C 
BRANCH   8  10
ATOM     10  N   UNL     1       3.986  -0.840   1.283  1.00  0.00    -0.285 N 
ATOM     11  C   UNL     1       5.574   0.886   2.123  1.00  0.00     0.038 C 
ATOM     12  C   UNL     1       4.996  -0.317   2.097  1.00  0.00     0.046 C 
ATOM     13  C   UNL     1       5.357  -1.359   3.075  1.00  0.00     0.010 A 
ATOM     14  C   UNL     1       6.308  -1.444   4.081  1.00  0.00     0.011 A 
ATOM     15  C   UNL     1       4.521  -2.442   2.855  1.00  0.00     0.049 A 
ATOM     16  C   UNL     1       3.610  -2.093   1.778  1.00  0.00     0.260 C 
ATOM     17  C   UNL     1       6.400  -2.631   4.826  1.00  0.00     0.001 A 
ATOM     18  C   UNL     1       4.588  -3.630   3.566  1.00  0.00     0.014 A 
ATOM     19  O   UNL     1       2.691  -2.825   1.462  1.00  0.00    -0.269 OA
ATOM     20  C   UNL     1       5.551  -3.720   4.565  1.00  0.00     0.001 A 
ENDBRANCH   8  10
BRANCH   8  21
ATOM     21  C   UNL     1       3.798   1.099  -0.468  1.00  0.00     0.420 C 
ATOM     22  F   UNL     1       3.166   1.429  -1.627  1.00  0.00    -0.168 F 
ATOM     23  F   UNL     1       3.519   2.122   0.388  1.00  0.00    -0.168 F 
ATOM     24  F   UNL     1       5.125   1.154  -0.711  1.00  0.00    -0.168 F 
ENDBRANCH   8  21
ENDBRANCH   5   8
ENDBRANCH   3   4
ENDBRANCH   2   3
ENDBRANCH   1   2
BRANCH   1  25
ATOM     25  C   UNL     1       1.863  -5.595  -2.367  1.00  0.00     0.116 C 
BRANCH  25  26
ATOM     26  N   UNL     1       1.236  -6.318  -1.266  1.00  0.00    -0.352 N 
ATOM     27  C   UNL     1       0.877  -7.643  -1.169  1.00  0.00     0.251 C 
ATOM     28  H   UNL     1       1.040  -5.775  -0.469  1.00  0.00     0.163 HD
ATOM     29  O   UNL     1       0.294  -8.065  -0.176  1.00  0.00    -0.269 OA
BRANCH  27  30
ATOM     30  C   UNL     1       1.151  -8.554  -2.298  1.00  0.00     0.039 A 
ATOM     31  C   UNL     1       0.097  -9.297  -2.835  1.00  0.00     0.014 A 
ATOM     32  C   UNL     1       2.424  -8.616  -2.868  1.00  0.00     0.014 A 
ATOM     33  C   UNL     1       0.288 -10.001  -4.025  1.00  0.00     0.010 A 
ATOM     34  C   UNL     1       2.591  -9.250  -4.094  1.00  0.00     0.010 A 
ATOM     35  C   UNL     1       1.518  -9.923  -4.699  1.00  0.00    -0.014 A 
BRANCH  35  36
ATOM     36  C   UNL     1       1.695 -10.485  -6.062  1.00  0.00     0.031 A 
ATOM     37  C   UNL     1       2.699 -11.573  -6.305  1.00  0.00     0.074 A 
ATOM     38  C   UNL     1       1.028  -9.938  -7.097  1.00  0.00     0.049 A 
ATOM     39  N   UNL     1       3.100 -12.092  -7.438  1.00  0.00    -0.248 NA
ATOM     40  C   UNL     1       3.364 -12.131  -5.117  1.00  0.00     0.031 C 
ATOM     41  C   UNL     1       0.058  -8.845  -6.999  1.00  0.00     0.029 A 
ATOM     42  N   UNL     1       1.079 -10.214  -8.442  1.00  0.00    -0.354 N 
ATOM     43  C   UNL     1       4.075 -13.021  -7.101  1.00  0.00     0.074 A 
ATOM     44  C   UNL     1       4.239 -12.962  -5.665  1.00  0.00     0.031 C 
ATOM     45  C   UNL     1      -0.409  -8.558  -8.224  1.00  0.00     0.029 A 
ATOM     46  C   UNL     1       0.260  -9.412  -9.200  1.00  0.00     0.049 A 
ATOM     47  H   UNL     1       1.648 -10.919  -8.826  1.00  0.00     0.167 HD
ATOM     48  C   UNL     1       4.756 -13.861  -7.916  1.00  0.00     0.037 A 
ATOM     49  C   UNL     1       0.082  -9.360 -10.534  1.00  0.00     0.037 A 
ATOM     50  C   UNL     1       4.570 -13.939  -9.341  1.00  0.00     0.049 A 
ATOM     51  C   UNL     1       0.868 -10.288 -11.418  1.00  0.00     0.074 A 
ATOM     52  C   UNL     1       5.160 -14.807 -10.242  1.00  0.00     0.029 A 
ATOM     53  N   UNL     1       3.728 -13.113 -10.072  1.00  0.00    -0.354 N 
ATOM     54  N   UNL     1       1.744 -11.203 -11.084  1.00  0.00    -0.248 NA
ATOM     55  C   UNL     1       0.646 -10.170 -12.866  1.00  0.00     0.031 C 
ATOM     56  C   UNL     1       4.704 -14.482 -11.524  1.00  0.00     0.029 A 
ATOM     57  C   UNL     1       3.802 -13.436 -11.417  1.00  0.00     0.049 A 
ATOM     58  H   UNL     1       3.162 -12.403  -9.691  1.00  0.00     0.167 HD
ATOM     59  C   UNL     1       2.162 -11.784 -12.273  1.00  0.00     0.074 A 
ATOM     60  C   UNL     1       1.434 -11.125 -13.338  1.00  0.00     0.031 C 
ATOM     61  C   UNL     1       3.067 -12.773 -12.464  1.00  0.00     0.037 A 
BRANCH  48  62
ATOM     62  C   UNL     1       5.763 -14.771  -7.279  1.00  0.00     0.064 A 
ATOM     63  C   UNL     1       5.369 -15.852  -6.476  1.00  0.00     0.173 A 
ATOM     64  C   UNL     1       7.136 -14.574  -7.490  1.00  0.00     0.173 A 
ATOM     65  F   UNL     1       4.069 -16.075  -6.234  1.00  0.00    -0.203 F 
ATOM     66  C   UNL     1       6.314 -16.685  -5.883  1.00  0.00     0.198 A 
ATOM     67  C   UNL     1       8.077 -15.426  -6.917  1.00  0.00     0.198 A 
ATOM     68  F   UNL     1       7.565 -13.558  -8.253  1.00  0.00    -0.203 F 
ATOM     69  F   UNL     1       5.916 -17.682  -5.080  1.00  0.00    -0.200 F 
ATOM     70  C   UNL     1       7.666 -16.475  -6.109  1.00  0.00     0.200 A 
ATOM     71  F   UNL     1       9.383 -15.228  -7.144  1.00  0.00    -0.200 F 
ATOM     72  F   UNL     1       8.574 -17.279  -5.539  1.00  0.00    -0.200 F 
ENDBRANCH  48  62
BRANCH  49  73
ATOM     73  C   UNL     1      -0.897  -8.406 -11.115  1.00  0.00     0.064 A 
ATOM     74  C   UNL     1      -2.100  -8.866 -11.667  1.00  0.00     0.173 A 
ATOM     75  C   UNL     1      -0.655  -7.025 -11.131  1.00  0.00     0.173 A 
ATOM     76  F   UNL     1      -2.364 -10.180 -11.695  1.00  0.00    -0.203 F 
ATOM     77  C   UNL     1      -3.020  -7.981 -12.225  1.00  0.00     0.198 A 
ATOM     78  C   UNL     1      -1.587  -6.139 -11.668  1.00  0.00     0.198 A 
ATOM     79  F   UNL     1       0.480  -6.535 -10.613  1.00  0.00    -0.203 F 
ATOM     80  F   UNL     1      -4.146  -8.451 -12.780  1.00  0.00    -0.200 F 
ATOM     81  C   UNL     1      -2.766  -6.618 -12.220  1.00  0.00     0.200 A 
ATOM     82  F   UNL     1      -1.343  -4.821 -11.652  1.00  0.00    -0.200 F 
ATOM     83  F   UNL     1      -3.653  -5.767 -12.753  1.00  0.00    -0.200 F 
ENDBRANCH  49  73
BRANCH  61  84
ATOM     84  C   UNL     1       3.308 -13.222 -13.874  1.00  0.00     0.064 A 
ATOM     85  C   UNL     1       4.057 -12.447 -14.770  1.00  0.00     0.173 A 
ATOM     86  C   UNL     1       2.827 -14.464 -14.316  1.00  0.00     0.173 A 
ATOM     87  F   UNL     1       4.522 -11.245 -14.398  1.00  0.00    -0.203 F 
ATOM     88  C   UNL     1       4.307 -12.895 -16.064  1.00  0.00     0.198 A 
ATOM     89  C   UNL     1       3.099 -14.918 -15.603  1.00  0.00     0.198 A 
ATOM     90  F   UNL     1       2.107 -15.242 -13.494  1.00  0.00    -0.203 F 
ATOM     91  F   UNL     1       4.997 -12.124 -16.916  1.00  0.00    -0.200 F 
ATOM     92  C   UNL     1       3.835 -14.132 -16.477  1.00  0.00     0.200 A 
ATOM     93  F   UNL     1       2.651 -16.119 -15.996  1.00  0.00    -0.200 F 
ATOM     94  F   UNL     1       4.086 -14.566 -17.720  1.00  0.00    -0.200 F 
ENDBRANCH  61  84
ENDBRANCH  35  36
ENDBRANCH  27  30
ENDBRANCH  25  26
ENDBRANCH   1  25
TORSDOF 13
