REMARK SMILES O=C(Cn1c(=O)[nH]c2ccccc2c1=O)NC[C@H]1CC[C@@H](C(=O)N2CCC(C(=O)NCCCCNC(=O)c3ccc(-c4c5nc(c(-c6c(F)c(F)c(F)c(F)c6F)c6ccc([nH]6)c(-c6c(F)c(F)c(F)c(F)c6F)c6nc(c(-c7c(F)c(F)c(F)c(F)c7F)c7ccc4[nH]7)C=C6)C=C5)cc3)CC2)CC1
REMARK SMILES IDX 31 1 30 2 28 3 29 4 27 6 22 7 23 8 24 9 25 10 102 11 26 12
REMARK SMILES IDX 101 13 21 14 18 15 19 16 104 17 20 18 103 19 17 20 16 21
REMARK SMILES IDX 1 22 2 23 3 25 4 26 5 27 14 28 6 29 7 30 13 31 15 32 8 33
REMARK SMILES IDX 12 35 9 36 11 37 10 38 32 39 33 40 34 41 35 42 36 43 37 45
REMARK SMILES IDX 38 46 39 47 100 48 40 49 99 50 41 51 42 52 43 53 93 54 44 55
REMARK SMILES IDX 98 56 92 57 94 58 45 59 97 60 91 61 90 62 46 64 78 65 58 66
REMARK SMILES IDX 77 67 59 68 62 69 76 70 95 71 60 72 61 73 75 75 96 76 63 77
REMARK SMILES IDX 47 78 48 79 56 80 49 81 50 82 54 83 57 84 51 85 52 86 55 87
REMARK SMILES IDX 53 88 79 89 80 90 88 91 81 92 82 93 86 94 89 95 83 96 84 97
REMARK SMILES IDX 87 98 85 99 64 100 65 101 73 102 66 103 67 104 71 105 74 106
REMARK SMILES IDX 68 107 69 108 72 109 70 110
REMARK H PARENT 30 5 16 24 7 34 35 44 94 63 62 74
REMARK Flexibility Score: inf
ROOT
ATOM      1  C   UNL     1      -0.143   4.253   4.141  1.00  0.00     0.116 C 
ENDROOT
BRANCH   1   2
ATOM      2  N   UNL     1      -0.801   2.955   4.134  1.00  0.00    -0.356 N 
ATOM      3  C   UNL     1      -0.997   2.071   3.113  1.00  0.00     0.223 C 
ATOM      4  O   UNL     1      -1.601   1.027   3.359  1.00  0.00    -0.275 OA
ATOM      5  H   UNL     1      -1.161   2.669   5.004  1.00  0.00     0.163 HD
BRANCH   3   6
ATOM      6  C   UNL     1      -0.459   2.361   1.721  1.00  0.00     0.082 C 
ATOM      7  C   UNL     1       1.695   5.395  -0.332  1.00  0.00     0.225 C 
ATOM      8  O   UNL     1       1.278   6.522  -0.041  1.00  0.00    -0.275 OA
ATOM      9  N   UNL     1       1.038   4.280   0.149  1.00  0.00    -0.342 N 
ATOM     10  C   UNL     1      -0.402   4.207  -0.050  1.00  0.00     0.120 C 
ATOM     11  C   UNL     1       1.694   3.061   0.550  1.00  0.00     0.120 C 
ATOM     12  C   UNL     1      -1.147   3.588   1.114  1.00  0.00     0.035 C 
ATOM     13  C   UNL     1       1.071   2.402   1.762  1.00  0.00     0.035 C 
BRANCH   7  14
ATOM     14  C   UNL     1       2.762   5.258  -1.445  1.00  0.00     0.078 C 
ATOM     15  C   UNL     1       3.149   2.540  -2.741  1.00  0.00     0.008 C 
ATOM     16  C   UNL     1       1.889   3.392  -2.946  1.00  0.00     0.006 C 
ATOM     17  C   UNL     1       4.066   2.998  -1.588  1.00  0.00     0.006 C 
ATOM     18  C   UNL     1       2.118   4.887  -2.780  1.00  0.00     0.014 C 
ATOM     19  C   UNL     1       4.056   4.483  -1.216  1.00  0.00     0.014 C 
BRANCH  15  20
ATOM     20  C   UNL     1       2.759   1.028  -2.696  1.00  0.00     0.119 C 
BRANCH  20  21
ATOM     21  N   UNL     1       3.183   0.331  -1.496  1.00  0.00    -0.354 N 
ATOM     22  O   UNL     1       1.112  -0.105  -0.615  1.00  0.00    -0.273 OA
ATOM     23  C   UNL     1       2.335  -0.182  -0.532  1.00  0.00     0.240 C 
ATOM     24  H   UNL     1       4.151   0.214  -1.357  1.00  0.00     0.163 HD
BRANCH  23  25
ATOM     25  C   UNL     1       3.044  -0.679   0.741  1.00  0.00     0.230 C 
BRANCH  25  26
ATOM     26  N   UNL     1       3.912  -1.808   0.443  1.00  0.00    -0.250 N 
ATOM     27  C   UNL     1       3.463  -3.075   0.768  1.00  0.00     0.329 A 
ATOM     28  C   UNL     1       5.144  -1.544  -0.143  1.00  0.00     0.264 A 
ATOM     29  O   UNL     1       2.423  -3.306   1.381  1.00  0.00    -0.248 OA
ATOM     30  N   UNL     1       4.252  -4.121   0.383  1.00  0.00    -0.307 N 
ATOM     31  C   UNL     1       5.925  -2.702  -0.601  1.00  0.00     0.064 A 
ATOM     32  O   UNL     1       5.561  -0.406  -0.358  1.00  0.00    -0.268 OA
ATOM     33  C   UNL     1       5.441  -3.975  -0.327  1.00  0.00     0.055 A 
ATOM     34  H   UNL     1       3.964  -5.032   0.620  1.00  0.00     0.171 HD
ATOM     35  C   UNL     1       7.096  -2.529  -1.344  1.00  0.00     0.016 A 
ATOM     36  C   UNL     1       6.129  -5.096  -0.781  1.00  0.00     0.027 A 
ATOM     37  C   UNL     1       7.777  -3.649  -1.817  1.00  0.00     0.001 A 
ATOM     38  C   UNL     1       7.294  -4.930  -1.535  1.00  0.00     0.002 A 
ENDBRANCH  25  26
ENDBRANCH  23  25
ENDBRANCH  20  21
ENDBRANCH  15  20
ENDBRANCH   7  14
ENDBRANCH   3   6
ENDBRANCH   1   2
BRANCH   1  39
ATOM     39  C   UNL     1      -1.117   5.389   4.432  1.00  0.00     0.023 C 
BRANCH  39  40
ATOM     40  C   UNL     1      -1.722   5.353   5.828  1.00  0.00     0.023 C 
BRANCH  40  41
ATOM     41  C   UNL     1      -0.709   5.228   6.955  1.00  0.00     0.116 C 
BRANCH  41  42
ATOM     42  N   UNL     1       0.306   6.268   6.949  1.00  0.00    -0.352 N 
ATOM     43  C   UNL     1       0.857   6.922   8.036  1.00  0.00     0.251 C 
ATOM     44  H   UNL     1       0.642   6.539   6.064  1.00  0.00     0.163 HD
ATOM     45  O   UNL     1       1.655   7.836   7.893  1.00  0.00    -0.269 OA
BRANCH  43  46
ATOM     46  C   UNL     1       0.406   6.517   9.380  1.00  0.00     0.039 A 
ATOM     47  C   UNL     1       0.420   5.170   9.737  1.00  0.00     0.014 A 
ATOM     48  C   UNL     1      -0.162   7.477  10.219  1.00  0.00     0.014 A 
ATOM     49  C   UNL     1      -0.310   4.756  10.841  1.00  0.00     0.010 A 
ATOM     50  C   UNL     1      -0.815   7.066  11.383  1.00  0.00     0.010 A 
ATOM     51  C   UNL     1      -0.948   5.698  11.668  1.00  0.00    -0.014 A 
BRANCH  51  52
ATOM     52  C   UNL     1      -1.770   5.215  12.806  1.00  0.00     0.031 A 
ATOM     53  C   UNL     1      -3.258   5.438  12.836  1.00  0.00     0.074 A 
ATOM     54  C   UNL     1      -1.173   4.500  13.779  1.00  0.00     0.049 A 
ATOM     55  N   UNL     1      -4.131   5.045  13.730  1.00  0.00    -0.248 NA
ATOM     56  C   UNL     1      -3.846   6.201  11.725  1.00  0.00     0.031 C 
ATOM     57  C   UNL     1       0.261   4.212  13.847  1.00  0.00     0.029 A 
ATOM     58  N   UNL     1      -1.696   3.855  14.869  1.00  0.00    -0.354 N 
ATOM     59  C   UNL     1      -5.360   5.534  13.305  1.00  0.00     0.074 A 
ATOM     60  C   UNL     1      -5.121   6.271  12.084  1.00  0.00     0.031 C 
ATOM     61  C   UNL     1       0.493   3.390  14.880  1.00  0.00     0.029 A 
ATOM     62  C   UNL     1      -0.761   3.149  15.585  1.00  0.00     0.049 A 
ATOM     63  H   UNL     1      -2.648   3.895  15.116  1.00  0.00     0.167 HD
ATOM     64  C   UNL     1      -6.576   5.368  13.876  1.00  0.00     0.037 A 
ATOM     65  C   UNL     1      -0.896   2.395  16.691  1.00  0.00     0.037 A 
ATOM     66  C   UNL     1      -6.816   4.596  15.067  1.00  0.00     0.049 A 
ATOM     67  C   UNL     1      -2.252   2.252  17.318  1.00  0.00     0.074 A 
ATOM     68  C   UNL     1      -8.020   4.334  15.696  1.00  0.00     0.029 A 
ATOM     69  N   UNL     1      -5.831   3.958  15.806  1.00  0.00    -0.354 N 
ATOM     70  N   UNL     1      -3.404   2.717  16.903  1.00  0.00    -0.248 NA
ATOM     71  C   UNL     1      -2.323   1.498  18.576  1.00  0.00     0.031 C 
ATOM     72  C   UNL     1      -7.760   3.569  16.837  1.00  0.00     0.029 A 
ATOM     73  C   UNL     1      -6.397   3.324  16.899  1.00  0.00     0.049 A 
ATOM     74  H   UNL     1      -4.871   3.956  15.585  1.00  0.00     0.167 HD
ATOM     75  C   UNL     1      -4.337   2.317  17.847  1.00  0.00     0.074 A 
ATOM     76  C   UNL     1      -3.621   1.548  18.844  1.00  0.00     0.031 C 
ATOM     77  C   UNL     1      -5.667   2.575  17.888  1.00  0.00     0.037 A 
BRANCH  64  78
ATOM     78  C   UNL     1      -7.754   6.036  13.228  1.00  0.00     0.064 A 
ATOM     79  C   UNL     1      -8.314   5.549  12.039  1.00  0.00     0.173 A 
ATOM     80  C   UNL     1      -8.373   7.134  13.845  1.00  0.00     0.173 A 
ATOM     81  F   UNL     1      -7.753   4.508  11.406  1.00  0.00    -0.203 F 
ATOM     82  C   UNL     1      -9.444   6.144  11.484  1.00  0.00     0.198 A 
ATOM     83  C   UNL     1      -9.516   7.713  13.300  1.00  0.00     0.198 A 
ATOM     84  F   UNL     1      -7.880   7.634  14.989  1.00  0.00    -0.203 F 
ATOM     85  F   UNL     1      -9.947   5.680  10.332  1.00  0.00    -0.200 F 
ATOM     86  C   UNL     1     -10.049   7.220  12.118  1.00  0.00     0.200 A 
ATOM     87  F   UNL     1     -10.106   8.744  13.921  1.00  0.00    -0.200 F 
ATOM     88  F   UNL     1     -11.144   7.782  11.589  1.00  0.00    -0.200 F 
ENDBRANCH  64  78
BRANCH  65  89
ATOM     89  C   UNL     1       0.297   1.723  17.262  1.00  0.00     0.064 A 
ATOM     90  C   UNL     1       0.449   0.334  17.173  1.00  0.00     0.173 A 
ATOM     91  C   UNL     1       1.331   2.460  17.860  1.00  0.00     0.173 A 
ATOM     92  F   UNL     1      -0.521  -0.413  16.626  1.00  0.00    -0.203 F 
ATOM     93  C   UNL     1       1.594  -0.294  17.658  1.00  0.00     0.198 A 
ATOM     94  C   UNL     1       2.486   1.833  18.320  1.00  0.00     0.198 A 
ATOM     95  F   UNL     1       1.232   3.793  17.963  1.00  0.00    -0.203 F 
ATOM     96  F   UNL     1       1.709  -1.627  17.579  1.00  0.00    -0.200 F 
ATOM     97  C   UNL     1       2.615   0.457  18.222  1.00  0.00     0.200 A 
ATOM     98  F   UNL     1       3.477   2.565  18.848  1.00  0.00    -0.200 F 
ATOM     99  F   UNL     1       3.725  -0.146  18.670  1.00  0.00    -0.200 F 
ENDBRANCH  65  89
BRANCH  77 100
ATOM    100  C   UNL     1      -6.436   2.035  19.055  1.00  0.00     0.064 A 
ATOM    101  C   UNL     1      -6.352   2.639  20.317  1.00  0.00     0.173 A 
ATOM    102  C   UNL     1      -7.316   0.956  18.895  1.00  0.00     0.173 A 
ATOM    103  F   UNL     1      -5.511   3.665  20.520  1.00  0.00    -0.203 F 
ATOM    104  C   UNL     1      -7.119   2.176  21.382  1.00  0.00     0.198 A 
ATOM    105  C   UNL     1      -8.098   0.510  19.956  1.00  0.00     0.198 A 
ATOM    106  F   UNL     1      -7.434   0.350  17.704  1.00  0.00    -0.203 F 
ATOM    107  F   UNL     1      -7.005   2.751  22.587  1.00  0.00    -0.200 F 
ATOM    108  C   UNL     1      -7.998   1.119  21.198  1.00  0.00     0.200 A 
ATOM    109  F   UNL     1      -8.955  -0.505  19.775  1.00  0.00    -0.200 F 
ATOM    110  F   UNL     1      -8.747   0.684  22.221  1.00  0.00    -0.200 F 
ENDBRANCH  77 100
ENDBRANCH  51  52
ENDBRANCH  43  46
ENDBRANCH  41  42
ENDBRANCH  40  41
ENDBRANCH  39  40
ENDBRANCH   1  39
TORSDOF 16
