REMARK SMILES O=C(NCCCCNC(=O)[C@H]1CC=CC[C@H]1C(=O)Nc1ccc(S(=O)(=O)N2CCc3ccccc32)cc1)c1ccc(-c2c3nc(c(-c4c(F)c(F)c(F)c(F)c4F)c4ccc([nH]4)c(-c4c(F)c(F)c(F)c(F)c4F)c4nc(c(-c5c(F)c(F)c(F)c(F)c5F)c5ccc2[nH]5)C=C4)C=C3)cc1
REMARK SMILES IDX 6 1 5 2 4 3 3 4 1 5 2 6 38 8 39 9 100 10 40 11 99 12 41 13
REMARK SMILES IDX 42 14 43 15 93 16 44 17 98 18 92 19 94 20 45 21 97 22 91 23
REMARK SMILES IDX 90 24 46 26 78 27 58 28 77 29 59 30 62 31 76 32 95 33 60 34
REMARK SMILES IDX 61 35 75 37 96 38 63 39 47 40 48 41 56 42 49 43 50 44 54 45
REMARK SMILES IDX 57 46 51 47 52 48 55 49 53 50 79 51 80 52 88 53 81 54 82 55
REMARK SMILES IDX 86 56 89 57 83 58 84 59 87 60 85 61 64 62 65 63 73 64 66 65
REMARK SMILES IDX 67 66 71 67 74 68 68 69 69 70 72 71 70 72 7 73 8 74 9 75
REMARK SMILES IDX 10 77 11 78 12 79 16 80 13 81 15 82 14 83 17 84 18 85 19 86
REMARK SMILES IDX 20 88 21 89 37 90 22 91 36 92 23 93 24 94 25 95 26 96 27 97
REMARK SMILES IDX 28 98 35 99 29 100 30 101 34 102 31 103 33 104 32 105
REMARK H PARENT 3 7 94 25 62 36 8 76 19 87
REMARK Flexibility Score: inf
ROOT
ATOM      1  C   UNL     1       3.771  -3.046   1.533  1.00  0.00     0.023 C 
ENDROOT
BRANCH   1   2
ATOM      2  C   UNL     1       4.553  -1.809   1.106  1.00  0.00     0.023 C 
BRANCH   2   3
ATOM      3  C   UNL     1       4.258  -1.368  -0.317  1.00  0.00     0.116 C 
BRANCH   3   4
ATOM      4  N   UNL     1       2.831  -1.141  -0.531  1.00  0.00    -0.352 N 
ATOM      5  O   UNL     1       0.889   0.004  -0.500  1.00  0.00    -0.269 OA
ATOM      6  C   UNL     1       2.114   0.025  -0.615  1.00  0.00     0.251 C 
ATOM      7  H   UNL     1       2.295  -1.961  -0.631  1.00  0.00     0.163 HD
BRANCH   6   8
ATOM      8  C   UNL     1       2.807   1.302  -0.862  1.00  0.00     0.039 A 
ATOM      9  C   UNL     1       3.907   1.335  -1.718  1.00  0.00     0.014 A 
ATOM     10  C   UNL     1       2.334   2.484  -0.283  1.00  0.00     0.014 A 
ATOM     11  C   UNL     1       4.640   2.498  -1.857  1.00  0.00     0.010 A 
ATOM     12  C   UNL     1       2.993   3.689  -0.537  1.00  0.00     0.010 A 
ATOM     13  C   UNL     1       4.163   3.698  -1.312  1.00  0.00    -0.014 A 
BRANCH  13  14
ATOM     14  C   UNL     1       4.860   4.955  -1.666  1.00  0.00     0.031 A 
ATOM     15  C   UNL     1       5.504   5.806  -0.615  1.00  0.00     0.074 A 
ATOM     16  C   UNL     1       4.931   5.290  -2.969  1.00  0.00     0.049 A 
ATOM     17  N   UNL     1       6.124   6.950  -0.750  1.00  0.00    -0.248 NA
ATOM     18  C   UNL     1       5.436   5.318   0.770  1.00  0.00     0.031 C 
ATOM     19  C   UNL     1       4.337   4.520  -4.068  1.00  0.00     0.029 A 
ATOM     20  N   UNL     1       5.546   6.338  -3.599  1.00  0.00    -0.354 N 
ATOM     21  C   UNL     1       6.488   7.337   0.532  1.00  0.00     0.074 A 
ATOM     22  C   UNL     1       6.009   6.312   1.435  1.00  0.00     0.031 C 
ATOM     23  C   UNL     1       4.670   5.084  -5.235  1.00  0.00     0.029 A 
ATOM     24  C   UNL     1       5.411   6.308  -4.966  1.00  0.00     0.049 A 
ATOM     25  H   UNL     1       6.037   7.045  -3.120  1.00  0.00     0.167 HD
ATOM     26  C   UNL     1       7.160   8.451   0.909  1.00  0.00     0.037 A 
ATOM     27  C   UNL     1       5.805   7.189  -5.900  1.00  0.00     0.037 A 
ATOM     28  C   UNL     1       7.640   9.447  -0.016  1.00  0.00     0.049 A 
ATOM     29  C   UNL     1       6.524   8.425  -5.452  1.00  0.00     0.074 A 
ATOM     30  C   UNL     1       8.348  10.605   0.251  1.00  0.00     0.029 A 
ATOM     31  N   UNL     1       7.457   9.400  -1.393  1.00  0.00    -0.354 N 
ATOM     32  N   UNL     1       6.860   8.785  -4.237  1.00  0.00    -0.248 NA
ATOM     33  C   UNL     1       6.907   9.380  -6.495  1.00  0.00     0.031 C 
ATOM     34  C   UNL     1       8.550  11.283  -0.957  1.00  0.00     0.029 A 
ATOM     35  C   UNL     1       8.019  10.520  -1.986  1.00  0.00     0.049 A 
ATOM     36  H   UNL     1       6.995   8.678  -1.876  1.00  0.00     0.167 HD
ATOM     37  C   UNL     1       7.507  10.003  -4.367  1.00  0.00     0.074 A 
ATOM     38  C   UNL     1       7.531  10.309  -5.784  1.00  0.00     0.031 C 
ATOM     39  C   UNL     1       8.030  10.797  -3.401  1.00  0.00     0.037 A 
BRANCH  26  40
ATOM     40  C   UNL     1       7.375   8.671   2.380  1.00  0.00     0.064 A 
ATOM     41  C   UNL     1       8.250   7.874   3.133  1.00  0.00     0.173 A 
ATOM     42  C   UNL     1       6.705   9.711   3.044  1.00  0.00     0.173 A 
ATOM     43  F   UNL     1       8.906   6.857   2.553  1.00  0.00    -0.203 F 
ATOM     44  C   UNL     1       8.422   8.089   4.499  1.00  0.00     0.198 A 
ATOM     45  C   UNL     1       6.903   9.943   4.403  1.00  0.00     0.198 A 
ATOM     46  F   UNL     1       5.860  10.508   2.373  1.00  0.00    -0.203 F 
ATOM     47  F   UNL     1       9.222   7.280   5.208  1.00  0.00    -0.200 F 
ATOM     48  C   UNL     1       7.753   9.126   5.131  1.00  0.00     0.200 A 
ATOM     49  F   UNL     1       6.264  10.954   5.009  1.00  0.00    -0.200 F 
ATOM     50  F   UNL     1       7.921   9.333   6.445  1.00  0.00    -0.200 F 
ENDBRANCH  26  40
BRANCH  27  51
ATOM     51  C   UNL     1       5.496   6.929  -7.329  1.00  0.00     0.064 A 
ATOM     52  C   UNL     1       6.510   6.624  -8.246  1.00  0.00     0.173 A 
ATOM     53  C   UNL     1       4.171   6.923  -7.795  1.00  0.00     0.173 A 
ATOM     54  F   UNL     1       7.792   6.629  -7.852  1.00  0.00    -0.203 F 
ATOM     55  C   UNL     1       6.211   6.327  -9.574  1.00  0.00     0.198 A 
ATOM     56  C   UNL     1       3.872   6.593  -9.114  1.00  0.00     0.198 A 
ATOM     57  F   UNL     1       3.162   7.196  -6.954  1.00  0.00    -0.203 F 
ATOM     58  F   UNL     1       7.202   6.065 -10.438  1.00  0.00    -0.200 F 
ATOM     59  C   UNL     1       4.893   6.301 -10.005  1.00  0.00     0.200 A 
ATOM     60  F   UNL     1       2.595   6.545  -9.517  1.00  0.00    -0.200 F 
ATOM     61  F   UNL     1       4.606   5.994 -11.277  1.00  0.00    -0.200 F 
ENDBRANCH  27  51
BRANCH  39  62
ATOM     62  C   UNL     1       8.707  12.055  -3.857  1.00  0.00     0.064 A 
ATOM     63  C   UNL     1       7.977  13.151  -4.340  1.00  0.00     0.173 A 
ATOM     64  C   UNL     1      10.102  12.172  -3.781  1.00  0.00     0.173 A 
ATOM     65  F   UNL     1       6.642  13.077  -4.450  1.00  0.00    -0.203 F 
ATOM     66  C   UNL     1       8.624  14.312  -4.753  1.00  0.00     0.198 A 
ATOM     67  C   UNL     1      10.743  13.345  -4.165  1.00  0.00     0.198 A 
ATOM     68  F   UNL     1      10.843  11.151  -3.323  1.00  0.00    -0.203 F 
ATOM     69  F   UNL     1       7.913  15.329  -5.258  1.00  0.00    -0.200 F 
ATOM     70  C   UNL     1      10.005  14.411  -4.658  1.00  0.00     0.200 A 
ATOM     71  F   UNL     1      12.075  13.444  -4.062  1.00  0.00    -0.200 F 
ATOM     72  F   UNL     1      10.625  15.532  -5.050  1.00  0.00    -0.200 F 
ENDBRANCH  39  62
ENDBRANCH  13  14
ENDBRANCH   6   8
ENDBRANCH   3   4
ENDBRANCH   2   3
ENDBRANCH   1   2
BRANCH   1  73
ATOM     73  C   UNL     1       4.219  -4.382   0.940  1.00  0.00     0.116 C 
BRANCH  73  74
ATOM     74  N   UNL     1       5.643  -4.647   1.051  1.00  0.00    -0.356 N 
ATOM     75  C   UNL     1       6.342  -5.619   1.704  1.00  0.00     0.224 C 
ATOM     76  H   UNL     1       6.209  -4.006   0.563  1.00  0.00     0.163 HD
ATOM     77  O   UNL     1       7.519  -5.760   1.361  1.00  0.00    -0.275 OA
BRANCH  75  78
ATOM     78  C   UNL     1       5.699  -6.513   2.779  1.00  0.00     0.095 C 
ATOM     79  C   UNL     1       6.462  -7.859   2.917  1.00  0.00     0.041 C 
ATOM     80  C   UNL     1       5.311  -5.858   4.131  1.00  0.00     0.095 C 
ATOM     81  C   UNL     1       6.997  -8.235   4.264  1.00  0.00    -0.030 C 
ATOM     82  C   UNL     1       5.941  -6.325   5.454  1.00  0.00     0.041 C 
ATOM     83  C   UNL     1       6.762  -7.560   5.391  1.00  0.00    -0.030 C 
BRANCH  80  84
ATOM     84  C   UNL     1       5.241  -4.354   4.221  1.00  0.00     0.228 C 
ATOM     85  O   UNL     1       4.176  -3.851   4.610  1.00  0.00    -0.274 OA
ATOM     86  N   UNL     1       6.252  -3.488   3.989  1.00  0.00    -0.326 N 
ATOM     87  H   UNL     1       5.923  -2.571   3.849  1.00  0.00     0.169 HD
BRANCH  86  88
ATOM     88  C   UNL     1       7.648  -3.560   3.898  1.00  0.00     0.041 A 
ATOM     89  C   UNL     1       8.285  -2.334   3.728  1.00  0.00     0.027 A 
ATOM     90  C   UNL     1       8.438  -4.702   4.044  1.00  0.00     0.027 A 
ATOM     91  C   UNL     1       9.668  -2.261   3.756  1.00  0.00     0.024 A 
ATOM     92  C   UNL     1       9.839  -4.640   4.100  1.00  0.00     0.024 A 
ATOM     93  C   UNL     1      10.450  -3.412   3.952  1.00  0.00     0.088 A 
BRANCH  93  94
ATOM     94  S   UNL     1      12.171  -3.094   3.793  1.00  0.00     0.264 S 
ATOM     95  O   UNL     1      12.352  -2.949   2.360  1.00  0.00    -0.201 OA
ATOM     96  O   UNL     1      12.390  -1.965   4.684  1.00  0.00    -0.201 OA
BRANCH  94  97
ATOM     97  N   UNL     1      13.249  -4.369   4.356  1.00  0.00    -0.266 N 
ATOM     98  C   UNL     1      13.076  -5.724   3.704  1.00  0.00     0.140 C 
ATOM     99  C   UNL     1      14.571  -3.928   3.891  1.00  0.00     0.055 A 
ATOM    100  C   UNL     1      14.186  -5.913   2.658  1.00  0.00     0.060 C 
ATOM    101  C   UNL     1      14.899  -4.612   2.724  1.00  0.00    -0.022 A 
ATOM    102  C   UNL     1      15.133  -2.694   4.191  1.00  0.00     0.027 A 
ATOM    103  C   UNL     1      15.605  -3.977   1.717  1.00  0.00     0.006 A 
ATOM    104  C   UNL     1      15.818  -2.035   3.170  1.00  0.00     0.002 A 
ATOM    105  C   UNL     1      16.010  -2.656   1.927  1.00  0.00     0.000 A 
ENDBRANCH  94  97
ENDBRANCH  93  94
ENDBRANCH  86  88
ENDBRANCH  80  84
ENDBRANCH  75  78
ENDBRANCH  73  74
ENDBRANCH   1  73
TORSDOF 15
