REMARK SMILES O=C(NCCCCNC(=O)c1ccc(N2C(=O)[C@@H]3N=NC(c4ccccc4)=C3[C@H]2c2cccc(Br)c2)cc1)c1ccc(-c2c3nc(c(-c4c(F)c(F)c(F)c(F)c4F)c4ccc([nH]4)c(-c4c(F)c(F)c(F)c(F)c4F)c4nc(c(-c5c(F)c(F)c(F)c(F)c5F)c5ccc2[nH]5)C=C4)C=C3)cc1
REMARK SMILES IDX 5 1 4 2 3 3 1 4 2 5 39 7 40 8 101 9 41 10 100 11 42 12 43 13
REMARK SMILES IDX 44 14 94 15 45 16 99 17 93 18 95 19 46 20 98 21 92 22 91 23
REMARK SMILES IDX 47 25 79 26 59 27 78 28 60 29 63 30 77 31 96 32 61 33 62 34
REMARK SMILES IDX 76 36 97 37 64 38 48 39 49 40 57 41 50 42 51 43 55 44 58 45
REMARK SMILES IDX 52 46 53 47 56 48 54 49 80 50 81 51 89 52 82 53 83 54 87 55
REMARK SMILES IDX 90 56 84 57 85 58 88 59 86 60 65 61 66 62 74 63 67 64 68 65
REMARK SMILES IDX 72 66 75 67 69 68 70 69 73 70 71 71 6 72 7 73 8 74 9 75
REMARK SMILES IDX 10 77 11 78 12 79 38 80 13 81 37 82 14 83 15 84 16 85 29 86
REMARK SMILES IDX 18 87 17 88 28 89 19 90 21 91 20 92 30 93 31 94 36 95 32 96
REMARK SMILES IDX 34 97 33 98 35 99 22 100 23 101 27 102 24 103 26 104 25 105
REMARK H PARENT 3 6 95 24 63 35 8 76
REMARK Flexibility Score: inf
ROOT
ATOM      1  C   UNL     1       5.035   2.154  -0.850  1.00  0.00     0.023 C 
ENDROOT
BRANCH   1   2
ATOM      2  C   UNL     1       4.678   1.025   0.117  1.00  0.00     0.116 C 
BRANCH   2   3
ATOM      3  N   UNL     1       3.262   0.893   0.389  1.00  0.00    -0.352 N 
ATOM      4  O   UNL     1       1.185   0.190   0.547  1.00  0.00    -0.269 OA
ATOM      5  C   UNL     1       2.226   0.157  -0.115  1.00  0.00     0.251 C 
ATOM      6  H   UNL     1       2.971   1.482   1.123  1.00  0.00     0.163 HD
BRANCH   5   7
ATOM      7  C   UNL     1       2.224  -0.619  -1.389  1.00  0.00     0.039 A 
ATOM      8  C   UNL     1       3.317  -0.848  -2.224  1.00  0.00     0.014 A 
ATOM      9  C   UNL     1       0.968  -1.129  -1.786  1.00  0.00     0.014 A 
ATOM     10  C   UNL     1       3.143  -1.512  -3.445  1.00  0.00     0.010 A 
ATOM     11  C   UNL     1       0.790  -1.789  -3.000  1.00  0.00     0.010 A 
ATOM     12  C   UNL     1       1.875  -1.954  -3.851  1.00  0.00    -0.014 A 
BRANCH  12  13
ATOM     13  C   UNL     1       1.755  -2.705  -5.105  1.00  0.00     0.031 A 
ATOM     14  C   UNL     1       2.503  -3.998  -5.137  1.00  0.00     0.074 A 
ATOM     15  C   UNL     1       0.934  -2.381  -6.129  1.00  0.00     0.049 A 
ATOM     16  N   UNL     1       3.449  -4.358  -5.944  1.00  0.00    -0.248 NA
ATOM     17  C   UNL     1       2.207  -4.987  -4.088  1.00  0.00     0.031 C 
ATOM     18  C   UNL     1      -0.098  -1.343  -6.177  1.00  0.00     0.029 A 
ATOM     19  N   UNL     1       0.807  -2.990  -7.347  1.00  0.00    -0.354 N 
ATOM     20  C   UNL     1       3.777  -5.670  -5.603  1.00  0.00     0.074 A 
ATOM     21  C   UNL     1       3.057  -5.969  -4.392  1.00  0.00     0.031 C 
ATOM     22  C   UNL     1      -0.873  -1.527  -7.273  1.00  0.00     0.029 A 
ATOM     23  C   UNL     1      -0.310  -2.599  -8.077  1.00  0.00     0.049 A 
ATOM     24  H   UNL     1       1.455  -3.652  -7.680  1.00  0.00     0.167 HD
ATOM     25  C   UNL     1       4.490  -6.476  -6.440  1.00  0.00     0.037 A 
ATOM     26  C   UNL     1      -0.758  -3.142  -9.239  1.00  0.00     0.037 A 
ATOM     27  C   UNL     1       5.208  -5.712  -7.423  1.00  0.00     0.049 A 
ATOM     28  C   UNL     1       0.368  -3.878  -9.857  1.00  0.00     0.074 A 
ATOM     29  C   UNL     1       6.204  -4.756  -7.370  1.00  0.00     0.029 A 
ATOM     30  N   UNL     1       4.697  -5.636  -8.694  1.00  0.00    -0.354 N 
ATOM     31  N   UNL     1       1.425  -3.310 -10.364  1.00  0.00    -0.248 NA
ATOM     32  C   UNL     1       0.505  -5.290  -9.538  1.00  0.00     0.031 C 
ATOM     33  C   UNL     1       5.881  -3.833  -8.407  1.00  0.00     0.029 A 
ATOM     34  C   UNL     1       4.748  -4.317  -9.061  1.00  0.00     0.049 A 
ATOM     35  H   UNL     1       4.360  -6.384  -9.237  1.00  0.00     0.167 HD
ATOM     36  C   UNL     1       2.469  -4.152 -10.022  1.00  0.00     0.074 A 
ATOM     37  C   UNL     1       1.834  -5.396  -9.595  1.00  0.00     0.031 C 
ATOM     38  C   UNL     1       3.733  -3.671  -9.856  1.00  0.00     0.037 A 
BRANCH  25  39
ATOM     39  C   UNL     1       4.292  -7.965  -6.572  1.00  0.00     0.064 A 
ATOM     40  C   UNL     1       5.188  -8.720  -7.357  1.00  0.00     0.173 A 
ATOM     41  C   UNL     1       3.095  -8.622  -6.216  1.00  0.00     0.173 A 
ATOM     42  F   UNL     1       6.349  -8.190  -7.772  1.00  0.00    -0.203 F 
ATOM     43  C   UNL     1       4.872 -10.003  -7.814  1.00  0.00     0.198 A 
ATOM     44  C   UNL     1       2.805  -9.921  -6.632  1.00  0.00     0.198 A 
ATOM     45  F   UNL     1       2.115  -7.998  -5.552  1.00  0.00    -0.203 F 
ATOM     46  F   UNL     1       5.699 -10.631  -8.661  1.00  0.00    -0.200 F 
ATOM     47  C   UNL     1       3.677 -10.599  -7.457  1.00  0.00     0.200 A 
ATOM     48  F   UNL     1       1.633 -10.475  -6.292  1.00  0.00    -0.200 F 
ATOM     49  F   UNL     1       3.343 -11.801  -7.945  1.00  0.00    -0.200 F 
ENDBRANCH  25  39
BRANCH  26  50
ATOM     50  C   UNL     1      -2.152  -3.330  -9.711  1.00  0.00     0.064 A 
ATOM     51  C   UNL     1      -2.437  -3.602 -11.061  1.00  0.00     0.173 A 
ATOM     52  C   UNL     1      -3.197  -3.554  -8.795  1.00  0.00     0.173 A 
ATOM     53  F   UNL     1      -1.483  -3.463 -11.994  1.00  0.00    -0.203 F 
ATOM     54  C   UNL     1      -3.683  -4.096 -11.465  1.00  0.00     0.198 A 
ATOM     55  C   UNL     1      -4.440  -4.044  -9.199  1.00  0.00     0.198 A 
ATOM     56  F   UNL     1      -2.996  -3.401  -7.479  1.00  0.00    -0.203 F 
ATOM     57  F   UNL     1      -3.896  -4.407 -12.752  1.00  0.00    -0.200 F 
ATOM     58  C   UNL     1      -4.679  -4.329 -10.531  1.00  0.00     0.200 A 
ATOM     59  F   UNL     1      -5.381  -4.305  -8.281  1.00  0.00    -0.200 F 
ATOM     60  F   UNL     1      -5.849  -4.866 -10.906  1.00  0.00    -0.200 F 
ENDBRANCH  26  50
BRANCH  38  61
ATOM     61  C   UNL     1       4.021  -2.269 -10.311  1.00  0.00     0.064 A 
ATOM     62  C   UNL     1       3.416  -1.123  -9.765  1.00  0.00     0.173 A 
ATOM     63  C   UNL     1       5.066  -2.074 -11.225  1.00  0.00     0.173 A 
ATOM     64  F   UNL     1       2.477  -1.223  -8.816  1.00  0.00    -0.203 F 
ATOM     65  C   UNL     1       3.819   0.156 -10.146  1.00  0.00     0.198 A 
ATOM     66  C   UNL     1       5.491  -0.796 -11.575  1.00  0.00     0.198 A 
ATOM     67  F   UNL     1       5.715  -3.131 -11.738  1.00  0.00    -0.203 F 
ATOM     68  F   UNL     1       3.224   1.235  -9.616  1.00  0.00    -0.200 F 
ATOM     69  C   UNL     1       4.862   0.318 -11.043  1.00  0.00     0.200 A 
ATOM     70  F   UNL     1       6.533  -0.646 -12.403  1.00  0.00    -0.200 F 
ATOM     71  F   UNL     1       5.283   1.547 -11.371  1.00  0.00    -0.200 F 
ENDBRANCH  38  61
ENDBRANCH  12  13
ENDBRANCH   5   7
ENDBRANCH   2   3
ENDBRANCH   1   2
BRANCH   1  72
ATOM     72  C   UNL     1       4.515   3.554  -0.483  1.00  0.00     0.023 C 
BRANCH  72  73
ATOM     73  C   UNL     1       4.882   4.102   0.902  1.00  0.00     0.116 C 
BRANCH  73  74
ATOM     74  N   UNL     1       6.304   4.335   1.068  1.00  0.00    -0.352 N 
ATOM     75  C   UNL     1       6.977   5.454   1.507  1.00  0.00     0.251 C 
ATOM     76  H   UNL     1       6.880   3.573   0.828  1.00  0.00     0.163 HD
ATOM     77  O   UNL     1       8.200   5.470   1.463  1.00  0.00    -0.269 OA
BRANCH  75  78
ATOM     78  C   UNL     1       6.257   6.662   1.991  1.00  0.00     0.039 A 
ATOM     79  C   UNL     1       6.630   7.889   1.442  1.00  0.00     0.016 A 
ATOM     80  C   UNL     1       5.291   6.634   3.007  1.00  0.00     0.016 A 
ATOM     81  C   UNL     1       5.988   9.062   1.850  1.00  0.00     0.027 A 
ATOM     82  C   UNL     1       4.650   7.823   3.427  1.00  0.00     0.027 A 
ATOM     83  C   UNL     1       4.977   9.044   2.832  1.00  0.00     0.045 A 
BRANCH  83  84
ATOM     84  N   UNL     1       4.230  10.246   3.104  1.00  0.00    -0.299 N 
ATOM     85  C   UNL     1       3.852  10.971   1.919  1.00  0.00     0.259 C 
ATOM     86  C   UNL     1       4.704  11.191   4.152  1.00  0.00     0.152 C 
ATOM     87  C   UNL     1       4.166  12.421   2.137  1.00  0.00     0.248 C 
ATOM     88  O   UNL     1       3.417  10.487   0.881  1.00  0.00    -0.271 OA
ATOM     89  C   UNL     1       5.143  12.259   3.235  1.00  0.00     0.021 C 
ATOM     90  N   UNL     1       4.984  13.083   1.110  1.00  0.00    -0.170 NA
ATOM     91  C   UNL     1       6.204  12.990   2.916  1.00  0.00     0.097 C 
ATOM     92  N   UNL     1       6.058  13.505   1.643  1.00  0.00    -0.154 NA
BRANCH  86  93
ATOM     93  C   UNL     1       3.631  11.753   5.117  1.00  0.00    -0.020 A 
ATOM     94  C   UNL     1       3.416  13.155   5.236  1.00  0.00     0.006 A 
ATOM     95  C   UNL     1       2.906  10.933   5.995  1.00  0.00     0.022 A 
ATOM     96  C   UNL     1       2.524  13.712   6.153  1.00  0.00     0.002 A 
ATOM     97  C   UNL     1       2.029  11.503   6.939  1.00  0.00     0.018 A 
ATOM     98  C   UNL     1       1.834  12.883   7.018  1.00  0.00     0.016 A 
ATOM     99  Br  UNL     1       1.111  10.395   8.169  1.00  0.00    -0.051 Br
ENDBRANCH  86  93
BRANCH  91 100
ATOM    100  C   UNL     1       7.466  13.168   3.628  1.00  0.00     0.002 A 
ATOM    101  C   UNL     1       7.565  14.085   4.684  1.00  0.00     0.010 A 
ATOM    102  C   UNL     1       8.631  12.585   3.116  1.00  0.00     0.010 A 
ATOM    103  C   UNL     1       8.821  14.482   5.152  1.00  0.00     0.001 A 
ATOM    104  C   UNL     1       9.883  12.980   3.589  1.00  0.00     0.001 A 
ATOM    105  C   UNL     1       9.978  13.949   4.586  1.00  0.00     0.000 A 
ENDBRANCH  91 100
ENDBRANCH  83  84
ENDBRANCH  75  78
ENDBRANCH  73  74
ENDBRANCH  72  73
ENDBRANCH   1  72
TORSDOF 14
