REMARK SMILES CC(C)Oc1ccccc1NCc1cc(C(=O)NCCCCNC(=O)c2ccc(-c3c4nc(c(-c5c(F)c(F)c(F)c(F)c5F)c5ccc([nH]5)c(-c5c(F)c(F)c(F)c(F)c5F)c5nc(c(-c6c(F)c(F)c(F)c(F)c6F)c6ccc3[nH]6)C=C5)C=C4)cc2)cs1
REMARK SMILES IDX 19 1 18 2 16 3 17 4 15 6 13 7 14 8 90 9 89 10 12 11 11 12
REMARK SMILES IDX 10 14 5 15 6 16 7 17 9 18 8 19 4 20 2 21 1 22 3 23 20 24
REMARK SMILES IDX 21 25 22 26 23 27 24 28 25 30 26 31 27 32 88 33 28 34 87 35
REMARK SMILES IDX 29 36 30 37 31 38 81 39 32 40 86 41 80 42 82 43 33 44 85 45
REMARK SMILES IDX 79 46 78 47 34 49 66 50 46 51 65 52 47 53 50 54 64 55 83 56
REMARK SMILES IDX 48 57 49 58 63 60 84 61 51 62 35 63 36 64 44 65 37 66 38 67
REMARK SMILES IDX 42 68 45 69 39 70 40 71 43 72 41 73 67 74 68 75 76 76 69 77
REMARK SMILES IDX 70 78 74 79 77 80 71 81 72 82 75 83 73 84 52 85 53 86 61 87
REMARK SMILES IDX 54 88 55 89 59 90 62 91 56 92 57 93 60 94 58 95
REMARK H PARENT 18 5 11 13 23 29 82 48 50 59
REMARK Flexibility Score: inf
ROOT
ATOM      1  C   UNL     1       3.167   1.837  -2.124  1.00  0.00     0.116 C 
ENDROOT
BRANCH   1   2
ATOM      2  N   UNL     1       4.165   1.340  -3.044  1.00  0.00    -0.352 N 
ATOM      3  C   UNL     1       4.418   0.052  -3.452  1.00  0.00     0.252 C 
ATOM      4  O   UNL     1       5.413  -0.138  -4.151  1.00  0.00    -0.269 OA
ATOM      5  H   UNL     1       4.750   2.026  -3.438  1.00  0.00     0.163 HD
BRANCH   3   6
ATOM      6  C   UNL     1       3.558  -1.055  -3.027  1.00  0.00     0.050 A 
ATOM      7  C   UNL     1       1.667  -2.309  -2.368  1.00  0.00     0.024 A 
ATOM      8  C   UNL     1       2.131  -1.091  -2.835  1.00  0.00     0.031 A 
ATOM      9  S   UNL     1       2.936  -3.455  -2.279  1.00  0.00    -0.146 S 
ATOM     10  C   UNL     1       4.089  -2.315  -2.808  1.00  0.00     0.079 A 
BRANCH   7  11
ATOM     11  C   UNL     1       0.268  -2.715  -1.980  1.00  0.00     0.160 C 
BRANCH  11  12
ATOM     12  N   UNL     1      -0.473  -1.695  -1.266  1.00  0.00    -0.377 N 
ATOM     13  H   UNL     1      -0.241  -1.582  -0.316  1.00  0.00     0.161 HD
BRANCH  12  14
ATOM     14  C   UNL     1      -1.462  -0.862  -1.747  1.00  0.00     0.077 A 
ATOM     15  C   UNL     1      -1.931   0.193  -0.937  1.00  0.00     0.142 A 
ATOM     16  C   UNL     1      -2.973   1.031  -1.342  1.00  0.00     0.048 A 
ATOM     17  C   UNL     1      -3.527   0.877  -2.608  1.00  0.00     0.004 A 
ATOM     18  C   UNL     1      -2.025  -0.981  -3.021  1.00  0.00     0.029 A 
ATOM     19  C   UNL     1      -3.049  -0.125  -3.448  1.00  0.00     0.002 A 
BRANCH  15  20
ATOM     20  O   UNL     1      -1.413   0.366   0.323  1.00  0.00    -0.489 OA
BRANCH  20  21
ATOM     21  C   UNL     1      -0.345   1.324   0.446  1.00  0.00     0.167 C 
ATOM     22  C   UNL     1       0.947   0.576   0.774  1.00  0.00     0.052 C 
ATOM     23  C   UNL     1      -0.121   2.305  -0.705  1.00  0.00     0.052 C 
ENDBRANCH  20  21
ENDBRANCH  15  20
ENDBRANCH  12  14
ENDBRANCH  11  12
ENDBRANCH   7  11
ENDBRANCH   3   6
ENDBRANCH   1   2
BRANCH   1  24
ATOM     24  C   UNL     1       3.725   2.820  -1.098  1.00  0.00     0.023 C 
BRANCH  24  25
ATOM     25  C   UNL     1       4.206   4.168  -1.629  1.00  0.00     0.023 C 
BRANCH  25  26
ATOM     26  C   UNL     1       3.283   4.894  -2.602  1.00  0.00     0.116 C 
BRANCH  26  27
ATOM     27  N   UNL     1       1.939   5.126  -2.098  1.00  0.00    -0.352 N 
ATOM     28  C   UNL     1       1.215   6.291  -1.954  1.00  0.00     0.251 C 
ATOM     29  H   UNL     1       1.465   4.312  -1.810  1.00  0.00     0.163 HD
ATOM     30  O   UNL     1       0.110   6.265  -1.427  1.00  0.00    -0.269 OA
BRANCH  28  31
ATOM     31  C   UNL     1       1.790   7.576  -2.401  1.00  0.00     0.039 A 
ATOM     32  C   UNL     1       1.708   8.687  -1.557  1.00  0.00     0.014 A 
ATOM     33  C   UNL     1       2.440   7.676  -3.630  1.00  0.00     0.014 A 
ATOM     34  C   UNL     1       2.383   9.863  -1.894  1.00  0.00     0.010 A 
ATOM     35  C   UNL     1       3.189   8.810  -3.920  1.00  0.00     0.010 A 
ATOM     36  C   UNL     1       3.181   9.909  -3.048  1.00  0.00    -0.014 A 
BRANCH  36  37
ATOM     37  C   UNL     1       4.040  11.079  -3.366  1.00  0.00     0.031 A 
ATOM     38  C   UNL     1       3.834  11.828  -4.653  1.00  0.00     0.074 A 
ATOM     39  C   UNL     1       5.077  11.386  -2.562  1.00  0.00     0.049 A 
ATOM     40  N   UNL     1       4.580  12.750  -5.204  1.00  0.00    -0.248 NA
ATOM     41  C   UNL     1       2.651  11.457  -5.446  1.00  0.00     0.031 C 
ATOM     42  C   UNL     1       5.418  10.698  -1.315  1.00  0.00     0.029 A 
ATOM     43  N   UNL     1       6.053  12.343  -2.688  1.00  0.00    -0.354 N 
ATOM     44  C   UNL     1       3.980  13.040  -6.422  1.00  0.00     0.074 A 
ATOM     45  C   UNL     1       2.834  12.166  -6.550  1.00  0.00     0.031 C 
ATOM     46  C   UNL     1       6.511  11.266  -0.783  1.00  0.00     0.029 A 
ATOM     47  C   UNL     1       6.975  12.327  -1.670  1.00  0.00     0.049 A 
ATOM     48  H   UNL     1       6.089  12.980  -3.438  1.00  0.00     0.167 HD
ATOM     49  C   UNL     1       4.341  13.966  -7.341  1.00  0.00     0.037 A 
ATOM     50  C   UNL     1       8.078  13.077  -1.481  1.00  0.00     0.037 A 
ATOM     51  C   UNL     1       5.451  14.868  -7.186  1.00  0.00     0.049 A 
ATOM     52  C   UNL     1       8.434  14.126  -2.498  1.00  0.00     0.074 A 
ATOM     53  C   UNL     1       5.860  15.887  -8.028  1.00  0.00     0.029 A 
ATOM     54  N   UNL     1       6.323  14.864  -6.107  1.00  0.00    -0.354 N 
ATOM     55  N   UNL     1       7.830  14.427  -3.622  1.00  0.00    -0.248 NA
ATOM     56  C   UNL     1       9.623  14.944  -2.219  1.00  0.00     0.031 C 
ATOM     57  C   UNL     1       6.997  16.483  -7.471  1.00  0.00     0.029 A 
ATOM     58  C   UNL     1       7.272  15.861  -6.264  1.00  0.00     0.049 A 
ATOM     59  H   UNL     1       6.275  14.245  -5.344  1.00  0.00     0.167 HD
ATOM     60  C   UNL     1       8.542  15.486  -4.166  1.00  0.00     0.074 A 
ATOM     61  C   UNL     1       9.621  15.781  -3.247  1.00  0.00     0.031 C 
ATOM     62  C   UNL     1       8.323  16.154  -5.325  1.00  0.00     0.037 A 
BRANCH  49  63
ATOM     63  C   UNL     1       3.519  14.057  -8.593  1.00  0.00     0.064 A 
ATOM     64  C   UNL     1       2.208  14.559  -8.576  1.00  0.00     0.173 A 
ATOM     65  C   UNL     1       4.054  13.662  -9.828  1.00  0.00     0.173 A 
ATOM     66  F   UNL     1       1.646  14.937  -7.418  1.00  0.00    -0.203 F 
ATOM     67  C   UNL     1       1.454  14.632  -9.744  1.00  0.00     0.198 A 
ATOM     68  C   UNL     1       3.307  13.764 -10.998  1.00  0.00     0.198 A 
ATOM     69  F   UNL     1       5.304  13.179  -9.900  1.00  0.00    -0.203 F 
ATOM     70  F   UNL     1       0.187  15.065  -9.694  1.00  0.00    -0.200 F 
ATOM     71  C   UNL     1       2.006  14.241 -10.954  1.00  0.00     0.200 A 
ATOM     72  F   UNL     1       3.845  13.397 -12.170  1.00  0.00    -0.200 F 
ATOM     73  F   UNL     1       1.280  14.316 -12.078  1.00  0.00    -0.200 F 
ENDBRANCH  49  63
BRANCH  50  74
ATOM     74  C   UNL     1       8.908  12.886  -0.264  1.00  0.00     0.064 A 
ATOM     75  C   UNL     1       8.916  13.850   0.753  1.00  0.00     0.173 A 
ATOM     76  C   UNL     1       9.706  11.746  -0.090  1.00  0.00     0.173 A 
ATOM     77  F   UNL     1       8.183  14.966   0.623  1.00  0.00    -0.203 F 
ATOM     78  C   UNL     1       9.707  13.693   1.889  1.00  0.00     0.198 A 
ATOM     79  C   UNL     1      10.478  11.578   1.058  1.00  0.00     0.198 A 
ATOM     80  F   UNL     1       9.728  10.791  -1.032  1.00  0.00    -0.203 F 
ATOM     81  F   UNL     1       9.729  14.651   2.826  1.00  0.00    -0.200 F 
ATOM     82  C   UNL     1      10.484  12.555   2.043  1.00  0.00     0.200 A 
ATOM     83  F   UNL     1      11.217  10.471   1.209  1.00  0.00    -0.200 F 
ATOM     84  F   UNL     1      11.243  12.402   3.136  1.00  0.00    -0.200 F 
ENDBRANCH  50  74
BRANCH  62  85
ATOM     85  C   UNL     1       9.233  17.302  -5.640  1.00  0.00     0.064 A 
ATOM     86  C   UNL     1      10.550  17.099  -6.076  1.00  0.00     0.173 A 
ATOM     87  C   UNL     1       8.761  18.620  -5.555  1.00  0.00     0.173 A 
ATOM     88  F   UNL     1      11.050  15.857  -6.157  1.00  0.00    -0.203 F 
ATOM     89  C   UNL     1      11.368  18.178  -6.399  1.00  0.00     0.198 A 
ATOM     90  C   UNL     1       9.573  19.695  -5.903  1.00  0.00     0.198 A 
ATOM     91  F   UNL     1       7.506  18.864  -5.148  1.00  0.00    -0.203 F 
ATOM     92  F   UNL     1      12.635  17.965  -6.778  1.00  0.00    -0.200 F 
ATOM     93  C   UNL     1      10.877  19.473  -6.320  1.00  0.00     0.200 A 
ATOM     94  F   UNL     1       9.094  20.945  -5.837  1.00  0.00    -0.200 F 
ATOM     95  F   UNL     1      11.664  20.510  -6.642  1.00  0.00    -0.200 F 
ENDBRANCH  62  85
ENDBRANCH  36  37
ENDBRANCH  28  31
ENDBRANCH  26  27
ENDBRANCH  25  26
ENDBRANCH  24  25
ENDBRANCH   1  24
TORSDOF 16
