REMARK SMILES O=C(NCCCCNC(=O)[C@@H]1C=C[C@@H]([NH+]2CC3(CC3)C2)C1)c1ccc(-c2c3nc(c(-c4c(F)c(F)c(F)c(F)c4F)c4ccc([nH]4)c(-c4c(F)c(F)c(F)c(F)c4F)c4nc(c(-c5c(F)c(F)c(F)c(F)c5F)c5ccc2[nH]5)C=C4)C=C3)cc1
REMARK SMILES IDX 5 1 4 2 3 3 1 4 2 5 22 7 23 8 84 9 24 10 83 11 25 12 26 13
REMARK SMILES IDX 27 14 77 15 28 16 82 17 76 18 78 19 29 20 81 21 75 22 74 23
REMARK SMILES IDX 30 25 62 26 42 27 61 28 43 29 46 30 60 31 79 32 44 33 45 34
REMARK SMILES IDX 59 36 80 37 47 38 31 39 32 40 40 41 33 42 34 43 38 44 41 45
REMARK SMILES IDX 35 46 36 47 39 48 37 49 63 50 64 51 72 52 65 53 66 54 70 55
REMARK SMILES IDX 73 56 67 57 68 58 71 59 69 60 48 61 49 62 57 63 50 64 51 65
REMARK SMILES IDX 55 66 58 67 52 68 53 69 56 70 54 71 6 72 7 73 8 74 9 75
REMARK SMILES IDX 10 77 11 78 12 79 21 80 13 81 14 82 15 83 16 84 20 85 17 87
REMARK SMILES IDX 18 88 19 89
REMARK H PARENT 3 6 78 24 46 35 8 76 15 86
REMARK Flexibility Score: inf
ROOT
ATOM      1  C   UNL     1       3.626   3.081   2.056  1.00  0.00     0.023 C 
ENDROOT
BRANCH   1   2
ATOM      2  C   UNL     1       2.792   4.350   2.167  1.00  0.00     0.116 C 
BRANCH   2   3
ATOM      3  N   UNL     1       3.278   5.420   1.311  1.00  0.00    -0.352 N 
ATOM      4  O   UNL     1       3.225   6.885  -0.404  1.00  0.00    -0.269 OA
ATOM      5  C   UNL     1       2.614   6.114   0.330  1.00  0.00     0.251 C 
ATOM      6  H   UNL     1       4.216   5.684   1.455  1.00  0.00     0.163 HD
BRANCH   5   7
ATOM      7  C   UNL     1       1.161   5.915   0.145  1.00  0.00     0.039 A 
ATOM      8  C   UNL     1       0.299   5.907   1.244  1.00  0.00     0.014 A 
ATOM      9  C   UNL     1       0.655   5.752  -1.148  1.00  0.00     0.014 A 
ATOM     10  C   UNL     1      -1.048   5.611   1.065  1.00  0.00     0.010 A 
ATOM     11  C   UNL     1      -0.713   5.539  -1.334  1.00  0.00     0.010 A 
ATOM     12  C   UNL     1      -1.572   5.450  -0.227  1.00  0.00    -0.014 A 
BRANCH  12  13
ATOM     13  C   UNL     1      -3.037   5.299  -0.406  1.00  0.00     0.031 A 
ATOM     14  C   UNL     1      -3.630   4.041  -0.970  1.00  0.00     0.074 A 
ATOM     15  C   UNL     1      -3.830   6.331  -0.060  1.00  0.00     0.049 A 
ATOM     16  N   UNL     1      -4.884   3.766  -1.228  1.00  0.00    -0.248 NA
ATOM     17  C   UNL     1      -2.699   2.950  -1.297  1.00  0.00     0.031 C 
ATOM     18  C   UNL     1      -3.358   7.608   0.482  1.00  0.00     0.029 A 
ATOM     19  N   UNL     1      -5.193   6.479  -0.114  1.00  0.00    -0.354 N 
ATOM     20  C   UNL     1      -4.893   2.486  -1.765  1.00  0.00     0.074 A 
ATOM     21  C   UNL     1      -3.517   2.040  -1.812  1.00  0.00     0.031 C 
ATOM     22  C   UNL     1      -4.411   8.399   0.730  1.00  0.00     0.029 A 
ATOM     23  C   UNL     1      -5.625   7.714   0.301  1.00  0.00     0.049 A 
ATOM     24  H   UNL     1      -5.801   5.768  -0.420  1.00  0.00     0.167 HD
ATOM     25  C   UNL     1      -5.958   1.757  -2.177  1.00  0.00     0.037 A 
ATOM     26  C   UNL     1      -6.857   8.254   0.301  1.00  0.00     0.037 A 
ATOM     27  C   UNL     1      -7.325   2.205  -2.101  1.00  0.00     0.049 A 
ATOM     28  C   UNL     1      -8.010   7.431  -0.196  1.00  0.00     0.074 A 
ATOM     29  C   UNL     1      -8.479   1.507  -2.416  1.00  0.00     0.029 A 
ATOM     30  N   UNL     1      -7.723   3.471  -1.697  1.00  0.00    -0.354 N 
ATOM     31  N   UNL     1      -8.014   6.197  -0.636  1.00  0.00    -0.248 NA
ATOM     32  C   UNL     1      -9.329   8.077  -0.205  1.00  0.00     0.031 C 
ATOM     33  C   UNL     1      -9.568   2.370  -2.262  1.00  0.00     0.029 A 
ATOM     34  C   UNL     1      -9.100   3.589  -1.798  1.00  0.00     0.049 A 
ATOM     35  H   UNL     1      -7.116   4.181  -1.384  1.00  0.00     0.167 HD
ATOM     36  C   UNL     1      -9.331   5.913  -0.962  1.00  0.00     0.074 A 
ATOM     37  C   UNL     1     -10.104   7.096  -0.646  1.00  0.00     0.031 C 
ATOM     38  C   UNL     1      -9.853   4.776  -1.484  1.00  0.00     0.037 A 
BRANCH  25  39
ATOM     39  C   UNL     1      -5.703   0.401  -2.769  1.00  0.00     0.064 A 
ATOM     40  C   UNL     1      -5.317  -0.692  -1.982  1.00  0.00     0.173 A 
ATOM     41  C   UNL     1      -5.937   0.175  -4.135  1.00  0.00     0.173 A 
ATOM     42  F   UNL     1      -5.075  -0.529  -0.672  1.00  0.00    -0.203 F 
ATOM     43  C   UNL     1      -5.161  -1.959  -2.541  1.00  0.00     0.198 A 
ATOM     44  C   UNL     1      -5.806  -1.097  -4.686  1.00  0.00     0.198 A 
ATOM     45  F   UNL     1      -6.317   1.185  -4.932  1.00  0.00    -0.203 F 
ATOM     46  F   UNL     1      -4.765  -2.985  -1.774  1.00  0.00    -0.200 F 
ATOM     47  C   UNL     1      -5.415  -2.162  -3.890  1.00  0.00     0.200 A 
ATOM     48  F   UNL     1      -6.066  -1.294  -5.986  1.00  0.00    -0.200 F 
ATOM     49  F   UNL     1      -5.282  -3.385  -4.422  1.00  0.00    -0.200 F 
ENDBRANCH  25  39
BRANCH  26  50
ATOM     50  C   UNL     1      -7.049   9.657   0.750  1.00  0.00     0.064 A 
ATOM     51  C   UNL     1      -7.766   9.954   1.917  1.00  0.00     0.173 A 
ATOM     52  C   UNL     1      -6.519  10.732   0.019  1.00  0.00     0.173 A 
ATOM     53  F   UNL     1      -8.307   8.963   2.640  1.00  0.00    -0.203 F 
ATOM     54  C   UNL     1      -7.963  11.272   2.323  1.00  0.00     0.198 A 
ATOM     55  C   UNL     1      -6.687  12.046   0.444  1.00  0.00     0.198 A 
ATOM     56  F   UNL     1      -5.820  10.502  -1.103  1.00  0.00    -0.203 F 
ATOM     57  F   UNL     1      -8.694  11.531   3.416  1.00  0.00    -0.200 F 
ATOM     58  C   UNL     1      -7.418  12.316   1.591  1.00  0.00     0.200 A 
ATOM     59  F   UNL     1      -6.143  13.050  -0.257  1.00  0.00    -0.200 F 
ATOM     60  F   UNL     1      -7.604  13.583   1.985  1.00  0.00    -0.200 F 
ENDBRANCH  26  50
BRANCH  38  61
ATOM     61  C   UNL     1     -11.332   4.755  -1.734  1.00  0.00     0.064 A 
ATOM     62  C   UNL     1     -11.906   5.483  -2.785  1.00  0.00     0.173 A 
ATOM     63  C   UNL     1     -12.177   3.965  -0.940  1.00  0.00     0.173 A 
ATOM     64  F   UNL     1     -11.141   6.269  -3.559  1.00  0.00    -0.203 F 
ATOM     65  C   UNL     1     -13.277   5.436  -3.023  1.00  0.00     0.198 A 
ATOM     66  C   UNL     1     -13.543   3.896  -1.200  1.00  0.00     0.198 A 
ATOM     67  F   UNL     1     -11.676   3.247   0.076  1.00  0.00    -0.203 F 
ATOM     68  F   UNL     1     -13.810   6.173  -4.006  1.00  0.00    -0.200 F 
ATOM     69  C   UNL     1     -14.092   4.635  -2.236  1.00  0.00     0.200 A 
ATOM     70  F   UNL     1     -14.327   3.112  -0.447  1.00  0.00    -0.200 F 
ATOM     71  F   UNL     1     -15.410   4.582  -2.473  1.00  0.00    -0.200 F 
ENDBRANCH  38  61
ENDBRANCH  12  13
ENDBRANCH   5   7
ENDBRANCH   2   3
ENDBRANCH   1   2
BRANCH   1  72
ATOM     72  C   UNL     1       5.082   3.220   2.493  1.00  0.00     0.023 C 
BRANCH  72  73
ATOM     73  C   UNL     1       5.289   3.807   3.886  1.00  0.00     0.116 C 
BRANCH  73  74
ATOM     74  N   UNL     1       4.643   3.024   4.923  1.00  0.00    -0.356 N 
ATOM     75  C   UNL     1       5.158   2.579   6.111  1.00  0.00     0.227 C 
ATOM     76  H   UNL     1       3.706   2.778   4.749  1.00  0.00     0.163 HD
ATOM     77  O   UNL     1       4.413   1.949   6.861  1.00  0.00    -0.274 OA
BRANCH  75  78
ATOM     78  C   UNL     1       6.631   2.859   6.417  1.00  0.00     0.107 C 
ATOM     79  C   UNL     1       7.095   2.251   7.703  1.00  0.00    -0.012 C 
ATOM     80  C   UNL     1       6.910   4.359   6.611  1.00  0.00     0.087 C 
ATOM     81  C   UNL     1       7.471   3.170   8.597  1.00  0.00     0.033 C 
ATOM     82  C   UNL     1       7.316   4.568   8.086  1.00  0.00     0.208 C 
BRANCH  82  83
ATOM     83  N   UNL     1       8.477   5.406   8.398  1.00  0.00    -0.328 N 
ATOM     84  C   UNL     1       9.688   5.062   7.647  1.00  0.00     0.275 C 
ATOM     85  C   UNL     1       8.395   6.733   7.779  1.00  0.00     0.275 C 
ATOM     86  H   UNL     1       8.496   5.318   9.414  1.00  0.00     0.348 HD
ATOM     87  C   UNL     1       9.540   6.346   6.928  1.00  0.00     0.068 C 
ATOM     88  C   UNL     1       9.684   6.578   5.455  1.00  0.00     0.020 C 
ATOM     89  C   UNL     1      10.640   7.223   6.422  1.00  0.00     0.020 C 
ENDBRANCH  82  83
ENDBRANCH  75  78
ENDBRANCH  73  74
ENDBRANCH  72  73
ENDBRANCH   1  72
TORSDOF 12
