REMARK SMILES O=C(NCCCCNC(=O)c1ccc(-n2cc(CSc3nc4ccccc4c(=O)n3-c3ccccc3)nn2)cc1)c1ccc(-c2c3nc(c(-c4c(F)c(F)c(F)c(F)c4F)c4ccc([nH]4)c(-c4c(F)c(F)c(F)c(F)c4F)c4nc(c(-c5c(F)c(F)c(F)c(F)c5F)c5ccc2[nH]5)C=C4)C=C3)cc1
REMARK SMILES IDX 7 1 6 2 5 3 4 4 3 5 1 6 2 7 41 9 42 10 103 11 43 12 102 13
REMARK SMILES IDX 44 14 45 15 46 16 96 17 47 18 101 19 95 20 97 21 48 22
REMARK SMILES IDX 100 23 94 24 93 25 49 27 81 28 61 29 80 30 62 31 65 32 79 33
REMARK SMILES IDX 98 34 63 35 64 36 78 38 99 39 66 40 50 41 51 42 59 43 52 44
REMARK SMILES IDX 53 45 57 46 60 47 54 48 55 49 58 50 56 51 82 52 83 53 91 54
REMARK SMILES IDX 84 55 85 56 89 57 92 58 86 59 87 60 90 61 88 62 67 63 68 64
REMARK SMILES IDX 76 65 69 66 70 67 74 68 77 69 71 70 72 71 75 72 73 73 8 74
REMARK SMILES IDX 9 75 10 77 11 78 12 79 40 80 13 81 39 82 14 83 15 84 16 85
REMARK SMILES IDX 38 86 17 87 37 88 18 89 19 90 20 91 21 92 30 93 22 94 28 95
REMARK SMILES IDX 23 96 27 97 29 98 24 99 26 100 25 101 31 102 32 103 36 104
REMARK SMILES IDX 33 105 35 106 34 107
REMARK H PARENT 3 8 97 26 65 37 8 76
REMARK Flexibility Score: inf
ROOT
ATOM      1  C   UNL     1       4.838  -1.986   3.724  1.00  0.00     0.116 C 
ENDROOT
BRANCH   1   2
ATOM      2  C   UNL     1       4.444  -0.521   3.545  1.00  0.00     0.023 C 
BRANCH   2   3
ATOM      3  C   UNL     1       4.957   0.164   2.274  1.00  0.00     0.023 C 
BRANCH   3   4
ATOM      4  C   UNL     1       4.659  -0.561   0.963  1.00  0.00     0.116 C 
BRANCH   4   5
ATOM      5  N   UNL     1       3.257  -0.826   0.714  1.00  0.00    -0.352 N 
ATOM      6  O   UNL     1       1.183  -0.747  -0.038  1.00  0.00    -0.269 OA
ATOM      7  C   UNL     1       2.215  -0.110   0.193  1.00  0.00     0.251 C 
ATOM      8  H   UNL     1       2.992  -1.735   0.983  1.00  0.00     0.163 HD
BRANCH   7   9
ATOM      9  C   UNL     1       2.209   1.359  -0.051  1.00  0.00     0.039 A 
ATOM     10  C   UNL     1       3.331   2.186  -0.097  1.00  0.00     0.014 A 
ATOM     11  C   UNL     1       0.940   1.943  -0.239  1.00  0.00     0.014 A 
ATOM     12  C   UNL     1       3.184   3.565  -0.253  1.00  0.00     0.010 A 
ATOM     13  C   UNL     1       0.787   3.317  -0.404  1.00  0.00     0.010 A 
ATOM     14  C   UNL     1       1.912   4.133  -0.386  1.00  0.00    -0.014 A 
BRANCH  14  15
ATOM     15  C   UNL     1       1.819   5.562  -0.678  1.00  0.00     0.031 A 
ATOM     16  C   UNL     1       2.350   5.962  -2.012  1.00  0.00     0.074 A 
ATOM     17  C   UNL     1       1.187   6.467   0.097  1.00  0.00     0.049 A 
ATOM     18  N   UNL     1       3.336   6.758  -2.272  1.00  0.00    -0.248 NA
ATOM     19  C   UNL     1       1.762   5.332  -3.204  1.00  0.00     0.031 C 
ATOM     20  C   UNL     1       0.347   6.221   1.269  1.00  0.00     0.029 A 
ATOM     21  N   UNL     1       1.096   7.821  -0.070  1.00  0.00    -0.354 N 
ATOM     22  C   UNL     1       3.405   6.853  -3.661  1.00  0.00     0.074 A 
ATOM     23  C   UNL     1       2.494   5.867  -4.182  1.00  0.00     0.031 C 
ATOM     24  C   UNL     1      -0.327   7.353   1.581  1.00  0.00     0.029 A 
ATOM     25  C   UNL     1       0.129   8.431   0.718  1.00  0.00     0.049 A 
ATOM     26  H   UNL     1       1.668   8.321  -0.695  1.00  0.00     0.167 HD
ATOM     27  C   UNL     1       4.067   7.872  -4.275  1.00  0.00     0.037 A 
ATOM     28  C   UNL     1      -0.302   9.715   0.629  1.00  0.00     0.037 A 
ATOM     29  C   UNL     1       4.968   8.535  -3.372  1.00  0.00     0.049 A 
ATOM     30  C   UNL     1       0.732  10.493  -0.093  1.00  0.00     0.074 A 
ATOM     31  C   UNL     1       6.084   8.160  -2.651  1.00  0.00     0.029 A 
ATOM     32  N   UNL     1       4.577   9.741  -2.849  1.00  0.00    -0.354 N 
ATOM     33  N   UNL     1       1.900  10.794   0.397  1.00  0.00    -0.248 NA
ATOM     34  C   UNL     1       0.608  10.620  -1.536  1.00  0.00     0.031 C 
ATOM     35  C   UNL     1       6.010   8.906  -1.439  1.00  0.00     0.029 A 
ATOM     36  C   UNL     1       4.882   9.723  -1.515  1.00  0.00     0.049 A 
ATOM     37  H   UNL     1       4.155  10.482  -3.341  1.00  0.00     0.167 HD
ATOM     38  C   UNL     1       2.761  10.708  -0.683  1.00  0.00     0.074 A 
ATOM     39  C   UNL     1       1.899  10.718  -1.860  1.00  0.00     0.031 C 
ATOM     40  C   UNL     1       4.066  10.353  -0.506  1.00  0.00     0.037 A 
BRANCH  27  41
ATOM     41  C   UNL     1       3.652   8.508  -5.581  1.00  0.00     0.064 A 
ATOM     42  C   UNL     1       4.499   9.465  -6.180  1.00  0.00     0.173 A 
ATOM     43  C   UNL     1       2.336   8.461  -6.086  1.00  0.00     0.173 A 
ATOM     44  F   UNL     1       5.768   9.609  -5.768  1.00  0.00    -0.203 F 
ATOM     45  C   UNL     1       4.034  10.366  -7.141  1.00  0.00     0.198 A 
ATOM     46  C   UNL     1       1.891   9.326  -7.085  1.00  0.00     0.198 A 
ATOM     47  F   UNL     1       1.401   7.663  -5.558  1.00  0.00    -0.203 F 
ATOM     48  F   UNL     1       4.836  11.347  -7.578  1.00  0.00    -0.200 F 
ATOM     49  C   UNL     1       2.727  10.301  -7.586  1.00  0.00     0.200 A 
ATOM     50  F   UNL     1       0.615   9.261  -7.491  1.00  0.00    -0.200 F 
ATOM     51  F   UNL     1       2.258  11.206  -8.455  1.00  0.00    -0.200 F 
ENDBRANCH  27  41
BRANCH  28  52
ATOM     52  C   UNL     1      -1.649  10.278   0.892  1.00  0.00     0.064 A 
ATOM     53  C   UNL     1      -1.842  11.662   1.048  1.00  0.00     0.173 A 
ATOM     54  C   UNL     1      -2.809   9.505   0.699  1.00  0.00     0.173 A 
ATOM     55  F   UNL     1      -0.788  12.479   1.194  1.00  0.00    -0.203 F 
ATOM     56  C   UNL     1      -3.114  12.240   0.980  1.00  0.00     0.198 A 
ATOM     57  C   UNL     1      -4.079  10.081   0.639  1.00  0.00     0.198 A 
ATOM     58  F   UNL     1      -2.725   8.188   0.462  1.00  0.00    -0.203 F 
ATOM     59  F   UNL     1      -3.250  13.571   1.063  1.00  0.00    -0.200 F 
ATOM     60  C   UNL     1      -4.230  11.450   0.763  1.00  0.00     0.200 A 
ATOM     61  F   UNL     1      -5.147   9.310   0.392  1.00  0.00    -0.200 F 
ATOM     62  F   UNL     1      -5.441  12.008   0.630  1.00  0.00    -0.200 F 
ENDBRANCH  28  52
BRANCH  40  63
ATOM     63  C   UNL     1       4.618  10.388   0.889  1.00  0.00     0.064 A 
ATOM     64  C   UNL     1       4.142   9.598   1.950  1.00  0.00     0.173 A 
ATOM     65  C   UNL     1       5.761  11.165   1.124  1.00  0.00     0.173 A 
ATOM     66  F   UNL     1       3.118   8.751   1.778  1.00  0.00    -0.203 F 
ATOM     67  C   UNL     1       4.756   9.627   3.201  1.00  0.00     0.198 A 
ATOM     68  C   UNL     1       6.396  11.160   2.361  1.00  0.00     0.198 A 
ATOM     69  F   UNL     1       6.291  11.898   0.132  1.00  0.00    -0.203 F 
ATOM     70  F   UNL     1       4.274   8.878   4.204  1.00  0.00    -0.200 F 
ATOM     71  C   UNL     1       5.887  10.401   3.402  1.00  0.00     0.200 A 
ATOM     72  F   UNL     1       7.519  11.871   2.536  1.00  0.00    -0.200 F 
ATOM     73  F   UNL     1       6.503  10.396   4.593  1.00  0.00    -0.200 F 
ENDBRANCH  40  63
ENDBRANCH  14  15
ENDBRANCH   7   9
ENDBRANCH   4   5
ENDBRANCH   3   4
ENDBRANCH   2   3
ENDBRANCH   1   2
BRANCH   1  74
ATOM     74  N   UNL     1       6.275  -2.176   3.811  1.00  0.00    -0.352 N 
ATOM     75  C   UNL     1       7.035  -2.692   4.835  1.00  0.00     0.251 C 
ATOM     76  H   UNL     1       6.782  -1.893   3.016  1.00  0.00     0.163 HD
ATOM     77  O   UNL     1       8.252  -2.673   4.764  1.00  0.00    -0.269 OA
BRANCH  75  78
ATOM     78  C   UNL     1       6.378  -3.263   6.032  1.00  0.00     0.039 A 
ATOM     79  C   UNL     1       6.773  -2.811   7.295  1.00  0.00     0.016 A 
ATOM     80  C   UNL     1       5.432  -4.284   5.912  1.00  0.00     0.016 A 
ATOM     81  C   UNL     1       6.186  -3.345   8.446  1.00  0.00     0.029 A 
ATOM     82  C   UNL     1       4.858  -4.833   7.058  1.00  0.00     0.029 A 
ATOM     83  C   UNL     1       5.244  -4.374   8.330  1.00  0.00     0.066 A 
BRANCH  83  84
ATOM     84  N   UNL     1       4.752  -5.007   9.496  1.00  0.00    -0.220 N 
ATOM     85  C   UNL     1       4.159  -6.239   9.578  1.00  0.00     0.141 A 
ATOM     86  N   UNL     1       4.840  -4.476  10.739  1.00  0.00    -0.062 NA
ATOM     87  C   UNL     1       4.007  -6.491  10.922  1.00  0.00     0.093 A 
ATOM     88  N   UNL     1       4.368  -5.366  11.611  1.00  0.00    -0.134 NA
BRANCH  87  89
ATOM     89  C   UNL     1       3.368  -7.657  11.567  1.00  0.00     0.138 C 
BRANCH  89  90
ATOM     90  S   UNL     1       4.316  -9.030  12.230  1.00  0.00    -0.081 SA
BRANCH  90  91
ATOM     91  C   UNL     1       5.967  -9.039  11.662  1.00  0.00     0.176 A 
ATOM     92  N   UNL     1       6.798  -9.376  12.606  1.00  0.00    -0.223 NA
ATOM     93  N   UNL     1       6.399  -8.759  10.372  1.00  0.00    -0.255 N 
ATOM     94  C   UNL     1       8.169  -9.353  12.334  1.00  0.00     0.079 A 
ATOM     95  C   UNL     1       7.649  -8.126  10.313  1.00  0.00     0.266 A 
ATOM     96  C   UNL     1       9.081  -9.999  13.170  1.00  0.00     0.029 A 
ATOM     97  C   UNL     1       8.654  -8.601  11.275  1.00  0.00     0.066 A 
ATOM     98  O   UNL     1       7.968  -7.218   9.546  1.00  0.00    -0.268 OA
ATOM     99  C   UNL     1      10.458  -9.835  12.974  1.00  0.00     0.002 A 
ATOM    100  C   UNL     1      10.024  -8.383  11.096  1.00  0.00     0.016 A 
ATOM    101  C   UNL     1      10.928  -8.999  11.959  1.00  0.00     0.001 A 
BRANCH  93 102
ATOM    102  C   UNL     1       5.703  -9.030   9.125  1.00  0.00     0.051 A 
ATOM    103  C   UNL     1       6.348  -8.807   7.889  1.00  0.00     0.027 A 
ATOM    104  C   UNL     1       4.406  -9.551   9.035  1.00  0.00     0.027 A 
ATOM    105  C   UNL     1       5.678  -8.889   6.664  1.00  0.00     0.002 A 
ATOM    106  C   UNL     1       3.706  -9.582   7.818  1.00  0.00     0.002 A 
ATOM    107  C   UNL     1       4.334  -9.218   6.635  1.00  0.00     0.000 A 
ENDBRANCH  93 102
ENDBRANCH  90  91
ENDBRANCH  89  90
ENDBRANCH  87  89
ENDBRANCH  83  84
ENDBRANCH  75  78
ENDBRANCH   1  74
TORSDOF 16
