REMARK SMILES CCC[C@H]1CCc2c(sc(NC(=O)[C@H]3[C@@H](C(=O)NCCCCNC(=O)c4ccc(-c5c6nc(c(-c7c(F)c(F)c(F)c(F)c7F)c7ccc([nH]7)c(-c7c(F)c(F)c(F)c(F)c7F)c7nc(c(-c8c(F)c(F)c(F)c(F)c8F)c8ccc5[nH]8)C=C7)C=C6)cc4)[C@H]4CC[C@@H]3O4)c2C(N)=O)C1
REMARK SMILES IDX 19 1 18 2 16 3 17 4 15 6 14 7 92 8 89 9 91 10 93 11 90 12
REMARK SMILES IDX 12 13 11 14 13 16 10 17 4 18 5 19 98 20 6 21 8 22 7 23 9 24
REMARK SMILES IDX 94 25 3 26 2 27 1 28 95 29 96 30 97 31 20 34 21 35 22 36
REMARK SMILES IDX 23 37 24 38 25 40 26 41 27 42 88 43 28 44 87 45 29 46 30 47
REMARK SMILES IDX 31 48 81 49 32 50 86 51 80 52 82 53 33 54 85 55 79 56 78 57
REMARK SMILES IDX 34 59 66 60 46 61 65 62 47 63 50 64 64 65 83 66 48 67 49 68
REMARK SMILES IDX 63 70 84 71 51 72 35 73 36 74 44 75 37 76 38 77 42 78 45 79
REMARK SMILES IDX 39 80 40 81 43 82 41 83 67 84 68 85 76 86 69 87 70 88 74 89
REMARK SMILES IDX 77 90 71 91 72 92 75 93 73 94 52 95 53 96 61 97 54 98 55 99
REMARK SMILES IDX 59 100 62 101 56 102 57 103 60 104 58 105
REMARK H PARENT 18 5 11 15 96 32 96 33 23 39 82 58 50 69
REMARK Flexibility Score: inf
ROOT
ATOM      1  C   UNL     1      -7.687  -5.045   0.307  1.00  0.00     0.116 C 
ENDROOT
BRANCH   1   2
ATOM      2  N   UNL     1      -7.302  -4.198   1.423  1.00  0.00    -0.356 N 
ATOM      3  C   UNL     1      -6.289  -3.281   1.499  1.00  0.00     0.226 C 
ATOM      4  O   UNL     1      -6.201  -2.587   2.509  1.00  0.00    -0.275 OA
ATOM      5  H   UNL     1      -7.846  -4.297   2.238  1.00  0.00     0.163 HD
BRANCH   3   6
ATOM      6  C   UNL     1      -5.446  -3.065   0.260  1.00  0.00     0.122 C 
ATOM      7  C   UNL     1      -4.037  -2.441   0.356  1.00  0.00     0.123 C 
ATOM      8  C   UNL     1      -4.282  -1.091  -0.326  1.00  0.00     0.132 C 
ATOM      9  C   UNL     1      -6.183  -2.067  -0.659  1.00  0.00     0.132 C 
ATOM     10  C   UNL     1      -5.253  -0.184   0.427  1.00  0.00     0.035 C 
ATOM     11  O   UNL     1      -5.097  -1.535  -1.448  1.00  0.00    -0.373 OA
ATOM     12  C   UNL     1      -6.606  -0.780   0.048  1.00  0.00     0.035 C 
BRANCH   7  13
ATOM     13  C   UNL     1      -3.301  -2.500   1.693  1.00  0.00     0.231 C 
ATOM     14  N   UNL     1      -2.224  -1.695   1.946  1.00  0.00    -0.317 N 
ATOM     15  H   UNL     1      -1.969  -1.589   2.891  1.00  0.00     0.170 HD
ATOM     16  O   UNL     1      -3.587  -3.339   2.551  1.00  0.00    -0.274 OA
BRANCH  14  17
ATOM     17  C   UNL     1      -1.458  -1.020   1.029  1.00  0.00     0.108 A 
ATOM     18  C   UNL     1       0.233   2.605  -1.764  1.00  0.00    -0.006 C 
ATOM     19  C   UNL     1       0.551   1.328  -2.580  1.00  0.00     0.009 C 
ATOM     20  C   UNL     1      -0.062   2.371  -0.262  1.00  0.00     0.050 C 
ATOM     21  C   UNL     1      -0.458   0.203  -2.354  1.00  0.00     0.038 C 
ATOM     22  C   UNL     1      -0.534   0.981   0.024  1.00  0.00     0.011 A 
ATOM     23  C   UNL     1      -0.673  -0.041  -0.894  1.00  0.00    -0.019 A 
ATOM     24  S   UNL     1      -0.914   0.482   1.605  1.00  0.00    -0.122 S 
ATOM     25  C   UNL     1      -1.033  -1.290  -0.262  1.00  0.00     0.077 A 
BRANCH  18  26
ATOM     26  C   UNL     1       1.297   3.698  -2.013  1.00  0.00     0.004 C 
BRANCH  26  27
ATOM     27  C   UNL     1       2.579   3.689  -1.165  1.00  0.00    -0.003 C 
ATOM     28  C   UNL     1       3.333   2.371  -1.104  1.00  0.00     0.004 C 
ENDBRANCH  26  27
ENDBRANCH  18  26
BRANCH  25  29
ATOM     29  C   UNL     1      -1.037  -2.597  -0.916  1.00  0.00     0.251 C 
ATOM     30  N   UNL     1      -0.844  -3.673  -0.097  1.00  0.00    -0.365 N 
ATOM     31  O   UNL     1      -1.168  -2.760  -2.123  1.00  0.00    -0.269 OA
ATOM     32  H   UNL     1      -0.739  -3.541   0.873  1.00  0.00     0.159 HD
ATOM     33  H   UNL     1      -0.810  -4.581  -0.476  1.00  0.00     0.159 HD
ENDBRANCH  25  29
ENDBRANCH  14  17
ENDBRANCH   7  13
ENDBRANCH   3   6
ENDBRANCH   1   2
BRANCH   1  34
ATOM     34  C   UNL     1      -7.541  -6.525   0.643  1.00  0.00     0.023 C 
BRANCH  34  35
ATOM     35  C   UNL     1      -8.481  -7.022   1.743  1.00  0.00     0.023 C 
BRANCH  35  36
ATOM     36  C   UNL     1      -9.954  -6.689   1.536  1.00  0.00     0.116 C 
BRANCH  36  37
ATOM     37  N   UNL     1     -10.499  -7.223   0.297  1.00  0.00    -0.352 N 
ATOM     38  C   UNL     1     -11.788  -7.635   0.058  1.00  0.00     0.251 C 
ATOM     39  H   UNL     1      -9.871  -7.297  -0.458  1.00  0.00     0.163 HD
ATOM     40  O   UNL     1     -12.100  -8.155  -1.007  1.00  0.00    -0.269 OA
BRANCH  38  41
ATOM     41  C   UNL     1     -12.790  -7.479   1.130  1.00  0.00     0.039 A 
ATOM     42  C   UNL     1     -13.482  -8.607   1.577  1.00  0.00     0.014 A 
ATOM     43  C   UNL     1     -12.991  -6.233   1.729  1.00  0.00     0.014 A 
ATOM     44  C   UNL     1     -14.334  -8.498   2.678  1.00  0.00     0.010 A 
ATOM     45  C   UNL     1     -13.799  -6.138   2.856  1.00  0.00     0.010 A 
ATOM     46  C   UNL     1     -14.472  -7.270   3.344  1.00  0.00    -0.014 A 
BRANCH  46  47
ATOM     47  C   UNL     1     -15.323  -7.132   4.550  1.00  0.00     0.031 A 
ATOM     48  C   UNL     1     -16.560  -6.284   4.488  1.00  0.00     0.074 A 
ATOM     49  C   UNL     1     -14.939  -7.692   5.712  1.00  0.00     0.049 A 
ATOM     50  N   UNL     1     -17.353  -5.902   5.456  1.00  0.00    -0.248 NA
ATOM     51  C   UNL     1     -16.939  -5.773   3.161  1.00  0.00     0.031 C 
ATOM     52  C   UNL     1     -13.745  -8.515   5.903  1.00  0.00     0.029 A 
ATOM     53  N   UNL     1     -15.507  -7.635   6.960  1.00  0.00    -0.354 N 
ATOM     54  C   UNL     1     -18.306  -5.087   4.862  1.00  0.00     0.074 A 
ATOM     55  C   UNL     1     -17.976  -5.003   3.455  1.00  0.00     0.031 C 
ATOM     56  C   UNL     1     -13.671  -8.891   7.191  1.00  0.00     0.029 A 
ATOM     57  C   UNL     1     -14.791  -8.306   7.922  1.00  0.00     0.049 A 
ATOM     58  H   UNL     1     -16.347  -7.157   7.149  1.00  0.00     0.167 HD
ATOM     59  C   UNL     1     -19.368  -4.476   5.437  1.00  0.00     0.037 A 
ATOM     60  C   UNL     1     -15.010  -8.421   9.246  1.00  0.00     0.037 A 
ATOM     61  C   UNL     1     -19.713  -4.590   6.828  1.00  0.00     0.049 A 
ATOM     62  C   UNL     1     -16.207  -7.744   9.856  1.00  0.00     0.074 A 
ATOM     63  C   UNL     1     -20.786  -4.033   7.501  1.00  0.00     0.029 A 
ATOM     64  N   UNL     1     -18.992  -5.323   7.759  1.00  0.00    -0.354 N 
ATOM     65  N   UNL     1     -17.117  -6.997   9.280  1.00  0.00    -0.248 NA
ATOM     66  C   UNL     1     -16.410  -7.928  11.300  1.00  0.00     0.031 C 
ATOM     67  C   UNL     1     -20.705  -4.414   8.844  1.00  0.00     0.029 A 
ATOM     68  C   UNL     1     -19.599  -5.234   9.000  1.00  0.00     0.049 A 
ATOM     69  H   UNL     1     -18.172  -5.831   7.566  1.00  0.00     0.167 HD
ATOM     70  C   UNL     1     -18.015  -6.652  10.279  1.00  0.00     0.074 A 
ATOM     71  C   UNL     1     -17.545  -7.272  11.499  1.00  0.00     0.031 C 
ATOM     72  C   UNL     1     -19.131  -5.888  10.194  1.00  0.00     0.037 A 
BRANCH  59  73
ATOM     73  C   UNL     1     -20.238  -3.632   4.557  1.00  0.00     0.064 A 
ATOM     74  C   UNL     1     -21.110  -4.208   3.621  1.00  0.00     0.173 A 
ATOM     75  C   UNL     1     -20.228  -2.234   4.674  1.00  0.00     0.173 A 
ATOM     76  F   UNL     1     -21.144  -5.540   3.462  1.00  0.00    -0.203 F 
ATOM     77  C   UNL     1     -21.925  -3.414   2.819  1.00  0.00     0.198 A 
ATOM     78  C   UNL     1     -21.062  -1.444   3.887  1.00  0.00     0.198 A 
ATOM     79  F   UNL     1     -19.414  -1.635   5.555  1.00  0.00    -0.203 F 
ATOM     80  F   UNL     1     -22.721  -3.985   1.904  1.00  0.00    -0.200 F 
ATOM     81  C   UNL     1     -21.906  -2.034   2.958  1.00  0.00     0.200 A 
ATOM     82  F   UNL     1     -21.050  -0.112   4.028  1.00  0.00    -0.200 F 
ATOM     83  F   UNL     1     -22.696  -1.272   2.189  1.00  0.00    -0.200 F 
ENDBRANCH  59  73
BRANCH  60  84
ATOM     84  C   UNL     1     -14.087  -9.226  10.085  1.00  0.00     0.064 A 
ATOM     85  C   UNL     1     -14.492 -10.460  10.612  1.00  0.00     0.173 A 
ATOM     86  C   UNL     1     -12.794  -8.777  10.390  1.00  0.00     0.173 A 
ATOM     87  F   UNL     1     -15.728 -10.919  10.365  1.00  0.00    -0.203 F 
ATOM     88  C   UNL     1     -13.646 -11.206  11.430  1.00  0.00     0.198 A 
ATOM     89  C   UNL     1     -11.941  -9.535  11.188  1.00  0.00     0.198 A 
ATOM     90  F   UNL     1     -12.359  -7.604   9.907  1.00  0.00    -0.203 F 
ATOM     91  F   UNL     1     -14.075 -12.361  11.956  1.00  0.00    -0.200 F 
ATOM     92  C   UNL     1     -12.370 -10.745  11.714  1.00  0.00     0.200 A 
ATOM     93  F   UNL     1     -10.704  -9.092  11.453  1.00  0.00    -0.200 F 
ATOM     94  F   UNL     1     -11.557 -11.462  12.502  1.00  0.00    -0.200 F 
ENDBRANCH  60  84
BRANCH  72  95
ATOM     95  C   UNL     1     -19.954  -5.730  11.435  1.00  0.00     0.064 A 
ATOM     96  C   UNL     1     -19.559  -4.877  12.475  1.00  0.00     0.173 A 
ATOM     97  C   UNL     1     -21.181  -6.399  11.557  1.00  0.00     0.173 A 
ATOM     98  F   UNL     1     -18.387  -4.229  12.408  1.00  0.00    -0.203 F 
ATOM     99  C   UNL     1     -20.360  -4.710  13.602  1.00  0.00     0.198 A 
ATOM    100  C   UNL     1     -21.988  -6.213  12.675  1.00  0.00     0.198 A 
ATOM    101  F   UNL     1     -21.602  -7.222  10.585  1.00  0.00    -0.203 F 
ATOM    102  F   UNL     1     -19.951  -3.914  14.599  1.00  0.00    -0.200 F 
ATOM    103  C   UNL     1     -21.576  -5.372  13.697  1.00  0.00     0.200 A 
ATOM    104  F   UNL     1     -23.167  -6.845  12.762  1.00  0.00    -0.200 F 
ATOM    105  F   UNL     1     -22.348  -5.202  14.779  1.00  0.00    -0.200 F 
ENDBRANCH  72  95
ENDBRANCH  46  47
ENDBRANCH  38  41
ENDBRANCH  36  37
ENDBRANCH  35  36
ENDBRANCH  34  35
ENDBRANCH   1  34
TORSDOF 16
