REMARK SMILES CC(C)COc1ccc(CC(=O)NCCCCNC(=O)c2ccc(-c3c4nc(c(-c5c(F)c(F)c(F)c(F)c5F)c5ccc([nH]5)c(-c5c(F)c(F)c(F)c(F)c5F)c5nc(c(-c6c(F)c(F)c(F)c(F)c6F)c6ccc3[nH]6)C=C5)C=C4)cc2)cc1
REMARK SMILES IDX 14 1 13 2 11 3 12 4 10 6 9 7 6 8 7 9 85 10 8 11 84 12 5 13
REMARK SMILES IDX 4 14 2 15 1 16 3 17 15 18 16 19 17 20 18 21 19 22 20 24
REMARK SMILES IDX 21 25 22 26 83 27 23 28 82 29 24 30 25 31 26 32 76 33 27 34
REMARK SMILES IDX 81 35 75 36 77 37 28 38 80 39 74 40 73 41 29 43 61 44 41 45
REMARK SMILES IDX 60 46 42 47 45 48 59 49 78 50 43 51 44 52 58 54 79 55 46 56
REMARK SMILES IDX 30 57 31 58 39 59 32 60 33 61 37 62 40 63 34 64 35 65 38 66
REMARK SMILES IDX 36 67 62 68 63 69 71 70 64 71 65 72 69 73 72 74 66 75 67 76
REMARK SMILES IDX 70 77 68 78 47 79 48 80 56 81 49 82 50 83 54 84 57 85 51 86
REMARK SMILES IDX 52 87 55 88 53 89
REMARK H PARENT 13 5 18 23 77 42 45 53
REMARK Flexibility Score: inf
ROOT
ATOM      1  C   UNL     1       1.383  -5.189   2.735  1.00  0.00     0.116 C 
ENDROOT
BRANCH   1   2
ATOM      2  N   UNL     1       0.290  -6.101   2.463  1.00  0.00    -0.356 N 
ATOM      3  C   UNL     1      -0.570  -6.132   1.401  1.00  0.00     0.224 C 
ATOM      4  O   UNL     1      -1.474  -6.971   1.416  1.00  0.00    -0.275 OA
ATOM      5  H   UNL     1       0.147  -6.800   3.141  1.00  0.00     0.163 HD
BRANCH   3   6
ATOM      6  C   UNL     1      -0.374  -5.210   0.206  1.00  0.00     0.135 C 
BRANCH   6   7
ATOM      7  C   UNL     1      -0.619  -3.749   0.496  1.00  0.00    -0.038 A 
ATOM      8  C   UNL     1      -0.992  -1.058   1.165  1.00  0.00     0.119 A 
ATOM      9  C   UNL     1      -2.098  -1.893   1.031  1.00  0.00     0.047 A 
ATOM     10  C   UNL     1       0.289  -1.576   1.043  1.00  0.00     0.047 A 
ATOM     11  C   UNL     1      -1.910  -3.246   0.716  1.00  0.00     0.008 A 
ATOM     12  C   UNL     1       0.472  -2.881   0.612  1.00  0.00     0.008 A 
BRANCH   8  13
ATOM     13  O   UNL     1      -1.158   0.263   1.472  1.00  0.00    -0.493 OA
BRANCH  13  14
ATOM     14  C   UNL     1      -0.949   1.125   0.330  1.00  0.00     0.232 C 
BRANCH  14  15
ATOM     15  C   UNL     1       0.543   1.453   0.085  1.00  0.00     0.020 C 
ATOM     16  C   UNL     1       1.159   0.588  -1.029  1.00  0.00     0.011 C 
ATOM     17  C   UNL     1       0.744   2.921  -0.290  1.00  0.00     0.011 C 
ENDBRANCH  14  15
ENDBRANCH  13  14
ENDBRANCH   8  13
ENDBRANCH   6   7
ENDBRANCH   3   6
ENDBRANCH   1   2
BRANCH   1  18
ATOM     18  C   UNL     1       0.944  -4.032   3.637  1.00  0.00     0.023 C 
BRANCH  18  19
ATOM     19  C   UNL     1       0.743  -4.413   5.103  1.00  0.00     0.023 C 
BRANCH  19  20
ATOM     20  C   UNL     1       1.975  -4.983   5.787  1.00  0.00     0.116 C 
BRANCH  20  21
ATOM     21  N   UNL     1       3.106  -4.070   5.786  1.00  0.00    -0.352 N 
ATOM     22  C   UNL     1       4.046  -3.865   6.767  1.00  0.00     0.251 C 
ATOM     23  H   UNL     1       3.214  -3.526   4.972  1.00  0.00     0.163 HD
ATOM     24  O   UNL     1       4.867  -2.963   6.659  1.00  0.00    -0.269 OA
BRANCH  22  25
ATOM     25  C   UNL     1       4.036  -4.718   7.976  1.00  0.00     0.039 A 
ATOM     26  C   UNL     1       4.192  -4.111   9.224  1.00  0.00     0.014 A 
ATOM     27  C   UNL     1       3.864  -6.101   7.884  1.00  0.00     0.014 A 
ATOM     28  C   UNL     1       4.125  -4.887  10.382  1.00  0.00     0.010 A 
ATOM     29  C   UNL     1       3.710  -6.860   9.040  1.00  0.00     0.010 A 
ATOM     30  C   UNL     1       3.853  -6.263  10.301  1.00  0.00    -0.014 A 
BRANCH  30  31
ATOM     31  C   UNL     1       3.737  -7.091  11.529  1.00  0.00     0.031 A 
ATOM     32  C   UNL     1       4.717  -8.202  11.787  1.00  0.00     0.074 A 
ATOM     33  C   UNL     1       2.729  -6.863  12.393  1.00  0.00     0.049 A 
ATOM     34  N   UNL     1       4.773  -9.040  12.792  1.00  0.00    -0.248 NA
ATOM     35  C   UNL     1       5.758  -8.419  10.770  1.00  0.00     0.031 C 
ATOM     36  C   UNL     1       1.687  -5.848  12.227  1.00  0.00     0.029 A 
ATOM     37  N   UNL     1       2.416  -7.469  13.583  1.00  0.00    -0.354 N 
ATOM     38  C   UNL     1       5.846  -9.880  12.524  1.00  0.00     0.074 A 
ATOM     39  C   UNL     1       6.371  -9.498  11.232  1.00  0.00     0.031 C 
ATOM     40  C   UNL     1       0.872  -5.878  13.293  1.00  0.00     0.029 A 
ATOM     41  C   UNL     1       1.308  -6.938  14.197  1.00  0.00     0.049 A 
ATOM     42  H   UNL     1       2.936  -8.215  13.962  1.00  0.00     0.167 HD
ATOM     43  C   UNL     1       6.367 -10.861  13.300  1.00  0.00     0.037 A 
ATOM     44  C   UNL     1       0.711  -7.271  15.358  1.00  0.00     0.037 A 
ATOM     45  C   UNL     1       5.851 -11.227  14.593  1.00  0.00     0.049 A 
ATOM     46  C   UNL     1       1.297  -8.381  16.189  1.00  0.00     0.074 A 
ATOM     47  C   UNL     1       6.337 -12.170  15.480  1.00  0.00     0.029 A 
ATOM     48  N   UNL     1       4.726 -10.667  15.181  1.00  0.00    -0.354 N 
ATOM     49  N   UNL     1       2.359  -9.116  15.963  1.00  0.00    -0.248 NA
ATOM     50  C   UNL     1       0.603  -8.703  17.444  1.00  0.00     0.031 C 
ATOM     51  C   UNL     1       5.474 -12.223  16.579  1.00  0.00     0.029 A 
ATOM     52  C   UNL     1       4.486 -11.267  16.407  1.00  0.00     0.049 A 
ATOM     53  H   UNL     1       4.178  -9.951  14.786  1.00  0.00     0.167 HD
ATOM     54  C   UNL     1       2.478  -9.963  17.057  1.00  0.00     0.074 A 
ATOM     55  C   UNL     1       1.392  -9.636  17.956  1.00  0.00     0.031 C 
ATOM     56  C   UNL     1       3.402 -10.926  17.294  1.00  0.00     0.037 A 
BRANCH  43  57
ATOM     57  C   UNL     1       7.561 -11.605  12.772  1.00  0.00     0.064 A 
ATOM     58  C   UNL     1       8.812 -10.985  12.630  1.00  0.00     0.173 A 
ATOM     59  C   UNL     1       7.463 -12.964  12.438  1.00  0.00     0.173 A 
ATOM     60  F   UNL     1       8.959  -9.684  12.924  1.00  0.00    -0.203 F 
ATOM     61  C   UNL     1       9.911 -11.688  12.144  1.00  0.00     0.198 A 
ATOM     62  C   UNL     1       8.573 -13.674  11.985  1.00  0.00     0.198 A 
ATOM     63  F   UNL     1       6.293 -13.610  12.559  1.00  0.00    -0.203 F 
ATOM     64  F   UNL     1      11.081 -11.059  11.966  1.00  0.00    -0.200 F 
ATOM     65  C   UNL     1       9.793 -13.033  11.830  1.00  0.00     0.200 A 
ATOM     66  F   UNL     1       8.461 -14.977  11.697  1.00  0.00    -0.200 F 
ATOM     67  F   UNL     1      10.854 -13.711  11.371  1.00  0.00    -0.200 F 
ENDBRANCH  43  57
BRANCH  44  68
ATOM     68  C   UNL     1      -0.495  -6.532  15.817  1.00  0.00     0.064 A 
ATOM     69  C   UNL     1      -0.452  -5.719  16.959  1.00  0.00     0.173 A 
ATOM     70  C   UNL     1      -1.718  -6.635  15.138  1.00  0.00     0.173 A 
ATOM     71  F   UNL     1       0.689  -5.603  17.655  1.00  0.00    -0.203 F 
ATOM     72  C   UNL     1      -1.591  -5.063  17.420  1.00  0.00     0.198 A 
ATOM     73  C   UNL     1      -2.849  -5.952  15.581  1.00  0.00     0.198 A 
ATOM     74  F   UNL     1      -1.814  -7.395  14.037  1.00  0.00    -0.203 F 
ATOM     75  F   UNL     1      -1.534  -4.339  18.547  1.00  0.00    -0.200 F 
ATOM     76  C   UNL     1      -2.787  -5.175  16.728  1.00  0.00     0.200 A 
ATOM     77  F   UNL     1      -3.998  -6.050  14.900  1.00  0.00    -0.200 F 
ATOM     78  F   UNL     1      -3.882  -4.544  17.172  1.00  0.00    -0.200 F 
ENDBRANCH  44  68
BRANCH  56  79
ATOM     79  C   UNL     1       3.301 -11.672  18.595  1.00  0.00     0.064 A 
ATOM     80  C   UNL     1       2.259 -12.577  18.848  1.00  0.00     0.173 A 
ATOM     81  C   UNL     1       4.278 -11.504  19.588  1.00  0.00     0.173 A 
ATOM     82  F   UNL     1       1.291 -12.765  17.938  1.00  0.00    -0.203 F 
ATOM     83  C   UNL     1       2.182 -13.260  20.059  1.00  0.00     0.198 A 
ATOM     84  C   UNL     1       4.218 -12.216  20.782  1.00  0.00     0.198 A 
ATOM     85  F   UNL     1       5.301 -10.658  19.394  1.00  0.00    -0.203 F 
ATOM     86  F   UNL     1       1.147 -14.076  20.301  1.00  0.00    -0.200 F 
ATOM     87  C   UNL     1       3.165 -13.085  21.021  1.00  0.00     0.200 A 
ATOM     88  F   UNL     1       5.179 -12.058  21.703  1.00  0.00    -0.200 F 
ATOM     89  F   UNL     1       3.093 -13.749  22.183  1.00  0.00    -0.200 F 
ENDBRANCH  56  79
ENDBRANCH  30  31
ENDBRANCH  22  25
ENDBRANCH  20  21
ENDBRANCH  19  20
ENDBRANCH  18  19
ENDBRANCH   1  18
TORSDOF 15
