REMARK SMILES C[C@H](C(=O)NCCCCNC(=O)c1ccc(-c2c3nc(c(-c4c(F)c(F)c(F)c(F)c4F)c4ccc([nH]4)c(-c4c(F)c(F)c(F)c(F)c4F)c4nc(c(-c5c(F)c(F)c(F)c(F)c5F)c5ccc2[nH]5)C=C4)C=C3)cc1)[C@@H](C)Nc1cc(F)cc(F)c1F
REMARK SMILES IDX 7 1 6 2 5 3 3 4 4 5 2 7 1 8 76 9 77 10 78 11 79 13 80 14
REMARK SMILES IDX 86 15 81 16 84 17 87 18 82 19 83 20 85 21 8 22 9 23 10 24
REMARK SMILES IDX 11 25 12 27 13 28 14 29 75 30 15 31 74 32 16 33 17 34 18 35
REMARK SMILES IDX 68 36 19 37 73 38 67 39 69 40 20 41 72 42 66 43 65 44 21 46
REMARK SMILES IDX 53 47 33 48 52 49 34 50 37 51 51 52 70 53 35 54 36 55 50 57
REMARK SMILES IDX 71 58 38 59 22 60 23 61 31 62 24 63 25 64 29 65 32 66 26 67
REMARK SMILES IDX 27 68 30 69 28 70 54 71 55 72 63 73 56 74 57 75 61 76 64 77
REMARK SMILES IDX 58 78 59 79 62 80 60 81 39 82 40 83 48 84 41 85 42 86 46 87
REMARK SMILES IDX 49 88 43 89 44 90 47 91 45 92
REMARK H PARENT 5 6 78 12 10 26 69 45 37 56
REMARK Flexibility Score: inf
ROOT
ATOM      1  C   UNL     1       0.584  -1.226  -3.264  1.00  0.00     0.023 C 
ENDROOT
BRANCH   1   2
ATOM      2  C   UNL     1      -0.025  -1.253  -1.865  1.00  0.00     0.116 C 
BRANCH   2   3
ATOM      3  N   UNL     1       0.925  -0.989  -0.801  1.00  0.00    -0.356 N 
ATOM      4  C   UNL     1       1.179   0.099  -0.031  1.00  0.00     0.224 C 
ATOM      5  O   UNL     1       2.008  -0.050   0.873  1.00  0.00    -0.275 OA
ATOM      6  H   UNL     1       1.505  -1.758  -0.594  1.00  0.00     0.163 HD
BRANCH   4   7
ATOM      7  C   UNL     1       0.540   1.466  -0.246  1.00  0.00     0.097 C 
ATOM      8  C   UNL     1       0.986   2.054  -1.586  1.00  0.00     0.020 C 
BRANCH   7   9
ATOM      9  C   UNL     1      -0.987   1.511  -0.035  1.00  0.00     0.088 C 
ATOM     10  C   UNL     1      -1.412   0.959   1.325  1.00  0.00     0.031 C 
BRANCH   9  11
ATOM     11  N   UNL     1      -1.453   2.897  -0.145  1.00  0.00    -0.379 N 
ATOM     12  H   UNL     1      -1.115   3.558   0.502  1.00  0.00     0.160 HD
BRANCH  11  13
ATOM     13  C   UNL     1      -2.349   3.324  -1.117  1.00  0.00     0.077 A 
ATOM     14  C   UNL     1      -2.185   4.610  -1.651  1.00  0.00     0.068 A 
ATOM     15  C   UNL     1      -3.368   2.526  -1.669  1.00  0.00     0.182 A 
ATOM     16  C   UNL     1      -2.996   5.065  -2.692  1.00  0.00     0.128 A 
ATOM     17  C   UNL     1      -4.178   2.998  -2.702  1.00  0.00     0.163 A 
ATOM     18  F   UNL     1      -3.603   1.292  -1.193  1.00  0.00    -0.201 F 
ATOM     19  F   UNL     1      -2.793   6.289  -3.194  1.00  0.00    -0.207 F 
ATOM     20  C   UNL     1      -3.996   4.268  -3.226  1.00  0.00     0.081 A 
ATOM     21  F   UNL     1      -5.142   2.215  -3.206  1.00  0.00    -0.204 F 
ENDBRANCH  11  13
ENDBRANCH   9  11
ENDBRANCH   7   9
ENDBRANCH   4   7
ENDBRANCH   2   3
ENDBRANCH   1   2
BRANCH   1  22
ATOM     22  C   UNL     1       1.745  -2.189  -3.496  1.00  0.00     0.023 C 
BRANCH  22  23
ATOM     23  C   UNL     1       1.465  -3.651  -3.169  1.00  0.00     0.116 C 
BRANCH  23  24
ATOM     24  N   UNL     1       0.420  -4.239  -3.995  1.00  0.00    -0.352 N 
ATOM     25  C   UNL     1       0.443  -5.404  -4.726  1.00  0.00     0.251 C 
ATOM     26  H   UNL     1      -0.422  -3.731  -4.035  1.00  0.00     0.163 HD
ATOM     27  O   UNL     1      -0.499  -5.697  -5.457  1.00  0.00    -0.269 OA
BRANCH  25  28
ATOM     28  C   UNL     1       1.626  -6.289  -4.663  1.00  0.00     0.039 A 
ATOM     29  C   UNL     1       2.197  -6.742  -5.856  1.00  0.00     0.014 A 
ATOM     30  C   UNL     1       2.192  -6.639  -3.436  1.00  0.00     0.014 A 
ATOM     31  C   UNL     1       3.392  -7.466  -5.822  1.00  0.00     0.010 A 
ATOM     32  C   UNL     1       3.417  -7.297  -3.406  1.00  0.00     0.010 A 
ATOM     33  C   UNL     1       4.037  -7.705  -4.599  1.00  0.00    -0.014 A 
BRANCH  33  34
ATOM     34  C   UNL     1       5.371  -8.354  -4.526  1.00  0.00     0.031 A 
ATOM     35  C   UNL     1       5.529  -9.661  -3.805  1.00  0.00     0.074 A 
ATOM     36  C   UNL     1       6.456  -7.706  -4.991  1.00  0.00     0.049 A 
ATOM     37  N   UNL     1       6.623 -10.295  -3.467  1.00  0.00    -0.248 NA
ATOM     38  C   UNL     1       4.290 -10.325  -3.376  1.00  0.00     0.031 C 
ATOM     39  C   UNL     1       6.441  -6.408  -5.667  1.00  0.00     0.029 A 
ATOM     40  N   UNL     1       7.788  -8.034  -4.930  1.00  0.00    -0.354 N 
ATOM     41  C   UNL     1       6.206 -11.411  -2.755  1.00  0.00     0.074 A 
ATOM     42  C   UNL     1       4.761 -11.350  -2.681  1.00  0.00     0.031 C 
ATOM     43  C   UNL     1       7.702  -6.046  -5.951  1.00  0.00     0.029 A 
ATOM     44  C   UNL     1       8.616  -7.063  -5.439  1.00  0.00     0.049 A 
ATOM     45  H   UNL     1       8.118  -8.884  -4.558  1.00  0.00     0.167 HD
ATOM     46  C   UNL     1       6.959 -12.402  -2.222  1.00  0.00     0.037 A 
ATOM     47  C   UNL     1       9.961  -6.985  -5.464  1.00  0.00     0.037 A 
ATOM     48  C   UNL     1       8.392 -12.478  -2.330  1.00  0.00     0.049 A 
ATOM     49  C   UNL     1      10.778  -8.105  -4.883  1.00  0.00     0.074 A 
ATOM     50  C   UNL     1       9.238 -13.487  -1.903  1.00  0.00     0.029 A 
ATOM     51  N   UNL     1       9.193 -11.500  -2.903  1.00  0.00    -0.354 N 
ATOM     52  N   UNL     1      10.372  -9.192  -4.274  1.00  0.00    -0.248 NA
ATOM     53  C   UNL     1      12.239  -7.990  -4.995  1.00  0.00     0.031 C 
ATOM     54  C   UNL     1      10.554 -13.100  -2.177  1.00  0.00     0.029 A 
ATOM     55  C   UNL     1      10.525 -11.871  -2.818  1.00  0.00     0.049 A 
ATOM     56  H   UNL     1       8.864 -10.667  -3.310  1.00  0.00     0.167 HD
ATOM     57  C   UNL     1      11.520  -9.902  -3.951  1.00  0.00     0.074 A 
ATOM     58  C   UNL     1      12.642  -9.125  -4.437  1.00  0.00     0.031 C 
ATOM     59  C   UNL     1      11.632 -11.091  -3.312  1.00  0.00     0.037 A 
BRANCH  46  60
ATOM     60  C   UNL     1       6.244 -13.480  -1.461  1.00  0.00     0.064 A 
ATOM     61  C   UNL     1       5.422 -14.418  -2.104  1.00  0.00     0.173 A 
ATOM     62  C   UNL     1       6.395 -13.585  -0.070  1.00  0.00     0.173 A 
ATOM     63  F   UNL     1       5.236 -14.355  -3.431  1.00  0.00    -0.203 F 
ATOM     64  C   UNL     1       4.747 -15.396  -1.378  1.00  0.00     0.198 A 
ATOM     65  C   UNL     1       5.743 -14.583   0.649  1.00  0.00     0.198 A 
ATOM     66  F   UNL     1       7.176 -12.718   0.593  1.00  0.00    -0.203 F 
ATOM     67  F   UNL     1       3.921 -16.243  -2.006  1.00  0.00    -0.200 F 
ATOM     68  C   UNL     1       4.912 -15.480  -0.004  1.00  0.00     0.200 A 
ATOM     69  F   UNL     1       5.913 -14.672   1.975  1.00  0.00    -0.200 F 
ATOM     70  F   UNL     1       4.261 -16.422   0.694  1.00  0.00    -0.200 F 
ENDBRANCH  46  60
BRANCH  47  71
ATOM     71  C   UNL     1      10.610  -5.795  -6.070  1.00  0.00     0.064 A 
ATOM     72  C   UNL     1      11.252  -5.880  -7.312  1.00  0.00     0.173 A 
ATOM     73  C   UNL     1      10.572  -4.544  -5.437  1.00  0.00     0.173 A 
ATOM     74  F   UNL     1      11.331  -7.059  -7.945  1.00  0.00    -0.203 F 
ATOM     75  C   UNL     1      11.838  -4.759  -7.897  1.00  0.00     0.198 A 
ATOM     76  C   UNL     1      11.137  -3.419  -6.033  1.00  0.00     0.198 A 
ATOM     77  F   UNL     1       9.964  -4.411  -4.249  1.00  0.00    -0.203 F 
ATOM     78  F   UNL     1      12.470  -4.872  -9.073  1.00  0.00    -0.200 F 
ATOM     79  C   UNL     1      11.773  -3.528  -7.261  1.00  0.00     0.200 A 
ATOM     80  F   UNL     1      11.059  -2.228  -5.423  1.00  0.00    -0.200 F 
ATOM     81  F   UNL     1      12.324  -2.447  -7.830  1.00  0.00    -0.200 F 
ENDBRANCH  47  71
BRANCH  59  82
ATOM     82  C   UNL     1      13.011 -11.652  -3.126  1.00  0.00     0.064 A 
ATOM     83  C   UNL     1      13.892 -11.131  -2.168  1.00  0.00     0.173 A 
ATOM     84  C   UNL     1      13.427 -12.769  -3.867  1.00  0.00     0.173 A 
ATOM     85  F   UNL     1      13.546 -10.055  -1.447  1.00  0.00    -0.203 F 
ATOM     86  C   UNL     1      15.146 -11.703  -1.966  1.00  0.00     0.198 A 
ATOM     87  C   UNL     1      14.670 -13.353  -3.644  1.00  0.00     0.198 A 
ATOM     88  F   UNL     1      12.617 -13.306  -4.792  1.00  0.00    -0.203 F 
ATOM     89  F   UNL     1      15.985 -11.173  -1.066  1.00  0.00    -0.200 F 
ATOM     90  C   UNL     1      15.529 -12.819  -2.696  1.00  0.00     0.200 A 
ATOM     91  F   UNL     1      15.034 -14.438  -4.342  1.00  0.00    -0.200 F 
ATOM     92  F   UNL     1      16.729 -13.377  -2.488  1.00  0.00    -0.200 F 
ENDBRANCH  59  82
ENDBRANCH  33  34
ENDBRANCH  25  28
ENDBRANCH  23  24
ENDBRANCH  22  23
ENDBRANCH   1  22
TORSDOF 14
