REMARK SMILES COc1ccc(N2C(=O)/C(=C/c3c(C(=O)NCCCCNC(=O)c4ccc(-c5c6nc(c(-c7c(F)c(F)c(F)c(F)c7F)c7ccc([nH]7)c(-c7c(F)c(F)c(F)c(F)c7F)c7nc(c(-c8c(F)c(F)c(F)c(F)c8F)c8ccc5[nH]8)C=C7)C=C6)cc4)[nH]c4cc(OC)ccc34)SC2=S)cc1
REMARK SMILES IDX 18 1 17 2 16 3 14 4 15 5 13 7 12 8 95 9 87 10 88 11 94 12
REMARK SMILES IDX 89 14 93 15 90 16 11 17 7 18 8 19 97 20 9 21 10 22 96 23
REMARK SMILES IDX 98 24 6 25 3 26 4 27 100 28 5 29 99 30 2 31 1 32 91 33 92 34
REMARK SMILES IDX 19 35 20 36 21 37 22 38 23 40 24 41 25 42 86 43 26 44 85 45
REMARK SMILES IDX 27 46 28 47 29 48 79 49 30 50 84 51 78 52 80 53 31 54 83 55
REMARK SMILES IDX 77 56 76 57 32 59 64 60 44 61 63 62 45 63 48 64 62 65 81 66
REMARK SMILES IDX 46 67 47 68 61 70 82 71 49 72 33 73 34 74 42 75 35 76 36 77
REMARK SMILES IDX 40 78 43 79 37 80 38 81 41 82 39 83 65 84 66 85 74 86 67 87
REMARK SMILES IDX 68 88 72 89 75 90 69 91 70 92 73 93 71 94 50 95 51 96 59 97
REMARK SMILES IDX 52 98 53 99 57 100 60 101 54 102 55 103 58 104 56 105
REMARK H PARENT 16 6 87 13 21 39 80 58 48 69
REMARK Flexibility Score: inf
ROOT
ATOM      1  C   UNL     1      -0.191   3.985   7.968  1.00  0.00     0.023 C 
ENDROOT
BRANCH   1   2
ATOM      2  C   UNL     1       1.195   3.630   8.500  1.00  0.00     0.116 C 
BRANCH   2   3
ATOM      3  N   UNL     1       2.231   4.643   8.364  1.00  0.00    -0.351 N 
ATOM      4  C   UNL     1       3.336   4.849   9.166  1.00  0.00     0.268 C 
ATOM      5  O   UNL     1       4.037   5.836   8.944  1.00  0.00    -0.268 OA
ATOM      6  H   UNL     1       2.131   5.259   7.603  1.00  0.00     0.163 HD
BRANCH   4   7
ATOM      7  C   UNL     1       3.613   3.976  10.285  1.00  0.00     0.112 A 
ATOM      8  C   UNL     1       3.567   2.594  10.522  1.00  0.00     0.014 A 
ATOM      9  C   UNL     1       3.473   2.509  12.025  1.00  0.00     0.008 A 
ATOM     10  N   UNL     1       4.139   4.539  11.415  1.00  0.00    -0.350 N 
ATOM     11  C   UNL     1       3.800   3.788  12.498  1.00  0.00     0.050 A 
ATOM     12  C   UNL     1       3.143   1.597  13.087  1.00  0.00     0.015 A 
ATOM     13  H   UNL     1       4.679   5.362  11.441  1.00  0.00     0.167 HD
ATOM     14  C   UNL     1       3.770   4.215  13.834  1.00  0.00     0.073 A 
ATOM     15  C   UNL     1       3.106   2.026  14.478  1.00  0.00     0.047 A 
ATOM     16  C   UNL     1       3.402   3.336  14.840  1.00  0.00     0.120 A 
BRANCH   8  17
ATOM     17  C   UNL     1       3.388   1.664   9.363  1.00  0.00     0.032 C 
ATOM     18  N   UNL     1       3.796   2.195   5.670  1.00  0.00    -0.261 N 
ATOM     19  C   UNL     1       3.391   1.319   6.729  1.00  0.00     0.270 C 
ATOM     20  C   UNL     1       4.690   3.171   6.052  1.00  0.00     0.152 C 
ATOM     21  O   UNL     1       2.623   0.369   6.644  1.00  0.00    -0.268 OA
ATOM     22  C   UNL     1       3.934   1.814   8.102  1.00  0.00     0.081 C 
ATOM     23  S   UNL     1       5.269   2.847   7.693  1.00  0.00    -0.054 SA
ATOM     24  S   UNL     1       5.250   4.465   5.164  1.00  0.00    -0.051 S 
BRANCH  18  25
ATOM     25  C   UNL     1       3.304   2.083   4.267  1.00  0.00     0.051 A 
ATOM     26  C   UNL     1       1.160   0.812   1.579  1.00  0.00     0.119 A 
ATOM     27  C   UNL     1       0.857   2.631   2.441  1.00  0.00     0.048 A 
ATOM     28  C   UNL     1       2.596  -0.122   2.163  1.00  0.00     0.048 A 
ATOM     29  C   UNL     1       2.027   3.174   3.730  1.00  0.00     0.030 A 
ATOM     30  C   UNL     1       3.596   0.542   3.459  1.00  0.00     0.030 A 
BRANCH  26  31
ATOM     31  O   UNL     1       0.470   0.175   0.543  1.00  0.00    -0.497 OA
ATOM     32  C   UNL     1       0.882  -1.070   0.003  1.00  0.00     0.278 C 
ENDBRANCH  26  31
ENDBRANCH  18  25
ENDBRANCH   8  17
BRANCH  16  33
ATOM     33  O   UNL     1       3.311   3.957  16.053  1.00  0.00    -0.497 OA
ATOM     34  C   UNL     1       3.493   3.247  17.265  1.00  0.00     0.278 C 
ENDBRANCH  16  33
ENDBRANCH   4   7
ENDBRANCH   2   3
ENDBRANCH   1   2
BRANCH   1  35
ATOM     35  C   UNL     1      -0.382   3.878   6.456  1.00  0.00     0.023 C 
BRANCH  35  36
ATOM     36  C   UNL     1      -0.119   2.543   5.753  1.00  0.00     0.116 C 
BRANCH  36  37
ATOM     37  N   UNL     1      -1.107   1.510   5.545  1.00  0.00    -0.352 N 
ATOM     38  C   UNL     1      -1.208   0.728   4.385  1.00  0.00     0.251 C 
ATOM     39  H   UNL     1      -1.754   1.343   6.268  1.00  0.00     0.163 HD
ATOM     40  O   UNL     1      -2.039  -0.169   4.295  1.00  0.00    -0.269 OA
BRANCH  38  41
ATOM     41  C   UNL     1      -0.332   1.026   3.214  1.00  0.00     0.039 A 
ATOM     42  C   UNL     1      -1.033   1.644   1.742  1.00  0.00     0.014 A 
ATOM     43  C   UNL     1       1.438   1.142   3.426  1.00  0.00     0.014 A 
ATOM     44  C   UNL     1      -0.084   2.412   0.444  1.00  0.00     0.010 A 
ATOM     45  C   UNL     1       2.569   2.024   1.984  1.00  0.00     0.010 A 
ATOM     46  C   UNL     1       1.684   2.636   0.499  1.00  0.00    -0.014 A 
BRANCH  46  47
ATOM     47  C   UNL     1       2.252   3.306  -0.724  1.00  0.00     0.031 A 
ATOM     48  C   UNL     1       3.100   2.534  -1.702  1.00  0.00     0.074 A 
ATOM     49  C   UNL     1       1.839   4.542  -1.094  1.00  0.00     0.049 A 
ATOM     50  N   UNL     1       3.611   2.893  -2.857  1.00  0.00    -0.248 NA
ATOM     51  C   UNL     1       3.375   1.142  -1.349  1.00  0.00     0.031 C 
ATOM     52  C   UNL     1       0.877   5.377  -0.371  1.00  0.00     0.029 A 
ATOM     53  N   UNL     1       2.180   5.324  -2.182  1.00  0.00    -0.354 N 
ATOM     54  C   UNL     1       4.249   1.762  -3.364  1.00  0.00     0.074 A 
ATOM     55  C   UNL     1       4.060   0.708  -2.396  1.00  0.00     0.031 C 
ATOM     56  C   UNL     1       0.742   6.556  -1.001  1.00  0.00     0.029 A 
ATOM     57  C   UNL     1       1.644   6.593  -2.148  1.00  0.00     0.049 A 
ATOM     58  H   UNL     1       2.754   5.004  -2.914  1.00  0.00     0.167 HD
ATOM     59  C   UNL     1       4.955   1.618  -4.513  1.00  0.00     0.037 A 
ATOM     60  C   UNL     1       1.887   7.679  -2.915  1.00  0.00     0.037 A 
ATOM     61  C   UNL     1       5.224   2.691  -5.434  1.00  0.00     0.049 A 
ATOM     62  C   UNL     1       2.848   7.562  -4.072  1.00  0.00     0.074 A 
ATOM     63  C   UNL     1       5.995   2.672  -6.584  1.00  0.00     0.029 A 
ATOM     64  N   UNL     1       4.760   3.989  -5.286  1.00  0.00    -0.354 N 
ATOM     65  N   UNL     1       3.472   6.500  -4.523  1.00  0.00    -0.248 NA
ATOM     66  C   UNL     1       3.140   8.789  -4.831  1.00  0.00     0.031 C 
ATOM     67  C   UNL     1       6.077   3.977  -7.075  1.00  0.00     0.029 A 
ATOM     68  C   UNL     1       5.270   4.789  -6.295  1.00  0.00     0.049 A 
ATOM     69  H   UNL     1       4.157   4.295  -4.570  1.00  0.00     0.167 HD
ATOM     70  C   UNL     1       4.189   6.919  -5.637  1.00  0.00     0.074 A 
ATOM     71  C   UNL     1       3.924   8.332  -5.798  1.00  0.00     0.031 C 
ATOM     72  C   UNL     1       4.985   6.192  -6.458  1.00  0.00     0.037 A 
BRANCH  59  73
ATOM     73  C   UNL     1       5.572   0.274  -4.796  1.00  0.00     0.064 A 
ATOM     74  C   UNL     1       4.799  -0.846  -5.139  1.00  0.00     0.173 A 
ATOM     75  C   UNL     1       6.968   0.115  -4.760  1.00  0.00     0.173 A 
ATOM     76  F   UNL     1       3.461  -0.757  -5.178  1.00  0.00    -0.203 F 
ATOM     77  C   UNL     1       5.397  -2.077  -5.408  1.00  0.00     0.198 A 
ATOM     78  C   UNL     1       7.564  -1.107  -5.063  1.00  0.00     0.198 A 
ATOM     79  F   UNL     1       7.759   1.151  -4.444  1.00  0.00    -0.203 F 
ATOM     80  F   UNL     1       4.636  -3.145  -5.683  1.00  0.00    -0.200 F 
ATOM     81  C   UNL     1       6.778  -2.204  -5.377  1.00  0.00     0.200 A 
ATOM     82  F   UNL     1       8.899  -1.221  -5.049  1.00  0.00    -0.200 F 
ATOM     83  F   UNL     1       7.351  -3.386  -5.642  1.00  0.00    -0.200 F 
ENDBRANCH  59  73
BRANCH  60  84
ATOM     84  C   UNL     1       1.263   8.995  -2.580  1.00  0.00     0.064 A 
ATOM     85  C   UNL     1       0.389   9.643  -3.464  1.00  0.00     0.173 A 
ATOM     86  C   UNL     1       1.563   9.653  -1.375  1.00  0.00     0.173 A 
ATOM     87  F   UNL     1       0.090   9.080  -4.644  1.00  0.00    -0.203 F 
ATOM     88  C   UNL     1      -0.145  10.898  -3.166  1.00  0.00     0.198 A 
ATOM     89  C   UNL     1       0.999  10.889  -1.061  1.00  0.00     0.198 A 
ATOM     90  F   UNL     1       2.404   9.093  -0.493  1.00  0.00    -0.203 F 
ATOM     91  F   UNL     1      -0.933  11.517  -4.056  1.00  0.00    -0.200 F 
ATOM     92  C   UNL     1       0.153  11.515  -1.961  1.00  0.00     0.200 A 
ATOM     93  F   UNL     1       1.279  11.473   0.113  1.00  0.00    -0.200 F 
ATOM     94  F   UNL     1      -0.366  12.717  -1.673  1.00  0.00    -0.200 F 
ENDBRANCH  60  84
BRANCH  72  95
ATOM     95  C   UNL     1       5.584   6.878  -7.652  1.00  0.00     0.064 A 
ATOM     96  C   UNL     1       6.601   7.835  -7.532  1.00  0.00     0.173 A 
ATOM     97  C   UNL     1       5.185   6.503  -8.946  1.00  0.00     0.173 A 
ATOM     98  F   UNL     1       7.013   8.236  -6.320  1.00  0.00    -0.203 F 
ATOM     99  C   UNL     1       7.184   8.403  -8.662  1.00  0.00     0.198 A 
ATOM    100  C   UNL     1       5.797   7.043 -10.072  1.00  0.00     0.198 A 
ATOM    101  F   UNL     1       4.222   5.584  -9.118  1.00  0.00    -0.203 F 
ATOM    102  F   UNL     1       8.126   9.347  -8.525  1.00  0.00    -0.200 F 
ATOM    103  C   UNL     1       6.791   7.998  -9.930  1.00  0.00     0.200 A 
ATOM    104  F   UNL     1       5.432   6.631 -11.294  1.00  0.00    -0.200 F 
ATOM    105  F   UNL     1       7.371   8.529 -11.015  1.00  0.00    -0.200 F 
ENDBRANCH  72  95
ENDBRANCH  46  47
ENDBRANCH  38  41
ENDBRANCH  36  37
ENDBRANCH  35  36
ENDBRANCH   1  35
TORSDOF 15
