REMARK SMILES CCN1CC(=O)N(C[C@@H]([NH3+])C(=O)NCCCCNC(=O)c2ccc(-c3c4nc(c(-c5c(F)c(F)c(F)c(F)c5F)c5ccc([nH]5)c(-c5c(F)c(F)c(F)c(F)c5F)c5nc(c(-c6c(F)c(F)c(F)c(F)c6F)c6ccc3[nH]6)C=C5)C=C4)cc2)CC1=O
REMARK SMILES IDX 15 1 14 2 13 3 11 4 12 5 9 7 8 8 7 9 3 10 4 11 85 12 5 13
REMARK SMILES IDX 84 14 86 15 6 16 2 17 1 18 10 19 16 23 17 24 18 25 19 26
REMARK SMILES IDX 20 28 21 29 22 30 83 31 23 32 82 33 24 34 25 35 26 36 76 37
REMARK SMILES IDX 27 38 81 39 75 40 77 41 28 42 80 43 74 44 73 45 29 47 61 48
REMARK SMILES IDX 41 49 60 50 42 51 45 52 59 53 78 54 43 55 44 56 58 58 79 59
REMARK SMILES IDX 46 60 30 61 31 62 39 63 32 64 33 65 37 66 40 67 34 68 35 69
REMARK SMILES IDX 38 70 36 71 62 72 63 73 71 74 64 75 65 76 69 77 72 78 66 79
REMARK SMILES IDX 67 80 70 81 68 82 47 83 48 84 56 85 49 86 50 87 54 88 57 89
REMARK SMILES IDX 51 90 52 91 55 92 53 93
REMARK H PARENT 13 6 10 20 10 21 10 22 18 27 77 46 45 57
REMARK Flexibility Score: inf
ROOT
ATOM      1  C   UNL     1       6.449   4.621  -3.950  1.00  0.00     0.023 C 
ENDROOT
BRANCH   1   2
ATOM      2  C   UNL     1       5.524   4.907  -5.135  1.00  0.00     0.116 C 
BRANCH   2   3
ATOM      3  N   UNL     1       5.827   4.039  -6.259  1.00  0.00    -0.351 N 
ATOM      4  C   UNL     1       5.118   2.994  -6.779  1.00  0.00     0.280 C 
ATOM      5  O   UNL     1       5.592   2.416  -7.761  1.00  0.00    -0.268 OA
ATOM      6  H   UNL     1       6.676   4.235  -6.718  1.00  0.00     0.163 HD
BRANCH   4   7
ATOM      7  C   UNL     1       3.744   2.583  -6.209  1.00  0.00     0.290 C 
BRANCH   7   8
ATOM      8  C   UNL     1       3.890   2.057  -4.764  1.00  0.00     0.195 C 
BRANCH   8   9
ATOM      9  N   UNL     1       2.650   1.758  -4.048  1.00  0.00    -0.325 N 
ATOM     10  N   UNL     1       1.016   1.390  -1.850  1.00  0.00    -0.332 N 
ATOM     11  C   UNL     1       1.058   0.322  -2.858  1.00  0.00     0.219 C 
ATOM     12  C   UNL     1       1.185   2.708  -2.278  1.00  0.00     0.242 C 
ATOM     13  C   UNL     1       2.285   0.449  -3.769  1.00  0.00     0.242 C 
ATOM     14  C   UNL     1       1.741   2.847  -3.694  1.00  0.00     0.220 C 
ATOM     15  O   UNL     1       0.793   3.686  -1.645  1.00  0.00    -0.273 OA
ATOM     16  O   UNL     1       2.825  -0.525  -4.285  1.00  0.00    -0.273 OA
BRANCH  10  17
ATOM     17  C   UNL     1       0.378   1.156  -0.558  1.00  0.00     0.116 C 
ATOM     18  C   UNL     1       0.925  -0.039   0.205  1.00  0.00     0.027 C 
ENDBRANCH  10  17
ENDBRANCH   8   9
ENDBRANCH   7   8
BRANCH   7  19
ATOM     19  N   UNL     1       2.786   3.704  -6.405  1.00  0.00    -0.346 N 
ATOM     20  H   UNL     1       3.129   4.533  -5.919  1.00  0.00     0.345 HD
ATOM     21  H   UNL     1       1.875   3.442  -6.029  1.00  0.00     0.345 HD
ATOM     22  H   UNL     1       2.698   3.906  -7.401  1.00  0.00     0.345 HD
ENDBRANCH   7  19
ENDBRANCH   4   7
ENDBRANCH   2   3
ENDBRANCH   1   2
BRANCH   1  23
ATOM     23  C   UNL     1       7.911   5.006  -4.176  1.00  0.00     0.023 C 
BRANCH  23  24
ATOM     24  C   UNL     1       8.146   6.473  -4.510  1.00  0.00     0.116 C 
BRANCH  24  25
ATOM     25  N   UNL     1       7.676   7.377  -3.472  1.00  0.00    -0.352 N 
ATOM     26  C   UNL     1       8.280   8.510  -2.984  1.00  0.00     0.251 C 
ATOM     27  H   UNL     1       6.809   7.146  -3.065  1.00  0.00     0.163 HD
ATOM     28  O   UNL     1       7.812   9.100  -2.016  1.00  0.00    -0.269 OA
BRANCH  26  29
ATOM     29  C   UNL     1       9.526   8.993  -3.613  1.00  0.00     0.039 A 
ATOM     30  C   UNL     1      10.616   9.307  -2.798  1.00  0.00     0.014 A 
ATOM     31  C   UNL     1       9.628   9.100  -5.003  1.00  0.00     0.014 A 
ATOM     32  C   UNL     1      11.833   9.662  -3.382  1.00  0.00     0.010 A 
ATOM     33  C   UNL     1      10.860   9.382  -5.584  1.00  0.00     0.010 A 
ATOM     34  C   UNL     1      11.975   9.663  -4.779  1.00  0.00    -0.014 A 
BRANCH  34  35
ATOM     35  C   UNL     1      13.279   9.961  -5.422  1.00  0.00     0.031 A 
ATOM     36  C   UNL     1      13.427  11.180  -6.290  1.00  0.00     0.074 A 
ATOM     37  C   UNL     1      14.309   9.105  -5.275  1.00  0.00     0.049 A 
ATOM     38  N   UNL     1      14.450  11.567  -7.009  1.00  0.00    -0.248 NA
ATOM     39  C   UNL     1      12.258  12.069  -6.382  1.00  0.00     0.031 C 
ATOM     40  C   UNL     1      14.279   7.871  -4.488  1.00  0.00     0.029 A 
ATOM     41  N   UNL     1      15.580   9.137  -5.792  1.00  0.00    -0.354 N 
ATOM     42  C   UNL     1      14.047  12.737  -7.638  1.00  0.00     0.074 A 
ATOM     43  C   UNL     1      12.668  12.965  -7.268  1.00  0.00     0.031 C 
ATOM     44  C   UNL     1      15.481   7.276  -4.556  1.00  0.00     0.029 A 
ATOM     45  C   UNL     1      16.353   8.062  -5.423  1.00  0.00     0.049 A 
ATOM     46  H   UNL     1      15.907   9.861  -6.373  1.00  0.00     0.167 HD
ATOM     47  C   UNL     1      14.772  13.563  -8.428  1.00  0.00     0.037 A 
ATOM     48  C   UNL     1      17.619   7.746  -5.756  1.00  0.00     0.037 A 
ATOM     49  C   UNL     1      16.149  13.343  -8.783  1.00  0.00     0.049 A 
ATOM     50  C   UNL     1      18.389   8.665  -6.668  1.00  0.00     0.074 A 
ATOM     51  C   UNL     1      16.979  14.134  -9.559  1.00  0.00     0.029 A 
ATOM     52  N   UNL     1      16.901  12.250  -8.380  1.00  0.00    -0.354 N 
ATOM     53  N   UNL     1      18.013   9.795  -7.215  1.00  0.00    -0.248 NA
ATOM     54  C   UNL     1      19.762   8.264  -7.003  1.00  0.00     0.031 C 
ATOM     55  C   UNL     1      18.222  13.501  -9.656  1.00  0.00     0.029 A 
ATOM     56  C   UNL     1      18.182  12.340  -8.901  1.00  0.00     0.049 A 
ATOM     57  H   UNL     1      16.574  11.518  -7.808  1.00  0.00     0.167 HD
ATOM     58  C   UNL     1      19.113  10.259  -7.926  1.00  0.00     0.074 A 
ATOM     59  C   UNL     1      20.173   9.293  -7.730  1.00  0.00     0.031 C 
ATOM     60  C   UNL     1      19.233  11.382  -8.675  1.00  0.00     0.037 A 
BRANCH  47  61
ATOM     61  C   UNL     1      14.091  14.795  -8.951  1.00  0.00     0.064 A 
ATOM     62  C   UNL     1      13.757  15.860  -8.101  1.00  0.00     0.173 A 
ATOM     63  C   UNL     1      13.806  14.932 -10.318  1.00  0.00     0.173 A 
ATOM     64  F   UNL     1      13.997  15.773  -6.784  1.00  0.00    -0.203 F 
ATOM     65  C   UNL     1      13.140  17.006  -8.595  1.00  0.00     0.198 A 
ATOM     66  C   UNL     1      13.217  16.092 -10.813  1.00  0.00     0.198 A 
ATOM     67  F   UNL     1      14.109  13.945 -11.175  1.00  0.00    -0.203 F 
ATOM     68  F   UNL     1      12.789  17.991  -7.757  1.00  0.00    -0.200 F 
ATOM     69  C   UNL     1      12.878  17.125  -9.952  1.00  0.00     0.200 A 
ATOM     70  F   UNL     1      12.976  16.211 -12.126  1.00  0.00    -0.200 F 
ATOM     71  F   UNL     1      12.293  18.232 -10.428  1.00  0.00    -0.200 F 
ENDBRANCH  47  61
BRANCH  48  72
ATOM     72  C   UNL     1      18.253   6.514  -5.216  1.00  0.00     0.064 A 
ATOM     73  C   UNL     1      19.321   6.595  -4.310  1.00  0.00     0.173 A 
ATOM     74  C   UNL     1      17.836   5.237  -5.618  1.00  0.00     0.173 A 
ATOM     75  F   UNL     1      19.771   7.795  -3.913  1.00  0.00    -0.203 F 
ATOM     76  C   UNL     1      19.967   5.449  -3.853  1.00  0.00     0.198 A 
ATOM     77  C   UNL     1      18.463   4.090  -5.136  1.00  0.00     0.198 A 
ATOM     78  F   UNL     1      16.817   5.103  -6.479  1.00  0.00    -0.203 F 
ATOM     79  F   UNL     1      21.023   5.559  -3.036  1.00  0.00    -0.200 F 
ATOM     80  C   UNL     1      19.535   4.197  -4.263  1.00  0.00     0.200 A 
ATOM     81  F   UNL     1      18.034   2.881  -5.525  1.00  0.00    -0.200 F 
ATOM     82  F   UNL     1      20.161   3.095  -3.828  1.00  0.00    -0.200 F 
ENDBRANCH  48  72
BRANCH  60  83
ATOM     83  C   UNL     1      20.572  11.657  -9.293  1.00  0.00     0.064 A 
ATOM     84  C   UNL     1      21.055  10.905 -10.374  1.00  0.00     0.173 A 
ATOM     85  C   UNL     1      21.365  12.715  -8.822  1.00  0.00     0.173 A 
ATOM     86  F   UNL     1      20.342   9.873 -10.850  1.00  0.00    -0.203 F 
ATOM     87  C   UNL     1      22.294  11.185 -10.943  1.00  0.00     0.198 A 
ATOM     88  C   UNL     1      22.589  13.012  -9.413  1.00  0.00     0.198 A 
ATOM     89  F   UNL     1      20.945  13.469  -7.795  1.00  0.00    -0.203 F 
ATOM     90  F   UNL     1      22.758  10.423 -11.943  1.00  0.00    -0.200 F 
ATOM     91  C   UNL     1      23.056  12.242 -10.467  1.00  0.00     0.200 A 
ATOM     92  F   UNL     1      23.317  14.042  -8.961  1.00  0.00    -0.200 F 
ATOM     93  F   UNL     1      24.245  12.516 -11.022  1.00  0.00    -0.200 F 
ENDBRANCH  60  83
ENDBRANCH  34  35
ENDBRANCH  26  29
ENDBRANCH  24  25
ENDBRANCH  23  24
ENDBRANCH   1  23
TORSDOF 15
