REMARK SMILES O=C(NCCCCNC(=O)[C@@H](Cc1ccncc1)c1ccc(Cl)cc1)c1ccc(-c2c3nc(c(-c4c(F)c(F)c(F)c(F)c4F)c4ccc([nH]4)c(-c4c(F)c(F)c(F)c(F)c4F)c4nc(c(-c5c(F)c(F)c(F)c(F)c5F)c5ccc2[nH]5)C=C4)C=C3)cc1
REMARK SMILES IDX 5 1 4 2 3 3 1 4 2 5 26 7 27 8 88 9 28 10 87 11 29 12 30 13
REMARK SMILES IDX 31 14 81 15 32 16 86 17 80 18 82 19 33 20 85 21 79 22 78 23
REMARK SMILES IDX 34 25 66 26 46 27 65 28 47 29 50 30 64 31 83 32 48 33 49 34
REMARK SMILES IDX 63 36 84 37 51 38 35 39 36 40 44 41 37 42 38 43 42 44 45 45
REMARK SMILES IDX 39 46 40 47 43 48 41 49 67 50 68 51 76 52 69 53 70 54 74 55
REMARK SMILES IDX 77 56 71 57 72 58 75 59 73 60 52 61 53 62 61 63 54 64 55 65
REMARK SMILES IDX 59 66 62 67 56 68 57 69 60 70 58 71 6 72 7 73 8 74 9 75
REMARK SMILES IDX 10 77 11 78 12 79 13 80 14 81 18 82 15 83 17 84 16 85 19 86
REMARK SMILES IDX 20 87 25 88 21 89 24 90 22 91 23 92
REMARK H PARENT 3 6 82 24 50 35 8 76
REMARK Flexibility Score: inf
ROOT
ATOM      1  C   UNL     1       5.638  -0.653   1.788  1.00  0.00     0.023 C 
ENDROOT
BRANCH   1   2
ATOM      2  C   UNL     1       4.931  -0.671   0.437  1.00  0.00     0.116 C 
BRANCH   2   3
ATOM      3  N   UNL     1       3.480  -0.820   0.516  1.00  0.00    -0.352 N 
ATOM      4  O   UNL     1       1.306  -0.288   0.158  1.00  0.00    -0.269 OA
ATOM      5  C   UNL     1       2.490  -0.043  -0.041  1.00  0.00     0.251 C 
ATOM      6  H   UNL     1       3.165  -1.587   1.046  1.00  0.00     0.163 HD
BRANCH   5   7
ATOM      7  C   UNL     1       2.879   1.133  -0.839  1.00  0.00     0.039 A 
ATOM      8  C   UNL     1       3.847   1.010  -1.835  1.00  0.00     0.014 A 
ATOM      9  C   UNL     1       2.353   2.382  -0.502  1.00  0.00     0.014 A 
ATOM     10  C   UNL     1       4.451   2.155  -2.332  1.00  0.00     0.010 A 
ATOM     11  C   UNL     1       2.884   3.528  -1.093  1.00  0.00     0.010 A 
ATOM     12  C   UNL     1       3.978   3.426  -1.966  1.00  0.00    -0.014 A 
BRANCH  12  13
ATOM     13  C   UNL     1       4.640   4.636  -2.513  1.00  0.00     0.031 A 
ATOM     14  C   UNL     1       5.303   5.632  -1.603  1.00  0.00     0.074 A 
ATOM     15  C   UNL     1       4.662   4.814  -3.846  1.00  0.00     0.049 A 
ATOM     16  N   UNL     1       5.856   6.781  -1.901  1.00  0.00    -0.248 NA
ATOM     17  C   UNL     1       5.344   5.304  -0.169  1.00  0.00     0.031 C 
ATOM     18  C   UNL     1       4.064   3.905  -4.826  1.00  0.00     0.029 A 
ATOM     19  N   UNL     1       5.217   5.807  -4.609  1.00  0.00    -0.354 N 
ATOM     20  C   UNL     1       6.264   7.333  -0.694  1.00  0.00     0.074 A 
ATOM     21  C   UNL     1       5.897   6.394   0.345  1.00  0.00     0.031 C 
ATOM     22  C   UNL     1       4.324   4.356  -6.060  1.00  0.00     0.029 A 
ATOM     23  C   UNL     1       5.031   5.626  -5.956  1.00  0.00     0.049 A 
ATOM     24  H   UNL     1       5.702   6.575  -4.229  1.00  0.00     0.167 HD
ATOM     25  C   UNL     1       6.885   8.518  -0.478  1.00  0.00     0.037 A 
ATOM     26  C   UNL     1       5.359   6.413  -6.996  1.00  0.00     0.037 A 
ATOM     27  C   UNL     1       7.284   9.424  -1.525  1.00  0.00     0.049 A 
ATOM     28  C   UNL     1       6.047   7.717  -6.731  1.00  0.00     0.074 A 
ATOM     29  C   UNL     1       7.947  10.634  -1.415  1.00  0.00     0.029 A 
ATOM     30  N   UNL     1       7.063   9.211  -2.878  1.00  0.00    -0.354 N 
ATOM     31  N   UNL     1       6.408   8.238  -5.585  1.00  0.00    -0.248 NA
ATOM     32  C   UNL     1       6.360   8.548  -7.900  1.00  0.00     0.031 C 
ATOM     33  C   UNL     1       8.098  11.169  -2.699  1.00  0.00     0.029 A 
ATOM     34  C   UNL     1       7.564  10.274  -3.613  1.00  0.00     0.049 A 
ATOM     35  H   UNL     1       6.616   8.421  -3.260  1.00  0.00     0.167 HD
ATOM     36  C   UNL     1       6.996   9.455  -5.889  1.00  0.00     0.074 A 
ATOM     37  C   UNL     1       6.958   9.587  -7.333  1.00  0.00     0.031 C 
ATOM     38  C   UNL     1       7.515  10.382  -5.048  1.00  0.00     0.037 A 
BRANCH  25  39
ATOM     39  C   UNL     1       7.143   8.922   0.944  1.00  0.00     0.064 A 
ATOM     40  C   UNL     1       8.141   8.314   1.720  1.00  0.00     0.173 A 
ATOM     41  C   UNL     1       6.402   9.962   1.528  1.00  0.00     0.173 A 
ATOM     42  F   UNL     1       8.869   7.307   1.214  1.00  0.00    -0.203 F 
ATOM     43  C   UNL     1       8.372   8.717   3.033  1.00  0.00     0.198 A 
ATOM     44  C   UNL     1       6.652  10.378   2.833  1.00  0.00     0.198 A 
ATOM     45  F   UNL     1       5.439  10.580   0.828  1.00  0.00    -0.203 F 
ATOM     46  F   UNL     1       9.304   8.095   3.769  1.00  0.00    -0.200 F 
ATOM     47  C   UNL     1       7.632   9.752   3.586  1.00  0.00     0.200 A 
ATOM     48  F   UNL     1       5.942  11.385   3.361  1.00  0.00    -0.200 F 
ATOM     49  F   UNL     1       7.859  10.141   4.849  1.00  0.00    -0.200 F 
ENDBRANCH  25  39
BRANCH  26  50
ATOM     50  C   UNL     1       5.009   5.973  -8.368  1.00  0.00     0.064 A 
ATOM     51  C   UNL     1       5.995   5.520  -9.252  1.00  0.00     0.173 A 
ATOM     52  C   UNL     1       3.672   5.921  -8.792  1.00  0.00     0.173 A 
ATOM     53  F   UNL     1       7.287   5.565  -8.894  1.00  0.00    -0.203 F 
ATOM     54  C   UNL     1       5.657   5.025 -10.509  1.00  0.00     0.198 A 
ATOM     55  C   UNL     1       3.333   5.401 -10.038  1.00  0.00     0.198 A 
ATOM     56  F   UNL     1       2.692   6.332  -7.973  1.00  0.00    -0.203 F 
ATOM     57  F   UNL     1       6.619   4.610 -11.344  1.00  0.00    -0.200 F 
ATOM     58  C   UNL     1       4.326   4.955 -10.896  1.00  0.00     0.200 A 
ATOM     59  F   UNL     1       2.045   5.314 -10.397  1.00  0.00    -0.200 F 
ATOM     60  F   UNL     1       4.000   4.453 -12.095  1.00  0.00    -0.200 F 
ENDBRANCH  26  50
BRANCH  38  61
ATOM     61  C   UNL     1       8.104  11.608  -5.673  1.00  0.00     0.064 A 
ATOM     62  C   UNL     1       7.292  12.634  -6.176  1.00  0.00     0.173 A 
ATOM     63  C   UNL     1       9.496  11.773  -5.737  1.00  0.00     0.173 A 
ATOM     64  F   UNL     1       5.957  12.510  -6.152  1.00  0.00    -0.203 F 
ATOM     65  C   UNL     1       7.854  13.778  -6.736  1.00  0.00     0.198 A 
ATOM     66  C   UNL     1      10.053  12.927  -6.278  1.00  0.00     0.198 A 
ATOM     67  F   UNL     1      10.311  10.818  -5.266  1.00  0.00    -0.203 F 
ATOM     68  F   UNL     1       7.061  14.732  -7.243  1.00  0.00    -0.200 F 
ATOM     69  C   UNL     1       9.232  13.926  -6.781  1.00  0.00     0.200 A 
ATOM     70  F   UNL     1      11.385  13.072  -6.315  1.00  0.00    -0.200 F 
ATOM     71  F   UNL     1       9.771  15.029  -7.317  1.00  0.00    -0.200 F 
ENDBRANCH  38  61
ENDBRANCH  12  13
ENDBRANCH   5   7
ENDBRANCH   2   3
ENDBRANCH   1   2
BRANCH   1  72
ATOM     72  C   UNL     1       5.273  -1.803   2.714  1.00  0.00     0.023 C 
BRANCH  72  73
ATOM     73  C   UNL     1       5.482  -3.185   2.114  1.00  0.00     0.116 C 
BRANCH  73  74
ATOM     74  N   UNL     1       6.761  -3.753   2.450  1.00  0.00    -0.356 N 
ATOM     75  C   UNL     1       7.085  -4.990   2.903  1.00  0.00     0.227 C 
ATOM     76  H   UNL     1       7.526  -3.144   2.333  1.00  0.00     0.163 HD
ATOM     77  O   UNL     1       8.297  -5.242   2.941  1.00  0.00    -0.274 OA
BRANCH  75  78
ATOM     78  C   UNL     1       6.074  -6.045   3.378  1.00  0.00     0.113 C 
BRANCH  78  79
ATOM     79  C   UNL     1       5.259  -5.722   4.657  1.00  0.00     0.054 C 
BRANCH  79  80
ATOM     80  C   UNL     1       4.061  -4.807   4.631  1.00  0.00    -0.044 A 
ATOM     81  C   UNL     1       4.093  -3.585   5.316  1.00  0.00     0.024 A 
ATOM     82  C   UNL     1       2.878  -5.157   3.974  1.00  0.00     0.024 A 
ATOM     83  C   UNL     1       2.983  -2.753   5.260  1.00  0.00     0.111 A 
ATOM     84  C   UNL     1       1.826  -4.251   3.962  1.00  0.00     0.111 A 
ATOM     85  N   UNL     1       1.861  -3.050   4.576  1.00  0.00    -0.265 NA
ENDBRANCH  79  80
ENDBRANCH  78  79
BRANCH  78  86
ATOM     86  C   UNL     1       5.414  -6.901   2.294  1.00  0.00    -0.035 A 
ATOM     87  C   UNL     1       4.593  -6.396   1.277  1.00  0.00     0.006 A 
ATOM     88  C   UNL     1       5.635  -8.294   2.311  1.00  0.00     0.006 A 
ATOM     89  C   UNL     1       4.001  -7.242   0.329  1.00  0.00     0.021 A 
ATOM     90  C   UNL     1       5.056  -9.140   1.360  1.00  0.00     0.021 A 
ATOM     91  C   UNL     1       4.235  -8.610   0.374  1.00  0.00     0.041 A 
ATOM     92  Cl  UNL     1       3.506  -9.644  -0.789  1.00  0.00    -0.084 Cl
ENDBRANCH  78  86
ENDBRANCH  75  78
ENDBRANCH  73  74
ENDBRANCH  72  73
ENDBRANCH   1  72
TORSDOF 14
