REMARK SMILES Cc1c(Br)c(C)c2c(c1Br)O[C@H](C(F)(F)F)C(C(=O)NCCCCNC(=O)c1ccc(-c3c4nc(c(-c5c(F)c(F)c(F)c(F)c5F)c5ccc([nH]5)c(-c5c(F)c(F)c(F)c(F)c5F)c5nc(c(-c6c(F)c(F)c(F)c(F)c6F)c6ccc3[nH]6)C=C5)C=C4)cc1)=C2
REMARK SMILES IDX 23 1 22 2 21 3 20 4 18 5 19 6 17 8 1 9 2 10 3 11 9 12 4 13
REMARK SMILES IDX 5 14 8 15 10 16 6 17 7 18 11 19 91 20 12 21 13 22 14 23
REMARK SMILES IDX 15 24 16 25 24 26 25 27 26 28 27 30 28 31 29 32 90 33 30 34
REMARK SMILES IDX 89 35 31 36 32 37 33 38 83 39 34 40 88 41 82 42 84 43 35 44
REMARK SMILES IDX 87 45 81 46 80 47 36 49 68 50 48 51 67 52 49 53 52 54 66 55
REMARK SMILES IDX 85 56 50 57 51 58 65 60 86 61 53 62 37 63 38 64 46 65 39 66
REMARK SMILES IDX 40 67 44 68 47 69 41 70 42 71 45 72 43 73 69 74 70 75 78 76
REMARK SMILES IDX 71 77 72 78 76 79 79 80 73 81 74 82 77 83 75 84 54 85 55 86
REMARK SMILES IDX 63 87 56 88 57 89 61 90 64 91 58 92 59 93 62 94 60 95
REMARK H PARENT 20 7 25 29 84 48 52 59
REMARK Flexibility Score: inf
ROOT
ATOM      1  C   UNL     1      -4.204   7.095   6.653  1.00  0.00     0.023 C 
ENDROOT
BRANCH   1   2
ATOM      2  C   UNL     1      -3.803   5.922   5.755  1.00  0.00     0.023 C 
BRANCH   2   3
ATOM      3  C   UNL     1      -4.138   6.121   4.279  1.00  0.00     0.116 C 
BRANCH   3   4
ATOM      4  N   UNL     1      -3.103   6.864   3.584  1.00  0.00    -0.352 N 
ATOM      5  C   UNL     1      -2.062   6.578   2.768  1.00  0.00     0.251 C 
ATOM      6  O   UNL     1      -1.399   7.555   2.405  1.00  0.00    -0.270 OA
ATOM      7  H   UNL     1      -3.179   7.832   3.749  1.00  0.00     0.163 HD
BRANCH   5   8
ATOM      8  C   UNL     1      -1.682   5.213   2.297  1.00  0.00     0.067 C 
ATOM      9  C   UNL     1       1.186  -0.101  -0.296  1.00  0.00     0.047 C 
ATOM     10  C   UNL     1       0.740   1.265   0.174  1.00  0.00    -0.019 A 
ATOM     11  C   UNL     1       1.363   2.442  -0.318  1.00  0.00     0.025 A 
ATOM     12  C   UNL     1      -0.336   1.412   1.069  1.00  0.00     0.064 A 
ATOM     13  Br  UNL     1       2.769   2.263  -1.616  1.00  0.00    -0.050 Br
ATOM     14  C   UNL     1       0.964   3.734   0.114  1.00  0.00    -0.026 A 
ATOM     15  C   UNL     1      -0.739   2.685   1.504  1.00  0.00     0.142 A 
ATOM     16  Br  UNL     1      -1.326  -0.102   1.704  1.00  0.00    -0.046 Br
ATOM     17  C   UNL     1       1.630   4.999  -0.383  1.00  0.00     0.046 C 
ATOM     18  C   UNL     1      -0.089   3.841   1.054  1.00  0.00     0.022 A 
ATOM     19  O   UNL     1      -1.751   2.748   2.427  1.00  0.00    -0.474 OA
ATOM     20  C   UNL     1      -0.527   5.130   1.611  1.00  0.00     0.026 C 
ATOM     21  C   UNL     1      -2.506   3.982   2.501  1.00  0.00     0.314 C 
BRANCH  21  22
ATOM     22  C   UNL     1      -3.724   3.911   1.560  1.00  0.00     0.429 C 
ATOM     23  F   UNL     1      -4.594   2.960   1.980  1.00  0.00    -0.167 F 
ATOM     24  F   UNL     1      -4.416   5.075   1.528  1.00  0.00    -0.167 F 
ATOM     25  F   UNL     1      -3.383   3.619   0.286  1.00  0.00    -0.167 F 
ENDBRANCH  21  22
ENDBRANCH   5   8
ENDBRANCH   3   4
ENDBRANCH   2   3
ENDBRANCH   1   2
BRANCH   1  26
ATOM     26  C   UNL     1      -5.673   7.506   6.581  1.00  0.00     0.116 C 
BRANCH  26  27
ATOM     27  N   UNL     1      -6.609   6.406   6.766  1.00  0.00    -0.352 N 
ATOM     28  C   UNL     1      -7.892   6.466   7.256  1.00  0.00     0.251 C 
ATOM     29  H   UNL     1      -6.284   5.513   6.509  1.00  0.00     0.163 HD
ATOM     30  O   UNL     1      -8.558   5.450   7.416  1.00  0.00    -0.269 OA
BRANCH  28  31
ATOM     31  C   UNL     1      -8.434   7.781   7.642  1.00  0.00     0.039 A 
ATOM     32  C   UNL     1      -8.840   7.974   8.963  1.00  0.00     0.014 A 
ATOM     33  C   UNL     1      -8.439   8.837   6.726  1.00  0.00     0.014 A 
ATOM     34  C   UNL     1      -9.173   9.258   9.393  1.00  0.00     0.010 A 
ATOM     35  C   UNL     1      -8.716  10.125   7.171  1.00  0.00     0.010 A 
ATOM     36  C   UNL     1      -9.068  10.347   8.512  1.00  0.00    -0.014 A 
BRANCH  36  37
ATOM     37  C   UNL     1      -9.289  11.730   8.991  1.00  0.00     0.031 A 
ATOM     38  C   UNL     1     -10.473  12.515   8.512  1.00  0.00     0.074 A 
ATOM     39  C   UNL     1      -8.388  12.293   9.819  1.00  0.00     0.049 A 
ATOM     40  N   UNL     1     -10.822  13.741   8.804  1.00  0.00    -0.248 NA
ATOM     41  C   UNL     1     -11.372  11.842   7.561  1.00  0.00     0.031 C 
ATOM     42  C   UNL     1      -7.170  11.644  10.308  1.00  0.00     0.029 A 
ATOM     43  N   UNL     1      -8.357  13.537  10.397  1.00  0.00    -0.354 N 
ATOM     44  C   UNL     1     -11.974  13.988   8.072  1.00  0.00     0.074 A 
ATOM     45  C   UNL     1     -12.239  12.805   7.282  1.00  0.00     0.031 C 
ATOM     46  C   UNL     1      -6.530  12.482  11.141  1.00  0.00     0.029 A 
ATOM     47  C   UNL     1      -7.279  13.732  11.225  1.00  0.00     0.049 A 
ATOM     48  H   UNL     1      -9.043  14.224  10.234  1.00  0.00     0.167 HD
ATOM     49  C   UNL     1     -12.755  15.093   8.081  1.00  0.00     0.037 A 
ATOM     50  C   UNL     1      -6.941  14.797  11.976  1.00  0.00     0.037 A 
ATOM     51  C   UNL     1     -12.505  16.254   8.890  1.00  0.00     0.049 A 
ATOM     52  C   UNL     1      -7.830  16.009  11.975  1.00  0.00     0.074 A 
ATOM     53  C   UNL     1     -13.267  17.402   9.009  1.00  0.00     0.029 A 
ATOM     54  N   UNL     1     -11.407  16.412   9.723  1.00  0.00    -0.354 N 
ATOM     55  N   UNL     1      -8.951  16.207  11.326  1.00  0.00    -0.248 NA
ATOM     56  C   UNL     1      -7.411  17.142  12.812  1.00  0.00     0.031 C 
ATOM     57  C   UNL     1     -12.618  18.266   9.896  1.00  0.00     0.029 A 
ATOM     58  C   UNL     1     -11.467  17.643  10.352  1.00  0.00     0.049 A 
ATOM     59  H   UNL     1     -10.692  15.746   9.848  1.00  0.00     0.167 HD
ATOM     60  C   UNL     1      -9.384  17.473  11.691  1.00  0.00     0.074 A 
ATOM     61  C   UNL     1      -8.408  17.998  12.624  1.00  0.00     0.031 C 
ATOM     62  C   UNL     1     -10.492  18.140  11.288  1.00  0.00     0.037 A 
BRANCH  49  63
ATOM     63  C   UNL     1     -13.969  15.086   7.205  1.00  0.00     0.064 A 
ATOM     64  C   UNL     1     -15.096  14.318   7.532  1.00  0.00     0.173 A 
ATOM     65  C   UNL     1     -14.027  15.886   6.055  1.00  0.00     0.173 A 
ATOM     66  F   UNL     1     -15.083  13.527   8.616  1.00  0.00    -0.203 F 
ATOM     67  C   UNL     1     -16.232  14.336   6.727  1.00  0.00     0.198 A 
ATOM     68  C   UNL     1     -15.172  15.919   5.265  1.00  0.00     0.198 A 
ATOM     69  F   UNL     1     -12.975  16.641   5.703  1.00  0.00    -0.203 F 
ATOM     70  F   UNL     1     -17.283  13.566   7.038  1.00  0.00    -0.200 F 
ATOM     71  C   UNL     1     -16.271  15.141   5.599  1.00  0.00     0.200 A 
ATOM     72  F   UNL     1     -15.214  16.703   4.179  1.00  0.00    -0.200 F 
ATOM     73  F   UNL     1     -17.368  15.163   4.829  1.00  0.00    -0.200 F 
ENDBRANCH  49  63
BRANCH  50  74
ATOM     74  C   UNL     1      -5.734  14.735  12.838  1.00  0.00     0.064 A 
ATOM     75  C   UNL     1      -5.858  14.589  14.226  1.00  0.00     0.173 A 
ATOM     76  C   UNL     1      -4.442  14.791  12.297  1.00  0.00     0.173 A 
ATOM     77  F   UNL     1      -7.075  14.547  14.788  1.00  0.00    -0.203 F 
ATOM     78  C   UNL     1      -4.734  14.508  15.044  1.00  0.00     0.198 A 
ATOM     79  C   UNL     1      -3.318  14.691  13.114  1.00  0.00     0.198 A 
ATOM     80  F   UNL     1      -4.274  14.924  10.974  1.00  0.00    -0.203 F 
ATOM     81  F   UNL     1      -4.880  14.392  16.371  1.00  0.00    -0.200 F 
ATOM     82  C   UNL     1      -3.465  14.553  14.487  1.00  0.00     0.200 A 
ATOM     83  F   UNL     1      -2.093  14.723  12.572  1.00  0.00    -0.200 F 
ATOM     84  F   UNL     1      -2.383  14.466  15.273  1.00  0.00    -0.200 F 
ENDBRANCH  50  74
BRANCH  62  85
ATOM     85  C   UNL     1     -10.731  19.501  11.865  1.00  0.00     0.064 A 
ATOM     86  C   UNL     1     -10.032  20.621  11.397  1.00  0.00     0.173 A 
ATOM     87  C   UNL     1     -11.735  19.698  12.824  1.00  0.00     0.173 A 
ATOM     88  F   UNL     1      -9.055  20.477  10.489  1.00  0.00    -0.203 F 
ATOM     89  C   UNL     1     -10.330  21.895  11.871  1.00  0.00     0.198 A 
ATOM     90  C   UNL     1     -12.043  20.975  13.282  1.00  0.00     0.198 A 
ATOM     91  F   UNL     1     -12.434  18.654  13.295  1.00  0.00    -0.203 F 
ATOM     92  F   UNL     1      -9.640  22.953  11.423  1.00  0.00    -0.200 F 
ATOM     93  C   UNL     1     -11.341  22.072  12.805  1.00  0.00     0.200 A 
ATOM     94  F   UNL     1     -13.027  21.146  14.175  1.00  0.00    -0.200 F 
ATOM     95  F   UNL     1     -11.639  23.302  13.245  1.00  0.00    -0.200 F 
ENDBRANCH  62  85
ENDBRANCH  36  37
ENDBRANCH  28  31
ENDBRANCH  26  27
ENDBRANCH   1  26
TORSDOF 12
