REMARK SMILES CC1(C)CSC[C@H]([NH2+][C@H](C(=O)NCCCCNC(=O)c2ccc(-c3c4nc(c(-c5c(F)c(F)c(F)c(F)c5F)c5ccc([nH]5)c(-c5c(F)c(F)c(F)c(F)c5F)c5nc(c(-c6c(F)c(F)c(F)c(F)c6F)c6ccc3[nH]6)C=C5)C=C4)cc2)c2ccccc2)C1
REMARK SMILES IDX 14 1 13 2 12 3 10 4 11 5 9 7 8 8 7 11 1 12 2 13 3 14 4 15
REMARK SMILES IDX 89 16 5 17 6 18 83 19 84 20 88 21 85 22 87 23 86 24 15 25
REMARK SMILES IDX 16 26 17 27 18 28 19 30 20 31 21 32 82 33 22 34 81 35 23 36
REMARK SMILES IDX 24 37 25 38 75 39 26 40 80 41 74 42 76 43 27 44 79 45 73 46
REMARK SMILES IDX 72 47 28 49 60 50 40 51 59 52 41 53 44 54 58 55 77 56 42 57
REMARK SMILES IDX 43 58 57 60 78 61 45 62 29 63 30 64 38 65 31 66 32 67 36 68
REMARK SMILES IDX 39 69 33 70 34 71 37 72 35 73 61 74 62 75 70 76 63 77 64 78
REMARK SMILES IDX 68 79 71 80 65 81 66 82 69 83 67 84 46 85 47 86 55 87 48 88
REMARK SMILES IDX 49 89 53 90 56 91 50 92 51 93 54 94 52 95
REMARK H PARENT 12 6 8 9 8 10 17 29 76 48 44 59
REMARK Flexibility Score: inf
ROOT
ATOM      1  C   UNL     1       1.438   1.514  -1.178  1.00  0.00     0.023 C 
ENDROOT
BRANCH   1   2
ATOM      2  C   UNL     1       0.311   0.539  -1.560  1.00  0.00     0.116 C 
BRANCH   2   3
ATOM      3  N   UNL     1      -0.970   1.073  -1.155  1.00  0.00    -0.351 N 
ATOM      4  C   UNL     1      -1.621   2.095  -1.800  1.00  0.00     0.283 C 
ATOM      5  O   UNL     1      -1.968   3.034  -1.077  1.00  0.00    -0.268 OA
ATOM      6  H   UNL     1      -1.403   0.677  -0.365  1.00  0.00     0.163 HD
BRANCH   4   7
ATOM      7  C   UNL     1      -1.933   2.004  -3.346  1.00  0.00     0.304 C 
BRANCH   7   8
ATOM      8  N   UNL     1      -3.417   1.998  -3.571  1.00  0.00    -0.329 N 
ATOM      9  H   UNL     1      -3.574   2.203  -4.558  1.00  0.00     0.347 HD
ATOM     10  H   UNL     1      -3.718   1.076  -3.256  1.00  0.00     0.347 HD
BRANCH   8  11
ATOM     11  C   UNL     1      -4.247   2.947  -2.786  1.00  0.00     0.193 C 
ATOM     12  C   UNL     1      -6.600   3.090  -0.707  1.00  0.00     0.012 C 
ATOM     13  C   UNL     1      -6.736   3.476  -2.197  1.00  0.00    -0.021 C 
ATOM     14  C   UNL     1      -8.179   3.136  -2.625  1.00  0.00     0.012 C 
ATOM     15  C   UNL     1      -6.543   4.993  -2.395  1.00  0.00     0.076 C 
ATOM     16  C   UNL     1      -5.743   2.664  -3.081  1.00  0.00     0.073 C 
ATOM     17  S   UNL     1      -4.886   5.583  -1.973  1.00  0.00    -0.155 SA
ATOM     18  C   UNL     1      -3.928   4.441  -3.009  1.00  0.00     0.134 C 
ENDBRANCH   8  11
ENDBRANCH   7   8
BRANCH   7  19
ATOM     19  C   UNL     1      -1.133   3.012  -4.188  1.00  0.00     0.019 A 
ATOM     20  C   UNL     1       0.256   3.110  -4.021  1.00  0.00     0.010 A 
ATOM     21  C   UNL     1      -1.689   3.856  -5.159  1.00  0.00     0.010 A 
ATOM     22  C   UNL     1       1.016   4.130  -4.594  1.00  0.00     0.001 A 
ATOM     23  C   UNL     1      -0.936   4.877  -5.755  1.00  0.00     0.001 A 
ATOM     24  C   UNL     1       0.408   5.041  -5.438  1.00  0.00     0.000 A 
ENDBRANCH   7  19
ENDBRANCH   4   7
ENDBRANCH   2   3
ENDBRANCH   1   2
BRANCH   1  25
ATOM     25  C   UNL     1       1.705   1.668   0.314  1.00  0.00     0.023 C 
BRANCH  25  26
ATOM     26  C   UNL     1       2.082   0.385   1.024  1.00  0.00     0.116 C 
BRANCH  26  27
ATOM     27  N   UNL     1       3.229  -0.280   0.423  1.00  0.00    -0.352 N 
ATOM     28  C   UNL     1       4.352  -0.787   1.033  1.00  0.00     0.251 C 
ATOM     29  H   UNL     1       3.195  -0.382  -0.556  1.00  0.00     0.163 HD
ATOM     30  O   UNL     1       5.289  -1.201   0.368  1.00  0.00    -0.269 OA
BRANCH  28  31
ATOM     31  C   UNL     1       4.421  -0.788   2.508  1.00  0.00     0.039 A 
ATOM     32  C   UNL     1       5.578  -0.318   3.131  1.00  0.00     0.014 A 
ATOM     33  C   UNL     1       3.322  -1.199   3.266  1.00  0.00     0.014 A 
ATOM     34  C   UNL     1       5.603  -0.190   4.520  1.00  0.00     0.010 A 
ATOM     35  C   UNL     1       3.312  -0.975   4.635  1.00  0.00     0.010 A 
ATOM     36  C   UNL     1       4.456  -0.478   5.277  1.00  0.00    -0.014 A 
BRANCH  36  37
ATOM     37  C   UNL     1       4.432  -0.292   6.748  1.00  0.00     0.031 A 
ATOM     38  C   UNL     1       4.209  -1.480   7.642  1.00  0.00     0.074 A 
ATOM     39  C   UNL     1       4.539   0.945   7.270  1.00  0.00     0.049 A 
ATOM     40  N   UNL     1       4.065  -1.524   8.942  1.00  0.00    -0.248 NA
ATOM     41  C   UNL     1       4.097  -2.793   6.984  1.00  0.00     0.031 C 
ATOM     42  C   UNL     1       4.703   2.179   6.500  1.00  0.00     0.029 A 
ATOM     43  N   UNL     1       4.516   1.369   8.575  1.00  0.00    -0.354 N 
ATOM     44  C   UNL     1       3.831  -2.857   9.249  1.00  0.00     0.074 A 
ATOM     45  C   UNL     1       3.785  -3.582   8.000  1.00  0.00     0.031 C 
ATOM     46  C   UNL     1       4.794   3.217   7.347  1.00  0.00     0.029 A 
ATOM     47  C   UNL     1       4.655   2.728   8.715  1.00  0.00     0.049 A 
ATOM     48  H   UNL     1       4.409   0.757   9.338  1.00  0.00     0.167 HD
ATOM     49  C   UNL     1       3.699  -3.432  10.468  1.00  0.00     0.037 A 
ATOM     50  C   UNL     1       4.664   3.491   9.825  1.00  0.00     0.037 A 
ATOM     51  C   UNL     1       3.780  -2.711  11.710  1.00  0.00     0.049 A 
ATOM     52  C   UNL     1       4.513   2.825  11.167  1.00  0.00     0.074 A 
ATOM     53  C   UNL     1       3.716  -3.205  13.000  1.00  0.00     0.029 A 
ATOM     54  N   UNL     1       3.949  -1.338  11.812  1.00  0.00    -0.354 N 
ATOM     55  N   UNL     1       4.361   1.554  11.450  1.00  0.00    -0.248 NA
ATOM     56  C   UNL     1       4.541   3.702  12.346  1.00  0.00     0.031 C 
ATOM     57  C   UNL     1       3.804  -2.125  13.884  1.00  0.00     0.029 A 
ATOM     58  C   UNL     1       3.974  -0.965  13.146  1.00  0.00     0.049 A 
ATOM     59  H   UNL     1       4.037  -0.720  11.051  1.00  0.00     0.167 HD
ATOM     60  C   UNL     1       4.307   1.475  12.834  1.00  0.00     0.074 A 
ATOM     61  C   UNL     1       4.460   2.825  13.336  1.00  0.00     0.031 C 
ATOM     62  C   UNL     1       4.144   0.384  13.622  1.00  0.00     0.037 A 
BRANCH  49  63
ATOM     63  C   UNL     1       3.471  -4.914  10.516  1.00  0.00     0.064 A 
ATOM     64  C   UNL     1       4.480  -5.824  10.159  1.00  0.00     0.173 A 
ATOM     65  C   UNL     1       2.245  -5.434  10.955  1.00  0.00     0.173 A 
ATOM     66  F   UNL     1       5.665  -5.378   9.718  1.00  0.00    -0.203 F 
ATOM     67  C   UNL     1       4.259  -7.197  10.216  1.00  0.00     0.198 A 
ATOM     68  C   UNL     1       2.039  -6.809  11.040  1.00  0.00     0.198 A 
ATOM     69  F   UNL     1       1.248  -4.610  11.310  1.00  0.00    -0.203 F 
ATOM     70  F   UNL     1       5.221  -8.044   9.823  1.00  0.00    -0.200 F 
ATOM     71  C   UNL     1       3.043  -7.689  10.664  1.00  0.00     0.200 A 
ATOM     72  F   UNL     1       0.867  -7.283  11.485  1.00  0.00    -0.200 F 
ATOM     73  F   UNL     1       2.836  -9.011  10.727  1.00  0.00    -0.200 F 
ENDBRANCH  49  63
BRANCH  50  74
ATOM     74  C   UNL     1       4.847   4.963   9.722  1.00  0.00     0.064 A 
ATOM     75  C   UNL     1       6.017   5.575  10.196  1.00  0.00     0.173 A 
ATOM     76  C   UNL     1       3.856   5.789   9.174  1.00  0.00     0.173 A 
ATOM     77  F   UNL     1       6.986   4.830  10.748  1.00  0.00    -0.203 F 
ATOM     78  C   UNL     1       6.175   6.958  10.152  1.00  0.00     0.198 A 
ATOM     79  C   UNL     1       4.028   7.170   9.103  1.00  0.00     0.198 A 
ATOM     80  F   UNL     1       2.721   5.254   8.701  1.00  0.00    -0.203 F 
ATOM     81  F   UNL     1       7.279   7.521  10.663  1.00  0.00    -0.200 F 
ATOM     82  C   UNL     1       5.182   7.755   9.602  1.00  0.00     0.200 A 
ATOM     83  F   UNL     1       3.073   7.935   8.558  1.00  0.00    -0.200 F 
ATOM     84  F   UNL     1       5.334   9.085   9.562  1.00  0.00    -0.200 F 
ENDBRANCH  50  74
BRANCH  62  85
ATOM     85  C   UNL     1       4.165   0.599  15.107  1.00  0.00     0.064 A 
ATOM     86  C   UNL     1       3.104   1.227  15.775  1.00  0.00     0.173 A 
ATOM     87  C   UNL     1       5.243   0.131  15.874  1.00  0.00     0.173 A 
ATOM     88  F   UNL     1       2.058   1.704  15.084  1.00  0.00    -0.203 F 
ATOM     89  C   UNL     1       3.134   1.403  17.156  1.00  0.00     0.198 A 
ATOM     90  C   UNL     1       5.254   0.281  17.258  1.00  0.00     0.198 A 
ATOM     91  F   UNL     1       6.278  -0.484  15.283  1.00  0.00    -0.203 F 
ATOM     92  F   UNL     1       2.133   2.049  17.768  1.00  0.00    -0.200 F 
ATOM     93  C   UNL     1       4.204   0.923  17.896  1.00  0.00     0.200 A 
ATOM     94  F   UNL     1       6.282  -0.198  17.973  1.00  0.00    -0.200 F 
ATOM     95  F   UNL     1       4.227   1.085  19.226  1.00  0.00    -0.200 F 
ENDBRANCH  62  85
ENDBRANCH  36  37
ENDBRANCH  28  31
ENDBRANCH  26  27
ENDBRANCH  25  26
ENDBRANCH   1  25
TORSDOF 14
