REMARK SMILES Cc1ccc(C(=O)NC2CC2)cc1NC(=O)[C@@H]1[C@@H](C(=O)NCCCCNC(=O)c2ccc(-c3c4nc(c(-c5c(F)c(F)c(F)c(F)c5F)c5ccc([nH]5)c(-c5c(F)c(F)c(F)c(F)c5F)c5nc(c(-c6c(F)c(F)c(F)c(F)c6F)c6ccc3[nH]6)C=C5)C=C4)cc2)[C@H]2C=C[C@@H]1C2
REMARK SMILES IDX 22 1 21 2 19 3 20 4 18 6 17 7 95 8 92 9 94 10 96 11 93 12
REMARK SMILES IDX 15 13 14 14 16 16 13 17 1 18 2 19 3 20 4 21 12 22 5 23 6 24
REMARK SMILES IDX 7 25 8 26 9 28 10 29 11 30 23 31 24 32 25 33 26 34 27 35
REMARK SMILES IDX 28 37 29 38 30 39 91 40 31 41 90 42 32 43 33 44 34 45 84 46
REMARK SMILES IDX 35 47 89 48 83 49 85 50 36 51 88 52 82 53 81 54 37 56 69 57
REMARK SMILES IDX 49 58 68 59 50 60 53 61 67 62 86 63 51 64 52 65 66 67 87 68
REMARK SMILES IDX 54 69 38 70 39 71 47 72 40 73 41 74 45 75 48 76 42 77 43 78
REMARK SMILES IDX 46 79 44 80 70 81 71 82 79 83 72 84 73 85 77 86 80 87 74 88
REMARK SMILES IDX 75 89 78 90 76 91 55 92 56 93 64 94 57 95 58 96 62 97 65 98
REMARK SMILES IDX 59 99 60 100 63 101 61 102
REMARK H PARENT 21 5 14 15 8 27 26 36 85 55 53 66
REMARK Flexibility Score: inf
ROOT
ATOM      1  C   UNL     1      -3.585   7.766   0.750  1.00  0.00     0.116 C 
ENDROOT
BRANCH   1   2
ATOM      2  N   UNL     1      -3.128   6.861  -0.286  1.00  0.00    -0.356 N 
ATOM      3  C   UNL     1      -2.205   5.873  -0.331  1.00  0.00     0.224 C 
ATOM      4  O   UNL     1      -2.031   5.380  -1.453  1.00  0.00    -0.275 OA
ATOM      5  H   UNL     1      -3.591   6.995  -1.145  1.00  0.00     0.163 HD
BRANCH   3   6
ATOM      6  C   UNL     1      -1.337   5.422   0.843  1.00  0.00     0.098 C 
ATOM      7  C   UNL     1      -0.964   3.891   0.636  1.00  0.00     0.099 C 
ATOM      8  C   UNL     1      -1.276   3.266   2.021  1.00  0.00     0.025 C 
ATOM      9  C   UNL     1      -1.915   5.396   2.275  1.00  0.00     0.025 C 
ATOM     10  C   UNL     1      -2.778   3.268   2.204  1.00  0.00    -0.027 C 
ATOM     11  C   UNL     1      -0.946   4.422   2.961  1.00  0.00     0.017 C 
ATOM     12  C   UNL     1      -3.164   4.545   2.329  1.00  0.00    -0.027 C 
BRANCH   7  13
ATOM     13  C   UNL     1       0.468   3.626   0.202  1.00  0.00     0.228 C 
ATOM     14  N   UNL     1       0.908   2.364  -0.117  1.00  0.00    -0.326 N 
ATOM     15  H   UNL     1       1.869   2.327  -0.327  1.00  0.00     0.169 HD
ATOM     16  O   UNL     1       1.309   4.531   0.199  1.00  0.00    -0.274 OA
BRANCH  14  17
ATOM     17  C   UNL     1       0.266   1.106  -0.205  1.00  0.00     0.044 A 
ATOM     18  C   UNL     1       2.494  -0.112   0.272  1.00  0.00     0.046 C 
ATOM     19  C   UNL     1       1.004  -0.065   0.055  1.00  0.00    -0.027 A 
ATOM     20  C   UNL     1       0.329  -1.298   0.090  1.00  0.00     0.006 A 
ATOM     21  C   UNL     1      -1.046  -1.373  -0.131  1.00  0.00     0.014 A 
ATOM     22  C   UNL     1      -1.088   0.979  -0.561  1.00  0.00     0.040 A 
ATOM     23  C   UNL     1      -1.782  -0.234  -0.475  1.00  0.00     0.041 A 
BRANCH  23  24
ATOM     24  C   UNL     1      -3.249  -0.430  -0.728  1.00  0.00     0.251 C 
ATOM     25  O   UNL     1      -3.703  -1.578  -0.709  1.00  0.00    -0.269 OA
ATOM     26  N   UNL     1      -4.154   0.587  -0.949  1.00  0.00    -0.349 N 
ATOM     27  H   UNL     1      -5.082   0.283  -1.072  1.00  0.00     0.164 HD
BRANCH  26  28
ATOM     28  C   UNL     1      -3.985   1.991  -1.031  1.00  0.00     0.082 C 
ATOM     29  C   UNL     1      -3.895   2.652  -2.378  1.00  0.00     0.027 C 
ATOM     30  C   UNL     1      -5.078   2.913  -1.495  1.00  0.00     0.027 C 
ENDBRANCH  26  28
ENDBRANCH  23  24
ENDBRANCH  14  17
ENDBRANCH   7  13
ENDBRANCH   3   6
ENDBRANCH   1   2
BRANCH   1  31
ATOM     31  C   UNL     1      -3.125   9.208   0.515  1.00  0.00     0.023 C 
BRANCH  31  32
ATOM     32  C   UNL     1      -3.657   9.858  -0.764  1.00  0.00     0.023 C 
BRANCH  32  33
ATOM     33  C   UNL     1      -5.158  10.128  -0.768  1.00  0.00     0.116 C 
BRANCH  33  34
ATOM     34  N   UNL     1      -5.555  11.363  -0.105  1.00  0.00    -0.352 N 
ATOM     35  C   UNL     1      -6.825  11.851   0.175  1.00  0.00     0.251 C 
ATOM     36  H   UNL     1      -4.812  11.937   0.190  1.00  0.00     0.163 HD
ATOM     37  O   UNL     1      -6.965  12.939   0.693  1.00  0.00    -0.269 OA
BRANCH  35  38
ATOM     38  C   UNL     1      -8.006  10.973  -0.041  1.00  0.00     0.039 A 
ATOM     39  C   UNL     1      -8.951  10.879   0.990  1.00  0.00     0.014 A 
ATOM     40  C   UNL     1      -8.082  10.118  -1.136  1.00  0.00     0.014 A 
ATOM     41  C   UNL     1      -9.793   9.770   1.046  1.00  0.00     0.010 A 
ATOM     42  C   UNL     1      -8.841   8.970  -1.034  1.00  0.00     0.010 A 
ATOM     43  C   UNL     1      -9.639   8.762   0.095  1.00  0.00    -0.014 A 
BRANCH  43  44
ATOM     44  C   UNL     1     -10.143   7.407   0.284  1.00  0.00     0.031 A 
ATOM     45  C   UNL     1     -11.301   6.908  -0.481  1.00  0.00     0.074 A 
ATOM     46  C   UNL     1      -9.453   6.570   1.091  1.00  0.00     0.049 A 
ATOM     47  N   UNL     1     -12.059   5.934  -0.102  1.00  0.00    -0.248 NA
ATOM     48  C   UNL     1     -11.717   7.503  -1.743  1.00  0.00     0.031 C 
ATOM     49  C   UNL     1      -9.591   5.120   1.198  1.00  0.00     0.029 A 
ATOM     50  N   UNL     1      -8.583   6.916   2.140  1.00  0.00    -0.354 N 
ATOM     51  C   UNL     1     -12.866   5.592  -1.165  1.00  0.00     0.074 A 
ATOM     52  C   UNL     1     -12.664   6.644  -2.135  1.00  0.00     0.031 C 
ATOM     53  C   UNL     1      -9.098   4.726   2.383  1.00  0.00     0.029 A 
ATOM     54  C   UNL     1      -8.773   5.927   3.132  1.00  0.00     0.049 A 
ATOM     55  H   UNL     1      -7.970   7.685   2.176  1.00  0.00     0.167 HD
ATOM     56  C   UNL     1     -13.501   4.381  -1.160  1.00  0.00     0.037 A 
ATOM     57  C   UNL     1      -9.278   6.242   4.360  1.00  0.00     0.037 A 
ATOM     58  C   UNL     1     -13.252   3.662   0.089  1.00  0.00     0.049 A 
ATOM     59  C   UNL     1     -10.558   5.518   4.702  1.00  0.00     0.074 A 
ATOM     60  C   UNL     1     -12.351   2.664   0.423  1.00  0.00     0.029 A 
ATOM     61  N   UNL     1     -13.760   4.152   1.288  1.00  0.00    -0.354 N 
ATOM     62  N   UNL     1     -11.335   4.964   3.814  1.00  0.00    -0.248 NA
ATOM     63  C   UNL     1     -11.089   5.411   6.058  1.00  0.00     0.031 C 
ATOM     64  C   UNL     1     -12.275   2.592   1.834  1.00  0.00     0.029 A 
ATOM     65  C   UNL     1     -13.143   3.534   2.360  1.00  0.00     0.049 A 
ATOM     66  H   UNL     1     -14.459   4.840   1.363  1.00  0.00     0.167 HD
ATOM     67  C   UNL     1     -12.453   4.474   4.434  1.00  0.00     0.074 A 
ATOM     68  C   UNL     1     -12.244   4.758   5.841  1.00  0.00     0.031 C 
ATOM     69  C   UNL     1     -13.468   3.893   3.730  1.00  0.00     0.037 A 
BRANCH  56  70
ATOM     70  C   UNL     1     -14.060   3.713  -2.404  1.00  0.00     0.064 A 
ATOM     71  C   UNL     1     -14.083   2.304  -2.522  1.00  0.00     0.173 A 
ATOM     72  C   UNL     1     -14.522   4.398  -3.542  1.00  0.00     0.173 A 
ATOM     73  F   UNL     1     -13.814   1.507  -1.481  1.00  0.00    -0.203 F 
ATOM     74  C   UNL     1     -14.388   1.652  -3.721  1.00  0.00     0.198 A 
ATOM     75  C   UNL     1     -14.774   3.752  -4.758  1.00  0.00     0.198 A 
ATOM     76  F   UNL     1     -14.805   5.705  -3.499  1.00  0.00    -0.203 F 
ATOM     77  F   UNL     1     -14.371   0.313  -3.772  1.00  0.00    -0.200 F 
ATOM     78  C   UNL     1     -14.689   2.379  -4.853  1.00  0.00     0.200 A 
ATOM     79  F   UNL     1     -15.103   4.475  -5.838  1.00  0.00    -0.200 F 
ATOM     80  F   UNL     1     -14.928   1.759  -6.016  1.00  0.00    -0.200 F 
ENDBRANCH  56  70
BRANCH  57  81
ATOM     81  C   UNL     1      -8.960   7.630   4.791  1.00  0.00     0.064 A 
ATOM     82  C   UNL     1      -7.608   7.988   4.960  1.00  0.00     0.173 A 
ATOM     83  C   UNL     1      -9.895   8.665   4.678  1.00  0.00     0.173 A 
ATOM     84  F   UNL     1      -6.670   7.032   5.065  1.00  0.00    -0.203 F 
ATOM     85  C   UNL     1      -7.198   9.317   4.901  1.00  0.00     0.198 A 
ATOM     86  C   UNL     1      -9.481   9.998   4.635  1.00  0.00     0.198 A 
ATOM     87  F   UNL     1     -11.194   8.390   4.494  1.00  0.00    -0.203 F 
ATOM     88  F   UNL     1      -5.892   9.615   4.947  1.00  0.00    -0.200 F 
ATOM     89  C   UNL     1      -8.134  10.320   4.713  1.00  0.00     0.200 A 
ATOM     90  F   UNL     1     -10.382  10.967   4.419  1.00  0.00    -0.200 F 
ATOM     91  F   UNL     1      -7.735  11.590   4.561  1.00  0.00    -0.200 F 
ENDBRANCH  57  81
BRANCH  69  92
ATOM     92  C   UNL     1     -14.816   3.523   4.288  1.00  0.00     0.064 A 
ATOM     93  C   UNL     1     -15.460   4.245   5.306  1.00  0.00     0.173 A 
ATOM     94  C   UNL     1     -15.574   2.487   3.694  1.00  0.00     0.173 A 
ATOM     95  F   UNL     1     -14.886   5.320   5.865  1.00  0.00    -0.203 F 
ATOM     96  C   UNL     1     -16.744   3.914   5.744  1.00  0.00     0.198 A 
ATOM     97  C   UNL     1     -16.876   2.194   4.097  1.00  0.00     0.198 A 
ATOM     98  F   UNL     1     -15.079   1.747   2.691  1.00  0.00    -0.203 F 
ATOM     99  F   UNL     1     -17.302   4.606   6.747  1.00  0.00    -0.200 F 
ATOM    100  C   UNL     1     -17.455   2.897   5.133  1.00  0.00     0.200 A 
ATOM    101  F   UNL     1     -17.570   1.239   3.462  1.00  0.00    -0.200 F 
ATOM    102  F   UNL     1     -18.703   2.610   5.529  1.00  0.00    -0.200 F 
ENDBRANCH  69  92
ENDBRANCH  43  44
ENDBRANCH  35  38
ENDBRANCH  33  34
ENDBRANCH  32  33
ENDBRANCH  31  32
ENDBRANCH   1  31
TORSDOF 15
