REMARK SMILES Cc1ccc(Cl)c(Nc2ccccc2C(=O)NCC(=O)NCCCCNC(=O)c2ccc(-c3c4nc(c(-c5c(F)c(F)c(F)c(F)c5F)c5ccc([nH]5)c(-c5c(F)c(F)c(F)c(F)c5F)c5nc(c(-c6c(F)c(F)c(F)c(F)c6F)c6ccc3[nH]6)C=C5)C=C4)cc2)c1Cl
REMARK SMILES IDX 22 1 21 2 19 3 20 4 18 6 17 7 15 8 16 9 14 11 9 12 10 13
REMARK SMILES IDX 11 14 13 15 12 16 8 17 7 19 1 20 2 21 3 22 92 23 4 24 93 25
REMARK SMILES IDX 5 26 6 27 23 28 24 29 25 30 26 31 27 32 28 34 29 35 30 36
REMARK SMILES IDX 91 37 31 38 90 39 32 40 33 41 34 42 84 43 35 44 89 45 83 46
REMARK SMILES IDX 85 47 36 48 88 49 82 50 81 51 37 53 69 54 49 55 68 56 50 57
REMARK SMILES IDX 53 58 67 59 86 60 51 61 52 62 66 64 87 65 54 66 38 67 39 68
REMARK SMILES IDX 47 69 40 70 41 71 45 72 48 73 42 74 43 75 46 76 44 77 70 78
REMARK SMILES IDX 71 79 79 80 72 81 73 82 77 83 80 84 74 85 75 86 78 87 76 88
REMARK SMILES IDX 55 89 56 90 64 91 57 92 58 93 62 94 65 95 59 96 60 97 63 98
REMARK SMILES IDX 61 99
REMARK H PARENT 21 5 17 10 8 18 26 33 85 52 53 63
REMARK Flexibility Score: inf
ROOT
ATOM      1  C   UNL     1      -1.628  -3.551   2.538  1.00  0.00     0.116 C 
ENDROOT
BRANCH   1   2
ATOM      2  N   UNL     1      -2.542  -2.438   2.477  1.00  0.00    -0.355 N 
ATOM      3  C   UNL     1      -2.206  -1.122   2.371  1.00  0.00     0.239 C 
ATOM      4  O   UNL     1      -3.097  -0.279   2.496  1.00  0.00    -0.273 OA
ATOM      5  H   UNL     1      -3.502  -2.650   2.517  1.00  0.00     0.163 HD
BRANCH   3   6
ATOM      6  C   UNL     1      -0.829  -0.751   1.826  1.00  0.00     0.216 C 
BRANCH   6   7
ATOM      7  N   UNL     1       0.429  -1.199   2.384  1.00  0.00    -0.343 N 
ATOM      8  C   UNL     1       1.515  -1.842   1.836  1.00  0.00     0.253 C 
ATOM      9  O   UNL     1       2.574  -1.677   2.452  1.00  0.00    -0.269 OA
ATOM     10  H   UNL     1       0.528  -1.004   3.344  1.00  0.00     0.164 HD
BRANCH   8  11
ATOM     11  C   UNL     1       1.499  -2.863   0.725  1.00  0.00     0.063 A 
ATOM     12  C   UNL     1       0.804  -2.902  -0.507  1.00  0.00     0.051 A 
ATOM     13  C   UNL     1       0.916  -4.078  -1.299  1.00  0.00     0.027 A 
ATOM     14  C   UNL     1       1.734  -5.150  -0.950  1.00  0.00     0.002 A 
ATOM     15  C   UNL     1       2.337  -3.969   1.044  1.00  0.00     0.016 A 
ATOM     16  C   UNL     1       2.468  -5.086   0.218  1.00  0.00     0.001 A 
BRANCH  12  17
ATOM     17  N   UNL     1       0.100  -1.865  -1.156  1.00  0.00    -0.352 N 
ATOM     18  H   UNL     1      -0.647  -2.191  -1.708  1.00  0.00     0.167 HD
BRANCH  17  19
ATOM     19  C   UNL     1       0.240  -0.455  -1.184  1.00  0.00     0.077 A 
ATOM     20  C   UNL     1       2.699   2.287  -0.149  1.00  0.00     0.046 C 
ATOM     21  C   UNL     1       1.440   1.589  -0.583  1.00  0.00    -0.030 A 
ATOM     22  C   UNL     1       0.232   2.303  -0.606  1.00  0.00     0.006 A 
ATOM     23  C   UNL     1       1.444   0.221  -0.917  1.00  0.00     0.069 A 
ATOM     24  C   UNL     1      -0.950   1.681  -0.997  1.00  0.00     0.023 A 
ATOM     25  Cl  UNL     1       2.971  -0.590  -1.105  1.00  0.00    -0.082 Cl
ATOM     26  C   UNL     1      -0.942   0.321  -1.294  1.00  0.00     0.066 A 
ATOM     27  Cl  UNL     1      -2.462  -0.431  -1.669  1.00  0.00    -0.082 Cl
ENDBRANCH  17  19
ENDBRANCH  12  17
ENDBRANCH   8  11
ENDBRANCH   6   7
ENDBRANCH   3   6
ENDBRANCH   1   2
BRANCH   1  28
ATOM     28  C   UNL     1      -1.119  -3.720   3.965  1.00  0.00     0.023 C 
BRANCH  28  29
ATOM     29  C   UNL     1      -2.236  -4.074   4.947  1.00  0.00     0.023 C 
BRANCH  29  30
ATOM     30  C   UNL     1      -3.007  -5.330   4.572  1.00  0.00     0.116 C 
BRANCH  30  31
ATOM     31  N   UNL     1      -2.146  -6.496   4.488  1.00  0.00    -0.352 N 
ATOM     32  C   UNL     1      -2.405  -7.771   4.939  1.00  0.00     0.251 C 
ATOM     33  H   UNL     1      -1.272  -6.358   4.057  1.00  0.00     0.163 HD
ATOM     34  O   UNL     1      -1.534  -8.624   4.960  1.00  0.00    -0.269 OA
BRANCH  32  35
ATOM     35  C   UNL     1      -3.763  -8.066   5.426  1.00  0.00     0.039 A 
ATOM     36  C   UNL     1      -3.918  -8.609   6.701  1.00  0.00     0.014 A 
ATOM     37  C   UNL     1      -4.874  -7.738   4.644  1.00  0.00     0.014 A 
ATOM     38  C   UNL     1      -5.202  -8.778   7.218  1.00  0.00     0.010 A 
ATOM     39  C   UNL     1      -6.148  -7.838   5.189  1.00  0.00     0.010 A 
ATOM     40  C   UNL     1      -6.323  -8.365   6.478  1.00  0.00    -0.014 A 
BRANCH  40  41
ATOM     41  C   UNL     1      -7.693  -8.489   7.032  1.00  0.00     0.031 A 
ATOM     42  C   UNL     1      -8.686  -9.401   6.367  1.00  0.00     0.074 A 
ATOM     43  C   UNL     1      -8.057  -7.734   8.087  1.00  0.00     0.049 A 
ATOM     44  N   UNL     1      -9.947  -9.600   6.655  1.00  0.00    -0.248 NA
ATOM     45  C   UNL     1      -8.209 -10.171   5.207  1.00  0.00     0.031 C 
ATOM     46  C   UNL     1      -7.196  -6.774   8.780  1.00  0.00     0.029 A 
ATOM     47  N   UNL     1      -9.252  -7.648   8.755  1.00  0.00    -0.354 N 
ATOM     48  C   UNL     1     -10.415 -10.494   5.702  1.00  0.00     0.074 A 
ATOM     49  C   UNL     1      -9.320 -10.768   4.799  1.00  0.00     0.031 C 
ATOM     50  C   UNL     1      -7.884  -6.211   9.787  1.00  0.00     0.029 A 
ATOM     51  C   UNL     1      -9.243  -6.742   9.788  1.00  0.00     0.049 A 
ATOM     52  H   UNL     1     -10.042  -8.185   8.517  1.00  0.00     0.167 HD
ATOM     53  C   UNL     1     -11.643 -11.053   5.605  1.00  0.00     0.037 A 
ATOM     54  C   UNL     1     -10.227  -6.376  10.632  1.00  0.00     0.037 A 
ATOM     55  C   UNL     1     -12.714 -10.815   6.536  1.00  0.00     0.049 A 
ATOM     56  C   UNL     1     -11.579  -7.029  10.504  1.00  0.00     0.074 A 
ATOM     57  C   UNL     1     -13.965 -11.404   6.577  1.00  0.00     0.029 A 
ATOM     58  N   UNL     1     -12.658  -9.915   7.588  1.00  0.00    -0.354 N 
ATOM     59  N   UNL     1     -11.980  -7.945   9.657  1.00  0.00    -0.248 NA
ATOM     60  C   UNL     1     -12.614  -6.600  11.456  1.00  0.00     0.031 C 
ATOM     61  C   UNL     1     -14.686 -10.822   7.623  1.00  0.00     0.029 A 
ATOM     62  C   UNL     1     -13.865  -9.912   8.268  1.00  0.00     0.049 A 
ATOM     63  H   UNL     1     -11.878  -9.360   7.818  1.00  0.00     0.167 HD
ATOM     64  C   UNL     1     -13.296  -8.228   9.997  1.00  0.00     0.074 A 
ATOM     65  C   UNL     1     -13.622  -7.398  11.137  1.00  0.00     0.031 C 
ATOM     66  C   UNL     1     -14.161  -9.095   9.416  1.00  0.00     0.037 A 
BRANCH  53  67
ATOM     67  C   UNL     1     -11.905 -11.987   4.461  1.00  0.00     0.064 A 
ATOM     68  C   UNL     1     -11.335 -13.268   4.410  1.00  0.00     0.173 A 
ATOM     69  C   UNL     1     -12.800 -11.625   3.443  1.00  0.00     0.173 A 
ATOM     70  F   UNL     1     -10.463 -13.658   5.352  1.00  0.00    -0.203 F 
ATOM     71  C   UNL     1     -11.643 -14.147   3.375  1.00  0.00     0.198 A 
ATOM     72  C   UNL     1     -13.127 -12.517   2.425  1.00  0.00     0.198 A 
ATOM     73  F   UNL     1     -13.374 -10.412   3.447  1.00  0.00    -0.203 F 
ATOM     74  F   UNL     1     -11.062 -15.354   3.329  1.00  0.00    -0.200 F 
ATOM     75  C   UNL     1     -12.546 -13.775   2.390  1.00  0.00     0.200 A 
ATOM     76  F   UNL     1     -14.011 -12.160   1.483  1.00  0.00    -0.200 F 
ATOM     77  F   UNL     1     -12.857 -14.630   1.407  1.00  0.00    -0.200 F 
ENDBRANCH  53  67
BRANCH  54  78
ATOM     78  C   UNL     1      -9.980  -5.353  11.684  1.00  0.00     0.064 A 
ATOM     79  C   UNL     1     -10.008  -5.696  13.043  1.00  0.00     0.173 A 
ATOM     80  C   UNL     1      -9.761  -4.007  11.356  1.00  0.00     0.173 A 
ATOM     81  F   UNL     1     -10.234  -6.966  13.409  1.00  0.00    -0.203 F 
ATOM     82  C   UNL     1      -9.868  -4.726  14.034  1.00  0.00     0.198 A 
ATOM     83  C   UNL     1      -9.588  -3.044  12.348  1.00  0.00     0.198 A 
ATOM     84  F   UNL     1      -9.719  -3.626  10.071  1.00  0.00    -0.203 F 
ATOM     85  F   UNL     1      -9.969  -5.072  15.325  1.00  0.00    -0.200 F 
ATOM     86  C   UNL     1      -9.656  -3.401  13.686  1.00  0.00     0.200 A 
ATOM     87  F   UNL     1      -9.369  -1.767  12.007  1.00  0.00    -0.200 F 
ATOM     88  F   UNL     1      -9.531  -2.467  14.639  1.00  0.00    -0.200 F 
ENDBRANCH  54  78
BRANCH  66  89
ATOM     89  C   UNL     1     -15.522  -9.230  10.033  1.00  0.00     0.064 A 
ATOM     90  C   UNL     1     -16.482  -8.213   9.931  1.00  0.00     0.173 A 
ATOM     91  C   UNL     1     -15.883 -10.412  10.698  1.00  0.00     0.173 A 
ATOM     92  F   UNL     1     -16.181  -7.059   9.318  1.00  0.00    -0.203 F 
ATOM     93  C   UNL     1     -17.745  -8.364  10.498  1.00  0.00     0.198 A 
ATOM     94  C   UNL     1     -17.157 -10.572  11.234  1.00  0.00     0.198 A 
ATOM     95  F   UNL     1     -15.004 -11.418  10.815  1.00  0.00    -0.203 F 
ATOM     96  F   UNL     1     -18.630  -7.359  10.433  1.00  0.00    -0.200 F 
ATOM     97  C   UNL     1     -18.084  -9.545  11.141  1.00  0.00     0.200 A 
ATOM     98  F   UNL     1     -17.488 -11.720  11.841  1.00  0.00    -0.200 F 
ATOM     99  F   UNL     1     -19.303  -9.691  11.677  1.00  0.00    -0.200 F 
ENDBRANCH  66  89
ENDBRANCH  40  41
ENDBRANCH  32  35
ENDBRANCH  30  31
ENDBRANCH  29  30
ENDBRANCH  28  29
ENDBRANCH   1  28
TORSDOF 15
