REMARK SMILES CC(C)c1ccc(-c2cnc([C@@H]3[NH2+][C@H](C(=O)NCCCCNC(=O)c4ccc(-c5c6nc(c(-c7c(F)c(F)c(F)c(F)c7F)c7ccc([nH]7)c(-c7c(F)c(F)c(F)c(F)c7F)c7nc(c(-c8c(F)c(F)c(F)c(F)c8F)c8ccc5[nH]8)C=C7)C=C6)cc4)C(C)(C)S3)s2)cc1
REMARK SMILES IDX 19 1 18 2 17 3 15 4 16 5 14 7 12 8 13 9 91 10 88 13 89 14
REMARK SMILES IDX 90 15 11 16 8 17 9 18 92 19 10 20 7 21 4 22 5 23 94 24 6 25
REMARK SMILES IDX 93 26 2 27 1 28 3 29 20 30 21 31 22 32 23 33 24 35 25 36
REMARK SMILES IDX 26 37 87 38 27 39 86 40 28 41 29 42 30 43 80 44 31 45 85 46
REMARK SMILES IDX 79 47 81 48 32 49 84 50 78 51 77 52 33 54 65 55 45 56 64 57
REMARK SMILES IDX 46 58 49 59 63 60 82 61 47 62 48 63 62 65 83 66 50 67 34 68
REMARK SMILES IDX 35 69 43 70 36 71 37 72 41 73 44 74 38 75 39 76 42 77 40 78
REMARK SMILES IDX 66 79 67 80 75 81 68 82 69 83 73 84 76 85 70 86 71 87 74 88
REMARK SMILES IDX 72 89 51 90 52 91 60 92 53 93 54 94 58 95 61 96 55 97 56 98
REMARK SMILES IDX 59 99 57 100
REMARK H PARENT 17 6 13 11 13 12 22 34 81 53 49 64
REMARK Flexibility Score: inf
ROOT
ATOM      1  C   UNL     1     -15.444  -2.215  -0.252  1.00  0.00     0.023 C 
ENDROOT
BRANCH   1   2
ATOM      2  C   UNL     1     -14.239  -3.014  -0.762  1.00  0.00     0.116 C 
BRANCH   2   3
ATOM      3  N   UNL     1     -13.332  -2.167  -1.506  1.00  0.00    -0.351 N 
ATOM      4  C   UNL     1     -12.403  -1.318  -0.967  1.00  0.00     0.279 C 
ATOM      5  O   UNL     1     -12.398  -0.182  -1.429  1.00  0.00    -0.268 OA
ATOM      6  H   UNL     1     -13.387  -2.205  -2.488  1.00  0.00     0.163 HD
BRANCH   4   7
ATOM      7  C   UNL     1     -11.444  -1.854   0.123  1.00  0.00     0.289 C 
ATOM      8  C   UNL     1      -9.272  -0.811  -0.178  1.00  0.00     0.304 C 
ATOM      9  N   UNL     1     -10.061  -2.040  -0.423  1.00  0.00    -0.318 N 
ATOM     10  S   UNL     1      -9.935   0.024   1.295  1.00  0.00    -0.079 SA
ATOM     11  H   UNL     1      -9.614  -2.831   0.041  1.00  0.00     0.348 HD
ATOM     12  H   UNL     1     -10.110  -2.222  -1.426  1.00  0.00     0.348 HD
ATOM     13  C   UNL     1     -11.381  -1.071   1.451  1.00  0.00     0.078 C 
ATOM     14  C   UNL     1     -11.090  -2.032   2.620  1.00  0.00     0.030 C 
ATOM     15  C   UNL     1     -12.628  -0.253   1.785  1.00  0.00     0.030 C 
BRANCH   8  16
ATOM     16  C   UNL     1      -9.168   0.117  -1.371  1.00  0.00     0.162 A 
ATOM     17  C   UNL     1      -8.447   1.352  -3.353  1.00  0.00     0.055 A 
ATOM     18  C   UNL     1      -9.714   1.632  -2.881  1.00  0.00     0.132 A 
ATOM     19  S   UNL     1      -7.753   0.125  -2.368  1.00  0.00    -0.112 S 
ATOM     20  N   UNL     1     -10.081   0.995  -1.727  1.00  0.00    -0.242 NA
BRANCH  17  21
ATOM     21  C   UNL     1      -7.749   1.988  -4.473  1.00  0.00    -0.007 A 
ATOM     22  C   UNL     1      -6.540   3.303  -6.678  1.00  0.00    -0.045 A 
ATOM     23  C   UNL     1      -6.308   1.941  -6.434  1.00  0.00     0.004 A 
ATOM     24  C   UNL     1      -7.382   3.998  -5.802  1.00  0.00     0.004 A 
ATOM     25  C   UNL     1      -6.901   1.292  -5.340  1.00  0.00     0.010 A 
ATOM     26  C   UNL     1      -7.973   3.351  -4.717  1.00  0.00     0.010 A 
BRANCH  22  27
ATOM     27  C   UNL     1      -5.963   4.051  -7.867  1.00  0.00     0.013 C 
ATOM     28  C   UNL     1      -4.607   3.532  -8.348  1.00  0.00     0.012 C 
ATOM     29  C   UNL     1      -6.972   4.064  -9.020  1.00  0.00     0.012 C 
ENDBRANCH  22  27
ENDBRANCH  17  21
ENDBRANCH   8  16
ENDBRANCH   4   7
ENDBRANCH   2   3
ENDBRANCH   1   2
BRANCH   1  30
ATOM     30  C   UNL     1     -16.210  -1.423  -1.318  1.00  0.00     0.023 C 
BRANCH  30  31
ATOM     31  C   UNL     1     -16.656  -2.225  -2.534  1.00  0.00     0.116 C 
BRANCH  31  32
ATOM     32  N   UNL     1     -17.516  -3.343  -2.183  1.00  0.00    -0.352 N 
ATOM     33  C   UNL     1     -18.711  -3.731  -2.731  1.00  0.00     0.251 C 
ATOM     34  H   UNL     1     -17.192  -3.904  -1.442  1.00  0.00     0.163 HD
ATOM     35  O   UNL     1     -19.358  -4.637  -2.205  1.00  0.00    -0.269 OA
BRANCH  33  36
ATOM     36  C   UNL     1     -19.245  -3.050  -3.930  1.00  0.00     0.039 A 
ATOM     37  C   UNL     1     -20.603  -2.719  -3.961  1.00  0.00     0.014 A 
ATOM     38  C   UNL     1     -18.427  -2.747  -5.022  1.00  0.00     0.014 A 
ATOM     39  C   UNL     1     -21.127  -2.033  -5.058  1.00  0.00     0.010 A 
ATOM     40  C   UNL     1     -18.935  -2.002  -6.084  1.00  0.00     0.010 A 
ATOM     41  C   UNL     1     -20.290  -1.639  -6.114  1.00  0.00    -0.014 A 
BRANCH  41  42
ATOM     42  C   UNL     1     -20.816  -0.852  -7.258  1.00  0.00     0.031 A 
ATOM     43  C   UNL     1     -20.827  -1.443  -8.640  1.00  0.00     0.074 A 
ATOM     44  C   UNL     1     -21.229   0.415  -7.063  1.00  0.00     0.049 A 
ATOM     45  N   UNL     1     -21.174  -0.889  -9.776  1.00  0.00    -0.248 NA
ATOM     46  C   UNL     1     -20.364  -2.833  -8.768  1.00  0.00     0.031 C 
ATOM     47  C   UNL     1     -21.232   1.115  -5.778  1.00  0.00     0.029 A 
ATOM     48  N   UNL     1     -21.716   1.345  -7.948  1.00  0.00    -0.354 N 
ATOM     49  C   UNL     1     -20.959  -1.857 -10.749  1.00  0.00     0.074 A 
ATOM     50  C   UNL     1     -20.405  -3.014 -10.080  1.00  0.00     0.031 C 
ATOM     51  C   UNL     1     -21.717   2.355  -5.953  1.00  0.00     0.029 A 
ATOM     52  C   UNL     1     -22.023   2.551  -7.367  1.00  0.00     0.049 A 
ATOM     53  H   UNL     1     -21.836   1.163  -8.908  1.00  0.00     0.167 HD
ATOM     54  C   UNL     1     -21.223  -1.794 -12.076  1.00  0.00     0.037 A 
ATOM     55  C   UNL     1     -22.489   3.689  -7.915  1.00  0.00     0.037 A 
ATOM     56  C   UNL     1     -21.796  -0.651 -12.736  1.00  0.00     0.049 A 
ATOM     57  C   UNL     1     -22.759   3.736  -9.395  1.00  0.00     0.074 A 
ATOM     58  C   UNL     1     -22.143  -0.507 -14.068  1.00  0.00     0.029 A 
ATOM     59  N   UNL     1     -22.107   0.548 -12.111  1.00  0.00    -0.354 N 
ATOM     60  N   UNL     1     -22.607   2.795 -10.295  1.00  0.00    -0.248 NA
ATOM     61  C   UNL     1     -23.271   5.003  -9.934  1.00  0.00     0.031 C 
ATOM     62  C   UNL     1     -22.628   0.791 -14.257  1.00  0.00     0.029 A 
ATOM     63  C   UNL     1     -22.627   1.441 -13.034  1.00  0.00     0.049 A 
ATOM     64  H   UNL     1     -21.977   0.736 -11.153  1.00  0.00     0.167 HD
ATOM     65  C   UNL     1     -23.033   3.344 -11.497  1.00  0.00     0.074 A 
ATOM     66  C   UNL     1     -23.462   4.697 -11.210  1.00  0.00     0.031 C 
ATOM     67  C   UNL     1     -23.065   2.779 -12.728  1.00  0.00     0.037 A 
BRANCH  54  68
ATOM     68  C   UNL     1     -20.900  -3.003 -12.905  1.00  0.00     0.064 A 
ATOM     69  C   UNL     1     -21.649  -4.185 -12.799  1.00  0.00     0.173 A 
ATOM     70  C   UNL     1     -19.859  -2.968 -13.845  1.00  0.00     0.173 A 
ATOM     71  F   UNL     1     -22.648  -4.274 -11.907  1.00  0.00    -0.203 F 
ATOM     72  C   UNL     1     -21.350  -5.296 -13.584  1.00  0.00     0.198 A 
ATOM     73  C   UNL     1     -19.582  -4.071 -14.649  1.00  0.00     0.198 A 
ATOM     74  F   UNL     1     -19.116  -1.861 -13.991  1.00  0.00    -0.203 F 
ATOM     75  F   UNL     1     -22.050  -6.429 -13.432  1.00  0.00    -0.200 F 
ATOM     76  C   UNL     1     -20.323  -5.235 -14.513  1.00  0.00     0.200 A 
ATOM     77  F   UNL     1     -18.597  -4.007 -15.555  1.00  0.00    -0.200 F 
ATOM     78  F   UNL     1     -20.042  -6.302 -15.274  1.00  0.00    -0.200 F 
ENDBRANCH  54  68
BRANCH  55  79
ATOM     79  C   UNL     1     -22.754   4.875  -7.060  1.00  0.00     0.064 A 
ATOM     80  C   UNL     1     -24.065   5.312  -6.825  1.00  0.00     0.173 A 
ATOM     81  C   UNL     1     -21.708   5.605  -6.476  1.00  0.00     0.173 A 
ATOM     82  F   UNL     1     -25.097   4.659  -7.381  1.00  0.00    -0.203 F 
ATOM     83  C   UNL     1     -24.320   6.447  -6.060  1.00  0.00     0.198 A 
ATOM     84  C   UNL     1     -21.966   6.724  -5.687  1.00  0.00     0.198 A 
ATOM     85  F   UNL     1     -20.436   5.227  -6.668  1.00  0.00    -0.203 F 
ATOM     86  F   UNL     1     -25.580   6.871  -5.894  1.00  0.00    -0.200 F 
ATOM     87  C   UNL     1     -23.270   7.150  -5.487  1.00  0.00     0.200 A 
ATOM     88  F   UNL     1     -20.950   7.393  -5.126  1.00  0.00    -0.200 F 
ATOM     89  F   UNL     1     -23.516   8.242  -4.751  1.00  0.00    -0.200 F 
ENDBRANCH  55  79
BRANCH  67  90
ATOM     90  C   UNL     1     -23.622   3.605 -13.851  1.00  0.00     0.064 A 
ATOM     91  C   UNL     1     -22.913   4.689 -14.390  1.00  0.00     0.173 A 
ATOM     92  C   UNL     1     -24.864   3.283 -14.418  1.00  0.00     0.173 A 
ATOM     93  F   UNL     1     -21.728   5.045 -13.871  1.00  0.00    -0.203 F 
ATOM     94  C   UNL     1     -23.439   5.435 -15.441  1.00  0.00     0.198 A 
ATOM     95  C   UNL     1     -25.374   4.014 -15.488  1.00  0.00     0.198 A 
ATOM     96  F   UNL     1     -25.578   2.252 -13.942  1.00  0.00    -0.203 F 
ATOM     97  F   UNL     1     -22.767   6.495 -15.910  1.00  0.00    -0.200 F 
ATOM     98  C   UNL     1     -24.665   5.093 -15.993  1.00  0.00     0.200 A 
ATOM     99  F   UNL     1     -26.552   3.674 -16.029  1.00  0.00    -0.200 F 
ATOM    100  F   UNL     1     -25.166   5.809 -17.009  1.00  0.00    -0.200 F 
ENDBRANCH  67  90
ENDBRANCH  41  42
ENDBRANCH  33  36
ENDBRANCH  31  32
ENDBRANCH  30  31
ENDBRANCH   1  30
TORSDOF 14
