REMARK SMILES C[C@@H]1C(C(=O)NCCCCNC(=O)c2ccc(-c3c4nc(c(-c5c(F)c(F)c(F)c(F)c5F)c5ccc([nH]5)c(-c5c(F)c(F)c(F)c(F)c5F)c5nc(c(-c6c(F)c(F)c(F)c(F)c6F)c6ccc3[nH]6)C=C5)C=C4)cc2)=NC2=C1C(=O)C[C@H](c1ccccc1)C2
REMARK SMILES IDX 9 1 8 2 7 3 6 4 4 5 5 6 3 8 1 9 2 10 79 11 77 12 78 13 80 14
REMARK SMILES IDX 90 15 81 16 82 17 83 18 84 19 85 20 89 21 86 22 88 23 87 24
REMARK SMILES IDX 10 25 11 26 12 27 13 29 14 30 15 31 76 32 16 33 75 34 17 35
REMARK SMILES IDX 18 36 19 37 69 38 20 39 74 40 68 41 70 42 21 43 73 44 67 45
REMARK SMILES IDX 66 46 22 48 54 49 34 50 53 51 35 52 38 53 52 54 71 55 36 56
REMARK SMILES IDX 37 57 51 59 72 60 39 61 23 62 24 63 32 64 25 65 26 66 30 67
REMARK SMILES IDX 33 68 27 69 28 70 31 71 29 72 55 73 56 74 64 75 57 76 58 77
REMARK SMILES IDX 62 78 65 79 59 80 60 81 63 82 61 83 40 84 41 85 49 86 42 87
REMARK SMILES IDX 43 88 47 89 50 90 44 91 45 92 48 93 46 94
REMARK H PARENT 6 7 11 28 70 47 38 58
REMARK Flexibility Score: inf
ROOT
ATOM      1  C   UNL     1       0.565   0.073  -4.436  1.00  0.00     0.023 C 
ENDROOT
BRANCH   1   2
ATOM      2  C   UNL     1       1.064  -0.764  -3.261  1.00  0.00     0.023 C 
BRANCH   2   3
ATOM      3  C   UNL     1       0.853  -0.278  -1.825  1.00  0.00     0.116 C 
BRANCH   3   4
ATOM      4  N   UNL     1      -0.498  -0.029  -1.356  1.00  0.00    -0.351 N 
ATOM      5  C   UNL     1      -0.990  -0.032  -0.051  1.00  0.00     0.266 C 
ATOM      6  O   UNL     1      -1.981   0.645   0.209  1.00  0.00    -0.268 OA
ATOM      7  H   UNL     1      -1.160   0.170  -2.058  1.00  0.00     0.163 HD
BRANCH   5   8
ATOM      8  C   UNL     1      -0.448  -0.983   1.022  1.00  0.00     0.113 C 
ATOM      9  C   UNL     1       1.460  -0.500   2.564  1.00  0.00     0.020 C 
ATOM     10  C   UNL     1       1.014  -1.221   1.290  1.00  0.00     0.076 C 
ATOM     11  C   UNL     1       0.758  -2.674   1.540  1.00  0.00     0.026 C 
ATOM     12  N   UNL     1      -1.248  -1.740   1.735  1.00  0.00    -0.251 NA
ATOM     13  C   UNL     1      -0.466  -2.835   2.050  1.00  0.00     0.049 C 
ATOM     14  C   UNL     1       1.171  -3.731   0.585  1.00  0.00     0.161 C 
ATOM     15  C   UNL     1      -1.067  -4.207   2.164  1.00  0.00     0.065 C 
ATOM     16  O   UNL     1       2.320  -3.715   0.144  1.00  0.00    -0.294 OA
ATOM     17  C   UNL     1       0.122  -4.735   0.051  1.00  0.00     0.089 C 
ATOM     18  C   UNL     1      -1.287  -4.732   0.734  1.00  0.00     0.033 C 
BRANCH  18  19
ATOM     19  C   UNL     1      -2.426  -3.992   0.001  1.00  0.00    -0.044 A 
ATOM     20  C   UNL     1      -3.474  -3.385   0.730  1.00  0.00     0.004 A 
ATOM     21  C   UNL     1      -2.480  -3.870  -1.393  1.00  0.00     0.004 A 
ATOM     22  C   UNL     1      -4.407  -2.542   0.126  1.00  0.00     0.000 A 
ATOM     23  C   UNL     1      -3.440  -3.052  -2.007  1.00  0.00     0.000 A 
ATOM     24  C   UNL     1      -4.376  -2.357  -1.246  1.00  0.00     0.000 A 
ENDBRANCH  18  19
ENDBRANCH   5   8
ENDBRANCH   3   4
ENDBRANCH   2   3
ENDBRANCH   1   2
BRANCH   1  25
ATOM     25  C   UNL     1       0.941   1.545  -4.409  1.00  0.00     0.116 C 
BRANCH  25  26
ATOM     26  N   UNL     1       2.370   1.810  -4.519  1.00  0.00    -0.352 N 
ATOM     27  C   UNL     1       2.979   3.034  -4.759  1.00  0.00     0.251 C 
ATOM     28  H   UNL     1       2.969   1.037  -4.412  1.00  0.00     0.163 HD
ATOM     29  O   UNL     1       4.136   3.100  -5.133  1.00  0.00    -0.269 OA
BRANCH  27  30
ATOM     30  C   UNL     1       2.192   4.271  -4.557  1.00  0.00     0.039 A 
ATOM     31  C   UNL     1       2.277   5.330  -5.466  1.00  0.00     0.014 A 
ATOM     32  C   UNL     1       1.347   4.354  -3.451  1.00  0.00     0.014 A 
ATOM     33  C   UNL     1       1.437   6.429  -5.301  1.00  0.00     0.010 A 
ATOM     34  C   UNL     1       0.438   5.382  -3.351  1.00  0.00     0.010 A 
ATOM     35  C   UNL     1       0.496   6.436  -4.257  1.00  0.00    -0.014 A 
BRANCH  35  36
ATOM     36  C   UNL     1      -0.560   7.447  -4.223  1.00  0.00     0.031 A 
ATOM     37  C   UNL     1      -1.383   7.476  -5.467  1.00  0.00     0.074 A 
ATOM     38  C   UNL     1      -0.909   8.121  -3.103  1.00  0.00     0.049 A 
ATOM     39  N   UNL     1      -1.488   8.439  -6.321  1.00  0.00    -0.248 NA
ATOM     40  C   UNL     1      -2.046   6.233  -5.901  1.00  0.00     0.031 C 
ATOM     41  C   UNL     1      -0.376   7.934  -1.749  1.00  0.00     0.029 A 
ATOM     42  N   UNL     1      -1.893   9.049  -2.907  1.00  0.00    -0.354 N 
ATOM     43  C   UNL     1      -2.393   8.003  -7.290  1.00  0.00     0.074 A 
ATOM     44  C   UNL     1      -2.549   6.591  -7.085  1.00  0.00     0.031 C 
ATOM     45  C   UNL     1      -1.186   8.537  -0.851  1.00  0.00     0.029 A 
ATOM     46  C   UNL     1      -2.199   9.288  -1.568  1.00  0.00     0.049 A 
ATOM     47  H   UNL     1      -2.347   9.510  -3.649  1.00  0.00     0.167 HD
ATOM     48  C   UNL     1      -3.139   8.907  -7.986  1.00  0.00     0.037 A 
ATOM     49  C   UNL     1      -3.221  10.037  -1.082  1.00  0.00     0.037 A 
ATOM     50  C   UNL     1      -2.576  10.226  -7.835  1.00  0.00     0.049 A 
ATOM     51  C   UNL     1      -3.661  10.930  -2.175  1.00  0.00     0.074 A 
ATOM     52  C   UNL     1      -1.434  10.877  -8.245  1.00  0.00     0.029 A 
ATOM     53  N   UNL     1      -3.093  10.937  -6.784  1.00  0.00    -0.354 N 
ATOM     54  N   UNL     1      -2.940  11.908  -2.644  1.00  0.00    -0.248 NA
ATOM     55  C   UNL     1      -4.770  10.508  -3.018  1.00  0.00     0.031 C 
ATOM     56  C   UNL     1      -1.142  11.824  -7.217  1.00  0.00     0.029 A 
ATOM     57  C   UNL     1      -2.148  11.767  -6.253  1.00  0.00     0.049 A 
ATOM     58  H   UNL     1      -4.018  10.859  -6.456  1.00  0.00     0.167 HD
ATOM     59  C   UNL     1      -3.209  11.909  -4.000  1.00  0.00     0.074 A 
ATOM     60  C   UNL     1      -4.454  11.161  -4.139  1.00  0.00     0.031 C 
ATOM     61  C   UNL     1      -2.230  12.243  -4.890  1.00  0.00     0.037 A 
BRANCH  48  62
ATOM     62  C   UNL     1      -4.609   8.733  -8.347  1.00  0.00     0.064 A 
ATOM     63  C   UNL     1      -5.273   9.800  -8.998  1.00  0.00     0.173 A 
ATOM     64  C   UNL     1      -5.461   7.749  -7.801  1.00  0.00     0.173 A 
ATOM     65  F   UNL     1      -4.576  10.801  -9.558  1.00  0.00    -0.203 F 
ATOM     66  C   UNL     1      -6.666   9.923  -9.000  1.00  0.00     0.198 A 
ATOM     67  C   UNL     1      -6.853   7.852  -7.846  1.00  0.00     0.198 A 
ATOM     68  F   UNL     1      -5.002   6.702  -7.110  1.00  0.00    -0.203 F 
ATOM     69  F   UNL     1      -7.238  11.023  -9.508  1.00  0.00    -0.200 F 
ATOM     70  C   UNL     1      -7.455   8.954  -8.412  1.00  0.00     0.200 A 
ATOM     71  F   UNL     1      -7.600   6.909  -7.255  1.00  0.00    -0.200 F 
ATOM     72  F   UNL     1      -8.785   9.100  -8.350  1.00  0.00    -0.200 F 
ENDBRANCH  48  62
BRANCH  49  73
ATOM     73  C   UNL     1      -4.005   9.897   0.171  1.00  0.00     0.064 A 
ATOM     74  C   UNL     1      -4.804  10.949   0.653  1.00  0.00     0.173 A 
ATOM     75  C   UNL     1      -4.224   8.633   0.750  1.00  0.00     0.173 A 
ATOM     76  F   UNL     1      -4.689  12.179   0.131  1.00  0.00    -0.203 F 
ATOM     77  C   UNL     1      -5.790  10.741   1.625  1.00  0.00     0.198 A 
ATOM     78  C   UNL     1      -5.205   8.427   1.722  1.00  0.00     0.198 A 
ATOM     79  F   UNL     1      -3.559   7.555   0.309  1.00  0.00    -0.203 F 
ATOM     80  F   UNL     1      -6.580  11.755   2.006  1.00  0.00    -0.200 F 
ATOM     81  C   UNL     1      -5.999   9.476   2.148  1.00  0.00     0.200 A 
ATOM     82  F   UNL     1      -5.425   7.191   2.193  1.00  0.00    -0.200 F 
ATOM     83  F   UNL     1      -6.990   9.260   3.024  1.00  0.00    -0.200 F 
ENDBRANCH  49  73
BRANCH  61  84
ATOM     84  C   UNL     1      -1.063  13.030  -4.368  1.00  0.00     0.064 A 
ATOM     85  C   UNL     1      -0.130  12.560  -3.430  1.00  0.00     0.173 A 
ATOM     86  C   UNL     1      -0.833  14.292  -4.934  1.00  0.00     0.173 A 
ATOM     87  F   UNL     1      -0.233  11.332  -2.905  1.00  0.00    -0.203 F 
ATOM     88  C   UNL     1       0.963  13.339  -3.050  1.00  0.00     0.198 A 
ATOM     89  C   UNL     1       0.280  15.048  -4.585  1.00  0.00     0.198 A 
ATOM     90  F   UNL     1      -1.671  14.773  -5.866  1.00  0.00    -0.203 F 
ATOM     91  F   UNL     1       1.832  12.879  -2.138  1.00  0.00    -0.200 F 
ATOM     92  C   UNL     1       1.171  14.577  -3.635  1.00  0.00     0.200 A 
ATOM     93  F   UNL     1       0.499  16.224  -5.189  1.00  0.00    -0.200 F 
ATOM     94  F   UNL     1       2.243  15.309  -3.302  1.00  0.00    -0.200 F 
ENDBRANCH  61  84
ENDBRANCH  35  36
ENDBRANCH  27  30
ENDBRANCH  25  26
ENDBRANCH   1  25
TORSDOF 12
