REMARK SMILES Cc1ccnc(C(=O)c2[nH]c3ccc(F)cc3c2CC(=O)NCCCCNC(=O)c2ccc(-c3c4nc(c(-c5c(F)c(F)c(F)c(F)c5F)c5ccc([nH]5)c(-c5c(F)c(F)c(F)c(F)c5F)c5nc(c(-c6c(F)c(F)c(F)c(F)c6F)c6ccc3[nH]6)C=C5)C=C4)cc2)c1
REMARK SMILES IDX 24 1 23 2 22 3 20 4 21 5 19 7 18 8 9 9 10 10 11 11 17 13
REMARK SMILES IDX 12 14 16 15 13 16 14 17 15 18 7 19 8 20 6 21 1 22 2 23 3 24
REMARK SMILES IDX 93 25 4 26 5 27 25 28 26 29 27 30 28 31 29 33 30 34 31 35
REMARK SMILES IDX 92 36 32 37 91 38 33 39 34 40 35 41 85 42 36 43 90 44 84 45
REMARK SMILES IDX 86 46 37 47 89 48 83 49 82 50 38 52 70 53 50 54 69 55 51 56
REMARK SMILES IDX 54 57 68 58 87 59 52 60 53 61 67 63 88 64 55 65 39 66 40 67
REMARK SMILES IDX 48 68 41 69 42 70 46 71 49 72 43 73 44 74 47 75 45 76 71 77
REMARK SMILES IDX 72 78 80 79 73 80 74 81 78 82 81 83 75 84 76 85 79 86 77 87
REMARK SMILES IDX 56 88 57 89 65 90 58 91 59 92 63 93 66 94 60 95 61 96 64 97
REMARK SMILES IDX 62 98
REMARK H PARENT 22 6 10 12 27 32 86 51 54 62
REMARK Flexibility Score: inf
ROOT
ATOM      1  C   UNL     1      -2.837  -3.901   0.692  1.00  0.00     0.023 C 
ENDROOT
BRANCH   1   2
ATOM      2  C   UNL     1      -3.072  -3.748  -0.813  1.00  0.00     0.116 C 
BRANCH   2   3
ATOM      3  N   UNL     1      -2.471  -2.570  -1.401  1.00  0.00    -0.356 N 
ATOM      4  C   UNL     1      -1.296  -2.410  -2.075  1.00  0.00     0.224 C 
ATOM      5  O   UNL     1      -1.135  -1.329  -2.650  1.00  0.00    -0.275 OA
ATOM      6  H   UNL     1      -2.999  -1.745  -1.297  1.00  0.00     0.163 HD
BRANCH   4   7
ATOM      7  C   UNL     1      -0.248  -3.502  -2.192  1.00  0.00     0.138 C 
BRANCH   7   8
ATOM      8  C   UNL     1       0.232  -4.127  -0.911  1.00  0.00    -0.002 A 
ATOM      9  C   UNL     1       1.096  -3.617   0.064  1.00  0.00     0.093 A 
ATOM     10  N   UNL     1       1.306  -4.633   0.977  1.00  0.00    -0.352 N 
ATOM     11  C   UNL     1       0.556  -5.740   0.689  1.00  0.00     0.046 A 
ATOM     12  H   UNL     1       1.922  -4.567   1.742  1.00  0.00     0.167 HD
ATOM     13  C   UNL     1      -0.066  -5.492  -0.530  1.00  0.00     0.007 A 
ATOM     14  C   UNL     1       0.408  -6.939   1.400  1.00  0.00     0.030 A 
ATOM     15  C   UNL     1      -0.834  -6.531  -1.102  1.00  0.00     0.049 A 
ATOM     16  C   UNL     1      -0.407  -7.925   0.840  1.00  0.00     0.041 A 
ATOM     17  C   UNL     1      -1.004  -7.721  -0.395  1.00  0.00     0.123 A 
ATOM     18  F   UNL     1      -1.779  -8.681  -0.916  1.00  0.00    -0.207 F 
BRANCH   9  19
ATOM     19  C   UNL     1       1.846  -2.376   0.244  1.00  0.00     0.227 C 
ATOM     20  O   UNL     1       3.002  -2.432   0.666  1.00  0.00    -0.285 OA
BRANCH  19  21
ATOM     21  C   UNL     1       1.220  -1.021   0.084  1.00  0.00     0.113 A 
ATOM     22  C   UNL     1      -2.121   0.766   0.329  1.00  0.00     0.044 C 
ATOM     23  C   UNL     1      -0.656   0.484   0.180  1.00  0.00    -0.047 A 
ATOM     24  C   UNL     1       0.224   1.530  -0.092  1.00  0.00     0.023 A 
ATOM     25  C   UNL     1      -0.133  -0.807   0.322  1.00  0.00     0.036 A 
ATOM     26  C   UNL     1       1.568   1.239  -0.257  1.00  0.00     0.112 A 
ATOM     27  N   UNL     1       2.082  -0.005  -0.183  1.00  0.00    -0.253 NA
ENDBRANCH  19  21
ENDBRANCH   9  19
ENDBRANCH   7   8
ENDBRANCH   4   7
ENDBRANCH   2   3
ENDBRANCH   1   2
BRANCH   1  28
ATOM     28  C   UNL     1      -3.408  -2.816   1.606  1.00  0.00     0.023 C 
BRANCH  28  29
ATOM     29  C   UNL     1      -4.866  -2.452   1.382  1.00  0.00     0.116 C 
BRANCH  29  30
ATOM     30  N   UNL     1      -5.755  -3.579   1.583  1.00  0.00    -0.352 N 
ATOM     31  C   UNL     1      -6.981  -3.618   2.198  1.00  0.00     0.251 C 
ATOM     32  H   UNL     1      -5.434  -4.439   1.226  1.00  0.00     0.163 HD
ATOM     33  O   UNL     1      -7.526  -4.697   2.403  1.00  0.00    -0.269 OA
BRANCH  31  34
ATOM     34  C   UNL     1      -7.636  -2.368   2.646  1.00  0.00     0.039 A 
ATOM     35  C   UNL     1      -8.251  -2.355   3.902  1.00  0.00     0.014 A 
ATOM     36  C   UNL     1      -7.674  -1.227   1.839  1.00  0.00     0.014 A 
ATOM     37  C   UNL     1      -8.861  -1.189   4.366  1.00  0.00     0.010 A 
ATOM     38  C   UNL     1      -8.234  -0.046   2.326  1.00  0.00     0.010 A 
ATOM     39  C   UNL     1      -8.835  -0.017   3.593  1.00  0.00    -0.014 A 
BRANCH  39  40
ATOM     40  C   UNL     1      -9.426   1.242   4.110  1.00  0.00     0.031 A 
ATOM     41  C   UNL     1     -10.652   1.831   3.473  1.00  0.00     0.074 A 
ATOM     42  C   UNL     1      -8.828   1.879   5.136  1.00  0.00     0.049 A 
ATOM     43  N   UNL     1     -11.299   2.928   3.781  1.00  0.00    -0.248 NA
ATOM     44  C   UNL     1     -11.215   1.105   2.325  1.00  0.00     0.031 C 
ATOM     45  C   UNL     1      -7.605   1.435   5.805  1.00  0.00     0.029 A 
ATOM     46  N   UNL     1      -9.165   3.037   5.790  1.00  0.00    -0.354 N 
ATOM     47  C   UNL     1     -12.337   3.026   2.865  1.00  0.00     0.074 A 
ATOM     48  C   UNL     1     -12.207   1.905   1.958  1.00  0.00     0.031 C 
ATOM     49  C   UNL     1      -7.306   2.298   6.790  1.00  0.00     0.029 A 
ATOM     50  C   UNL     1      -8.300   3.367   6.804  1.00  0.00     0.049 A 
ATOM     51  H   UNL     1      -9.953   3.579   5.555  1.00  0.00     0.167 HD
ATOM     52  C   UNL     1     -13.321   3.955   2.798  1.00  0.00     0.037 A 
ATOM     53  C   UNL     1      -8.309   4.413   7.651  1.00  0.00     0.037 A 
ATOM     54  C   UNL     1     -13.463   5.058   3.713  1.00  0.00     0.049 A 
ATOM     55  C   UNL     1      -9.419   5.424   7.561  1.00  0.00     0.074 A 
ATOM     56  C   UNL     1     -14.462   6.014   3.766  1.00  0.00     0.029 A 
ATOM     57  N   UNL     1     -12.574   5.354   4.737  1.00  0.00    -0.354 N 
ATOM     58  N   UNL     1     -10.435   5.466   6.735  1.00  0.00    -0.248 NA
ATOM     59  C   UNL     1      -9.385   6.528   8.530  1.00  0.00     0.031 C 
ATOM     60  C   UNL     1     -14.157   6.912   4.795  1.00  0.00     0.029 A 
ATOM     61  C   UNL     1     -12.991   6.490   5.412  1.00  0.00     0.049 A 
ATOM     62  H   UNL     1     -11.766   4.833   4.952  1.00  0.00     0.167 HD
ATOM     63  C   UNL     1     -11.172   6.586   7.095  1.00  0.00     0.074 A 
ATOM     64  C   UNL     1     -10.497   7.184   8.228  1.00  0.00     0.031 C 
ATOM     65  C   UNL     1     -12.305   7.077   6.534  1.00  0.00     0.037 A 
BRANCH  52  66
ATOM     66  C   UNL     1     -14.332   3.816   1.698  1.00  0.00     0.064 A 
ATOM     67  C   UNL     1     -15.296   2.797   1.712  1.00  0.00     0.173 A 
ATOM     68  C   UNL     1     -14.364   4.736   0.639  1.00  0.00     0.173 A 
ATOM     69  F   UNL     1     -15.300   1.885   2.696  1.00  0.00    -0.203 F 
ATOM     70  C   UNL     1     -16.239   2.689   0.693  1.00  0.00     0.198 A 
ATOM     71  C   UNL     1     -15.326   4.641  -0.364  1.00  0.00     0.198 A 
ATOM     72  F   UNL     1     -13.467   5.732   0.581  1.00  0.00    -0.203 F 
ATOM     73  F   UNL     1     -17.123   1.682   0.705  1.00  0.00    -0.200 F 
ATOM     74  C   UNL     1     -16.258   3.614  -0.340  1.00  0.00     0.200 A 
ATOM     75  F   UNL     1     -15.349   5.542  -1.355  1.00  0.00    -0.200 F 
ATOM     76  F   UNL     1     -17.171   3.513  -1.316  1.00  0.00    -0.200 F 
ENDBRANCH  52  66
BRANCH  53  77
ATOM     77  C   UNL     1      -7.246   4.540   8.679  1.00  0.00     0.064 A 
ATOM     78  C   UNL     1      -7.531   4.332  10.036  1.00  0.00     0.173 A 
ATOM     79  C   UNL     1      -5.929   4.869   8.330  1.00  0.00     0.173 A 
ATOM     80  F   UNL     1      -8.781   4.035  10.419  1.00  0.00    -0.203 F 
ATOM     81  C   UNL     1      -6.541   4.467  11.007  1.00  0.00     0.198 A 
ATOM     82  C   UNL     1      -4.935   4.979   9.299  1.00  0.00     0.198 A 
ATOM     83  F   UNL     1      -5.606   5.072   7.044  1.00  0.00    -0.203 F 
ATOM     84  F   UNL     1      -6.849   4.304  12.301  1.00  0.00    -0.200 F 
ATOM     85  C   UNL     1      -5.243   4.785  10.637  1.00  0.00     0.200 A 
ATOM     86  F   UNL     1      -3.679   5.272   8.937  1.00  0.00    -0.200 F 
ATOM     87  F   UNL     1      -4.290   4.910  11.571  1.00  0.00    -0.200 F 
ENDBRANCH  53  77
BRANCH  65  88
ATOM     88  C   UNL     1     -12.889   8.313   7.152  1.00  0.00     0.064 A 
ATOM     89  C   UNL     1     -12.279   9.567   7.000  1.00  0.00     0.173 A 
ATOM     90  C   UNL     1     -14.080   8.246   7.891  1.00  0.00     0.173 A 
ATOM     91  F   UNL     1     -11.130   9.680   6.316  1.00  0.00    -0.203 F 
ATOM     92  C   UNL     1     -12.824  10.704   7.590  1.00  0.00     0.198 A 
ATOM     93  C   UNL     1     -14.637   9.390   8.457  1.00  0.00     0.198 A 
ATOM     94  F   UNL     1     -14.705   7.072   8.061  1.00  0.00    -0.203 F 
ATOM     95  F   UNL     1     -12.196  11.883   7.476  1.00  0.00    -0.200 F 
ATOM     96  C   UNL     1     -14.004  10.616   8.313  1.00  0.00     0.200 A 
ATOM     97  F   UNL     1     -15.782   9.305   9.147  1.00  0.00    -0.200 F 
ATOM     98  F   UNL     1     -14.527  11.711   8.882  1.00  0.00    -0.200 F 
ENDBRANCH  65  88
ENDBRANCH  39  40
ENDBRANCH  31  34
ENDBRANCH  29  30
ENDBRANCH  28  29
ENDBRANCH   1  28
TORSDOF 14
