REMARK SMILES C[C@H](C(=O)NCCCCNC(=O)c1ccc(-c2c3nc(c(-c4c(F)c(F)c(F)c(F)c4F)c4ccc([nH]4)c(-c4c(F)c(F)c(F)c(F)c4F)c4nc(c(-c5c(F)c(F)c(F)c(F)c5F)c5ccc2[nH]5)C=C4)C=C3)cc1)[C@@H](C)Nc1ccccc1Oc1ccccc1
REMARK SMILES IDX 6 1 5 2 3 3 4 4 2 6 1 7 76 8 77 9 78 10 79 12 80 13 84 14
REMARK SMILES IDX 81 15 83 16 82 17 85 18 86 19 87 20 91 21 88 22 90 23 89 24
REMARK SMILES IDX 7 25 8 26 9 27 10 28 11 29 12 31 13 32 14 33 75 34 15 35
REMARK SMILES IDX 74 36 16 37 17 38 18 39 68 40 19 41 73 42 67 43 69 44 20 45
REMARK SMILES IDX 72 46 66 47 65 48 21 50 53 51 33 52 52 53 34 54 37 55 51 56
REMARK SMILES IDX 70 57 35 58 36 59 50 61 71 62 38 63 22 64 23 65 31 66 24 67
REMARK SMILES IDX 25 68 29 69 32 70 26 71 27 72 30 73 28 74 54 75 55 76 63 77
REMARK SMILES IDX 56 78 57 79 61 80 64 81 58 82 59 83 62 84 60 85 39 86 40 87
REMARK SMILES IDX 48 88 41 89 42 90 46 91 49 92 43 93 44 94 47 95 45 96
REMARK H PARENT 5 5 78 11 10 30 69 49 37 60
REMARK Flexibility Score: inf
ROOT
ATOM      1  C   UNL     1       0.888  -2.643  -0.388  1.00  0.00     0.116 C 
ENDROOT
BRANCH   1   2
ATOM      2  N   UNL     1       1.108  -1.238  -0.666  1.00  0.00    -0.356 N 
ATOM      3  C   UNL     1       1.111  -0.140   0.136  1.00  0.00     0.224 C 
ATOM      4  O   UNL     1       1.304   0.941  -0.429  1.00  0.00    -0.275 OA
ATOM      5  H   UNL     1       1.289  -1.042  -1.614  1.00  0.00     0.163 HD
BRANCH   3   6
ATOM      6  C   UNL     1       0.899  -0.236   1.652  1.00  0.00     0.097 C 
ATOM      7  C   UNL     1       1.719   0.896   2.293  1.00  0.00     0.020 C 
BRANCH   6   8
ATOM      8  C   UNL     1      -0.615  -0.126   1.978  1.00  0.00     0.088 C 
ATOM      9  C   UNL     1      -1.291  -1.499   1.996  1.00  0.00     0.031 C 
BRANCH   8  10
ATOM     10  N   UNL     1      -0.872   0.484   3.280  1.00  0.00    -0.379 N 
ATOM     11  H   UNL     1      -0.115   0.555   3.906  1.00  0.00     0.160 HD
BRANCH  10  12
ATOM     12  C   UNL     1      -2.107   0.974   3.705  1.00  0.00     0.078 A 
ATOM     13  C   UNL     1      -2.293   0.995   5.105  1.00  0.00     0.029 A 
ATOM     14  C   UNL     1      -3.161   1.492   2.916  1.00  0.00     0.150 A 
ATOM     15  C   UNL     1      -3.456   1.485   5.702  1.00  0.00     0.002 A 
ATOM     16  C   UNL     1      -4.341   1.966   3.521  1.00  0.00     0.049 A 
ATOM     17  C   UNL     1      -4.489   1.958   4.907  1.00  0.00     0.004 A 
BRANCH  14  18
ATOM     18  O   UNL     1      -2.994   1.908   1.610  1.00  0.00    -0.455 OA
BRANCH  18  19
ATOM     19  C   UNL     1      -3.249   1.083   0.540  1.00  0.00     0.127 A 
ATOM     20  C   UNL     1      -2.625   1.510  -0.642  1.00  0.00     0.047 A 
ATOM     21  C   UNL     1      -3.949  -0.121   0.549  1.00  0.00     0.047 A 
ATOM     22  C   UNL     1      -2.619   0.708  -1.780  1.00  0.00     0.004 A 
ATOM     23  C   UNL     1      -3.953  -0.923  -0.603  1.00  0.00     0.004 A 
ATOM     24  C   UNL     1      -3.276  -0.517  -1.757  1.00  0.00     0.000 A 
ENDBRANCH  18  19
ENDBRANCH  14  18
ENDBRANCH  10  12
ENDBRANCH   8  10
ENDBRANCH   6   8
ENDBRANCH   3   6
ENDBRANCH   1   2
BRANCH   1  25
ATOM     25  C   UNL     1      -0.396  -3.155  -1.048  1.00  0.00     0.023 C 
BRANCH  25  26
ATOM     26  C   UNL     1      -0.407  -3.119  -2.573  1.00  0.00     0.023 C 
BRANCH  26  27
ATOM     27  C   UNL     1       0.478  -4.165  -3.219  1.00  0.00     0.116 C 
BRANCH  27  28
ATOM     28  N   UNL     1       0.000  -5.516  -2.967  1.00  0.00    -0.352 N 
ATOM     29  C   UNL     1      -0.216  -6.545  -3.849  1.00  0.00     0.251 C 
ATOM     30  H   UNL     1      -0.197  -5.723  -2.025  1.00  0.00     0.163 HD
ATOM     31  O   UNL     1      -0.800  -7.556  -3.474  1.00  0.00    -0.269 OA
BRANCH  29  32
ATOM     32  C   UNL     1       0.248  -6.436  -5.249  1.00  0.00     0.039 A 
ATOM     33  C   UNL     1      -0.520  -7.017  -6.263  1.00  0.00     0.014 A 
ATOM     34  C   UNL     1       1.457  -5.809  -5.562  1.00  0.00     0.014 A 
ATOM     35  C   UNL     1      -0.079  -6.959  -7.585  1.00  0.00     0.010 A 
ATOM     36  C   UNL     1       1.839  -5.654  -6.886  1.00  0.00     0.010 A 
ATOM     37  C   UNL     1       1.104  -6.275  -7.904  1.00  0.00    -0.014 A 
BRANCH  37  38
ATOM     38  C   UNL     1       1.664  -6.295  -9.274  1.00  0.00     0.031 A 
ATOM     39  C   UNL     1       2.991  -6.968  -9.512  1.00  0.00     0.074 A 
ATOM     40  C   UNL     1       1.017  -5.674 -10.276  1.00  0.00     0.049 A 
ATOM     41  N   UNL     1       3.703  -7.039 -10.607  1.00  0.00    -0.248 NA
ATOM     42  C   UNL     1       3.627  -7.605  -8.346  1.00  0.00     0.031 C 
ATOM     43  C   UNL     1      -0.242  -4.940 -10.146  1.00  0.00     0.029 A 
ATOM     44  N   UNL     1       1.335  -5.559 -11.604  1.00  0.00    -0.354 N 
ATOM     45  C   UNL     1       4.879  -7.686 -10.248  1.00  0.00     0.074 A 
ATOM     46  C   UNL     1       4.816  -7.931  -8.826  1.00  0.00     0.031 C 
ATOM     47  C   UNL     1      -0.609  -4.482 -11.354  1.00  0.00     0.029 A 
ATOM     48  C   UNL     1       0.400  -4.869 -12.335  1.00  0.00     0.049 A 
ATOM     49  H   UNL     1       2.156  -5.935 -11.996  1.00  0.00     0.167 HD
ATOM     50  C   UNL     1       5.907  -8.071 -11.041  1.00  0.00     0.037 A 
ATOM     51  C   UNL     1       0.364  -4.599 -13.652  1.00  0.00     0.037 A 
ATOM     52  C   UNL     1       5.922  -7.887 -12.467  1.00  0.00     0.049 A 
ATOM     53  C   UNL     1       1.475  -5.114 -14.527  1.00  0.00     0.074 A 
ATOM     54  C   UNL     1       6.870  -8.300 -13.384  1.00  0.00     0.029 A 
ATOM     55  N   UNL     1       4.919  -7.248 -13.183  1.00  0.00    -0.354 N 
ATOM     56  N   UNL     1       2.554  -5.778 -14.191  1.00  0.00    -0.248 NA
ATOM     57  C   UNL     1       1.352  -4.858 -15.968  1.00  0.00     0.031 C 
ATOM     58  C   UNL     1       6.452  -7.889 -14.655  1.00  0.00     0.029 A 
ATOM     59  C   UNL     1       5.225  -7.256 -14.532  1.00  0.00     0.049 A 
ATOM     60  H   UNL     1       4.111  -6.847 -12.789  1.00  0.00     0.167 HD
ATOM     61  C   UNL     1       3.219  -6.053 -15.377  1.00  0.00     0.074 A 
ATOM     62  C   UNL     1       2.415  -5.491 -16.443  1.00  0.00     0.031 C 
ATOM     63  C   UNL     1       4.390  -6.710 -15.570  1.00  0.00     0.037 A 
BRANCH  50  64
ATOM     64  C   UNL     1       7.081  -8.737 -10.383  1.00  0.00     0.064 A 
ATOM     65  C   UNL     1       6.981 -10.016  -9.812  1.00  0.00     0.173 A 
ATOM     66  C   UNL     1       8.324  -8.090 -10.323  1.00  0.00     0.173 A 
ATOM     67  F   UNL     1       5.811 -10.672  -9.826  1.00  0.00    -0.203 F 
ATOM     68  C   UNL     1       8.069 -10.604  -9.171  1.00  0.00     0.198 A 
ATOM     69  C   UNL     1       9.420  -8.696  -9.711  1.00  0.00     0.198 A 
ATOM     70  F   UNL     1       8.478  -6.868 -10.855  1.00  0.00    -0.203 F 
ATOM     71  F   UNL     1       7.929 -11.796  -8.576  1.00  0.00    -0.200 F 
ATOM     72  C   UNL     1       9.289  -9.946  -9.127  1.00  0.00     0.200 A 
ATOM     73  F   UNL     1      10.601  -8.063  -9.678  1.00  0.00    -0.200 F 
ATOM     74  F   UNL     1      10.335 -10.513  -8.510  1.00  0.00    -0.200 F 
ENDBRANCH  50  64
BRANCH  51  75
ATOM     75  C   UNL     1      -0.798  -3.877 -14.229  1.00  0.00     0.064 A 
ATOM     76  C   UNL     1      -1.733  -4.550 -15.028  1.00  0.00     0.173 A 
ATOM     77  C   UNL     1      -1.008  -2.512 -13.990  1.00  0.00     0.173 A 
ATOM     78  F   UNL     1      -1.567  -5.854 -15.297  1.00  0.00    -0.203 F 
ATOM     79  C   UNL     1      -2.822  -3.882 -15.584  1.00  0.00     0.198 A 
ATOM     80  C   UNL     1      -2.112  -1.849 -14.525  1.00  0.00     0.198 A 
ATOM     81  F   UNL     1      -0.149  -1.824 -13.223  1.00  0.00    -0.203 F 
ATOM     82  F   UNL     1      -3.676  -4.542 -16.377  1.00  0.00    -0.200 F 
ATOM     83  C   UNL     1      -3.013  -2.533 -15.328  1.00  0.00     0.200 A 
ATOM     84  F   UNL     1      -2.302  -0.549 -14.264  1.00  0.00    -0.200 F 
ATOM     85  F   UNL     1      -4.062  -1.891 -15.859  1.00  0.00    -0.200 F 
ENDBRANCH  51  75
BRANCH  63  86
ATOM     86  C   UNL     1       4.836  -6.902 -16.988  1.00  0.00     0.064 A 
ATOM     87  C   UNL     1       5.339  -5.840 -17.753  1.00  0.00     0.173 A 
ATOM     88  C   UNL     1       4.791  -8.176 -17.574  1.00  0.00     0.173 A 
ATOM     89  F   UNL     1       5.389  -4.603 -17.238  1.00  0.00    -0.203 F 
ATOM     90  C   UNL     1       5.752  -6.041 -19.066  1.00  0.00     0.198 A 
ATOM     91  C   UNL     1       5.232  -8.379 -18.878  1.00  0.00     0.198 A 
ATOM     92  F   UNL     1       4.327  -9.225 -16.878  1.00  0.00    -0.203 F 
ATOM     93  F   UNL     1       6.182  -5.003 -19.797  1.00  0.00    -0.200 F 
ATOM     94  C   UNL     1       5.704  -7.310 -19.625  1.00  0.00     0.200 A 
ATOM     95  F   UNL     1       5.197  -9.607 -19.413  1.00  0.00    -0.200 F 
ATOM     96  F   UNL     1       6.105  -7.502 -20.890  1.00  0.00    -0.200 F 
ENDBRANCH  63  86
ENDBRANCH  37  38
ENDBRANCH  29  32
ENDBRANCH  27  28
ENDBRANCH  26  27
ENDBRANCH  25  26
ENDBRANCH   1  25
TORSDOF 16
