REMARK SMILES C[C@H]1OCC[C@H]1c1nnnn1CC(=O)NCCCCNC(=O)c1ccc(-c2c3nc(c(-c4c(F)c(F)c(F)c(F)c4F)c4ccc([nH]4)c(-c4c(F)c(F)c(F)c(F)c4F)c4nc(c(-c5c(F)c(F)c(F)c(F)c5F)c5ccc2[nH]5)C=C4)C=C3)cc1
REMARK SMILES IDX 17 1 16 2 15 3 13 4 14 5 12 7 11 8 7 9 8 10 9 11 10 12 6 13
REMARK SMILES IDX 1 14 2 15 3 16 4 17 5 18 18 19 19 20 20 21 21 22 22 24 23 25
REMARK SMILES IDX 24 26 85 27 25 28 84 29 26 30 27 31 28 32 78 33 29 34 83 35
REMARK SMILES IDX 77 36 79 37 30 38 82 39 76 40 75 41 31 43 63 44 43 45 62 46
REMARK SMILES IDX 44 47 47 48 61 49 80 50 45 51 46 52 60 54 81 55 48 56 32 57
REMARK SMILES IDX 33 58 41 59 34 60 35 61 39 62 42 63 36 64 37 65 40 66 38 67
REMARK SMILES IDX 64 68 65 69 73 70 66 71 67 72 71 73 74 74 68 75 69 76 72 77
REMARK SMILES IDX 70 78 49 79 50 80 58 81 51 82 52 83 56 84 59 85 53 86 54 87
REMARK SMILES IDX 57 88 55 89
REMARK H PARENT 15 6 20 23 79 42 47 53
REMARK Flexibility Score: inf
ROOT
ATOM      1  C   UNL     1      -0.333  -5.260  -0.266  1.00  0.00     0.023 C 
ENDROOT
BRANCH   1   2
ATOM      2  C   UNL     1       0.802  -4.697   0.585  1.00  0.00     0.116 C 
BRANCH   2   3
ATOM      3  N   UNL     1       2.108  -4.984   0.036  1.00  0.00    -0.354 N 
ATOM      4  C   UNL     1       2.951  -4.159  -0.654  1.00  0.00     0.241 C 
ATOM      5  O   UNL     1       4.035  -4.621  -1.016  1.00  0.00    -0.273 OA
ATOM      6  H   UNL     1       2.436  -5.901   0.179  1.00  0.00     0.163 HD
BRANCH   4   7
ATOM      7  C   UNL     1       2.623  -2.696  -0.833  1.00  0.00     0.248 C 
BRANCH   7   8
ATOM      8  N   UNL     1       1.474  -2.439  -1.669  1.00  0.00    -0.220 N 
ATOM      9  C   UNL     1       0.367  -1.650  -1.440  1.00  0.00     0.157 A 
ATOM     10  N   UNL     1      -0.370  -1.694  -2.535  1.00  0.00    -0.113 NA
ATOM     11  N   UNL     1       0.295  -2.488  -3.431  1.00  0.00    -0.024 NA
ATOM     12  N   UNL     1       1.427  -2.935  -2.916  1.00  0.00    -0.044 NA
BRANCH   9  13
ATOM     13  C   UNL     1      -0.003  -0.986  -0.146  1.00  0.00     0.090 C 
ATOM     14  C   UNL     1       2.051   0.630  -0.459  1.00  0.00     0.039 C 
ATOM     15  C   UNL     1       0.739   0.304   0.234  1.00  0.00     0.126 C 
ATOM     16  O   UNL     1      -0.156   1.411   0.029  1.00  0.00    -0.378 OA
ATOM     17  C   UNL     1      -1.368   0.918  -0.544  1.00  0.00     0.161 C 
ATOM     18  C   UNL     1      -1.459  -0.532  -0.131  1.00  0.00     0.043 C 
ENDBRANCH   9  13
ENDBRANCH   7   8
ENDBRANCH   4   7
ENDBRANCH   2   3
ENDBRANCH   1   2
BRANCH   1  19
ATOM     19  C   UNL     1      -0.464  -6.788  -0.228  1.00  0.00     0.023 C 
BRANCH  19  20
ATOM     20  C   UNL     1      -0.713  -7.374   1.159  1.00  0.00     0.116 C 
BRANCH  20  21
ATOM     21  N   UNL     1      -1.967  -6.916   1.749  1.00  0.00    -0.352 N 
ATOM     22  C   UNL     1      -2.418  -7.108   3.040  1.00  0.00     0.251 C 
ATOM     23  H   UNL     1      -2.564  -6.407   1.154  1.00  0.00     0.163 HD
ATOM     24  O   UNL     1      -3.612  -7.077   3.298  1.00  0.00    -0.269 OA
BRANCH  22  25
ATOM     25  C   UNL     1      -1.436  -7.341   4.115  1.00  0.00     0.039 A 
ATOM     26  C   UNL     1      -1.677  -8.293   5.106  1.00  0.00     0.014 A 
ATOM     27  C   UNL     1      -0.260  -6.591   4.123  1.00  0.00     0.014 A 
ATOM     28  C   UNL     1      -0.685  -8.545   6.050  1.00  0.00     0.010 A 
ATOM     29  C   UNL     1       0.765  -6.917   4.982  1.00  0.00     0.010 A 
ATOM     30  C   UNL     1       0.550  -7.876   5.964  1.00  0.00    -0.014 A 
BRANCH  30  31
ATOM     31  C   UNL     1       1.677  -8.330   6.779  1.00  0.00     0.031 A 
ATOM     32  C   UNL     1       1.939  -9.787   6.638  1.00  0.00     0.074 A 
ATOM     33  C   UNL     1       2.525  -7.514   7.444  1.00  0.00     0.049 A 
ATOM     34  N   UNL     1       1.728 -10.701   7.524  1.00  0.00    -0.248 NA
ATOM     35  C   UNL     1       2.305 -10.319   5.314  1.00  0.00     0.031 C 
ATOM     36  C   UNL     1       2.557  -6.048   7.410  1.00  0.00     0.029 A 
ATOM     37  N   UNL     1       3.611  -7.818   8.217  1.00  0.00    -0.354 N 
ATOM     38  C   UNL     1       2.167 -11.892   6.953  1.00  0.00     0.074 A 
ATOM     39  C   UNL     1       2.302 -11.635   5.546  1.00  0.00     0.031 C 
ATOM     40  C   UNL     1       3.726  -5.606   7.925  1.00  0.00     0.029 A 
ATOM     41  C   UNL     1       4.454  -6.737   8.472  1.00  0.00     0.049 A 
ATOM     42  H   UNL     1       3.783  -8.723   8.565  1.00  0.00     0.167 HD
ATOM     43  C   UNL     1       2.699 -12.861   7.749  1.00  0.00     0.037 A 
ATOM     44  C   UNL     1       5.667  -6.765   9.079  1.00  0.00     0.037 A 
ATOM     45  C   UNL     1       2.368 -12.600   9.131  1.00  0.00     0.049 A 
ATOM     46  C   UNL     1       5.725  -8.006   9.880  1.00  0.00     0.074 A 
ATOM     47  C   UNL     1       1.230 -12.572   9.907  1.00  0.00     0.029 A 
ATOM     48  N   UNL     1       3.326 -11.883   9.796  1.00  0.00    -0.354 N 
ATOM     49  N   UNL     1       5.013  -8.205  10.953  1.00  0.00    -0.248 NA
ATOM     50  C   UNL     1       6.333  -9.197   9.303  1.00  0.00     0.031 C 
ATOM     51  C   UNL     1       1.481 -11.611  10.935  1.00  0.00     0.029 A 
ATOM     52  C   UNL     1       2.782 -11.129  10.792  1.00  0.00     0.049 A 
ATOM     53  H   UNL     1       4.287 -11.909   9.581  1.00  0.00     0.167 HD
ATOM     54  C   UNL     1       4.700  -9.548  10.904  1.00  0.00     0.074 A 
ATOM     55  C   UNL     1       5.687 -10.133  10.003  1.00  0.00     0.031 C 
ATOM     56  C   UNL     1       3.476  -9.979  11.327  1.00  0.00     0.037 A 
BRANCH  43  57
ATOM     57  C   UNL     1       3.951 -13.663   7.406  1.00  0.00     0.064 A 
ATOM     58  C   UNL     1       4.426 -14.596   8.357  1.00  0.00     0.173 A 
ATOM     59  C   UNL     1       4.880 -13.309   6.403  1.00  0.00     0.173 A 
ATOM     60  F   UNL     1       3.641 -15.003   9.366  1.00  0.00    -0.203 F 
ATOM     61  C   UNL     1       5.753 -15.041   8.365  1.00  0.00     0.198 A 
ATOM     62  C   UNL     1       6.188 -13.793   6.388  1.00  0.00     0.198 A 
ATOM     63  F   UNL     1       4.615 -12.398   5.463  1.00  0.00    -0.203 F 
ATOM     64  F   UNL     1       6.193 -15.806   9.373  1.00  0.00    -0.200 F 
ATOM     65  C   UNL     1       6.636 -14.628   7.387  1.00  0.00     0.200 A 
ATOM     66  F   UNL     1       7.036 -13.360   5.443  1.00  0.00    -0.200 F 
ATOM     67  F   UNL     1       7.925 -14.990   7.431  1.00  0.00    -0.200 F 
ENDBRANCH  43  57
BRANCH  44  68
ATOM     68  C   UNL     1       6.861  -5.903   8.896  1.00  0.00     0.064 A 
ATOM     69  C   UNL     1       7.926  -5.933   9.817  1.00  0.00     0.173 A 
ATOM     70  C   UNL     1       7.120  -5.265   7.669  1.00  0.00     0.173 A 
ATOM     71  F   UNL     1       7.779  -6.545  11.002  1.00  0.00    -0.203 F 
ATOM     72  C   UNL     1       9.185  -5.409   9.507  1.00  0.00     0.198 A 
ATOM     73  C   UNL     1       8.376  -4.735   7.363  1.00  0.00     0.198 A 
ATOM     74  F   UNL     1       6.191  -5.231   6.704  1.00  0.00    -0.203 F 
ATOM     75  F   UNL     1      10.194  -5.531  10.381  1.00  0.00    -0.200 F 
ATOM     76  C   UNL     1       9.414  -4.825   8.273  1.00  0.00     0.200 A 
ATOM     77  F   UNL     1       8.594  -4.200   6.154  1.00  0.00    -0.200 F 
ATOM     78  F   UNL     1      10.638  -4.391   7.945  1.00  0.00    -0.200 F 
ENDBRANCH  44  68
BRANCH  56  79
ATOM     79  C   UNL     1       2.745  -9.111  12.306  1.00  0.00     0.064 A 
ATOM     80  C   UNL     1       2.295  -7.806  12.049  1.00  0.00     0.173 A 
ATOM     81  C   UNL     1       2.440  -9.667  13.556  1.00  0.00     0.173 A 
ATOM     82  F   UNL     1       2.468  -7.235  10.849  1.00  0.00    -0.203 F 
ATOM     83  C   UNL     1       1.619  -7.076  13.025  1.00  0.00     0.198 A 
ATOM     84  C   UNL     1       1.727  -8.953  14.511  1.00  0.00     0.198 A 
ATOM     85  F   UNL     1       2.811 -10.926  13.841  1.00  0.00    -0.203 F 
ATOM     86  F   UNL     1       1.227  -5.818  12.772  1.00  0.00    -0.200 F 
ATOM     87  C   UNL     1       1.331  -7.652  14.252  1.00  0.00     0.200 A 
ATOM     88  F   UNL     1       1.414  -9.532  15.678  1.00  0.00    -0.200 F 
ATOM     89  F   UNL     1       0.655  -6.960  15.180  1.00  0.00    -0.200 F 
ENDBRANCH  56  79
ENDBRANCH  30  31
ENDBRANCH  22  25
ENDBRANCH  20  21
ENDBRANCH  19  20
ENDBRANCH   1  19
TORSDOF 13
