REMARK SMILES CC(C)[C@@H](NC(N)=O)C(=O)N[C@H](C(=O)NCCCCNC(=O)c1ccc(-c2c3nc(c(-c4c(F)c(F)c(F)c(F)c4F)c4ccc([nH]4)c(-c4c(F)c(F)c(F)c(F)c4F)c4nc(c(-c5c(F)c(F)c(F)c(F)c5F)c5ccc2[nH]5)C=C4)C=C3)cc1)[C@@H](C)O
REMARK SMILES IDX 17 1 16 2 15 3 13 4 14 5 12 7 11 8 9 9 10 10 4 12 2 13 1 14
REMARK SMILES IDX 3 15 5 16 6 17 7 19 8 20 86 23 87 24 88 25 18 27 19 28 20 29
REMARK SMILES IDX 21 30 22 32 23 33 24 34 85 35 25 36 84 37 26 38 27 39 28 40
REMARK SMILES IDX 78 41 29 42 83 43 77 44 79 45 30 46 82 47 76 48 75 49 31 51
REMARK SMILES IDX 63 52 43 53 62 54 44 55 47 56 61 57 80 58 45 59 46 60 60 62
REMARK SMILES IDX 81 63 48 64 32 65 33 66 41 67 34 68 35 69 39 70 42 71 36 72
REMARK SMILES IDX 37 73 40 74 38 75 64 76 65 77 73 78 66 79 67 80 71 81 74 82
REMARK SMILES IDX 68 83 69 84 72 85 70 86 49 87 50 88 58 89 51 90 52 91 56 92
REMARK SMILES IDX 59 93 53 94 54 95 57 96 55 97
REMARK H PARENT 15 6 11 11 5 18 7 21 7 22 88 26 20 31 79 50 47 61
REMARK Flexibility Score: inf
ROOT
ATOM      1  C   UNL     1       3.192  -3.168  -0.192  1.00  0.00     0.023 C 
ENDROOT
BRANCH   1   2
ATOM      2  C   UNL     1       2.550  -2.294  -1.376  1.00  0.00     0.116 C 
BRANCH   2   3
ATOM      3  N   UNL     1       1.191  -1.728  -1.444  1.00  0.00    -0.354 N 
ATOM      4  C   UNL     1       0.127  -1.915  -2.309  1.00  0.00     0.245 C 
ATOM      5  O   UNL     1      -0.851  -1.177  -2.159  1.00  0.00    -0.273 OA
ATOM      6  H   UNL     1       1.000  -1.082  -0.726  1.00  0.00     0.163 HD
BRANCH   4   7
ATOM      7  C   UNL     1       0.095  -3.154  -3.216  1.00  0.00     0.200 C 
BRANCH   7   8
ATOM      8  N   UNL     1      -0.404  -4.230  -2.353  1.00  0.00    -0.340 N 
ATOM      9  C   UNL     1       0.226  -4.470  -1.153  1.00  0.00     0.243 C 
ATOM     10  O   UNL     1       1.363  -4.939  -1.186  1.00  0.00    -0.273 OA
ATOM     11  H   UNL     1      -1.179  -4.772  -2.628  1.00  0.00     0.164 HD
BRANCH   9  12
ATOM     12  C   UNL     1      -0.589  -4.272   0.178  1.00  0.00     0.175 C 
BRANCH  12  13
ATOM     13  C   UNL     1      -1.020  -2.886   0.823  1.00  0.00     0.015 C 
ATOM     14  C   UNL     1      -1.718  -3.221   2.163  1.00  0.00     0.010 C 
ATOM     15  C   UNL     1      -0.079  -1.731   1.263  1.00  0.00     0.010 C 
ENDBRANCH  12  13
BRANCH  12  16
ATOM     16  N   UNL     1      -1.832  -5.010  -0.127  1.00  0.00    -0.326 N 
ATOM     17  C   UNL     1      -1.848  -6.335  -0.447  1.00  0.00     0.312 C 
ATOM     18  H   UNL     1      -2.687  -4.523  -0.098  1.00  0.00     0.166 HD
ATOM     19  N   UNL     1      -3.093  -6.760  -0.772  1.00  0.00    -0.352 N 
ATOM     20  O   UNL     1      -0.886  -7.061  -0.511  1.00  0.00    -0.249 OA
ATOM     21  H   UNL     1      -3.857  -6.141  -0.709  1.00  0.00     0.161 HD
ATOM     22  H   UNL     1      -3.235  -7.687  -1.071  1.00  0.00     0.161 HD
ENDBRANCH  12  16
ENDBRANCH   9  12
ENDBRANCH   7   8
BRANCH   7  23
ATOM     23  C   UNL     1      -0.767  -3.061  -4.519  1.00  0.00     0.143 C 
ATOM     24  C   UNL     1      -2.062  -2.251  -4.519  1.00  0.00     0.041 C 
BRANCH  23  25
ATOM     25  O   UNL     1       0.052  -2.629  -5.617  1.00  0.00    -0.391 OA
ATOM     26  H   UNL     1       0.336  -1.714  -5.467  1.00  0.00     0.211 HD
ENDBRANCH  23  25
ENDBRANCH   7  23
ENDBRANCH   4   7
ENDBRANCH   2   3
ENDBRANCH   1   2
BRANCH   1  27
ATOM     27  C   UNL     1       2.579  -3.526   1.191  1.00  0.00     0.023 C 
BRANCH  27  28
ATOM     28  C   UNL     1       2.628  -4.995   1.710  1.00  0.00     0.116 C 
BRANCH  28  29
ATOM     29  N   UNL     1       3.890  -5.388   2.299  1.00  0.00    -0.352 N 
ATOM     30  C   UNL     1       4.205  -6.023   3.480  1.00  0.00     0.251 C 
ATOM     31  H   UNL     1       4.675  -5.158   1.750  1.00  0.00     0.163 HD
ATOM     32  O   UNL     1       5.400  -6.146   3.757  1.00  0.00    -0.269 OA
BRANCH  30  33
ATOM     33  C   UNL     1       3.211  -6.563   4.462  1.00  0.00     0.039 A 
ATOM     34  C   UNL     1       3.538  -6.456   5.825  1.00  0.00     0.014 A 
ATOM     35  C   UNL     1       2.083  -7.313   4.116  1.00  0.00     0.014 A 
ATOM     36  C   UNL     1       2.758  -7.072   6.820  1.00  0.00     0.010 A 
ATOM     37  C   UNL     1       1.280  -7.909   5.121  1.00  0.00     0.010 A 
ATOM     38  C   UNL     1       1.610  -7.805   6.487  1.00  0.00    -0.014 A 
BRANCH  38  39
ATOM     39  C   UNL     1       0.787  -8.451   7.566  1.00  0.00     0.031 A 
ATOM     40  C   UNL     1       0.708  -9.954   7.707  1.00  0.00     0.074 A 
ATOM     41  C   UNL     1       0.109  -7.689   8.451  1.00  0.00     0.049 A 
ATOM     42  N   UNL     1       0.056 -10.677   8.590  1.00  0.00    -0.248 NA
ATOM     43  C   UNL     1       1.452 -10.749   6.722  1.00  0.00     0.031 C 
ATOM     44  C   UNL     1       0.075  -6.228   8.447  1.00  0.00     0.029 A 
ATOM     45  N   UNL     1      -0.682  -8.034   9.526  1.00  0.00    -0.354 N 
ATOM     46  C   UNL     1       0.303 -12.006   8.262  1.00  0.00     0.074 A 
ATOM     47  C   UNL     1       1.133 -11.988   7.074  1.00  0.00     0.031 C 
ATOM     48  C   UNL     1      -0.677  -5.801   9.475  1.00  0.00     0.029 A 
ATOM     49  C   UNL     1      -1.210  -6.954  10.196  1.00  0.00     0.049 A 
ATOM     50  H   UNL     1      -0.852  -8.967   9.791  1.00  0.00     0.167 HD
ATOM     51  C   UNL     1      -0.104 -13.137   8.894  1.00  0.00     0.037 A 
ATOM     52  C   UNL     1      -2.034  -6.891  11.262  1.00  0.00     0.037 A 
ATOM     53  C   UNL     1      -0.918 -13.168  10.086  1.00  0.00     0.049 A 
ATOM     54  C   UNL     1      -2.498  -8.160  11.930  1.00  0.00     0.074 A 
ATOM     55  C   UNL     1      -1.338 -14.269  10.817  1.00  0.00     0.029 A 
ATOM     56  N   UNL     1      -1.441 -12.052  10.720  1.00  0.00    -0.354 N 
ATOM     57  N   UNL     1      -2.207  -9.403  11.638  1.00  0.00    -0.248 NA
ATOM     58  C   UNL     1      -3.401  -8.014  13.082  1.00  0.00     0.031 C 
ATOM     59  C   UNL     1      -2.157 -13.822  11.860  1.00  0.00     0.029 A 
ATOM     60  C   UNL     1      -2.201 -12.439  11.815  1.00  0.00     0.049 A 
ATOM     61  H   UNL     1      -1.295 -11.121  10.435  1.00  0.00     0.167 HD
ATOM     62  C   UNL     1      -2.862 -10.182  12.583  1.00  0.00     0.074 A 
ATOM     63  C   UNL     1      -3.555  -9.272  13.470  1.00  0.00     0.031 C 
ATOM     64  C   UNL     1      -2.885 -11.533  12.703  1.00  0.00     0.037 A 
BRANCH  51  65
ATOM     65  C   UNL     1       0.319 -14.457   8.307  1.00  0.00     0.064 A 
ATOM     66  C   UNL     1       1.652 -14.892   8.356  1.00  0.00     0.173 A 
ATOM     67  C   UNL     1      -0.629 -15.324   7.739  1.00  0.00     0.173 A 
ATOM     68  F   UNL     1       2.599 -14.106   8.890  1.00  0.00    -0.203 F 
ATOM     69  C   UNL     1       2.026 -16.125   7.825  1.00  0.00     0.198 A 
ATOM     70  C   UNL     1      -0.257 -16.570   7.239  1.00  0.00     0.198 A 
ATOM     71  F   UNL     1      -1.922 -14.971   7.684  1.00  0.00    -0.203 F 
ATOM     72  F   UNL     1       3.314 -16.496   7.840  1.00  0.00    -0.200 F 
ATOM     73  C   UNL     1       1.072 -16.965   7.273  1.00  0.00     0.200 A 
ATOM     74  F   UNL     1      -1.185 -17.389   6.725  1.00  0.00    -0.200 F 
ATOM     75  F   UNL     1       1.432 -18.154   6.771  1.00  0.00    -0.200 F 
ENDBRANCH  51  65
BRANCH  52  76
ATOM     76  C   UNL     1      -2.473  -5.567  11.785  1.00  0.00     0.064 A 
ATOM     77  C   UNL     1      -2.046  -5.105  13.039  1.00  0.00     0.173 A 
ATOM     78  C   UNL     1      -3.341  -4.745  11.051  1.00  0.00     0.173 A 
ATOM     79  F   UNL     1      -1.240  -5.867  13.793  1.00  0.00    -0.203 F 
ATOM     80  C   UNL     1      -2.485  -3.883  13.545  1.00  0.00     0.198 A 
ATOM     81  C   UNL     1      -3.754  -3.509  11.545  1.00  0.00     0.198 A 
ATOM     82  F   UNL     1      -3.783  -5.139   9.848  1.00  0.00    -0.203 F 
ATOM     83  F   UNL     1      -2.101  -3.490  14.768  1.00  0.00    -0.200 F 
ATOM     84  C   UNL     1      -3.332  -3.082  12.795  1.00  0.00     0.200 A 
ATOM     85  F   UNL     1      -4.563  -2.733  10.811  1.00  0.00    -0.200 F 
ATOM     86  F   UNL     1      -3.749  -1.905  13.280  1.00  0.00    -0.200 F 
ENDBRANCH  52  76
BRANCH  64  87
ATOM     87  C   UNL     1      -3.655 -12.116  13.855  1.00  0.00     0.064 A 
ATOM     88  C   UNL     1      -5.057 -12.088  13.898  1.00  0.00     0.173 A 
ATOM     89  C   UNL     1      -2.981 -12.744  14.915  1.00  0.00     0.173 A 
ATOM     90  F   UNL     1      -5.750 -11.487  12.919  1.00  0.00    -0.203 F 
ATOM     91  C   UNL     1      -5.753 -12.643  14.970  1.00  0.00     0.198 A 
ATOM     92  C   UNL     1      -3.681 -13.325  15.969  1.00  0.00     0.198 A 
ATOM     93  F   UNL     1      -1.641 -12.804  14.923  1.00  0.00    -0.203 F 
ATOM     94  F   UNL     1      -7.090 -12.560  15.012  1.00  0.00    -0.200 F 
ATOM     95  C   UNL     1      -5.066 -13.267  16.000  1.00  0.00     0.200 A 
ATOM     96  F   UNL     1      -3.015 -13.939  16.957  1.00  0.00    -0.200 F 
ATOM     97  F   UNL     1      -5.738 -13.806  17.026  1.00  0.00    -0.200 F 
ENDBRANCH  64  87
ENDBRANCH  38  39
ENDBRANCH  30  33
ENDBRANCH  28  29
ENDBRANCH  27  28
ENDBRANCH   1  27
TORSDOF 17
