REMARK SMILES C[C@H](C(=O)NCCCCNC(=O)c1ccc(-c2c3nc(c(-c4c(F)c(F)c(F)c(F)c4F)c4ccc([nH]4)c(-c4c(F)c(F)c(F)c(F)c4F)c4nc(c(-c5c(F)c(F)c(F)c(F)c5F)c5ccc2[nH]5)C=C4)C=C3)cc1)n1ccc(C(=O)N(C)Cc2cnn(C)c2)n1
REMARK SMILES IDX 6 1 5 2 3 3 4 4 2 6 1 7 76 8 77 9 91 10 78 11 79 12 80 13
REMARK SMILES IDX 81 14 82 15 83 16 84 17 85 18 86 19 90 20 87 21 88 22 89 23
REMARK SMILES IDX 7 24 8 25 9 26 10 27 11 28 12 30 13 31 14 32 75 33 15 34
REMARK SMILES IDX 74 35 16 36 17 37 18 38 68 39 19 40 73 41 67 42 69 43 20 44
REMARK SMILES IDX 72 45 66 46 65 47 21 49 53 50 33 51 52 52 34 53 37 54 51 55
REMARK SMILES IDX 70 56 35 57 36 58 50 60 71 61 38 62 22 63 23 64 31 65 24 66
REMARK SMILES IDX 25 67 29 68 32 69 26 70 27 71 30 72 28 73 54 74 55 75 63 76
REMARK SMILES IDX 56 77 57 78 61 79 64 80 58 81 59 82 62 83 60 84 39 85 40 86
REMARK SMILES IDX 48 87 41 88 42 89 46 90 49 91 43 92 44 93 47 94 45 95
REMARK H PARENT 5 5 10 29 69 48 37 59
REMARK Flexibility Score: inf
ROOT
ATOM      1  C   UNL     1      -0.299   1.763  -0.016  1.00  0.00     0.116 C 
ENDROOT
BRANCH   1   2
ATOM      2  N   UNL     1       0.824   0.980   0.448  1.00  0.00    -0.354 N 
ATOM      3  C   UNL     1       1.073  -0.355   0.402  1.00  0.00     0.244 C 
ATOM      4  O   UNL     1       2.006  -0.700   1.145  1.00  0.00    -0.273 OA
ATOM      5  H   UNL     1       1.536   1.509   0.875  1.00  0.00     0.163 HD
BRANCH   3   6
ATOM      6  C   UNL     1       0.441  -1.363  -0.583  1.00  0.00     0.193 C 
ATOM      7  C   UNL     1       1.204  -2.696  -0.387  1.00  0.00     0.044 C 
BRANCH   6   8
ATOM      8  N   UNL     1      -1.020  -1.571  -0.517  1.00  0.00    -0.260 N 
ATOM      9  C   UNL     1      -1.680  -2.776  -0.463  1.00  0.00     0.110 A 
ATOM     10  N   UNL     1      -1.875  -0.566  -0.822  1.00  0.00    -0.167 NA
ATOM     11  C   UNL     1      -3.017  -2.506  -0.603  1.00  0.00     0.056 A 
ATOM     12  C   UNL     1      -3.108  -1.106  -0.784  1.00  0.00     0.150 A 
BRANCH  12  13
ATOM     13  C   UNL     1      -4.385  -0.356  -0.831  1.00  0.00     0.274 C 
ATOM     14  O   UNL     1      -5.392  -0.870  -0.337  1.00  0.00    -0.267 OA
BRANCH  13  15
ATOM     15  N   UNL     1      -4.445   0.924  -1.392  1.00  0.00    -0.336 N 
ATOM     16  C   UNL     1      -3.419   1.508  -2.249  1.00  0.00     0.147 C 
BRANCH  15  17
ATOM     17  C   UNL     1      -5.643   1.718  -1.126  1.00  0.00     0.158 C 
BRANCH  17  18
ATOM     18  C   UNL     1      -6.432   1.920  -2.366  1.00  0.00     0.009 A 
ATOM     19  C   UNL     1      -6.953   0.935  -3.233  1.00  0.00     0.140 A 
ATOM     20  C   UNL     1      -6.830   3.112  -2.937  1.00  0.00     0.113 A 
ATOM     21  N   UNL     1      -7.603   1.459  -4.275  1.00  0.00    -0.181 NA
ATOM     22  N   UNL     1      -7.519   2.785  -4.065  1.00  0.00    -0.275 N 
ATOM     23  C   UNL     1      -8.130   3.693  -5.003  1.00  0.00     0.173 C 
ENDBRANCH  17  18
ENDBRANCH  15  17
ENDBRANCH  13  15
ENDBRANCH  12  13
ENDBRANCH   6   8
ENDBRANCH   3   6
ENDBRANCH   1   2
BRANCH   1  24
ATOM     24  C   UNL     1      -1.417   1.747   1.036  1.00  0.00     0.023 C 
BRANCH  24  25
ATOM     25  C   UNL     1      -1.508   3.004   1.903  1.00  0.00     0.023 C 
BRANCH  25  26
ATOM     26  C   UNL     1      -1.861   4.284   1.152  1.00  0.00     0.116 C 
BRANCH  26  27
ATOM     27  N   UNL     1      -3.091   4.203   0.378  1.00  0.00    -0.352 N 
ATOM     28  C   UNL     1      -3.910   5.217  -0.056  1.00  0.00     0.251 C 
ATOM     29  H   UNL     1      -3.377   3.294   0.132  1.00  0.00     0.163 HD
ATOM     30  O   UNL     1      -4.913   4.988  -0.725  1.00  0.00    -0.269 OA
BRANCH  28  31
ATOM     31  C   UNL     1      -3.630   6.600   0.352  1.00  0.00     0.039 A 
ATOM     32  C   UNL     1      -4.675   7.337   0.915  1.00  0.00     0.014 A 
ATOM     33  C   UNL     1      -2.349   7.140   0.239  1.00  0.00     0.014 A 
ATOM     34  C   UNL     1      -4.410   8.589   1.456  1.00  0.00     0.010 A 
ATOM     35  C   UNL     1      -2.068   8.352   0.852  1.00  0.00     0.010 A 
ATOM     36  C   UNL     1      -3.094   9.075   1.477  1.00  0.00    -0.014 A 
BRANCH  36  37
ATOM     37  C   UNL     1      -2.772  10.327   2.191  1.00  0.00     0.031 A 
ATOM     38  C   UNL     1      -2.288  11.519   1.426  1.00  0.00     0.074 A 
ATOM     39  C   UNL     1      -2.872  10.346   3.534  1.00  0.00     0.049 A 
ATOM     40  N   UNL     1      -1.920  12.691   1.872  1.00  0.00    -0.248 NA
ATOM     41  C   UNL     1      -2.171  11.367  -0.034  1.00  0.00     0.031 C 
ATOM     42  C   UNL     1      -3.269   9.207   4.367  1.00  0.00     0.029 A 
ATOM     43  N   UNL     1      -2.648  11.352   4.435  1.00  0.00    -0.354 N 
ATOM     44  C   UNL     1      -1.529  13.412   0.753  1.00  0.00     0.074 A 
ATOM     45  C   UNL     1      -1.641  12.528  -0.386  1.00  0.00     0.031 C 
ATOM     46  C   UNL     1      -3.291   9.587   5.654  1.00  0.00     0.029 A 
ATOM     47  C   UNL     1      -2.879  10.983   5.739  1.00  0.00     0.049 A 
ATOM     48  H   UNL     1      -2.351  12.253   4.175  1.00  0.00     0.167 HD
ATOM     49  C   UNL     1      -1.138  14.706   0.685  1.00  0.00     0.037 A 
ATOM     50  C   UNL     1      -2.769  11.701   6.871  1.00  0.00     0.037 A 
ATOM     51  C   UNL     1      -1.044  15.570   1.832  1.00  0.00     0.049 A 
ATOM     52  C   UNL     1      -2.360  13.144   6.760  1.00  0.00     0.074 A 
ATOM     53  C   UNL     1      -0.681  16.903   1.886  1.00  0.00     0.029 A 
ATOM     54  N   UNL     1      -1.324  15.177   3.135  1.00  0.00    -0.354 N 
ATOM     55  N   UNL     1      -2.045  13.834   5.689  1.00  0.00    -0.248 NA
ATOM     56  C   UNL     1      -2.306  13.912   8.009  1.00  0.00     0.031 C 
ATOM     57  C   UNL     1      -0.711  17.308   3.225  1.00  0.00     0.029 A 
ATOM     58  C   UNL     1      -1.136  16.241   4.001  1.00  0.00     0.049 A 
ATOM     59  H   UNL     1      -1.613  14.275   3.403  1.00  0.00     0.167 HD
ATOM     60  C   UNL     1      -1.769  15.119   6.131  1.00  0.00     0.074 A 
ATOM     61  C   UNL     1      -1.990  15.120   7.564  1.00  0.00     0.031 C 
ATOM     62  C   UNL     1      -1.361  16.201   5.423  1.00  0.00     0.037 A 
BRANCH  49  63
ATOM     63  C   UNL     1      -0.800  15.257  -0.669  1.00  0.00     0.064 A 
ATOM     64  C   UNL     1      -1.792  15.468  -1.641  1.00  0.00     0.173 A 
ATOM     65  C   UNL     1       0.520  15.598  -0.996  1.00  0.00     0.173 A 
ATOM     66  F   UNL     1      -3.067  15.140  -1.386  1.00  0.00    -0.203 F 
ATOM     67  C   UNL     1      -1.470  15.976  -2.897  1.00  0.00     0.198 A 
ATOM     68  C   UNL     1       0.834  16.133  -2.244  1.00  0.00     0.198 A 
ATOM     69  F   UNL     1       1.507  15.415  -0.107  1.00  0.00    -0.203 F 
ATOM     70  F   UNL     1      -2.426  16.120  -3.824  1.00  0.00    -0.200 F 
ATOM     71  C   UNL     1      -0.159  16.315  -3.195  1.00  0.00     0.200 A 
ATOM     72  F   UNL     1       2.100  16.468  -2.528  1.00  0.00    -0.200 F 
ATOM     73  F   UNL     1       0.149  16.809  -4.402  1.00  0.00    -0.200 F 
ENDBRANCH  49  63
BRANCH  50  74
ATOM     74  C   UNL     1      -3.075  11.079   8.187  1.00  0.00     0.064 A 
ATOM     75  C   UNL     1      -4.193  11.478   8.932  1.00  0.00     0.173 A 
ATOM     76  C   UNL     1      -2.256  10.078   8.729  1.00  0.00     0.173 A 
ATOM     77  F   UNL     1      -5.001  12.441   8.464  1.00  0.00    -0.203 F 
ATOM     78  C   UNL     1      -4.464  10.922  10.181  1.00  0.00     0.198 A 
ATOM     79  C   UNL     1      -2.545   9.500   9.964  1.00  0.00     0.198 A 
ATOM     80  F   UNL     1      -1.180   9.650   8.053  1.00  0.00    -0.203 F 
ATOM     81  F   UNL     1      -5.510  11.361  10.895  1.00  0.00    -0.200 F 
ATOM     82  C   UNL     1      -3.642   9.931  10.694  1.00  0.00     0.200 A 
ATOM     83  F   UNL     1      -1.758   8.529  10.447  1.00  0.00    -0.200 F 
ATOM     84  F   UNL     1      -3.903   9.395  11.895  1.00  0.00    -0.200 F 
ENDBRANCH  50  74
BRANCH  62  85
ATOM     85  C   UNL     1      -1.143  17.465   6.199  1.00  0.00     0.064 A 
ATOM     86  C   UNL     1      -0.057  17.608   7.076  1.00  0.00     0.173 A 
ATOM     87  C   UNL     1      -2.024  18.547   6.057  1.00  0.00     0.173 A 
ATOM     88  F   UNL     1       0.802  16.594   7.256  1.00  0.00    -0.203 F 
ATOM     89  C   UNL     1       0.116  18.776   7.812  1.00  0.00     0.198 A 
ATOM     90  C   UNL     1      -1.829  19.725   6.771  1.00  0.00     0.198 A 
ATOM     91  F   UNL     1      -3.073  18.462   5.225  1.00  0.00    -0.203 F 
ATOM     92  F   UNL     1       1.125  18.867   8.690  1.00  0.00    -0.200 F 
ATOM     93  C   UNL     1      -0.766  19.834   7.655  1.00  0.00     0.200 A 
ATOM     94  F   UNL     1      -2.674  20.752   6.609  1.00  0.00    -0.200 F 
ATOM     95  F   UNL     1      -0.598  20.957   8.367  1.00  0.00    -0.200 F 
ENDBRANCH  62  85
ENDBRANCH  36  37
ENDBRANCH  28  31
ENDBRANCH  26  27
ENDBRANCH  25  26
ENDBRANCH  24  25
ENDBRANCH   1  24
TORSDOF 16
