REMARK SMILES CCN(CC)c1ccc(NC(=O)c2ccc(OC)cc2)cc1C(=O)NCCCCNC(=O)c1ccc(-c2c3nc(c(-c4c(F)c(F)c(F)c(F)c4F)c4ccc([nH]4)c(-c4c(F)c(F)c(F)c(F)c4F)c4nc(c(-c5c(F)c(F)c(F)c(F)c5F)c5ccc2[nH]5)C=C4)C=C3)cc1
REMARK SMILES IDX 27 1 26 2 25 3 23 4 24 5 22 7 6 8 7 9 8 10 21 11 9 12 3 13
REMARK SMILES IDX 2 14 1 15 4 16 5 17 10 18 11 19 12 21 13 22 14 23 20 24
REMARK SMILES IDX 15 25 19 26 16 27 17 28 18 29 28 30 29 31 30 32 31 33 32 35
REMARK SMILES IDX 33 36 34 37 95 38 35 39 94 40 36 41 37 42 38 43 88 44 39 45
REMARK SMILES IDX 93 46 87 47 89 48 40 49 92 50 86 51 85 52 41 54 73 55 53 56
REMARK SMILES IDX 72 57 54 58 57 59 71 60 90 61 55 62 56 63 70 65 91 66 58 67
REMARK SMILES IDX 42 68 43 69 51 70 44 71 45 72 49 73 52 74 46 75 47 76 50 77
REMARK SMILES IDX 48 78 74 79 75 80 83 81 76 82 77 83 81 84 84 85 78 86 79 87
REMARK SMILES IDX 82 88 80 89 59 90 60 91 68 92 61 93 62 94 66 95 69 96 63 97
REMARK SMILES IDX 64 98 67 99 65 100
REMARK H PARENT 25 6 10 20 30 34 89 53 57 64
REMARK Flexibility Score: inf
ROOT
ATOM      1  C   UNL     1      -1.224   0.570   2.255  1.00  0.00     0.023 C 
ENDROOT
BRANCH   1   2
ATOM      2  C   UNL     1       0.051  -0.158   1.855  1.00  0.00     0.116 C 
BRANCH   2   3
ATOM      3  N   UNL     1       1.165   0.611   1.363  1.00  0.00    -0.352 N 
ATOM      4  C   UNL     1       2.421   0.142   1.001  1.00  0.00     0.253 C 
ATOM      5  O   UNL     1       3.209   0.956   0.514  1.00  0.00    -0.269 OA
ATOM      6  H   UNL     1       1.019   1.580   1.272  1.00  0.00     0.163 HD
BRANCH   4   7
ATOM      7  C   UNL     1       2.902  -1.265   1.268  1.00  0.00     0.065 A 
ATOM      8  C   UNL     1       2.131  -2.449   1.220  1.00  0.00     0.050 A 
ATOM      9  C   UNL     1       2.674  -3.554   1.882  1.00  0.00     0.029 A 
ATOM     10  C   UNL     1       3.959  -3.564   2.402  1.00  0.00     0.028 A 
ATOM     11  C   UNL     1       4.281  -1.355   1.629  1.00  0.00     0.042 A 
ATOM     12  C   UNL     1       4.837  -2.548   2.103  1.00  0.00     0.042 A 
BRANCH   8  13
ATOM     13  N   UNL     1       0.920  -2.626   0.552  1.00  0.00    -0.371 N 
BRANCH  13  14
ATOM     14  C   UNL     1       0.890  -2.623  -0.925  1.00  0.00     0.113 C 
ATOM     15  C   UNL     1       1.336  -1.328  -1.589  1.00  0.00     0.027 C 
ENDBRANCH  13  14
BRANCH  13  16
ATOM     16  C   UNL     1      -0.207  -3.282   1.254  1.00  0.00     0.113 C 
ATOM     17  C   UNL     1      -0.269  -4.796   1.147  1.00  0.00     0.027 C 
ENDBRANCH  13  16
ENDBRANCH   8  13
BRANCH  12  18
ATOM     18  N   UNL     1       6.236  -2.683   2.244  1.00  0.00    -0.322 N 
ATOM     19  C   UNL     1       7.035  -3.808   2.422  1.00  0.00     0.255 C 
ATOM     20  H   UNL     1       6.732  -1.833   2.209  1.00  0.00     0.170 HD
ATOM     21  O   UNL     1       8.245  -3.684   2.608  1.00  0.00    -0.269 OA
BRANCH  19  22
ATOM     22  C   UNL     1       6.472  -5.180   2.396  1.00  0.00     0.040 A 
ATOM     23  C   UNL     1       6.510  -5.935   3.572  1.00  0.00     0.017 A 
ATOM     24  C   UNL     1       5.797  -5.673   1.269  1.00  0.00     0.017 A 
ATOM     25  C   UNL     1       5.761  -7.113   3.660  1.00  0.00     0.047 A 
ATOM     26  C   UNL     1       5.032  -6.845   1.373  1.00  0.00     0.047 A 
ATOM     27  C   UNL     1       4.977  -7.540   2.584  1.00  0.00     0.118 A 
BRANCH  27  28
ATOM     28  O   UNL     1       4.204  -8.642   2.827  1.00  0.00    -0.497 OA
ATOM     29  C   UNL     1       3.010  -8.749   2.057  1.00  0.00     0.278 C 
ENDBRANCH  27  28
ENDBRANCH  19  22
ENDBRANCH  12  18
ENDBRANCH   4   7
ENDBRANCH   2   3
ENDBRANCH   1   2
BRANCH   1  30
ATOM     30  C   UNL     1      -1.976   1.299   1.134  1.00  0.00     0.023 C 
BRANCH  30  31
ATOM     31  C   UNL     1      -2.150   0.581  -0.207  1.00  0.00     0.116 C 
BRANCH  31  32
ATOM     32  N   UNL     1      -3.030  -0.581  -0.186  1.00  0.00    -0.352 N 
ATOM     33  C   UNL     1      -4.283  -0.785  -0.719  1.00  0.00     0.251 C 
ATOM     34  H   UNL     1      -2.662  -1.358   0.293  1.00  0.00     0.163 HD
ATOM     35  O   UNL     1      -4.833  -1.875  -0.572  1.00  0.00    -0.269 OA
BRANCH  33  36
ATOM     36  C   UNL     1      -5.014   0.307  -1.401  1.00  0.00     0.039 A 
ATOM     37  C   UNL     1      -6.336   0.558  -1.018  1.00  0.00     0.014 A 
ATOM     38  C   UNL     1      -4.420   1.097  -2.386  1.00  0.00     0.014 A 
ATOM     39  C   UNL     1      -7.006   1.679  -1.515  1.00  0.00     0.010 A 
ATOM     40  C   UNL     1      -5.059   2.260  -2.823  1.00  0.00     0.010 A 
ATOM     41  C   UNL     1      -6.344   2.584  -2.361  1.00  0.00    -0.014 A 
BRANCH  41  42
ATOM     42  C   UNL     1      -6.941   3.909  -2.683  1.00  0.00     0.031 A 
ATOM     43  C   UNL     1      -7.279   4.291  -4.096  1.00  0.00     0.074 A 
ATOM     44  C   UNL     1      -7.100   4.811  -1.692  1.00  0.00     0.049 A 
ATOM     45  N   UNL     1      -7.737   5.428  -4.558  1.00  0.00    -0.248 NA
ATOM     46  C   UNL     1      -7.057   3.270  -5.130  1.00  0.00     0.031 C 
ATOM     47  C   UNL     1      -6.762   4.588  -0.284  1.00  0.00     0.029 A 
ATOM     48  N   UNL     1      -7.574   6.101  -1.715  1.00  0.00    -0.354 N 
ATOM     49  C   UNL     1      -7.847   5.265  -5.932  1.00  0.00     0.074 A 
ATOM     50  C   UNL     1      -7.370   3.932  -6.236  1.00  0.00     0.031 C 
ATOM     51  C   UNL     1      -7.060   5.690   0.422  1.00  0.00     0.029 A 
ATOM     52  C   UNL     1      -7.565   6.715  -0.485  1.00  0.00     0.049 A 
ATOM     53  H   UNL     1      -7.890   6.544  -2.536  1.00  0.00     0.167 HD
ATOM     54  C   UNL     1      -8.320   6.141  -6.852  1.00  0.00     0.037 A 
ATOM     55  C   UNL     1      -7.910   7.966  -0.127  1.00  0.00     0.037 A 
ATOM     56  C   UNL     1      -8.813   7.461  -6.547  1.00  0.00     0.049 A 
ATOM     57  C   UNL     1      -8.410   8.922  -1.175  1.00  0.00     0.074 A 
ATOM     58  C   UNL     1      -9.379   8.388  -7.406  1.00  0.00     0.029 A 
ATOM     59  N   UNL     1      -8.790   8.045  -5.290  1.00  0.00    -0.354 N 
ATOM     60  N   UNL     1      -8.587   8.725  -2.458  1.00  0.00    -0.248 NA
ATOM     61  C   UNL     1      -8.760  10.277  -0.722  1.00  0.00     0.031 C 
ATOM     62  C   UNL     1      -9.649   9.552  -6.680  1.00  0.00     0.029 A 
ATOM     63  C   UNL     1      -9.303   9.332  -5.357  1.00  0.00     0.049 A 
ATOM     64  H   UNL     1      -8.460   7.611  -4.471  1.00  0.00     0.167 HD
ATOM     65  C   UNL     1      -9.091   9.917  -2.960  1.00  0.00     0.074 A 
ATOM     66  C   UNL     1      -9.212  10.826  -1.840  1.00  0.00     0.031 C 
ATOM     67  C   UNL     1      -9.422  10.229  -4.237  1.00  0.00     0.037 A 
BRANCH  54  68
ATOM     68  C   UNL     1      -8.334   5.706  -8.289  1.00  0.00     0.064 A 
ATOM     69  C   UNL     1      -9.235   4.738  -8.755  1.00  0.00     0.173 A 
ATOM     70  C   UNL     1      -7.485   6.317  -9.225  1.00  0.00     0.173 A 
ATOM     71  F   UNL     1     -10.063   4.119  -7.899  1.00  0.00    -0.203 F 
ATOM     72  C   UNL     1      -9.273   4.382 -10.100  1.00  0.00     0.198 A 
ATOM     73  C   UNL     1      -7.545   5.979 -10.575  1.00  0.00     0.198 A 
ATOM     74  F   UNL     1      -6.610   7.256  -8.835  1.00  0.00    -0.203 F 
ATOM     75  F   UNL     1     -10.117   3.428 -10.516  1.00  0.00    -0.200 F 
ATOM     76  C   UNL     1      -8.435   5.008 -11.010  1.00  0.00     0.200 A 
ATOM     77  F   UNL     1      -6.745   6.596 -11.455  1.00  0.00    -0.200 F 
ATOM     78  F   UNL     1      -8.482   4.675 -12.307  1.00  0.00    -0.200 F 
ENDBRANCH  54  68
BRANCH  55  79
ATOM     79  C   UNL     1      -7.806   8.392   1.294  1.00  0.00     0.064 A 
ATOM     80  C   UNL     1      -8.955   8.667   2.049  1.00  0.00     0.173 A 
ATOM     81  C   UNL     1      -6.561   8.556   1.920  1.00  0.00     0.173 A 
ATOM     82  F   UNL     1     -10.168   8.547   1.488  1.00  0.00    -0.203 F 
ATOM     83  C   UNL     1      -8.863   9.113   3.365  1.00  0.00     0.198 A 
ATOM     84  C   UNL     1      -6.471   8.972   3.246  1.00  0.00     0.198 A 
ATOM     85  F   UNL     1      -5.431   8.303   1.244  1.00  0.00    -0.203 F 
ATOM     86  F   UNL     1      -9.976   9.420   4.045  1.00  0.00    -0.200 F 
ATOM     87  C   UNL     1      -7.622   9.261   3.965  1.00  0.00     0.200 A 
ATOM     88  F   UNL     1      -5.270   9.099   3.826  1.00  0.00    -0.200 F 
ATOM     89  F   UNL     1      -7.534   9.690   5.231  1.00  0.00    -0.200 F 
ENDBRANCH  55  79
BRANCH  67  90
ATOM     90  C   UNL     1      -9.975  11.603  -4.488  1.00  0.00     0.064 A 
ATOM     91  C   UNL     1      -9.165  12.747  -4.416  1.00  0.00     0.173 A 
ATOM     92  C   UNL     1     -11.324  11.775  -4.834  1.00  0.00     0.173 A 
ATOM     93  F   UNL     1      -7.873  12.638  -4.072  1.00  0.00    -0.203 F 
ATOM     94  C   UNL     1      -9.693  14.013  -4.655  1.00  0.00     0.198 A 
ATOM     95  C   UNL     1     -11.840  13.040  -5.103  1.00  0.00     0.198 A 
ATOM     96  F   UNL     1     -12.140  10.714  -4.921  1.00  0.00    -0.203 F 
ATOM     97  F   UNL     1      -8.912  15.096  -4.530  1.00  0.00    -0.200 F 
ATOM     98  C   UNL     1     -11.027  14.158  -5.005  1.00  0.00     0.200 A 
ATOM     99  F   UNL     1     -13.126  13.176  -5.454  1.00  0.00    -0.200 F 
ATOM    100  F   UNL     1     -11.530  15.377  -5.240  1.00  0.00    -0.200 F 
ENDBRANCH  67  90
ENDBRANCH  41  42
ENDBRANCH  33  36
ENDBRANCH  31  32
ENDBRANCH  30  31
ENDBRANCH   1  30
TORSDOF 17
