REMARK SMILES Cc1ncc(CO)c([C@H]2[NH2+][C@@H](C(=O)NCCCCNC(=O)c3ccc(-c4c5nc(c(-c6c(F)c(F)c(F)c(F)c6F)c6ccc([nH]6)c(-c6c(F)c(F)c(F)c(F)c6F)c6nc(c(-c7c(F)c(F)c(F)c(F)c7F)c7ccc4[nH]7)C=C6)C=C5)cc3)Cc3[nH]cnc32)c1O
REMARK SMILES IDX 16 1 15 2 14 3 12 4 13 5 11 7 9 8 10 9 90 10 86 13 89 14
REMARK SMILES IDX 85 15 87 16 88 17 8 19 1 20 2 21 3 22 91 23 4 24 5 25 92 26
REMARK SMILES IDX 6 28 7 29 17 31 18 32 19 33 20 34 21 36 22 37 23 38 84 39
REMARK SMILES IDX 24 40 83 41 25 42 26 43 27 44 77 45 28 46 82 47 76 48 78 49
REMARK SMILES IDX 29 50 81 51 75 52 74 53 30 55 62 56 42 57 61 58 43 59 46 60
REMARK SMILES IDX 60 61 79 62 44 63 45 64 59 66 80 67 47 68 31 69 32 70 40 71
REMARK SMILES IDX 33 72 34 73 38 74 41 75 35 76 36 77 39 78 37 79 63 80 64 81
REMARK SMILES IDX 72 82 65 83 66 84 70 85 73 86 67 87 68 88 71 89 69 90 48 91
REMARK SMILES IDX 49 92 57 93 50 94 51 95 55 96 58 97 52 98 53 99 56 100
REMARK SMILES IDX 54 101
REMARK H PARENT 14 6 10 11 10 12 87 18 92 27 7 30 19 35 78 54 46 65
REMARK Flexibility Score: inf
ROOT
ATOM      1  C   UNL     1      -5.376   2.352   0.339  1.00  0.00     0.023 C 
ENDROOT
BRANCH   1   2
ATOM      2  C   UNL     1      -4.866   3.718   0.806  1.00  0.00     0.116 C 
BRANCH   2   3
ATOM      3  N   UNL     1      -4.192   3.678   2.096  1.00  0.00    -0.351 N 
ATOM      4  C   UNL     1      -2.875   3.898   2.417  1.00  0.00     0.278 C 
ATOM      5  O   UNL     1      -2.564   3.912   3.607  1.00  0.00    -0.268 OA
ATOM      6  H   UNL     1      -4.774   3.458   2.860  1.00  0.00     0.163 HD
BRANCH   4   7
ATOM      7  C   UNL     1      -1.855   4.047   1.283  1.00  0.00     0.279 C 
ATOM      8  C   UNL     1      -0.192   2.864   0.040  1.00  0.00     0.270 C 
ATOM      9  N   UNL     1      -0.810   2.990   1.387  1.00  0.00    -0.324 N 
ATOM     10  C   UNL     1       0.473   4.168  -0.292  1.00  0.00     0.124 A 
ATOM     11  H   UNL     1      -0.105   3.259   2.073  1.00  0.00     0.347 HD
ATOM     12  H   UNL     1      -1.214   2.103   1.688  1.00  0.00     0.347 HD
ATOM     13  C   UNL     1      -0.069   5.355   0.199  1.00  0.00     0.051 A 
ATOM     14  N   UNL     1       1.331   4.448  -1.326  1.00  0.00    -0.235 NA
ATOM     15  C   UNL     1      -1.198   5.447   1.189  1.00  0.00     0.131 C 
ATOM     16  N   UNL     1       0.528   6.362  -0.494  1.00  0.00    -0.348 N 
ATOM     17  C   UNL     1       1.365   5.765  -1.402  1.00  0.00     0.197 A 
ATOM     18  H   UNL     1       0.387   7.328  -0.368  1.00  0.00     0.167 HD
BRANCH   8  19
ATOM     19  C   UNL     1       0.450   1.511  -0.126  1.00  0.00     0.066 A 
ATOM     20  C   UNL     1      -1.169  -1.982  -0.116  1.00  0.00     0.071 C 
ATOM     21  C   UNL     1      -0.142  -0.889  -0.178  1.00  0.00     0.079 A 
ATOM     22  N   UNL     1       1.151  -1.252  -0.166  1.00  0.00    -0.257 NA
ATOM     23  C   UNL     1      -0.507   0.451  -0.203  1.00  0.00     0.146 A 
ATOM     24  C   UNL     1       2.068  -0.252  -0.116  1.00  0.00     0.118 A 
ATOM     25  C   UNL     1       1.794   1.128  -0.060  1.00  0.00     0.009 A 
BRANCH  23  26
ATOM     26  O   UNL     1      -1.854   0.749  -0.229  1.00  0.00    -0.505 OA
ATOM     27  H   UNL     1      -2.485   0.059  -0.280  1.00  0.00     0.293 HD
ENDBRANCH  23  26
BRANCH  25  28
ATOM     28  C   UNL     1       2.978   2.039   0.084  1.00  0.00     0.194 C 
BRANCH  28  29
ATOM     29  O   UNL     1       3.721   1.671   1.245  1.00  0.00    -0.392 OA
ATOM     30  H   UNL     1       3.155   1.747   2.029  1.00  0.00     0.211 HD
ENDBRANCH  28  29
ENDBRANCH  25  28
ENDBRANCH   8  19
ENDBRANCH   4   7
ENDBRANCH   2   3
ENDBRANCH   1   2
BRANCH   1  31
ATOM     31  C   UNL     1      -6.483   1.721   1.195  1.00  0.00     0.023 C 
BRANCH  31  32
ATOM     32  C   UNL     1      -7.733   2.576   1.366  1.00  0.00     0.116 C 
BRANCH  32  33
ATOM     33  N   UNL     1      -8.444   2.825   0.113  1.00  0.00    -0.352 N 
ATOM     34  C   UNL     1      -9.544   3.646  -0.085  1.00  0.00     0.251 C 
ATOM     35  H   UNL     1      -8.102   2.356  -0.683  1.00  0.00     0.163 HD
ATOM     36  O   UNL     1     -10.291   3.495  -1.033  1.00  0.00    -0.269 OA
BRANCH  34  37
ATOM     37  C   UNL     1      -9.779   4.731   0.885  1.00  0.00     0.039 A 
ATOM     38  C   UNL     1     -11.050   5.001   1.398  1.00  0.00     0.014 A 
ATOM     39  C   UNL     1      -8.668   5.451   1.310  1.00  0.00     0.014 A 
ATOM     40  C   UNL     1     -11.174   5.946   2.415  1.00  0.00     0.010 A 
ATOM     41  C   UNL     1      -8.765   6.256   2.413  1.00  0.00     0.010 A 
ATOM     42  C   UNL     1     -10.020   6.555   2.933  1.00  0.00    -0.014 A 
BRANCH  42  43
ATOM     43  C   UNL     1     -10.082   7.430   4.100  1.00  0.00     0.031 A 
ATOM     44  C   UNL     1     -10.683   6.812   5.317  1.00  0.00     0.074 A 
ATOM     45  C   UNL     1      -9.418   8.606   4.146  1.00  0.00     0.049 A 
ATOM     46  N   UNL     1     -11.737   7.190   5.960  1.00  0.00    -0.248 NA
ATOM     47  C   UNL     1     -10.103   5.554   5.820  1.00  0.00     0.031 C 
ATOM     48  C   UNL     1      -8.517   9.181   3.137  1.00  0.00     0.029 A 
ATOM     49  N   UNL     1      -9.309   9.492   5.172  1.00  0.00    -0.354 N 
ATOM     50  C   UNL     1     -11.853   6.336   7.056  1.00  0.00     0.074 A 
ATOM     51  C   UNL     1     -10.930   5.257   6.825  1.00  0.00     0.031 C 
ATOM     52  C   UNL     1      -7.777  10.164   3.694  1.00  0.00     0.029 A 
ATOM     53  C   UNL     1      -8.273  10.409   5.034  1.00  0.00     0.049 A 
ATOM     54  H   UNL     1      -9.913   9.485   5.949  1.00  0.00     0.167 HD
ATOM     55  C   UNL     1     -12.528   6.721   8.177  1.00  0.00     0.037 A 
ATOM     56  C   UNL     1      -7.834  11.289   5.968  1.00  0.00     0.037 A 
ATOM     57  C   UNL     1     -13.378   7.851   7.901  1.00  0.00     0.049 A 
ATOM     58  C   UNL     1      -8.912  11.432   6.976  1.00  0.00     0.074 A 
ATOM     59  C   UNL     1     -14.440   8.083   7.049  1.00  0.00     0.029 A 
ATOM     60  N   UNL     1     -12.937   9.092   8.288  1.00  0.00    -0.354 N 
ATOM     61  N   UNL     1     -10.068  11.983   6.727  1.00  0.00    -0.248 NA
ATOM     62  C   UNL     1      -8.878  10.541   8.126  1.00  0.00     0.031 C 
ATOM     63  C   UNL     1     -14.252   9.418   6.584  1.00  0.00     0.029 A 
ATOM     64  C   UNL     1     -13.137   9.946   7.236  1.00  0.00     0.049 A 
ATOM     65  H   UNL     1     -12.548   9.326   9.161  1.00  0.00     0.167 HD
ATOM     66  C   UNL     1     -10.986  11.186   7.393  1.00  0.00     0.074 A 
ATOM     67  C   UNL     1     -10.190  10.370   8.308  1.00  0.00     0.031 C 
ATOM     68  C   UNL     1     -12.264  11.055   6.931  1.00  0.00     0.037 A 
BRANCH  55  69
ATOM     69  C   UNL     1     -12.141   6.348   9.592  1.00  0.00     0.064 A 
ATOM     70  C   UNL     1     -12.972   6.762  10.656  1.00  0.00     0.173 A 
ATOM     71  C   UNL     1     -10.858   5.898   9.969  1.00  0.00     0.173 A 
ATOM     72  F   UNL     1     -14.213   7.214  10.419  1.00  0.00    -0.203 F 
ATOM     73  C   UNL     1     -12.512   6.823  11.975  1.00  0.00     0.198 A 
ATOM     74  C   UNL     1     -10.422   5.909  11.294  1.00  0.00     0.198 A 
ATOM     75  F   UNL     1      -9.933   5.539   9.073  1.00  0.00    -0.203 F 
ATOM     76  F   UNL     1     -13.289   7.360  12.925  1.00  0.00    -0.200 F 
ATOM     77  C   UNL     1     -11.233   6.407  12.291  1.00  0.00     0.200 A 
ATOM     78  F   UNL     1      -9.172   5.515  11.578  1.00  0.00    -0.200 F 
ATOM     79  F   UNL     1     -10.765   6.531  13.539  1.00  0.00    -0.200 F 
ENDBRANCH  55  69
BRANCH  56  80
ATOM     80  C   UNL     1      -6.453  11.771   6.205  1.00  0.00     0.064 A 
ATOM     81  C   UNL     1      -6.205  12.923   6.967  1.00  0.00     0.173 A 
ATOM     82  C   UNL     1      -5.339  10.956   5.922  1.00  0.00     0.173 A 
ATOM     83  F   UNL     1      -7.218  13.730   7.316  1.00  0.00    -0.203 F 
ATOM     84  C   UNL     1      -4.924  13.229   7.441  1.00  0.00     0.198 A 
ATOM     85  C   UNL     1      -4.060  11.264   6.390  1.00  0.00     0.198 A 
ATOM     86  F   UNL     1      -5.486   9.796   5.265  1.00  0.00    -0.203 F 
ATOM     87  F   UNL     1      -4.737  14.307   8.215  1.00  0.00    -0.200 F 
ATOM     88  C   UNL     1      -3.855  12.393   7.161  1.00  0.00     0.200 A 
ATOM     89  F   UNL     1      -3.042  10.429   6.141  1.00  0.00    -0.200 F 
ATOM     90  F   UNL     1      -2.640  12.653   7.664  1.00  0.00    -0.200 F 
ENDBRANCH  56  80
BRANCH  68  91
ATOM     91  C   UNL     1     -12.727  11.999   5.857  1.00  0.00     0.064 A 
ATOM     92  C   UNL     1     -12.183  12.055   4.561  1.00  0.00     0.173 A 
ATOM     93  C   UNL     1     -13.871  12.768   6.106  1.00  0.00     0.173 A 
ATOM     94  F   UNL     1     -11.150  11.280   4.211  1.00  0.00    -0.203 F 
ATOM     95  C   UNL     1     -12.739  12.871   3.577  1.00  0.00     0.198 A 
ATOM     96  C   UNL     1     -14.447  13.553   5.112  1.00  0.00     0.198 A 
ATOM     97  F   UNL     1     -14.466  12.714   7.309  1.00  0.00    -0.203 F 
ATOM     98  F   UNL     1     -12.196  12.911   2.351  1.00  0.00    -0.200 F 
ATOM     99  C   UNL     1     -13.876  13.612   3.851  1.00  0.00     0.200 A 
ATOM    100  F   UNL     1     -15.575  14.229   5.368  1.00  0.00    -0.200 F 
ATOM    101  F   UNL     1     -14.438  14.362   2.893  1.00  0.00    -0.200 F 
ENDBRANCH  68  91
ENDBRANCH  42  43
ENDBRANCH  34  37
ENDBRANCH  32  33
ENDBRANCH  31  32
ENDBRANCH   1  31
TORSDOF 15
