REMARK SMILES O=C(C[C@@H](C(=O)NCCCCNC(=O)c1ccc(-c2c3nc(c(-c4c(F)c(F)c(F)c(F)c4F)c4ccc([nH]4)c(-c4c(F)c(F)c(F)c(F)c4F)c4nc(c(-c5c(F)c(F)c(F)c(F)c5F)c5ccc2[nH]5)C=C4)C=C3)cc1)[NH+]1CCN(c2cccc(Cl)c2)CC1)c1ccc(F)cc1
REMARK SMILES IDX 9 1 8 2 7 3 5 4 6 5 4 7 3 8 2 9 1 10 91 11 92 12 97 13 93 14
REMARK SMILES IDX 96 15 94 16 95 17 78 18 79 19 90 20 80 22 89 23 81 24 82 25
REMARK SMILES IDX 83 26 88 27 84 28 86 29 85 30 87 31 10 32 11 33 12 34 13 35
REMARK SMILES IDX 14 37 15 38 16 39 77 40 17 41 76 42 18 43 19 44 20 45 70 46
REMARK SMILES IDX 21 47 75 48 69 49 71 50 22 51 74 52 68 53 67 54 23 56 55 57
REMARK SMILES IDX 35 58 54 59 36 60 39 61 53 62 72 63 37 64 38 65 52 67 73 68
REMARK SMILES IDX 40 69 24 70 25 71 33 72 26 73 27 74 31 75 34 76 28 77 29 78
REMARK SMILES IDX 32 79 30 80 56 81 57 82 65 83 58 84 59 85 63 86 66 87 60 88
REMARK SMILES IDX 61 89 64 90 62 91 41 92 42 93 50 94 43 95 44 96 48 97 51 98
REMARK SMILES IDX 45 99 46 100 49 101 47 102
REMARK H PARENT 7 6 78 21 12 36 71 55 39 66
REMARK Flexibility Score: inf
ROOT
ATOM      1  C   UNL     1       1.557  -2.374   0.940  1.00  0.00     0.023 C 
ENDROOT
BRANCH   1   2
ATOM      2  C   UNL     1       2.336  -1.698   2.072  1.00  0.00     0.116 C 
BRANCH   2   3
ATOM      3  N   UNL     1       3.740  -1.473   1.785  1.00  0.00    -0.351 N 
ATOM      4  C   UNL     1       4.463  -0.369   1.456  1.00  0.00     0.278 C 
ATOM      5  O   UNL     1       5.685  -0.548   1.395  1.00  0.00    -0.268 OA
ATOM      6  H   UNL     1       4.284  -2.292   1.840  1.00  0.00     0.163 HD
BRANCH   4   7
ATOM      7  C   UNL     1       3.803   1.014   1.161  1.00  0.00     0.282 C 
BRANCH   7   8
ATOM      8  C   UNL     1       3.304   1.249  -0.272  1.00  0.00     0.156 C 
BRANCH   8   9
ATOM      9  C   UNL     1       2.780   0.120  -1.127  1.00  0.00     0.169 C 
ATOM     10  O   UNL     1       1.569   0.025  -1.335  1.00  0.00    -0.294 OA
BRANCH   9  11
ATOM     11  C   UNL     1       3.713  -0.815  -1.836  1.00  0.00     0.018 A 
ATOM     12  C   UNL     1       5.090  -0.849  -1.597  1.00  0.00     0.015 A 
ATOM     13  C   UNL     1       3.165  -1.738  -2.741  1.00  0.00     0.015 A 
ATOM     14  C   UNL     1       5.885  -1.857  -2.147  1.00  0.00     0.040 A 
ATOM     15  C   UNL     1       3.966  -2.726  -3.321  1.00  0.00     0.040 A 
ATOM     16  C   UNL     1       5.314  -2.792  -2.997  1.00  0.00     0.123 A 
ATOM     17  F   UNL     1       6.072  -3.772  -3.506  1.00  0.00    -0.207 F 
ENDBRANCH   9  11
ENDBRANCH   8   9
ENDBRANCH   7   8
BRANCH   7  18
ATOM     18  N   UNL     1       4.729   2.085   1.638  1.00  0.00    -0.321 N 
ATOM     19  C   UNL     1       5.898   2.416   0.787  1.00  0.00     0.284 C 
ATOM     20  C   UNL     1       4.107   3.314   2.159  1.00  0.00     0.284 C 
ATOM     21  H   UNL     1       5.107   1.578   2.438  1.00  0.00     0.348 HD
ATOM     22  C   UNL     1       5.747   3.577  -0.233  1.00  0.00     0.178 C 
ATOM     23  C   UNL     1       3.847   4.445   1.133  1.00  0.00     0.178 C 
ATOM     24  N   UNL     1       5.068   4.717   0.376  1.00  0.00    -0.360 N 
BRANCH  24  25
ATOM     25  C   UNL     1       5.231   5.941  -0.247  1.00  0.00     0.038 A 
ATOM     26  C   UNL     1       4.727   6.218  -1.523  1.00  0.00     0.026 A 
ATOM     27  C   UNL     1       6.018   6.907   0.388  1.00  0.00     0.046 A 
ATOM     28  C   UNL     1       5.030   7.425  -2.164  1.00  0.00     0.004 A 
ATOM     29  C   UNL     1       6.327   8.104  -0.253  1.00  0.00     0.043 A 
ATOM     30  C   UNL     1       5.841   8.366  -1.531  1.00  0.00     0.020 A 
ATOM     31  Cl  UNL     1       7.346   9.248   0.530  1.00  0.00    -0.084 Cl
ENDBRANCH  24  25
ENDBRANCH   7  18
ENDBRANCH   4   7
ENDBRANCH   2   3
ENDBRANCH   1   2
BRANCH   1  32
ATOM     32  C   UNL     1       2.317  -3.413   0.110  1.00  0.00     0.023 C 
BRANCH  32  33
ATOM     33  C   UNL     1       2.399  -4.798   0.733  1.00  0.00     0.116 C 
BRANCH  33  34
ATOM     34  N   UNL     1       1.137  -5.503   0.616  1.00  0.00    -0.352 N 
ATOM     35  C   UNL     1       0.820  -6.668  -0.035  1.00  0.00     0.251 C 
ATOM     36  H   UNL     1       0.383  -5.074   1.081  1.00  0.00     0.163 HD
ATOM     37  O   UNL     1      -0.377  -6.944  -0.208  1.00  0.00    -0.269 OA
BRANCH  35  38
ATOM     38  C   UNL     1       1.852  -7.610  -0.532  1.00  0.00     0.039 A 
ATOM     39  C   UNL     1       1.564  -8.381  -1.664  1.00  0.00     0.014 A 
ATOM     40  C   UNL     1       3.054  -7.817   0.145  1.00  0.00     0.014 A 
ATOM     41  C   UNL     1       2.476  -9.336  -2.123  1.00  0.00     0.010 A 
ATOM     42  C   UNL     1       4.002  -8.711  -0.356  1.00  0.00     0.010 A 
ATOM     43  C   UNL     1       3.710  -9.502  -1.478  1.00  0.00    -0.014 A 
BRANCH  43  44
ATOM     44  C   UNL     1       4.681 -10.538  -1.917  1.00  0.00     0.031 A 
ATOM     45  C   UNL     1       5.025 -11.682  -1.001  1.00  0.00     0.074 A 
ATOM     46  C   UNL     1       5.299 -10.424  -3.107  1.00  0.00     0.049 A 
ATOM     47  N   UNL     1       5.914 -12.632  -1.153  1.00  0.00    -0.248 NA
ATOM     48  C   UNL     1       4.293 -11.746   0.274  1.00  0.00     0.031 C 
ATOM     49  C   UNL     1       5.091  -9.340  -4.066  1.00  0.00     0.029 A 
ATOM     50  N   UNL     1       6.241 -11.224  -3.705  1.00  0.00    -0.354 N 
ATOM     51  C   UNL     1       5.870 -13.381   0.016  1.00  0.00     0.074 A 
ATOM     52  C   UNL     1       4.900 -12.752   0.885  1.00  0.00     0.031 C 
ATOM     53  C   UNL     1       5.872  -9.548  -5.138  1.00  0.00     0.029 A 
ATOM     54  C   UNL     1       6.656 -10.762  -4.929  1.00  0.00     0.049 A 
ATOM     55  H   UNL     1       6.586 -12.050  -3.295  1.00  0.00     0.167 HD
ATOM     56  C   UNL     1       6.560 -14.505   0.329  1.00  0.00     0.037 A 
ATOM     57  C   UNL     1       7.571 -11.258  -5.783  1.00  0.00     0.037 A 
ATOM     58  C   UNL     1       7.489 -15.158  -0.555  1.00  0.00     0.049 A 
ATOM     59  C   UNL     1       8.295 -12.528  -5.435  1.00  0.00     0.074 A 
ATOM     60  C   UNL     1       8.179 -16.342  -0.363  1.00  0.00     0.029 A 
ATOM     61  N   UNL     1       7.852 -14.680  -1.806  1.00  0.00    -0.354 N 
ATOM     62  N   UNL     1       8.205 -13.259  -4.350  1.00  0.00    -0.248 NA
ATOM     63  C   UNL     1       9.243 -13.046  -6.431  1.00  0.00     0.031 C 
ATOM     64  C   UNL     1       8.984 -16.565  -1.486  1.00  0.00     0.029 A 
ATOM     65  C   UNL     1       8.769 -15.538  -2.392  1.00  0.00     0.049 A 
ATOM     66  H   UNL     1       7.509 -13.854  -2.216  1.00  0.00     0.167 HD
ATOM     67  C   UNL     1       9.072 -14.326  -4.536  1.00  0.00     0.074 A 
ATOM     68  C   UNL     1       9.666 -14.159  -5.847  1.00  0.00     0.031 C 
ATOM     69  C   UNL     1       9.353 -15.351  -3.695  1.00  0.00     0.037 A 
BRANCH  56  70
ATOM     70  C   UNL     1       6.329 -15.097   1.689  1.00  0.00     0.064 A 
ATOM     71  C   UNL     1       5.120 -15.726   2.023  1.00  0.00     0.173 A 
ATOM     72  C   UNL     1       7.332 -15.042   2.669  1.00  0.00     0.173 A 
ATOM     73  F   UNL     1       4.124 -15.793   1.126  1.00  0.00    -0.203 F 
ATOM     74  C   UNL     1       4.908 -16.242   3.299  1.00  0.00     0.198 A 
ATOM     75  C   UNL     1       7.127 -15.585   3.935  1.00  0.00     0.198 A 
ATOM     76  F   UNL     1       8.509 -14.459   2.400  1.00  0.00    -0.203 F 
ATOM     77  F   UNL     1       3.723 -16.784   3.613  1.00  0.00    -0.200 F 
ATOM     78  C   UNL     1       5.913 -16.175   4.252  1.00  0.00     0.200 A 
ATOM     79  F   UNL     1       8.103 -15.529   4.853  1.00  0.00    -0.200 F 
ATOM     80  F   UNL     1       5.707 -16.669   5.481  1.00  0.00    -0.200 F 
ENDBRANCH  56  70
BRANCH  57  81
ATOM     81  C   UNL     1       7.825 -10.558  -7.067  1.00  0.00     0.064 A 
ATOM     82  C   UNL     1       7.347 -11.081  -8.276  1.00  0.00     0.173 A 
ATOM     83  C   UNL     1       8.517  -9.339  -7.108  1.00  0.00     0.173 A 
ATOM     84  F   UNL     1       6.698 -12.255  -8.287  1.00  0.00    -0.203 F 
ATOM     85  C   UNL     1       7.555 -10.413  -9.480  1.00  0.00     0.198 A 
ATOM     86  C   UNL     1       8.706  -8.661  -8.310  1.00  0.00     0.198 A 
ATOM     87  F   UNL     1       8.990  -8.798  -5.976  1.00  0.00    -0.203 F 
ATOM     88  F   UNL     1       7.110 -10.947 -10.626  1.00  0.00    -0.200 F 
ATOM     89  C   UNL     1       8.227  -9.200  -9.495  1.00  0.00     0.200 A 
ATOM     90  F   UNL     1       9.345  -7.484  -8.320  1.00  0.00    -0.200 F 
ATOM     91  F   UNL     1       8.416  -8.551 -10.652  1.00  0.00    -0.200 F 
ENDBRANCH  57  81
BRANCH  69  92
ATOM     92  C   UNL     1      10.340 -16.375  -4.170  1.00  0.00     0.064 A 
ATOM     93  C   UNL     1      11.715 -16.101  -4.207  1.00  0.00     0.173 A 
ATOM     94  C   UNL     1       9.912 -17.655  -4.551  1.00  0.00     0.173 A 
ATOM     95  F   UNL     1      12.170 -14.886  -3.865  1.00  0.00    -0.203 F 
ATOM     96  C   UNL     1      12.624 -17.067  -4.627  1.00  0.00     0.198 A 
ATOM     97  C   UNL     1      10.826 -18.626  -4.949  1.00  0.00     0.198 A 
ATOM     98  F   UNL     1       8.607 -17.966  -4.528  1.00  0.00    -0.203 F 
ATOM     99  F   UNL     1      13.930 -16.773  -4.691  1.00  0.00    -0.200 F 
ATOM    100  C   UNL     1      12.180 -18.330  -4.992  1.00  0.00     0.200 A 
ATOM    101  F   UNL     1      10.397 -19.848  -5.293  1.00  0.00    -0.200 F 
ATOM    102  F   UNL     1      13.058 -19.261  -5.391  1.00  0.00    -0.200 F 
ENDBRANCH  69  92
ENDBRANCH  43  44
ENDBRANCH  35  38
ENDBRANCH  33  34
ENDBRANCH  32  33
ENDBRANCH   1  32
TORSDOF 16
