REMARK SMILES O=C(NCCCCNC(=O)c1ccc(S(=O)(=O)Nc2ccccc2I)cc1)c1ccc(-c2c3nc(c(-c4c(F)c(F)c(F)c(F)c4F)c4ccc([nH]4)c(-c4c(F)c(F)c(F)c(F)c4F)c4nc(c(-c5c(F)c(F)c(F)c(F)c5F)c5ccc2[nH]5)C=C4)C=C3)cc1
REMARK SMILES IDX 6 1 5 2 4 3 3 4 1 5 2 6 28 8 29 9 90 10 30 11 89 12 31 13
REMARK SMILES IDX 32 14 33 15 83 16 34 17 88 18 82 19 84 20 35 21 87 22 81 23
REMARK SMILES IDX 80 24 36 26 68 27 48 28 67 29 49 30 52 31 66 32 85 33 50 34
REMARK SMILES IDX 51 35 65 37 86 38 53 39 37 40 38 41 46 42 39 43 40 44 44 45
REMARK SMILES IDX 47 46 41 47 42 48 45 49 43 50 69 51 70 52 78 53 71 54 72 55
REMARK SMILES IDX 76 56 79 57 73 58 74 59 77 60 75 61 54 62 55 63 63 64 56 65
REMARK SMILES IDX 57 66 61 67 64 68 58 69 59 70 62 71 60 72 7 73 8 74 9 75
REMARK SMILES IDX 10 77 11 78 12 79 27 80 13 81 26 82 14 83 15 84 16 85 17 86
REMARK SMILES IDX 18 87 19 89 20 90 24 91 21 92 23 93 25 94 22 95
REMARK H PARENT 3 7 84 25 52 36 8 76 18 88
REMARK Flexibility Score: inf
ROOT
ATOM      1  C   UNL     1       4.466  -1.720  -3.405  1.00  0.00     0.023 C 
ENDROOT
BRANCH   1   2
ATOM      2  C   UNL     1       4.930  -1.645  -1.958  1.00  0.00     0.023 C 
BRANCH   2   3
ATOM      3  C   UNL     1       4.564  -0.360  -1.229  1.00  0.00     0.116 C 
BRANCH   3   4
ATOM      4  N   UNL     1       3.127  -0.147  -1.123  1.00  0.00    -0.352 N 
ATOM      5  O   UNL     1       1.119   0.006  -0.096  1.00  0.00    -0.269 OA
ATOM      6  C   UNL     1       2.341  -0.048   0.001  1.00  0.00     0.251 C 
ATOM      7  H   UNL     1       2.649  -0.062  -1.980  1.00  0.00     0.163 HD
BRANCH   6   8
ATOM      8  C   UNL     1       2.978  -0.037   1.334  1.00  0.00     0.039 A 
ATOM      9  C   UNL     1       4.088   0.773   1.576  1.00  0.00     0.014 A 
ATOM     10  C   UNL     1       2.480  -0.870   2.339  1.00  0.00     0.014 A 
ATOM     11  C   UNL     1       4.804   0.622   2.755  1.00  0.00     0.010 A 
ATOM     12  C   UNL     1       3.143  -0.944   3.567  1.00  0.00     0.010 A 
ATOM     13  C   UNL     1       4.332  -0.227   3.770  1.00  0.00    -0.014 A 
BRANCH  13  14
ATOM     14  C   UNL     1       5.071  -0.292   5.055  1.00  0.00     0.031 A 
ATOM     15  C   UNL     1       5.728  -1.562   5.518  1.00  0.00     0.074 A 
ATOM     16  C   UNL     1       5.172   0.832   5.791  1.00  0.00     0.049 A 
ATOM     17  N   UNL     1       6.422  -1.780   6.607  1.00  0.00    -0.248 NA
ATOM     18  C   UNL     1       5.586  -2.743   4.653  1.00  0.00     0.031 C 
ATOM     19  C   UNL     1       4.567   2.120   5.442  1.00  0.00     0.029 A 
ATOM     20  N   UNL     1       5.831   1.082   6.966  1.00  0.00    -0.354 N 
ATOM     21  C   UNL     1       6.781  -3.121   6.570  1.00  0.00     0.074 A 
ATOM     22  C   UNL     1       6.209  -3.675   5.361  1.00  0.00     0.031 C 
ATOM     23  C   UNL     1       4.922   3.034   6.354  1.00  0.00     0.029 A 
ATOM     24  C   UNL     1       5.720   2.384   7.387  1.00  0.00     0.049 A 
ATOM     25  H   UNL     1       6.335   0.396   7.460  1.00  0.00     0.167 HD
ATOM     26  C   UNL     1       7.526  -3.819   7.461  1.00  0.00     0.037 A 
ATOM     27  C   UNL     1       6.190   2.987   8.494  1.00  0.00     0.037 A 
ATOM     28  C   UNL     1       8.106  -3.253   8.654  1.00  0.00     0.049 A 
ATOM     29  C   UNL     1       6.991   2.181   9.474  1.00  0.00     0.074 A 
ATOM     30  C   UNL     1       8.905  -3.869   9.602  1.00  0.00     0.029 A 
ATOM     31  N   UNL     1       7.944  -1.937   9.065  1.00  0.00    -0.354 N 
ATOM     32  N   UNL     1       7.346   0.921   9.412  1.00  0.00    -0.248 NA
ATOM     33  C   UNL     1       7.451   2.880  10.680  1.00  0.00     0.031 C 
ATOM     34  C   UNL     1       9.187  -2.940  10.609  1.00  0.00     0.029 A 
ATOM     35  C   UNL     1       8.608  -1.730  10.264  1.00  0.00     0.049 A 
ATOM     36  H   UNL     1       7.433  -1.252   8.576  1.00  0.00     0.167 HD
ATOM     37  C   UNL     1       8.083   0.678  10.561  1.00  0.00     0.074 A 
ATOM     38  C   UNL     1       8.143   1.929  11.291  1.00  0.00     0.031 C 
ATOM     39  C   UNL     1       8.655  -0.478  10.977  1.00  0.00     0.037 A 
BRANCH  26  40
ATOM     40  C   UNL     1       7.748  -5.281   7.196  1.00  0.00     0.064 A 
ATOM     41  C   UNL     1       8.595  -5.725   6.170  1.00  0.00     0.173 A 
ATOM     42  C   UNL     1       7.149  -6.250   8.016  1.00  0.00     0.173 A 
ATOM     43  F   UNL     1       9.186  -4.842   5.352  1.00  0.00    -0.203 F 
ATOM     44  C   UNL     1       8.817  -7.085   5.962  1.00  0.00     0.198 A 
ATOM     45  C   UNL     1       7.394  -7.607   7.822  1.00  0.00     0.198 A 
ATOM     46  F   UNL     1       6.335  -5.879   9.017  1.00  0.00    -0.203 F 
ATOM     47  F   UNL     1       9.600  -7.488   4.951  1.00  0.00    -0.200 F 
ATOM     48  C   UNL     1       8.223  -8.024   6.792  1.00  0.00     0.200 A 
ATOM     49  F   UNL     1       6.828  -8.511   8.633  1.00  0.00    -0.200 F 
ATOM     50  F   UNL     1       8.445  -9.331   6.596  1.00  0.00    -0.200 F 
ENDBRANCH  26  40
BRANCH  27  51
ATOM     51  C   UNL     1       5.902   4.425   8.725  1.00  0.00     0.064 A 
ATOM     52  C   UNL     1       6.922   5.383   8.666  1.00  0.00     0.173 A 
ATOM     53  C   UNL     1       4.598   4.871   8.988  1.00  0.00     0.173 A 
ATOM     54  F   UNL     1       8.187   5.003   8.434  1.00  0.00    -0.203 F 
ATOM     55  C   UNL     1       6.650   6.734   8.874  1.00  0.00     0.198 A 
ATOM     56  C   UNL     1       4.323   6.224   9.165  1.00  0.00     0.198 A 
ATOM     57  F   UNL     1       3.587   3.992   9.047  1.00  0.00    -0.203 F 
ATOM     58  F   UNL     1       7.648   7.627   8.850  1.00  0.00    -0.200 F 
ATOM     59  C   UNL     1       5.350   7.154   9.115  1.00  0.00     0.200 A 
ATOM     60  F   UNL     1       3.063   6.626   9.377  1.00  0.00    -0.200 F 
ATOM     61  F   UNL     1       5.088   8.454   9.303  1.00  0.00    -0.200 F 
ENDBRANCH  27  51
BRANCH  39  62
ATOM     62  C   UNL     1       9.415  -0.433  12.269  1.00  0.00     0.064 A 
ATOM     63  C   UNL     1       8.758  -0.325  13.504  1.00  0.00     0.173 A 
ATOM     64  C   UNL     1      10.815  -0.519  12.274  1.00  0.00     0.173 A 
ATOM     65  F   UNL     1       7.421  -0.221  13.550  1.00  0.00    -0.203 F 
ATOM     66  C   UNL     1       9.477  -0.278  14.694  1.00  0.00     0.198 A 
ATOM     67  C   UNL     1      11.529  -0.501  13.468  1.00  0.00     0.198 A 
ATOM     68  F   UNL     1      11.490  -0.627  11.119  1.00  0.00    -0.203 F 
ATOM     69  F   UNL     1       8.832  -0.122  15.859  1.00  0.00    -0.200 F 
ATOM     70  C   UNL     1      10.861  -0.372  14.676  1.00  0.00     0.200 A 
ATOM     71  F   UNL     1      12.865  -0.603  13.450  1.00  0.00    -0.200 F 
ATOM     72  F   UNL     1      11.551  -0.329  15.824  1.00  0.00    -0.200 F 
ENDBRANCH  39  62
ENDBRANCH  13  14
ENDBRANCH   6   8
ENDBRANCH   3   4
ENDBRANCH   2   3
ENDBRANCH   1   2
BRANCH   1  73
ATOM     73  C   UNL     1       4.846  -0.530  -4.271  1.00  0.00     0.116 C 
BRANCH  73  74
ATOM     74  N   UNL     1       6.282  -0.321  -4.401  1.00  0.00    -0.352 N 
ATOM     75  C   UNL     1       7.022  -0.034  -5.530  1.00  0.00     0.251 C 
ATOM     76  H   UNL     1       6.797  -0.394  -3.566  1.00  0.00     0.163 HD
ATOM     77  O   UNL     1       8.246   0.012  -5.467  1.00  0.00    -0.269 OA
BRANCH  75  78
ATOM     78  C   UNL     1       6.337   0.191  -6.825  1.00  0.00     0.039 A 
ATOM     79  C   UNL     1       6.853  -0.369  -8.000  1.00  0.00     0.015 A 
ATOM     80  C   UNL     1       5.145   0.909  -6.870  1.00  0.00     0.015 A 
ATOM     81  C   UNL     1       6.139  -0.252  -9.202  1.00  0.00     0.023 A 
ATOM     82  C   UNL     1       4.373   0.891  -8.022  1.00  0.00     0.023 A 
ATOM     83  C   UNL     1       4.884   0.374  -9.209  1.00  0.00     0.087 A 
BRANCH  83  84
ATOM     84  S   UNL     1       3.905   0.390 -10.693  1.00  0.00     0.261 S 
ATOM     85  O   UNL     1       4.791   0.120 -11.805  1.00  0.00    -0.201 OA
ATOM     86  O   UNL     1       2.767  -0.472 -10.441  1.00  0.00    -0.201 OA
BRANCH  84  87
ATOM     87  N   UNL     1       3.260   1.945 -10.992  1.00  0.00    -0.279 N 
ATOM     88  H   UNL     1       3.162   2.264 -11.918  1.00  0.00     0.180 HD
BRANCH  87  89
ATOM     89  C   UNL     1       2.858   2.789  -9.898  1.00  0.00     0.062 A 
ATOM     90  C   UNL     1       1.605   2.596  -9.296  1.00  0.00     0.028 A 
ATOM     91  C   UNL     1       3.744   3.736  -9.355  1.00  0.00     0.037 A 
ATOM     92  C   UNL     1       1.256   3.320  -8.150  1.00  0.00     0.002 A 
ATOM     93  C   UNL     1       3.392   4.450  -8.203  1.00  0.00     0.017 A 
ATOM     94  I   UNL     1       5.624   4.129 -10.200  1.00  0.00    -0.042 I 
ATOM     95  C   UNL     1       2.152   4.236  -7.599  1.00  0.00     0.001 A 
ENDBRANCH  87  89
ENDBRANCH  84  87
ENDBRANCH  83  84
ENDBRANCH  75  78
ENDBRANCH  73  74
ENDBRANCH   1  73
TORSDOF 14
