REMARK SMILES O=C(NCCCCNC(=O)[C@@H]1Nc2c(cccc2C(F)(F)F)[C@@H]2C=CC[C@@H]12)c1ccc(-c2c3nc(c(-c4c(F)c(F)c(F)c(F)c4F)c4ccc([nH]4)c(-c4c(F)c(F)c(F)c(F)c4F)c4nc(c(-c5c(F)c(F)c(F)c(F)c5F)c5ccc2[nH]5)C=C4)C=C3)cc1
REMARK SMILES IDX 5 1 4 2 3 3 1 4 2 5 28 7 29 8 90 9 30 10 89 11 31 12 32 13
REMARK SMILES IDX 33 14 83 15 34 16 88 17 82 18 84 19 35 20 87 21 81 22 80 23
REMARK SMILES IDX 36 25 68 26 48 27 67 28 49 29 52 30 66 31 85 32 50 33 51 34
REMARK SMILES IDX 65 36 86 37 53 38 37 39 38 40 46 41 39 42 40 43 44 44 47 45
REMARK SMILES IDX 41 46 42 47 45 48 43 49 69 50 70 51 78 52 71 53 72 54 76 55
REMARK SMILES IDX 79 56 73 57 74 58 77 59 75 60 54 61 55 62 63 63 56 64 57 65
REMARK SMILES IDX 61 66 64 67 58 68 59 69 62 70 60 71 6 72 7 73 8 74 9 75
REMARK SMILES IDX 10 77 11 78 12 79 27 80 13 81 23 83 26 84 14 85 18 86 24 87
REMARK SMILES IDX 25 88 15 89 17 90 16 91 19 92 20 93 21 94 22 95
REMARK H PARENT 3 6 84 24 52 35 8 76 12 82
REMARK Flexibility Score: inf
ROOT
ATOM      1  C   UNL     1       6.146  -4.016  10.387  1.00  0.00     0.023 C 
ENDROOT
BRANCH   1   2
ATOM      2  C   UNL     1       4.912  -4.373  11.201  1.00  0.00     0.116 C 
BRANCH   2   3
ATOM      3  N   UNL     1       4.922  -5.759  11.639  1.00  0.00    -0.352 N 
ATOM      4  O   UNL     1       4.780  -7.461  13.107  1.00  0.00    -0.269 OA
ATOM      5  C   UNL     1       4.555  -6.283  12.850  1.00  0.00     0.251 C 
ATOM      6  H   UNL     1       5.237  -6.411  10.973  1.00  0.00     0.163 HD
BRANCH   5   7
ATOM      7  C   UNL     1       3.890  -5.425  13.850  1.00  0.00     0.039 A 
ATOM      8  C   UNL     1       4.262  -5.545  15.192  1.00  0.00     0.014 A 
ATOM      9  C   UNL     1       2.865  -4.552  13.474  1.00  0.00     0.014 A 
ATOM     10  C   UNL     1       3.607  -4.785  16.160  1.00  0.00     0.010 A 
ATOM     11  C   UNL     1       2.261  -3.744  14.428  1.00  0.00     0.010 A 
ATOM     12  C   UNL     1       2.600  -3.884  15.782  1.00  0.00    -0.014 A 
BRANCH  12  13
ATOM     13  C   UNL     1       1.787  -3.172  16.792  1.00  0.00     0.031 A 
ATOM     14  C   UNL     1       0.341  -3.545  16.951  1.00  0.00     0.074 A 
ATOM     15  C   UNL     1       2.327  -2.191  17.534  1.00  0.00     0.049 A 
ATOM     16  N   UNL     1      -0.589  -2.984  17.680  1.00  0.00    -0.248 NA
ATOM     17  C   UNL     1      -0.129  -4.694  16.158  1.00  0.00     0.031 C 
ATOM     18  C   UNL     1       3.721  -1.756  17.476  1.00  0.00     0.029 A 
ATOM     19  N   UNL     1       1.759  -1.383  18.484  1.00  0.00    -0.354 N 
ATOM     20  C   UNL     1      -1.749  -3.701  17.422  1.00  0.00     0.074 A 
ATOM     21  C   UNL     1      -1.425  -4.696  16.425  1.00  0.00     0.031 C 
ATOM     22  C   UNL     1       3.909  -0.779  18.378  1.00  0.00     0.029 A 
ATOM     23  C   UNL     1       2.640  -0.493  19.043  1.00  0.00     0.049 A 
ATOM     24  H   UNL     1       0.810  -1.437  18.742  1.00  0.00     0.167 HD
ATOM     25  C   UNL     1      -2.970  -3.562  17.990  1.00  0.00     0.037 A 
ATOM     26  C   UNL     1       2.438   0.448  19.984  1.00  0.00     0.037 A 
ATOM     27  C   UNL     1      -3.281  -2.582  18.995  1.00  0.00     0.049 A 
ATOM     28  C   UNL     1       1.060   0.625  20.559  1.00  0.00     0.074 A 
ATOM     29  C   UNL     1      -4.484  -2.352  19.638  1.00  0.00     0.029 A 
ATOM     30  N   UNL     1      -2.370  -1.670  19.510  1.00  0.00    -0.354 N 
ATOM     31  N   UNL     1      -0.038  -0.045  20.302  1.00  0.00    -0.248 NA
ATOM     32  C   UNL     1       0.892   1.695  21.552  1.00  0.00     0.031 C 
ATOM     33  C   UNL     1      -4.309  -1.280  20.519  1.00  0.00     0.029 A 
ATOM     34  C   UNL     1      -2.986  -0.869  20.457  1.00  0.00     0.049 A 
ATOM     35  H   UNL     1      -1.425  -1.602  19.242  1.00  0.00     0.167 HD
ATOM     36  C   UNL     1      -1.022   0.507  21.110  1.00  0.00     0.074 A 
ATOM     37  C   UNL     1      -0.386   1.558  21.880  1.00  0.00     0.031 C 
ATOM     38  C   UNL     1      -2.334   0.176  21.206  1.00  0.00     0.037 A 
BRANCH  25  39
ATOM     39  C   UNL     1      -4.049  -4.499  17.530  1.00  0.00     0.064 A 
ATOM     40  C   UNL     1      -4.010  -5.868  17.840  1.00  0.00     0.173 A 
ATOM     41  C   UNL     1      -5.129  -4.030  16.768  1.00  0.00     0.173 A 
ATOM     42  F   UNL     1      -2.988  -6.371  18.549  1.00  0.00    -0.203 F 
ATOM     43  C   UNL     1      -4.992  -6.738  17.373  1.00  0.00     0.198 A 
ATOM     44  C   UNL     1      -6.126  -4.898  16.330  1.00  0.00     0.198 A 
ATOM     45  F   UNL     1      -5.215  -2.732  16.444  1.00  0.00    -0.203 F 
ATOM     46  F   UNL     1      -4.898  -8.050  17.629  1.00  0.00    -0.200 F 
ATOM     47  C   UNL     1      -6.052  -6.251  16.623  1.00  0.00     0.200 A 
ATOM     48  F   UNL     1      -7.156  -4.426  15.613  1.00  0.00    -0.200 F 
ATOM     49  F   UNL     1      -6.996  -7.089  16.174  1.00  0.00    -0.200 F 
ENDBRANCH  25  39
BRANCH  26  50
ATOM     50  C   UNL     1       3.584   1.257  20.466  1.00  0.00     0.064 A 
ATOM     51  C   UNL     1       4.121   1.036  21.742  1.00  0.00     0.173 A 
ATOM     52  C   UNL     1       4.193   2.228  19.659  1.00  0.00     0.173 A 
ATOM     53  F   UNL     1       3.558   0.131  22.556  1.00  0.00    -0.203 F 
ATOM     54  C   UNL     1       5.225   1.755  22.193  1.00  0.00     0.198 A 
ATOM     55  C   UNL     1       5.311   2.932  20.103  1.00  0.00     0.198 A 
ATOM     56  F   UNL     1       3.718   2.475  18.430  1.00  0.00    -0.203 F 
ATOM     57  F   UNL     1       5.706   1.538  23.424  1.00  0.00    -0.200 F 
ATOM     58  C   UNL     1       5.825   2.696  21.369  1.00  0.00     0.200 A 
ATOM     59  F   UNL     1       5.897   3.830  19.300  1.00  0.00    -0.200 F 
ATOM     60  F   UNL     1       6.898   3.375  21.797  1.00  0.00    -0.200 F 
ENDBRANCH  26  50
BRANCH  38  61
ATOM     61  C   UNL     1      -3.166   0.948  22.187  1.00  0.00     0.064 A 
ATOM     62  C   UNL     1      -3.544   2.276  21.940  1.00  0.00     0.173 A 
ATOM     63  C   UNL     1      -3.633   0.337  23.361  1.00  0.00     0.173 A 
ATOM     64  F   UNL     1      -3.112   2.907  20.838  1.00  0.00    -0.203 F 
ATOM     65  C   UNL     1      -4.342   2.971  22.845  1.00  0.00     0.198 A 
ATOM     66  C   UNL     1      -4.454   1.026  24.248  1.00  0.00     0.198 A 
ATOM     67  F   UNL     1      -3.305  -0.934  23.638  1.00  0.00    -0.203 F 
ATOM     68  F   UNL     1      -4.657   4.253  22.610  1.00  0.00    -0.200 F 
ATOM     69  C   UNL     1      -4.803   2.344  23.993  1.00  0.00     0.200 A 
ATOM     70  F   UNL     1      -4.910   0.415  25.350  1.00  0.00    -0.200 F 
ATOM     71  F   UNL     1      -5.579   3.012  24.858  1.00  0.00    -0.200 F 
ENDBRANCH  38  61
ENDBRANCH  12  13
ENDBRANCH   5   7
ENDBRANCH   2   3
ENDBRANCH   1   2
BRANCH   1  72
ATOM     72  C   UNL     1       6.327  -4.854   9.121  1.00  0.00     0.023 C 
BRANCH  72  73
ATOM     73  C   UNL     1       5.252  -4.637   8.053  1.00  0.00     0.116 C 
BRANCH  73  74
ATOM     74  N   UNL     1       5.410  -3.347   7.410  1.00  0.00    -0.354 N 
ATOM     75  C   UNL     1       6.043  -3.008   6.249  1.00  0.00     0.242 C 
ATOM     76  H   UNL     1       4.994  -2.594   7.888  1.00  0.00     0.163 HD
ATOM     77  O   UNL     1       6.081  -1.806   5.966  1.00  0.00    -0.273 OA
BRANCH  75  78
ATOM     78  C   UNL     1       6.649  -4.056   5.286  1.00  0.00     0.173 C 
ATOM     79  N   UNL     1       5.580  -4.904   4.724  1.00  0.00    -0.373 N 
ATOM     80  C   UNL     1       7.717  -4.936   5.897  1.00  0.00     0.036 C 
ATOM     81  C   UNL     1       5.809  -6.190   4.241  1.00  0.00     0.051 A 
ATOM     82  H   UNL     1       4.664  -4.545   4.689  1.00  0.00     0.161 HD
ATOM     83  C   UNL     1       8.230  -5.907   4.834  1.00  0.00     0.049 C 
ATOM     84  C   UNL     1       8.993  -4.304   6.442  1.00  0.00     0.034 C 
ATOM     85  C   UNL     1       7.095  -6.785   4.375  1.00  0.00    -0.017 A 
ATOM     86  C   UNL     1       4.771  -6.948   3.664  1.00  0.00     0.079 A 
ATOM     87  C   UNL     1       9.417  -6.449   5.578  1.00  0.00    -0.023 C 
ATOM     88  C   UNL     1       9.869  -5.529   6.449  1.00  0.00    -0.030 C 
ATOM     89  C   UNL     1       7.321  -8.099   3.943  1.00  0.00     0.006 A 
ATOM     90  C   UNL     1       5.026  -8.272   3.247  1.00  0.00     0.015 A 
ATOM     91  C   UNL     1       6.286  -8.844   3.392  1.00  0.00     0.001 A 
BRANCH  86  92
ATOM     92  C   UNL     1       3.382  -6.410   3.421  1.00  0.00     0.418 C 
ATOM     93  F   UNL     1       3.055  -6.405   2.095  1.00  0.00    -0.166 F 
ATOM     94  F   UNL     1       2.418  -7.159   4.030  1.00  0.00    -0.166 F 
ATOM     95  F   UNL     1       3.173  -5.130   3.849  1.00  0.00    -0.166 F 
ENDBRANCH  86  92
ENDBRANCH  75  78
ENDBRANCH  73  74
ENDBRANCH  72  73
ENDBRANCH   1  72
TORSDOF 12
