REMARK SMILES Cc1cc(C[N@@H+]2CC[C@@H](C(=O)NCCCCNC(=O)c3ccc(-c4c5nc(c(-c6c(F)c(F)c(F)c(F)c6F)c6ccc([nH]6)c(-c6c(F)c(F)c(F)c(F)c6F)c6nc(c(-c7c(F)c(F)c(F)c(F)c7F)c7ccc4[nH]7)C=C6)C=C5)cc3)C2)ccc1Br
REMARK SMILES IDX 14 1 13 2 12 3 10 4 11 5 9 7 6 8 7 9 83 10 8 12 5 13 4 14
REMARK SMILES IDX 1 15 2 16 3 17 86 18 85 19 87 20 84 21 15 22 16 23 17 24
REMARK SMILES IDX 18 25 19 27 20 28 21 29 82 30 22 31 81 32 23 33 24 34 25 35
REMARK SMILES IDX 75 36 26 37 80 38 74 39 76 40 27 41 79 42 73 43 72 44 28 46
REMARK SMILES IDX 60 47 40 48 59 49 41 50 44 51 58 52 77 53 42 54 43 55 57 57
REMARK SMILES IDX 78 58 45 59 29 60 30 61 38 62 31 63 32 64 36 65 39 66 33 67
REMARK SMILES IDX 34 68 37 69 35 70 61 71 62 72 70 73 63 74 64 75 68 76 71 77
REMARK SMILES IDX 65 78 66 79 69 80 67 81 46 82 47 83 55 84 48 85 49 86 53 87
REMARK SMILES IDX 56 88 50 89 51 90 54 91 52 92
REMARK H PARENT 12 6 6 11 17 26 76 45 44 56
REMARK Flexibility Score: inf
ROOT
ATOM      1  C   UNL     1       7.043   3.740  -3.652  1.00  0.00     0.023 C 
ENDROOT
BRANCH   1   2
ATOM      2  C   UNL     1       5.537   3.676  -3.466  1.00  0.00     0.116 C 
BRANCH   2   3
ATOM      3  N   UNL     1       4.849   2.790  -4.372  1.00  0.00    -0.356 N 
ATOM      4  C   UNL     1       3.902   1.846  -4.094  1.00  0.00     0.229 C 
ATOM      5  O   UNL     1       3.392   1.269  -5.059  1.00  0.00    -0.275 OA
ATOM      6  H   UNL     1       5.095   2.878  -5.321  1.00  0.00     0.163 HD
BRANCH   4   7
ATOM      7  C   UNL     1       3.512   1.443  -2.669  1.00  0.00     0.139 C 
ATOM      8  N   UNL     1       4.693   1.054  -0.601  1.00  0.00    -0.330 N 
ATOM      9  C   UNL     1       4.168   2.412  -0.533  1.00  0.00     0.263 C 
ATOM     10  C   UNL     1       4.585   0.598  -1.992  1.00  0.00     0.276 C 
ATOM     11  H   UNL     1       5.680   1.067  -0.342  1.00  0.00     0.348 HD
ATOM     12  C   UNL     1       3.168   2.553  -1.680  1.00  0.00     0.081 C 
BRANCH   8  13
ATOM     13  C   UNL     1       4.191   0.129   0.421  1.00  0.00     0.299 C 
BRANCH  13  14
ATOM     14  C   UNL     1       2.691  -0.068   0.506  1.00  0.00     0.007 A 
ATOM     15  C   UNL     1       0.110  -2.721  -0.396  1.00  0.00     0.045 C 
ATOM     16  C   UNL     1       0.697  -1.419   0.071  1.00  0.00    -0.036 A 
ATOM     17  C   UNL     1       2.091  -1.235   0.013  1.00  0.00     0.014 A 
ATOM     18  C   UNL     1      -0.102  -0.375   0.560  1.00  0.00     0.020 A 
ATOM     19  C   UNL     1       0.484   0.774   1.085  1.00  0.00     0.016 A 
ATOM     20  Br  UNL     1      -1.999  -0.453   0.542  1.00  0.00    -0.051 Br
ATOM     21  C   UNL     1       1.871   0.901   1.099  1.00  0.00     0.011 A 
ENDBRANCH  13  14
ENDBRANCH   8  13
ENDBRANCH   4   7
ENDBRANCH   2   3
ENDBRANCH   1   2
BRANCH   1  22
ATOM     22  C   UNL     1       7.530   4.819  -4.608  1.00  0.00     0.023 C 
BRANCH  22  23
ATOM     23  C   UNL     1       7.033   6.232  -4.323  1.00  0.00     0.116 C 
BRANCH  23  24
ATOM     24  N   UNL     1       7.307   6.718  -2.975  1.00  0.00    -0.352 N 
ATOM     25  C   UNL     1       7.671   7.992  -2.598  1.00  0.00     0.251 C 
ATOM     26  H   UNL     1       7.222   6.057  -2.250  1.00  0.00     0.163 HD
ATOM     27  O   UNL     1       7.915   8.267  -1.428  1.00  0.00    -0.269 OA
BRANCH  25  28
ATOM     28  C   UNL     1       7.813   9.016  -3.650  1.00  0.00     0.039 A 
ATOM     29  C   UNL     1       9.047   9.647  -3.818  1.00  0.00     0.014 A 
ATOM     30  C   UNL     1       6.767   9.239  -4.548  1.00  0.00     0.014 A 
ATOM     31  C   UNL     1       9.265  10.433  -4.950  1.00  0.00     0.010 A 
ATOM     32  C   UNL     1       7.013   9.953  -5.714  1.00  0.00     0.010 A 
ATOM     33  C   UNL     1       8.267  10.547  -5.933  1.00  0.00    -0.014 A 
BRANCH  33  34
ATOM     34  C   UNL     1       8.507  11.278  -7.202  1.00  0.00     0.031 A 
ATOM     35  C   UNL     1       7.685  12.492  -7.529  1.00  0.00     0.074 A 
ATOM     36  C   UNL     1       9.395  10.800  -8.097  1.00  0.00     0.049 A 
ATOM     37  N   UNL     1       7.658  13.205  -8.626  1.00  0.00    -0.248 NA
ATOM     38  C   UNL     1       6.738  12.942  -6.496  1.00  0.00     0.031 C 
ATOM     39  C   UNL     1      10.211   9.598  -7.924  1.00  0.00     0.029 A 
ATOM     40  N   UNL     1       9.746  11.262  -9.341  1.00  0.00    -0.354 N 
ATOM     41  C   UNL     1       6.678  14.166  -8.424  1.00  0.00     0.074 A 
ATOM     42  C   UNL     1       6.095  13.914  -7.124  1.00  0.00     0.031 C 
ATOM     43  C   UNL     1      10.983   9.429  -9.010  1.00  0.00     0.029 A 
ATOM     44  C   UNL     1      10.692  10.489  -9.971  1.00  0.00     0.049 A 
ATOM     45  H   UNL     1       9.357  12.071  -9.745  1.00  0.00     0.167 HD
ATOM     46  C   UNL     1       6.314  15.185  -9.238  1.00  0.00     0.037 A 
ATOM     47  C   UNL     1      11.255  10.619 -11.187  1.00  0.00     0.037 A 
ATOM     48  C   UNL     1       6.924  15.459 -10.511  1.00  0.00     0.049 A 
ATOM     49  C   UNL     1      10.850  11.774 -12.063  1.00  0.00     0.074 A 
ATOM     50  C   UNL     1       6.677  16.507 -11.379  1.00  0.00     0.029 A 
ATOM     51  N   UNL     1       7.911  14.678 -11.095  1.00  0.00    -0.354 N 
ATOM     52  N   UNL     1       9.971  12.719 -11.833  1.00  0.00    -0.248 NA
ATOM     53  C   UNL     1      11.521  11.885 -13.367  1.00  0.00     0.031 C 
ATOM     54  C   UNL     1       7.489  16.342 -12.506  1.00  0.00     0.029 A 
ATOM     55  C   UNL     1       8.273  15.215 -12.320  1.00  0.00     0.049 A 
ATOM     56  H   UNL     1       8.296  13.864 -10.699  1.00  0.00     0.167 HD
ATOM     57  C   UNL     1      10.005  13.551 -12.943  1.00  0.00     0.074 A 
ATOM     58  C   UNL     1      10.998  13.006 -13.844  1.00  0.00     0.031 C 
ATOM     59  C   UNL     1       9.277  14.667 -13.194  1.00  0.00     0.037 A 
BRANCH  46  60
ATOM     60  C   UNL     1       5.210  16.084  -8.767  1.00  0.00     0.064 A 
ATOM     61  C   UNL     1       5.392  16.973  -7.696  1.00  0.00     0.173 A 
ATOM     62  C   UNL     1       3.962  16.076  -9.407  1.00  0.00     0.173 A 
ATOM     63  F   UNL     1       6.563  17.009  -7.041  1.00  0.00    -0.203 F 
ATOM     64  C   UNL     1       4.357  17.796  -7.263  1.00  0.00     0.198 A 
ATOM     65  C   UNL     1       2.938  16.922  -8.991  1.00  0.00     0.198 A 
ATOM     66  F   UNL     1       3.736  15.248 -10.438  1.00  0.00    -0.203 F 
ATOM     67  F   UNL     1       4.538  18.597  -6.204  1.00  0.00    -0.200 F 
ATOM     68  C   UNL     1       3.133  17.775  -7.915  1.00  0.00     0.200 A 
ATOM     69  F   UNL     1       1.759  16.909  -9.628  1.00  0.00    -0.200 F 
ATOM     70  F   UNL     1       2.138  18.571  -7.500  1.00  0.00    -0.200 F 
ENDBRANCH  46  60
BRANCH  47  71
ATOM     71  C   UNL     1      12.287   9.649 -11.638  1.00  0.00     0.064 A 
ATOM     72  C   UNL     1      13.630  10.034 -11.751  1.00  0.00     0.173 A 
ATOM     73  C   UNL     1      11.956   8.329 -11.972  1.00  0.00     0.173 A 
ATOM     74  F   UNL     1      13.992  11.293 -11.463  1.00  0.00    -0.203 F 
ATOM     75  C   UNL     1      14.601   9.140 -12.199  1.00  0.00     0.198 A 
ATOM     76  C   UNL     1      12.931   7.428 -12.396  1.00  0.00     0.198 A 
ATOM     77  F   UNL     1      10.685   7.910 -11.877  1.00  0.00    -0.203 F 
ATOM     78  F   UNL     1      15.870   9.546 -12.339  1.00  0.00    -0.200 F 
ATOM     79  C   UNL     1      14.251   7.836 -12.517  1.00  0.00     0.200 A 
ATOM     80  F   UNL     1      12.592   6.165 -12.690  1.00  0.00    -0.200 F 
ATOM     81  F   UNL     1      15.184   6.976 -12.946  1.00  0.00    -0.200 F 
ENDBRANCH  47  71
BRANCH  59  82
ATOM     82  C   UNL     1       9.556  15.398 -14.474  1.00  0.00     0.064 A 
ATOM     83  C   UNL     1       9.138  14.897 -15.714  1.00  0.00     0.173 A 
ATOM     84  C   UNL     1      10.205  16.643 -14.450  1.00  0.00     0.173 A 
ATOM     85  F   UNL     1       8.528  13.704 -15.789  1.00  0.00    -0.203 F 
ATOM     86  C   UNL     1       9.377  15.607 -16.888  1.00  0.00     0.198 A 
ATOM     87  C   UNL     1      10.417  17.362 -15.622  1.00  0.00     0.198 A 
ATOM     88  F   UNL     1      10.618  17.167 -13.286  1.00  0.00    -0.203 F 
ATOM     89  F   UNL     1       9.004  15.091 -18.067  1.00  0.00    -0.200 F 
ATOM     90  C   UNL     1      10.008  16.841 -16.840  1.00  0.00     0.200 A 
ATOM     91  F   UNL     1      11.015  18.560 -15.572  1.00  0.00    -0.200 F 
ATOM     92  F   UNL     1      10.227  17.527 -17.970  1.00  0.00    -0.200 F 
ENDBRANCH  59  82
ENDBRANCH  33  34
ENDBRANCH  25  28
ENDBRANCH  23  24
ENDBRANCH  22  23
ENDBRANCH   1  22
TORSDOF 13
