REMARK SMILES O=C(NCCCCNC(=O)c1ccc2ncccc2n1)c1ccc(-c2c3nc(c(-c4c(F)c(F)c(F)c(F)c4F)c4ccc([nH]4)c(-c4c(F)c(F)c(F)c(F)c4F)c4nc(c(-c5c(F)c(F)c(F)c(F)c5F)c5ccc2[nH]5)C=C4)C=C3)cc1
REMARK SMILES IDX 4 1 3 2 1 3 2 4 21 6 22 7 83 8 23 9 82 10 24 11 25 12 26 13
REMARK SMILES IDX 76 14 27 15 81 16 75 17 77 18 28 19 80 20 74 21 73 22 29 24
REMARK SMILES IDX 61 25 41 26 60 27 42 28 45 29 59 30 78 31 43 32 44 33 58 35
REMARK SMILES IDX 79 36 46 37 30 38 31 39 39 40 32 41 33 42 37 43 40 44 34 45
REMARK SMILES IDX 35 46 38 47 36 48 62 49 63 50 71 51 64 52 65 53 69 54 72 55
REMARK SMILES IDX 66 56 67 57 70 58 68 59 47 60 48 61 56 62 49 63 50 64 54 65
REMARK SMILES IDX 57 66 51 67 52 68 55 69 53 70 5 71 6 72 7 73 8 74 9 75 10 77
REMARK SMILES IDX 11 78 12 79 20 80 13 81 19 82 14 83 18 84 15 85 17 86 16 87
REMARK H PARENT 3 5 77 23 45 34 8 76
REMARK Flexibility Score: inf
ROOT
ATOM      1  C   UNL     1       4.582  -0.711   0.887  1.00  0.00     0.116 C 
ENDROOT
BRANCH   1   2
ATOM      2  N   UNL     1       3.146  -0.783   0.668  1.00  0.00    -0.352 N 
ATOM      3  O   UNL     1       1.120  -0.117  -0.062  1.00  0.00    -0.269 OA
ATOM      4  C   UNL     1       2.342  -0.010  -0.131  1.00  0.00     0.251 C 
ATOM      5  H   UNL     1       2.681  -1.493   1.168  1.00  0.00     0.163 HD
BRANCH   4   6
ATOM      6  C   UNL     1       2.941   0.972  -1.056  1.00  0.00     0.039 A 
ATOM      7  C   UNL     1       4.024   0.626  -1.871  1.00  0.00     0.014 A 
ATOM      8  C   UNL     1       2.397   2.257  -1.119  1.00  0.00     0.014 A 
ATOM      9  C   UNL     1       4.647   1.600  -2.645  1.00  0.00     0.010 A 
ATOM     10  C   UNL     1       2.975   3.212  -1.957  1.00  0.00     0.010 A 
ATOM     11  C   UNL     1       4.122   2.899  -2.705  1.00  0.00    -0.014 A 
BRANCH  11  12
ATOM     12  C   UNL     1       4.740   3.920  -3.585  1.00  0.00     0.031 A 
ATOM     13  C   UNL     1       5.355   5.160  -3.004  1.00  0.00     0.074 A 
ATOM     14  C   UNL     1       4.704   3.744  -4.918  1.00  0.00     0.049 A 
ATOM     15  N   UNL     1       5.836   6.212  -3.617  1.00  0.00    -0.248 NA
ATOM     16  C   UNL     1       5.427   5.233  -1.538  1.00  0.00     0.031 C 
ATOM     17  C   UNL     1       4.135   2.579  -5.597  1.00  0.00     0.029 A 
ATOM     18  N   UNL     1       5.132   4.552  -5.941  1.00  0.00    -0.354 N 
ATOM     19  C   UNL     1       6.244   7.082  -2.615  1.00  0.00     0.074 A 
ATOM     20  C   UNL     1       5.928   6.446  -1.353  1.00  0.00     0.031 C 
ATOM     21  C   UNL     1       4.249   2.745  -6.922  1.00  0.00     0.029 A 
ATOM     22  C   UNL     1       4.835   4.055  -7.186  1.00  0.00     0.049 A 
ATOM     23  H   UNL     1       5.606   5.403  -5.797  1.00  0.00     0.167 HD
ATOM     24  C   UNL     1       6.828   8.299  -2.741  1.00  0.00     0.037 A 
ATOM     25  C   UNL     1       4.975   4.609  -8.405  1.00  0.00     0.037 A 
ATOM     26  C   UNL     1       7.135   8.919  -4.006  1.00  0.00     0.049 A 
ATOM     27  C   UNL     1       5.577   5.979  -8.522  1.00  0.00     0.074 A 
ATOM     28  C   UNL     1       7.763  10.128  -4.244  1.00  0.00     0.029 A 
ATOM     29  N   UNL     1       6.817   8.383  -5.247  1.00  0.00    -0.354 N 
ATOM     30  N   UNL     1       5.993   6.781  -7.572  1.00  0.00    -0.248 NA
ATOM     31  C   UNL     1       5.731   6.523  -9.877  1.00  0.00     0.031 C 
ATOM     32  C   UNL     1       7.763  10.357  -5.624  1.00  0.00     0.029 A 
ATOM     33  C   UNL     1       7.206   9.255  -6.253  1.00  0.00     0.049 A 
ATOM     34  H   UNL     1       6.380   7.513  -5.392  1.00  0.00     0.167 HD
ATOM     35  C   UNL     1       6.487   7.909  -8.212  1.00  0.00     0.074 A 
ATOM     36  C   UNL     1       6.317   7.688  -9.634  1.00  0.00     0.031 C 
ATOM     37  C   UNL     1       7.041   9.019  -7.667  1.00  0.00     0.037 A 
BRANCH  24  38
ATOM     38  C   UNL     1       7.131   9.057  -1.479  1.00  0.00     0.064 A 
ATOM     39  C   UNL     1       8.103   8.624  -0.563  1.00  0.00     0.173 A 
ATOM     40  C   UNL     1       6.441  10.244  -1.183  1.00  0.00     0.173 A 
ATOM     41  F   UNL     1       8.789   7.494  -0.791  1.00  0.00    -0.203 F 
ATOM     42  C   UNL     1       8.336   9.321   0.621  1.00  0.00     0.198 A 
ATOM     43  C   UNL     1       6.703  10.958  -0.017  1.00  0.00     0.198 A 
ATOM     44  F   UNL     1       5.510  10.714  -2.027  1.00  0.00    -0.203 F 
ATOM     45  F   UNL     1       9.218   8.848   1.512  1.00  0.00    -0.200 F 
ATOM     46  C   UNL     1       7.639  10.489   0.891  1.00  0.00     0.200 A 
ATOM     47  F   UNL     1       6.041  12.097   0.233  1.00  0.00    -0.200 F 
ATOM     48  F   UNL     1       7.862  11.155   2.032  1.00  0.00    -0.200 F 
ENDBRANCH  24  38
BRANCH  25  49
ATOM     49  C   UNL     1       4.517   3.852  -9.597  1.00  0.00     0.064 A 
ATOM     50  C   UNL     1       5.434   3.304 -10.501  1.00  0.00     0.173 A 
ATOM     51  C   UNL     1       3.152   3.609  -9.820  1.00  0.00     0.173 A 
ATOM     52  F   UNL     1       6.747   3.522 -10.337  1.00  0.00    -0.203 F 
ATOM     53  C   UNL     1       5.005   2.544 -11.587  1.00  0.00     0.198 A 
ATOM     54  C   UNL     1       2.726   2.825 -10.888  1.00  0.00     0.198 A 
ATOM     55  F   UNL     1       2.235   4.104  -8.975  1.00  0.00    -0.203 F 
ATOM     56  F   UNL     1       5.901   2.051 -12.452  1.00  0.00    -0.200 F 
ATOM     57  C   UNL     1       3.652   2.295 -11.773  1.00  0.00     0.200 A 
ATOM     58  F   UNL     1       1.421   2.569 -11.050  1.00  0.00    -0.200 F 
ATOM     59  F   UNL     1       3.243   1.545 -12.805  1.00  0.00    -0.200 F 
ENDBRANCH  25  49
BRANCH  37  60
ATOM     60  C   UNL     1       7.562  10.070  -8.604  1.00  0.00     0.064 A 
ATOM     61  C   UNL     1       6.704  10.909  -9.330  1.00  0.00     0.173 A 
ATOM     62  C   UNL     1       8.944  10.292  -8.710  1.00  0.00     0.173 A 
ATOM     63  F   UNL     1       5.376  10.727  -9.277  1.00  0.00    -0.203 F 
ATOM     64  C   UNL     1       7.213  11.928 -10.133  1.00  0.00     0.198 A 
ATOM     65  C   UNL     1       9.447  11.330  -9.489  1.00  0.00     0.198 A 
ATOM     66  F   UNL     1       9.806   9.519  -8.034  1.00  0.00    -0.203 F 
ATOM     67  F   UNL     1       6.378  12.699 -10.843  1.00  0.00    -0.200 F 
ATOM     68  C   UNL     1       8.581  12.145 -10.202  1.00  0.00     0.200 A 
ATOM     69  F   UNL     1      10.768  11.548  -9.540  1.00  0.00    -0.200 F 
ATOM     70  F   UNL     1       9.066  13.141 -10.956  1.00  0.00    -0.200 F 
ENDBRANCH  37  60
ENDBRANCH  11  12
ENDBRANCH   4   6
ENDBRANCH   1   2
BRANCH   1  71
ATOM     71  C   UNL     1       4.941  -0.394   2.334  1.00  0.00     0.023 C 
BRANCH  71  72
ATOM     72  C   UNL     1       4.470  -1.422   3.361  1.00  0.00     0.023 C 
BRANCH  72  73
ATOM     73  C   UNL     1       4.873  -2.864   3.073  1.00  0.00     0.116 C 
BRANCH  73  74
ATOM     74  N   UNL     1       6.313  -3.048   3.022  1.00  0.00    -0.351 N 
ATOM     75  C   UNL     1       7.083  -3.999   3.657  1.00  0.00     0.269 C 
ATOM     76  H   UNL     1       6.805  -2.408   2.458  1.00  0.00     0.163 HD
ATOM     77  O   UNL     1       8.307  -3.945   3.565  1.00  0.00    -0.268 OA
BRANCH  75  78
ATOM     78  C   UNL     1       6.420  -5.084   4.435  1.00  0.00     0.129 A 
ATOM     79  C   UNL     1       5.456  -5.880   3.836  1.00  0.00     0.036 A 
ATOM     80  N   UNL     1       6.792  -5.206   5.731  1.00  0.00    -0.241 NA
ATOM     81  C   UNL     1       4.791  -6.808   4.632  1.00  0.00     0.033 A 
ATOM     82  C   UNL     1       6.154  -6.136   6.468  1.00  0.00     0.090 A 
ATOM     83  C   UNL     1       5.117  -6.957   5.970  1.00  0.00     0.089 A 
ATOM     84  C   UNL     1       6.503  -6.320   7.796  1.00  0.00     0.032 A 
ATOM     85  N   UNL     1       4.452  -7.859   6.717  1.00  0.00    -0.255 NA
ATOM     86  C   UNL     1       5.840  -7.256   8.586  1.00  0.00     0.022 A 
ATOM     87  C   UNL     1       4.822  -7.989   8.008  1.00  0.00     0.112 A 
ENDBRANCH  75  78
ENDBRANCH  73  74
ENDBRANCH  72  73
ENDBRANCH  71  72
ENDBRANCH   1  71
TORSDOF 11
