REMARK SMILES O=Cc1ccc2c(c1)C=C(C(=O)NCCCCNC(=O)c1ccc(-c3c4nc(c(-c5c(F)c(F)c(F)c(F)c5F)c5ccc([nH]5)c(-c5c(F)c(F)c(F)c(F)c5F)c5nc(c(-c6c(F)c(F)c(F)c(F)c6F)c6ccc3[nH]6)C=C5)C=C4)cc1)[C@H](C(F)(F)F)O2
REMARK SMILES IDX 16 1 15 2 14 3 13 4 11 5 12 6 10 8 3 9 4 10 8 11 5 12 7 13
REMARK SMILES IDX 6 14 9 15 89 16 84 17 2 18 1 19 85 20 86 21 87 22 88 23
REMARK SMILES IDX 17 24 18 25 19 26 20 28 21 29 22 30 83 31 23 32 82 33 24 34
REMARK SMILES IDX 25 35 26 36 76 37 27 38 81 39 75 40 77 41 28 42 80 43 74 44
REMARK SMILES IDX 73 45 29 47 61 48 41 49 60 50 42 51 45 52 59 53 78 54 43 55
REMARK SMILES IDX 44 56 58 58 79 59 46 60 30 61 31 62 39 63 32 64 33 65 37 66
REMARK SMILES IDX 40 67 34 68 35 69 38 70 36 71 62 72 63 73 71 74 64 75 65 76
REMARK SMILES IDX 69 77 72 78 66 79 67 80 70 81 68 82 47 83 48 84 56 85 49 86
REMARK SMILES IDX 50 87 54 88 57 89 51 90 52 91 55 92 53 93
REMARK H PARENT 13 7 18 27 77 46 45 57
REMARK Flexibility Score: inf
ROOT
ATOM      1  C   UNL     1       8.318  -2.421   5.033  1.00  0.00     0.023 C 
ENDROOT
BRANCH   1   2
ATOM      2  C   UNL     1       7.446  -2.219   3.791  1.00  0.00     0.023 C 
BRANCH   2   3
ATOM      3  C   UNL     1       8.143  -2.559   2.468  1.00  0.00     0.116 C 
BRANCH   3   4
ATOM      4  N   UNL     1       8.167  -3.998   2.272  1.00  0.00    -0.352 N 
ATOM      5  C   UNL     1       7.297  -4.859   1.681  1.00  0.00     0.251 C 
ATOM      6  O   UNL     1       7.503  -6.063   1.815  1.00  0.00    -0.270 OA
ATOM      7  H   UNL     1       8.969  -4.434   2.639  1.00  0.00     0.163 HD
BRANCH   5   8
ATOM      8  C   UNL     1       6.157  -4.412   0.834  1.00  0.00     0.067 C 
ATOM      9  C   UNL     1       2.664  -1.342  -0.473  1.00  0.00     0.015 A 
ATOM     10  C   UNL     1       2.406  -2.106  -1.613  1.00  0.00     0.015 A 
ATOM     11  C   UNL     1       3.642  -1.745   0.440  1.00  0.00     0.023 A 
ATOM     12  C   UNL     1       3.145  -3.267  -1.849  1.00  0.00     0.048 A 
ATOM     13  C   UNL     1       4.374  -2.915   0.202  1.00  0.00     0.018 A 
ATOM     14  C   UNL     1       4.128  -3.668  -0.944  1.00  0.00     0.128 A 
ATOM     15  C   UNL     1       5.445  -3.308   1.099  1.00  0.00     0.025 C 
ATOM     16  O   UNL     1       4.852  -4.771  -1.280  1.00  0.00    -0.475 OA
ATOM     17  C   UNL     1       5.726  -5.371  -0.277  1.00  0.00     0.314 C 
BRANCH   9  18
ATOM     18  C   UNL     1       1.928  -0.085  -0.232  1.00  0.00     0.260 C 
ATOM     19  O   UNL     1       1.015   0.283  -0.960  1.00  0.00    -0.298 OA
ENDBRANCH   9  18
BRANCH  17  20
ATOM     20  C   UNL     1       6.862  -6.092  -1.040  1.00  0.00     0.429 C 
ATOM     21  F   UNL     1       7.288  -7.211  -0.414  1.00  0.00    -0.167 F 
ATOM     22  F   UNL     1       6.440  -6.502  -2.266  1.00  0.00    -0.167 F 
ATOM     23  F   UNL     1       7.932  -5.289  -1.246  1.00  0.00    -0.167 F 
ENDBRANCH  17  20
ENDBRANCH   5   8
ENDBRANCH   3   4
ENDBRANCH   2   3
ENDBRANCH   1   2
BRANCH   1  24
ATOM     24  C   UNL     1       9.521  -1.490   5.126  1.00  0.00     0.116 C 
BRANCH  24  25
ATOM     25  N   UNL     1       9.158  -0.083   5.118  1.00  0.00    -0.352 N 
ATOM     26  C   UNL     1       9.791   0.974   5.729  1.00  0.00     0.251 C 
ATOM     27  H   UNL     1       8.348   0.144   4.605  1.00  0.00     0.163 HD
ATOM     28  O   UNL     1       9.294   2.087   5.710  1.00  0.00    -0.269 OA
BRANCH  26  29
ATOM     29  C   UNL     1      11.059   0.735   6.451  1.00  0.00     0.039 A 
ATOM     30  C   UNL     1      11.194   1.238   7.747  1.00  0.00     0.014 A 
ATOM     31  C   UNL     1      12.094   0.001   5.865  1.00  0.00     0.014 A 
ATOM     32  C   UNL     1      12.345   0.949   8.482  1.00  0.00     0.010 A 
ATOM     33  C   UNL     1      13.210  -0.342   6.622  1.00  0.00     0.010 A 
ATOM     34  C   UNL     1      13.345   0.128   7.937  1.00  0.00    -0.014 A 
BRANCH  34  35
ATOM     35  C   UNL     1      14.535  -0.259   8.735  1.00  0.00     0.031 A 
ATOM     36  C   UNL     1      15.904   0.200   8.320  1.00  0.00     0.074 A 
ATOM     37  C   UNL     1      14.385  -1.085   9.789  1.00  0.00     0.049 A 
ATOM     38  N   UNL     1      17.067  -0.087   8.847  1.00  0.00    -0.248 NA
ATOM     39  C   UNL     1      15.980   1.074   7.138  1.00  0.00     0.031 C 
ATOM     40  C   UNL     1      13.114  -1.647  10.249  1.00  0.00     0.029 A 
ATOM     41  N   UNL     1      15.313  -1.608  10.655  1.00  0.00    -0.354 N 
ATOM     42  C   UNL     1      18.009   0.551   8.052  1.00  0.00     0.074 A 
ATOM     43  C   UNL     1      17.289   1.206   6.982  1.00  0.00     0.031 C 
ATOM     44  C   UNL     1      13.340  -2.427  11.319  1.00  0.00     0.029 A 
ATOM     45  C   UNL     1      14.772  -2.443  11.602  1.00  0.00     0.049 A 
ATOM     46  H   UNL     1      16.274  -1.403  10.603  1.00  0.00     0.167 HD
ATOM     47  C   UNL     1      19.352   0.603   8.215  1.00  0.00     0.037 A 
ATOM     48  C   UNL     1      15.367  -3.149  12.583  1.00  0.00     0.037 A 
ATOM     49  C   UNL     1      20.060  -0.015   9.306  1.00  0.00     0.049 A 
ATOM     50  C   UNL     1      16.858  -3.045  12.759  1.00  0.00     0.074 A 
ATOM     51  C   UNL     1      21.409   0.053   9.607  1.00  0.00     0.029 A 
ATOM     52  N   UNL     1      19.473  -0.816  10.274  1.00  0.00    -0.354 N 
ATOM     53  N   UNL     1      17.729  -2.364  12.054  1.00  0.00    -0.248 NA
ATOM     54  C   UNL     1      17.448  -3.799  13.874  1.00  0.00     0.031 C 
ATOM     55  C   UNL     1      21.646  -0.742  10.732  1.00  0.00     0.029 A 
ATOM     56  C   UNL     1      20.438  -1.266  11.161  1.00  0.00     0.049 A 
ATOM     57  H   UNL     1      18.514  -1.033  10.323  1.00  0.00     0.167 HD
ATOM     58  C   UNL     1      18.961  -2.585  12.654  1.00  0.00     0.074 A 
ATOM     59  C   UNL     1      18.724  -3.449  13.791  1.00  0.00     0.031 C 
ATOM     60  C   UNL     1      20.181  -2.117  12.294  1.00  0.00     0.037 A 
BRANCH  47  61
ATOM     61  C   UNL     1      20.153   1.361   7.199  1.00  0.00     0.064 A 
ATOM     62  C   UNL     1      20.118   2.762   7.131  1.00  0.00     0.173 A 
ATOM     63  C   UNL     1      21.013   0.683   6.322  1.00  0.00     0.173 A 
ATOM     64  F   UNL     1      19.303   3.457   7.940  1.00  0.00    -0.203 F 
ATOM     65  C   UNL     1      20.901   3.455   6.212  1.00  0.00     0.198 A 
ATOM     66  C   UNL     1      21.816   1.380   5.423  1.00  0.00     0.198 A 
ATOM     67  F   UNL     1      21.087  -0.656   6.349  1.00  0.00    -0.203 F 
ATOM     68  F   UNL     1      20.824   4.791   6.141  1.00  0.00    -0.200 F 
ATOM     69  C   UNL     1      21.756   2.764   5.365  1.00  0.00     0.200 A 
ATOM     70  F   UNL     1      22.650   0.713   4.614  1.00  0.00    -0.200 F 
ATOM     71  F   UNL     1      22.519   3.434   4.491  1.00  0.00    -0.200 F 
ENDBRANCH  47  61
BRANCH  48  72
ATOM     72  C   UNL     1      14.554  -4.003  13.487  1.00  0.00     0.064 A 
ATOM     73  C   UNL     1      14.383  -3.666  14.837  1.00  0.00     0.173 A 
ATOM     74  C   UNL     1      13.949  -5.181  13.027  1.00  0.00     0.173 A 
ATOM     75  F   UNL     1      14.958  -2.559  15.328  1.00  0.00    -0.203 F 
ATOM     76  C   UNL     1      13.662  -4.490  15.699  1.00  0.00     0.198 A 
ATOM     77  C   UNL     1      13.204  -5.989  13.883  1.00  0.00     0.198 A 
ATOM     78  F   UNL     1      14.076  -5.544  11.742  1.00  0.00    -0.203 F 
ATOM     79  F   UNL     1      13.560  -4.172  16.997  1.00  0.00    -0.200 F 
ATOM     80  C   UNL     1      13.070  -5.649  15.220  1.00  0.00     0.200 A 
ATOM     81  F   UNL     1      12.621  -7.101  13.413  1.00  0.00    -0.200 F 
ATOM     82  F   UNL     1      12.379  -6.442  16.050  1.00  0.00    -0.200 F 
ENDBRANCH  48  72
BRANCH  60  83
ATOM     83  C   UNL     1      21.346  -2.501  13.156  1.00  0.00     0.064 A 
ATOM     84  C   UNL     1      21.865  -3.804  13.154  1.00  0.00     0.173 A 
ATOM     85  C   UNL     1      21.976  -1.543  13.966  1.00  0.00     0.173 A 
ATOM     86  F   UNL     1      21.288  -4.758  12.408  1.00  0.00    -0.203 F 
ATOM     87  C   UNL     1      22.956  -4.140  13.950  1.00  0.00     0.198 A 
ATOM     88  C   UNL     1      23.085  -1.876  14.738  1.00  0.00     0.198 A 
ATOM     89  F   UNL     1      21.522  -0.281  13.998  1.00  0.00    -0.203 F 
ATOM     90  F   UNL     1      23.405  -5.403  13.968  1.00  0.00    -0.200 F 
ATOM     91  C   UNL     1      23.569  -3.175  14.735  1.00  0.00     0.200 A 
ATOM     92  F   UNL     1      23.684  -0.939  15.486  1.00  0.00    -0.200 F 
ATOM     93  F   UNL     1      24.624  -3.500  15.496  1.00  0.00    -0.200 F 
ENDBRANCH  60  83
ENDBRANCH  34  35
ENDBRANCH  26  29
ENDBRANCH  24  25
ENDBRANCH   1  24
TORSDOF 13
