REMARK SMILES C[C@@H](C(=O)NCCCCNC(=O)c1ccc(-c2c3nc(c(-c4c(F)c(F)c(F)c(F)c4F)c4ccc([nH]4)c(-c4c(F)c(F)c(F)c(F)c4F)c4nc(c(-c5c(F)c(F)c(F)c(F)c5F)c5ccc2[nH]5)C=C4)C=C3)cc1)S(=O)(=O)N[C@@]12C[C@@H]3C[C@@](C)(C[C@@](C)(C3)C1)C2
REMARK SMILES IDX 7 1 6 2 5 3 3 4 4 5 2 7 1 8 76 9 77 10 78 11 79 12 80 14
REMARK SMILES IDX 81 15 90 16 91 17 82 18 87 19 84 20 89 21 83 22 86 23 88 24
REMARK SMILES IDX 85 25 8 26 9 27 10 28 11 29 12 31 13 32 14 33 75 34 15 35
REMARK SMILES IDX 74 36 16 37 17 38 18 39 68 40 19 41 73 42 67 43 69 44 20 45
REMARK SMILES IDX 72 46 66 47 65 48 21 50 53 51 33 52 52 53 34 54 37 55 51 56
REMARK SMILES IDX 70 57 35 58 36 59 50 61 71 62 38 63 22 64 23 65 31 66 24 67
REMARK SMILES IDX 25 68 29 69 32 70 26 71 27 72 30 73 28 74 54 75 55 76 63 77
REMARK SMILES IDX 56 78 57 79 61 80 64 81 58 82 59 83 62 84 60 85 39 86 40 87
REMARK SMILES IDX 48 88 41 89 42 90 46 91 49 92 43 93 44 94 47 95 45 96
REMARK H PARENT 5 6 79 13 10 30 69 49 37 60
REMARK Flexibility Score: inf
ROOT
ATOM      1  C   UNL     1       4.188   0.659   1.145  1.00  0.00     0.023 C 
ENDROOT
BRANCH   1   2
ATOM      2  C   UNL     1       3.508  -0.085   2.298  1.00  0.00     0.116 C 
BRANCH   2   3
ATOM      3  N   UNL     1       2.365   0.673   2.763  1.00  0.00    -0.355 N 
ATOM      4  C   UNL     1       1.043   0.615   2.422  1.00  0.00     0.239 C 
ATOM      5  O   UNL     1       0.376   1.587   2.783  1.00  0.00    -0.274 OA
ATOM      6  H   UNL     1       2.579   1.350   3.446  1.00  0.00     0.163 HD
BRANCH   4   7
ATOM      7  C   UNL     1       0.456  -0.602   1.723  1.00  0.00     0.209 C 
ATOM      8  C   UNL     1       1.074  -1.065   0.405  1.00  0.00     0.037 C 
BRANCH   7   9
ATOM      9  S   UNL     1      -1.359  -0.418   1.588  1.00  0.00     0.223 S 
ATOM     10  O   UNL     1      -1.859  -1.478   0.738  1.00  0.00    -0.212 OA
ATOM     11  O   UNL     1      -1.894  -0.313   2.933  1.00  0.00    -0.212 OA
BRANCH   9  12
ATOM     12  N   UNL     1      -1.728   1.038   0.857  1.00  0.00    -0.208 NA
ATOM     13  H   UNL     1      -1.334   1.745   1.477  1.00  0.00     0.141 HD
BRANCH  12  14
ATOM     14  C   UNL     1      -1.367   1.488  -0.501  1.00  0.00     0.034 C 
ATOM     15  C   UNL     1      -2.390   2.555  -0.982  1.00  0.00     0.027 C 
ATOM     16  C   UNL     1      -0.005   2.211  -0.464  1.00  0.00     0.030 C 
ATOM     17  C   UNL     1      -1.417   0.345  -1.527  1.00  0.00     0.030 C 
ATOM     18  C   UNL     1      -2.008   3.070  -2.392  1.00  0.00    -0.008 C 
ATOM     19  C   UNL     1       0.429   2.658  -1.873  1.00  0.00    -0.030 C 
ATOM     20  C   UNL     1      -0.998   0.821  -2.927  1.00  0.00    -0.030 C 
ATOM     21  C   UNL     1      -0.600   3.696  -2.365  1.00  0.00     0.010 C 
ATOM     22  C   UNL     1      -2.003   1.896  -3.386  1.00  0.00     0.010 C 
ATOM     23  C   UNL     1       0.413   1.446  -2.836  1.00  0.00     0.013 C 
ATOM     24  C   UNL     1       1.840   3.257  -1.812  1.00  0.00     0.011 C 
ATOM     25  C   UNL     1      -0.993  -0.374  -3.887  1.00  0.00     0.011 C 
ENDBRANCH  12  14
ENDBRANCH   9  12
ENDBRANCH   7   9
ENDBRANCH   4   7
ENDBRANCH   2   3
ENDBRANCH   1   2
BRANCH   1  26
ATOM     26  C   UNL     1       4.984   1.895   1.593  1.00  0.00     0.023 C 
BRANCH  26  27
ATOM     27  C   UNL     1       6.101   1.605   2.589  1.00  0.00     0.116 C 
BRANCH  27  28
ATOM     28  N   UNL     1       7.069   0.644   2.087  1.00  0.00    -0.352 N 
ATOM     29  C   UNL     1       8.407   0.545   2.369  1.00  0.00     0.251 C 
ATOM     30  H   UNL     1       6.715  -0.027   1.459  1.00  0.00     0.163 HD
ATOM     31  O   UNL     1       9.108  -0.244   1.744  1.00  0.00    -0.269 OA
BRANCH  29  32
ATOM     32  C   UNL     1       9.009   1.410   3.405  1.00  0.00     0.039 A 
ATOM     33  C   UNL     1      10.246   2.002   3.143  1.00  0.00     0.014 A 
ATOM     34  C   UNL     1       8.376   1.618   4.633  1.00  0.00     0.014 A 
ATOM     35  C   UNL     1      10.837   2.822   4.105  1.00  0.00     0.010 A 
ATOM     36  C   UNL     1       8.926   2.501   5.557  1.00  0.00     0.010 A 
ATOM     37  C   UNL     1      10.176   3.089   5.315  1.00  0.00    -0.014 A 
BRANCH  37  38
ATOM     38  C   UNL     1      10.810   3.935   6.356  1.00  0.00     0.031 A 
ATOM     39  C   UNL     1      11.191   3.336   7.683  1.00  0.00     0.074 A 
ATOM     40  C   UNL     1      11.019   5.244   6.117  1.00  0.00     0.049 A 
ATOM     41  N   UNL     1      11.758   3.905   8.717  1.00  0.00    -0.248 NA
ATOM     42  C   UNL     1      10.864   1.916   7.888  1.00  0.00     0.031 C 
ATOM     43  C   UNL     1      10.646   5.949   4.890  1.00  0.00     0.029 A 
ATOM     44  N   UNL     1      11.601   6.212   6.894  1.00  0.00    -0.354 N 
ATOM     45  C   UNL     1      11.841   2.919   9.692  1.00  0.00     0.074 A 
ATOM     46  C   UNL     1      11.208   1.736   9.153  1.00  0.00     0.031 C 
ATOM     47  C   UNL     1      11.043   7.229   4.982  1.00  0.00     0.029 A 
ATOM     48  C   UNL     1      11.668   7.441   6.284  1.00  0.00     0.049 A 
ATOM     49  H   UNL     1      11.939   6.043   7.803  1.00  0.00     0.167 HD
ATOM     50  C   UNL     1      12.420   2.984  10.915  1.00  0.00     0.037 A 
ATOM     51  C   UNL     1      12.185   8.603   6.726  1.00  0.00     0.037 A 
ATOM     52  C   UNL     1      13.075   4.156  11.433  1.00  0.00     0.049 A 
ATOM     53  C   UNL     1      12.832   8.646   8.085  1.00  0.00     0.074 A 
ATOM     54  C   UNL     1      13.745   4.311  12.634  1.00  0.00     0.029 A 
ATOM     55  N   UNL     1      13.138   5.378  10.779  1.00  0.00    -0.354 N 
ATOM     56  N   UNL     1      12.978   7.686   8.966  1.00  0.00    -0.248 NA
ATOM     57  C   UNL     1      13.403   9.934   8.502  1.00  0.00     0.031 C 
ATOM     58  C   UNL     1      14.168   5.641  12.729  1.00  0.00     0.029 A 
ATOM     59  C   UNL     1      13.819   6.298  11.560  1.00  0.00     0.049 A 
ATOM     60  H   UNL     1      12.756   5.564   9.891  1.00  0.00     0.167 HD
ATOM     61  C   UNL     1      13.691   8.240  10.021  1.00  0.00     0.074 A 
ATOM     62  C   UNL     1      13.959   9.617   9.662  1.00  0.00     0.031 C 
ATOM     63  C   UNL     1      14.092   7.661  11.180  1.00  0.00     0.037 A 
BRANCH  50  64
ATOM     64  C   UNL     1      12.369   1.753  11.775  1.00  0.00     0.064 A 
ATOM     65  C   UNL     1      13.081   0.589  11.443  1.00  0.00     0.173 A 
ATOM     66  C   UNL     1      11.619   1.744  12.960  1.00  0.00     0.173 A 
ATOM     67  F   UNL     1      13.804   0.537  10.314  1.00  0.00    -0.203 F 
ATOM     68  C   UNL     1      13.014  -0.547  12.246  1.00  0.00     0.198 A 
ATOM     69  C   UNL     1      11.583   0.618  13.779  1.00  0.00     0.198 A 
ATOM     70  F   UNL     1      10.923   2.830  13.329  1.00  0.00    -0.203 F 
ATOM     71  F   UNL     1      13.654  -1.665  11.876  1.00  0.00    -0.200 F 
ATOM     72  C   UNL     1      12.272  -0.529  13.417  1.00  0.00     0.200 A 
ATOM     73  F   UNL     1      10.877   0.642  14.918  1.00  0.00    -0.200 F 
ATOM     74  F   UNL     1      12.214  -1.621  14.192  1.00  0.00    -0.200 F 
ENDBRANCH  50  64
BRANCH  51  75
ATOM     75  C   UNL     1      12.158   9.809   5.857  1.00  0.00     0.064 A 
ATOM     76  C   UNL     1      13.343  10.341   5.327  1.00  0.00     0.173 A 
ATOM     77  C   UNL     1      10.957  10.464   5.552  1.00  0.00     0.173 A 
ATOM     78  F   UNL     1      14.520   9.761   5.604  1.00  0.00    -0.203 F 
ATOM     79  C   UNL     1      13.329  11.496   4.549  1.00  0.00     0.198 A 
ATOM     80  C   UNL     1      10.941  11.602   4.747  1.00  0.00     0.198 A 
ATOM     81  F   UNL     1       9.794   9.992   6.027  1.00  0.00    -0.203 F 
ATOM     82  F   UNL     1      14.482  12.013   4.101  1.00  0.00    -0.200 F 
ATOM     83  C   UNL     1      12.128  12.124   4.256  1.00  0.00     0.200 A 
ATOM     84  F   UNL     1       9.777  12.195   4.453  1.00  0.00    -0.200 F 
ATOM     85  F   UNL     1      12.115  13.235   3.507  1.00  0.00    -0.200 F 
ENDBRANCH  51  75
BRANCH  63  86
ATOM     86  C   UNL     1      14.916   8.498  12.118  1.00  0.00     0.064 A 
ATOM     87  C   UNL     1      14.373   9.584  12.819  1.00  0.00     0.173 A 
ATOM     88  C   UNL     1      16.268   8.189  12.332  1.00  0.00     0.173 A 
ATOM     89  F   UNL     1      13.088   9.929  12.640  1.00  0.00    -0.203 F 
ATOM     90  C   UNL     1      15.163  10.356  13.667  1.00  0.00     0.198 A 
ATOM     91  C   UNL     1      17.046   8.939  13.210  1.00  0.00     0.198 A 
ATOM     92  F   UNL     1      16.836   7.153  11.696  1.00  0.00    -0.203 F 
ATOM     93  F   UNL     1      14.638  11.428  14.276  1.00  0.00    -0.200 F 
ATOM     94  C   UNL     1      16.496  10.029  13.867  1.00  0.00     0.200 A 
ATOM     95  F   UNL     1      18.328   8.611  13.415  1.00  0.00    -0.200 F 
ATOM     96  F   UNL     1      17.253  10.771  14.686  1.00  0.00    -0.200 F 
ENDBRANCH  63  86
ENDBRANCH  37  38
ENDBRANCH  29  32
ENDBRANCH  27  28
ENDBRANCH  26  27
ENDBRANCH   1  26
TORSDOF 14
