REMARK SMILES O=C(NCCCCNC(=O)[C@@H]1[C@H](C(=O)Nc2ccccc2Cc2ccccc2)[C@H]2C=C[C@@H]1O2)c1ccc(-c2c3nc(c(-c4c(F)c(F)c(F)c(F)c4F)c4ccc([nH]4)c(-c4c(F)c(F)c(F)c(F)c4F)c4nc(c(-c5c(F)c(F)c(F)c(F)c5F)c5ccc2[nH]5)C=C4)C=C3)cc1
REMARK SMILES IDX 6 1 5 2 4 3 3 4 1 5 2 6 34 8 35 9 96 10 36 11 95 12 37 13
REMARK SMILES IDX 38 14 39 15 89 16 40 17 94 18 88 19 90 20 41 21 93 22 87 23
REMARK SMILES IDX 86 24 42 26 74 27 54 28 73 29 55 30 58 31 72 32 91 33 56 34
REMARK SMILES IDX 57 35 71 37 92 38 59 39 43 40 44 41 52 42 45 43 46 44 50 45
REMARK SMILES IDX 53 46 47 47 48 48 51 49 49 50 75 51 76 52 84 53 77 54 78 55
REMARK SMILES IDX 82 56 85 57 79 58 80 59 83 60 81 61 60 62 61 63 69 64 62 65
REMARK SMILES IDX 63 66 67 67 70 68 64 69 65 70 68 71 66 72 7 73 8 74 9 75
REMARK SMILES IDX 10 77 11 78 12 79 32 80 29 81 31 82 33 83 30 84 13 85 14 86
REMARK SMILES IDX 15 87 16 89 17 90 21 91 18 92 20 93 19 94 22 95 23 96 24 97
REMARK SMILES IDX 28 98 25 99 27 100 26 101
REMARK H PARENT 3 7 90 25 58 36 8 76 15 88
REMARK Flexibility Score: inf
ROOT
ATOM      1  C   UNL     1       3.174   1.303   3.607  1.00  0.00     0.023 C 
ENDROOT
BRANCH   1   2
ATOM      2  C   UNL     1       3.901   1.381   2.251  1.00  0.00     0.023 C 
BRANCH   2   3
ATOM      3  C   UNL     1       3.916   0.079   1.457  1.00  0.00     0.116 C 
BRANCH   3   4
ATOM      4  N   UNL     1       2.578  -0.297   1.041  1.00  0.00    -0.352 N 
ATOM      5  O   UNL     1       0.762  -0.230  -0.288  1.00  0.00    -0.269 OA
ATOM      6  C   UNL     1       1.979  -0.147  -0.185  1.00  0.00     0.251 C 
ATOM      7  H   UNL     1       2.022  -0.720   1.735  1.00  0.00     0.163 HD
BRANCH   6   8
ATOM      8  C   UNL     1       2.806   0.110  -1.383  1.00  0.00     0.039 A 
ATOM      9  C   UNL     1       3.975  -0.622  -1.610  1.00  0.00     0.014 A 
ATOM     10  C   UNL     1       2.370   1.044  -2.326  1.00  0.00     0.014 A 
ATOM     11  C   UNL     1       4.761  -0.347  -2.723  1.00  0.00     0.010 A 
ATOM     12  C   UNL     1       3.117   1.259  -3.488  1.00  0.00     0.010 A 
ATOM     13  C   UNL     1       4.324   0.572  -3.691  1.00  0.00    -0.014 A 
BRANCH  13  14
ATOM     14  C   UNL     1       5.089   0.725  -4.954  1.00  0.00     0.031 A 
ATOM     15  C   UNL     1       5.733   2.030  -5.322  1.00  0.00     0.074 A 
ATOM     16  C   UNL     1       5.181  -0.334  -5.782  1.00  0.00     0.049 A 
ATOM     17  N   UNL     1       6.404   2.343  -6.402  1.00  0.00    -0.248 NA
ATOM     18  C   UNL     1       5.597   3.132  -4.359  1.00  0.00     0.031 C 
ATOM     19  C   UNL     1       4.575  -1.645  -5.539  1.00  0.00     0.029 A 
ATOM     20  N   UNL     1       5.813  -0.481  -6.990  1.00  0.00    -0.354 N 
ATOM     21  C   UNL     1       6.756   3.678  -6.259  1.00  0.00     0.074 A 
ATOM     22  C   UNL     1       6.197   4.126  -5.000  1.00  0.00     0.031 C 
ATOM     23  C   UNL     1       4.886  -2.469  -6.549  1.00  0.00     0.029 A 
ATOM     24  C   UNL     1       5.654  -1.728  -7.542  1.00  0.00     0.049 A 
ATOM     25  H   UNL     1       6.331   0.238  -7.420  1.00  0.00     0.167 HD
ATOM     26  C   UNL     1       7.484   4.453  -7.100  1.00  0.00     0.037 A 
ATOM     27  C   UNL     1       6.053  -2.215  -8.731  1.00  0.00     0.037 A 
ATOM     28  C   UNL     1       8.037   3.992  -8.350  1.00  0.00     0.049 A 
ATOM     29  C   UNL     1       6.830  -1.325  -9.658  1.00  0.00     0.074 A 
ATOM     30  C   UNL     1       8.829   4.684  -9.250  1.00  0.00     0.029 A 
ATOM     31  N   UNL     1       7.846   2.724  -8.883  1.00  0.00    -0.354 N 
ATOM     32  N   UNL     1       7.202  -0.080  -9.488  1.00  0.00    -0.248 NA
ATOM     33  C   UNL     1       7.243  -1.907 -10.940  1.00  0.00     0.031 C 
ATOM     34  C   UNL     1       9.063   3.858 -10.355  1.00  0.00     0.029 A 
ATOM     35  C   UNL     1       8.475   2.627 -10.115  1.00  0.00     0.049 A 
ATOM     36  H   UNL     1       7.337   2.001  -8.449  1.00  0.00     0.167 HD
ATOM     37  C   UNL     1       7.909   0.266 -10.630  1.00  0.00     0.074 A 
ATOM     38  C   UNL     1       7.932  -0.910 -11.477  1.00  0.00     0.031 C 
ATOM     39  C   UNL     1       8.487   1.450 -10.948  1.00  0.00     0.037 A 
BRANCH  26  40
ATOM     40  C   UNL     1       7.702   5.889  -6.714  1.00  0.00     0.064 A 
ATOM     41  C   UNL     1       8.516   6.252  -5.630  1.00  0.00     0.173 A 
ATOM     42  C   UNL     1       7.118   6.922  -7.465  1.00  0.00     0.173 A 
ATOM     43  F   UNL     1       9.093   5.306  -4.873  1.00  0.00    -0.203 F 
ATOM     44  C   UNL     1       8.710   7.590  -5.292  1.00  0.00     0.198 A 
ATOM     45  C   UNL     1       7.341   8.259  -7.145  1.00  0.00     0.198 A 
ATOM     46  F   UNL     1       6.338   6.636  -8.518  1.00  0.00    -0.203 F 
ATOM     47  F   UNL     1       9.449   7.908  -4.220  1.00  0.00    -0.200 F 
ATOM     48  C   UNL     1       8.128   8.592  -6.053  1.00  0.00     0.200 A 
ATOM     49  F   UNL     1       6.791   9.226  -7.893  1.00  0.00    -0.200 F 
ATOM     50  F   UNL     1       8.320   9.878  -5.731  1.00  0.00    -0.200 F 
ENDBRANCH  26  40
BRANCH  27  51
ATOM     51  C   UNL     1       5.705  -3.610  -9.107  1.00  0.00     0.064 A 
ATOM     52  C   UNL     1       6.691  -4.598  -9.219  1.00  0.00     0.173 A 
ATOM     53  C   UNL     1       4.373  -3.987  -9.342  1.00  0.00     0.173 A 
ATOM     54  F   UNL     1       7.980  -4.283  -9.021  1.00  0.00    -0.203 F 
ATOM     55  C   UNL     1       6.362  -5.906  -9.569  1.00  0.00     0.198 A 
ATOM     56  C   UNL     1       4.042  -5.302  -9.658  1.00  0.00     0.198 A 
ATOM     57  F   UNL     1       3.390  -3.081  -9.239  1.00  0.00    -0.203 F 
ATOM     58  F   UNL     1       7.330  -6.822  -9.711  1.00  0.00    -0.200 F 
ATOM     59  C   UNL     1       5.037  -6.259  -9.779  1.00  0.00     0.200 A 
ATOM     60  F   UNL     1       2.759  -5.643  -9.838  1.00  0.00    -0.200 F 
ATOM     61  F   UNL     1       4.721  -7.520 -10.103  1.00  0.00    -0.200 F 
ENDBRANCH  27  51
BRANCH  39  62
ATOM     62  C   UNL     1       9.221   1.523 -12.257  1.00  0.00     0.064 A 
ATOM     63  C   UNL     1       8.546   1.505 -13.486  1.00  0.00     0.173 A 
ATOM     64  C   UNL     1      10.620   1.642 -12.278  1.00  0.00     0.173 A 
ATOM     65  F   UNL     1       7.211   1.374 -13.521  1.00  0.00    -0.203 F 
ATOM     66  C   UNL     1       9.245   1.575 -14.688  1.00  0.00     0.198 A 
ATOM     67  C   UNL     1      11.312   1.746 -13.481  1.00  0.00     0.198 A 
ATOM     68  F   UNL     1      11.314   1.668 -11.131  1.00  0.00    -0.203 F 
ATOM     69  F   UNL     1       8.583   1.500 -15.851  1.00  0.00    -0.200 F 
ATOM     70  C   UNL     1      10.626   1.704 -14.685  1.00  0.00     0.200 A 
ATOM     71  F   UNL     1      12.645   1.886 -13.475  1.00  0.00    -0.200 F 
ATOM     72  F   UNL     1      11.296   1.778 -15.843  1.00  0.00    -0.200 F 
ENDBRANCH  39  62
ENDBRANCH  13  14
ENDBRANCH   6   8
ENDBRANCH   3   4
ENDBRANCH   2   3
ENDBRANCH   1   2
BRANCH   1  73
ATOM     73  C   UNL     1       3.592   0.144   4.530  1.00  0.00     0.116 C 
BRANCH  73  74
ATOM     74  N   UNL     1       5.026   0.056   4.608  1.00  0.00    -0.356 N 
ATOM     75  C   UNL     1       5.890   0.353   5.592  1.00  0.00     0.227 C 
ATOM     76  H   UNL     1       5.453  -0.286   3.789  1.00  0.00     0.163 HD
ATOM     77  O   UNL     1       6.942   0.808   5.145  1.00  0.00    -0.275 OA
BRANCH  75  78
ATOM     78  C   UNL     1       5.597   0.125   7.073  1.00  0.00     0.127 C 
ATOM     79  C   UNL     1       6.524   0.935   8.006  1.00  0.00     0.127 C 
ATOM     80  C   UNL     1       5.806  -1.292   7.684  1.00  0.00     0.155 C 
ATOM     81  C   UNL     1       6.936  -0.056   9.081  1.00  0.00     0.155 C 
ATOM     82  C   UNL     1       5.083  -1.379   9.002  1.00  0.00     0.004 C 
ATOM     83  O   UNL     1       7.151  -1.212   8.246  1.00  0.00    -0.365 OA
ATOM     84  C   UNL     1       5.746  -0.572   9.845  1.00  0.00     0.004 C 
BRANCH  79  85
ATOM     85  C   UNL     1       7.715   1.633   7.390  1.00  0.00     0.231 C 
ATOM     86  O   UNL     1       7.624   2.876   7.319  1.00  0.00    -0.274 OA
ATOM     87  N   UNL     1       8.902   1.149   6.956  1.00  0.00    -0.325 N 
ATOM     88  H   UNL     1       9.421   1.916   6.623  1.00  0.00     0.169 HD
BRANCH  87  89
ATOM     89  C   UNL     1       9.711  -0.008   6.780  1.00  0.00     0.044 A 
ATOM     90  C   UNL     1      11.034   0.318   7.183  1.00  0.00     0.026 A 
ATOM     91  C   UNL     1       9.507  -1.312   6.248  1.00  0.00    -0.020 A 
ATOM     92  C   UNL     1      12.088  -0.592   7.181  1.00  0.00     0.002 A 
ATOM     93  C   UNL     1      10.606  -2.218   6.259  1.00  0.00     0.006 A 
ATOM     94  C   UNL     1      11.868  -1.874   6.731  1.00  0.00     0.000 A 
BRANCH  91  95
ATOM     95  C   UNL     1       8.254  -1.958   5.703  1.00  0.00     0.073 C 
BRANCH  95  96
ATOM     96  C   UNL     1       8.145  -2.502   4.276  1.00  0.00    -0.044 A 
ATOM     97  C   UNL     1       7.798  -1.665   3.204  1.00  0.00     0.004 A 
ATOM     98  C   UNL     1       8.172  -3.888   4.040  1.00  0.00     0.004 A 
ATOM     99  C   UNL     1       7.400  -2.198   1.969  1.00  0.00     0.000 A 
ATOM    100  C   UNL     1       7.800  -4.420   2.797  1.00  0.00     0.000 A 
ATOM    101  C   UNL     1       7.388  -3.576   1.770  1.00  0.00     0.000 A 
ENDBRANCH  95  96
ENDBRANCH  91  95
ENDBRANCH  87  89
ENDBRANCH  79  85
ENDBRANCH  75  78
ENDBRANCH  73  74
ENDBRANCH   1  73
TORSDOF 15
