REMARK SMILES COc1ccc2c(c1)O[C@@]1(CCC(=O)N([C@@H](C)C(=O)NCCCCNC(=O)c3ccc(-c4c5nc(c(-c6c(F)c(F)c(F)c(F)c6F)c6ccc([nH]6)c(-c6c(F)c(F)c(F)c(F)c6F)c6nc(c(-c7c(F)c(F)c(F)c(F)c7F)c7ccc4[nH]7)C=C6)C=C5)cc3)CC1)CC2=O
REMARK SMILES IDX 21 1 20 2 18 3 19 4 16 6 17 7 15 8 91 9 92 10 10 11 3 12
REMARK SMILES IDX 4 13 8 14 5 15 7 16 6 17 9 18 94 19 93 20 95 21 2 22 1 23
REMARK SMILES IDX 11 24 13 26 14 27 12 28 22 30 23 31 24 32 25 33 26 34 27 36
REMARK SMILES IDX 28 37 29 38 90 39 30 40 89 41 31 42 32 43 33 44 83 45 34 46
REMARK SMILES IDX 88 47 82 48 84 49 35 50 87 51 81 52 80 53 36 55 68 56 48 57
REMARK SMILES IDX 67 58 49 59 52 60 66 61 85 62 50 63 51 64 65 66 86 67 53 68
REMARK SMILES IDX 37 69 38 70 46 71 39 72 40 73 44 74 47 75 41 76 42 77 45 78
REMARK SMILES IDX 43 79 69 80 70 81 78 82 71 83 72 84 76 85 79 86 73 87 74 88
REMARK SMILES IDX 77 89 75 90 54 91 55 92 63 93 56 94 57 95 61 96 64 97 58 98
REMARK SMILES IDX 59 99 62 100 60 101
REMARK H PARENT 20 5 25 35 84 54 52 65
REMARK Flexibility Score: 90.00
ROOT
ATOM      1  C   UNL     1      -2.428  -1.029   4.644  1.00  0.00     0.116 C 
ENDROOT
BRANCH   1   2
ATOM      2  N   UNL     1      -2.246  -0.092   3.563  1.00  0.00    -0.354 N 
ATOM      3  C   UNL     1      -3.223   0.292   2.698  1.00  0.00     0.242 C 
ATOM      4  O   UNL     1      -3.140   1.434   2.241  1.00  0.00    -0.273 OA
ATOM      5  H   UNL     1      -1.350   0.297   3.443  1.00  0.00     0.163 HD
BRANCH   3   6
ATOM      6  C   UNL     1      -4.439  -0.629   2.436  1.00  0.00     0.171 C 
ATOM      7  C   UNL     1      -5.355  -0.607   3.670  1.00  0.00     0.042 C 
BRANCH   6   8
ATOM      8  N   UNL     1      -4.128  -2.013   1.867  1.00  0.00    -0.331 N 
BRANCH   8   9
ATOM      9  C   UNL     1      -3.115  -2.242   0.777  1.00  0.00     0.124 C 
BRANCH   9  10
ATOM     10  C   UNL     1      -3.664  -2.038  -0.783  1.00  0.00     0.070 C 
BRANCH  10  11
ATOM     11  C   UNL     1      -4.786  -0.954  -0.761  1.00  0.00     0.118 C 
ATOM     12  C   UNL     1      -0.954   1.783  -0.767  1.00  0.00     0.122 A 
ATOM     13  C   UNL     1      -1.602   3.008  -0.986  1.00  0.00     0.047 A 
ATOM     14  C   UNL     1      -1.720   0.631  -0.622  1.00  0.00     0.093 A 
ATOM     15  C   UNL     1      -2.992   3.064  -1.173  1.00  0.00     0.019 A 
ATOM     16  C   UNL     1      -3.105   0.730  -0.691  1.00  0.00     0.134 A 
ATOM     17  C   UNL     1      -3.717   1.885  -1.099  1.00  0.00     0.060 A 
ATOM     18  O   UNL     1      -3.951  -0.104   0.028  1.00  0.00    -0.486 OA
ATOM     19  C   UNL     1      -5.139   1.677  -1.332  1.00  0.00     0.170 C 
ATOM     20  C   UNL     1      -5.603   0.199  -1.448  1.00  0.00     0.129 C 
ATOM     21  O   UNL     1      -5.905   2.632  -1.410  1.00  0.00    -0.294 OA
BRANCH  12  22
ATOM     22  O   UNL     1       0.409   1.841  -0.642  1.00  0.00    -0.497 OA
ATOM     23  C   UNL     1       1.066   0.641  -0.240  1.00  0.00     0.278 C 
ENDBRANCH  12  22
BRANCH  11  24
ATOM     24  C   UNL     1      -6.020  -1.938  -0.374  1.00  0.00     0.059 CG0
ATOM     25  G   UNL     1      -6.348  -2.393   1.037  1.00  0.00     0.000 G0
ENDBRANCH  11  24
ENDBRANCH  10  11
ENDBRANCH   9  10
ENDBRANCH   8   9
BRANCH   8  26
ATOM     26  C   UNL     1      -5.146  -2.937   1.754  1.00  0.00     0.223 C 
ATOM     27  O   UNL     1      -4.994  -4.131   1.985  1.00  0.00    -0.275 OA
BRANCH  26  28
ATOM     28  C   UNL     1      -6.348  -2.393   1.037  1.00  0.00     0.104 CG0
ATOM     29  G   UNL     1      -6.020  -1.938  -0.374  1.00  0.00     0.000 G0
ENDBRANCH  26  28
ENDBRANCH   8  26
ENDBRANCH   6   8
ENDBRANCH   3   6
ENDBRANCH   1   2
BRANCH   1  30
ATOM     30  C   UNL     1      -1.134  -1.417   5.333  1.00  0.00     0.023 C 
BRANCH  30  31
ATOM     31  C   UNL     1      -0.244  -0.252   5.759  1.00  0.00     0.023 C 
BRANCH  31  32
ATOM     32  C   UNL     1      -0.948   0.922   6.428  1.00  0.00     0.116 C 
BRANCH  32  33
ATOM     33  N   UNL     1      -1.654   0.560   7.651  1.00  0.00    -0.352 N 
ATOM     34  C   UNL     1      -1.479   1.027   8.933  1.00  0.00     0.251 C 
ATOM     35  H   UNL     1      -2.361  -0.117   7.543  1.00  0.00     0.163 HD
ATOM     36  O   UNL     1      -2.092   0.568   9.863  1.00  0.00    -0.269 OA
BRANCH  34  37
ATOM     37  C   UNL     1      -0.459   2.084   9.151  1.00  0.00     0.039 A 
ATOM     38  C   UNL     1      -0.484   3.250   8.386  1.00  0.00     0.014 A 
ATOM     39  C   UNL     1       0.582   1.832  10.045  1.00  0.00     0.014 A 
ATOM     40  C   UNL     1       0.635   4.070   8.371  1.00  0.00     0.010 A 
ATOM     41  C   UNL     1       1.663   2.712  10.096  1.00  0.00     0.010 A 
ATOM     42  C   UNL     1       1.727   3.804   9.215  1.00  0.00    -0.014 A 
BRANCH  42  43
ATOM     43  C   UNL     1       2.935   4.664   9.151  1.00  0.00     0.031 A 
ATOM     44  C   UNL     1       4.260   4.096   8.717  1.00  0.00     0.074 A 
ATOM     45  C   UNL     1       2.824   5.972   9.447  1.00  0.00     0.049 A 
ATOM     46  N   UNL     1       5.429   4.684   8.651  1.00  0.00    -0.248 NA
ATOM     47  C   UNL     1       4.280   2.683   8.307  1.00  0.00     0.031 C 
ATOM     48  C   UNL     1       1.586   6.640   9.852  1.00  0.00     0.029 A 
ATOM     49  N   UNL     1       3.756   6.977   9.436  1.00  0.00    -0.354 N 
ATOM     50  C   UNL     1       6.322   3.711   8.219  1.00  0.00     0.074 A 
ATOM     51  C   UNL     1       5.568   2.487   8.060  1.00  0.00     0.031 C 
ATOM     52  C   UNL     1       1.823   7.950  10.005  1.00  0.00     0.029 A 
ATOM     53  C   UNL     1       3.243   8.201   9.785  1.00  0.00     0.049 A 
ATOM     54  H   UNL     1       4.702   6.835   9.201  1.00  0.00     0.167 HD
ATOM     55  C   UNL     1       7.648   3.836   7.969  1.00  0.00     0.037 A 
ATOM     56  C   UNL     1       3.852   9.392   9.938  1.00  0.00     0.037 A 
ATOM     57  C   UNL     1       8.384   5.067   8.102  1.00  0.00     0.049 A 
ATOM     58  C   UNL     1       5.332   9.488   9.705  1.00  0.00     0.074 A 
ATOM     59  C   UNL     1       9.726   5.300   7.854  1.00  0.00     0.029 A 
ATOM     60  N   UNL     1       7.839   6.274   8.515  1.00  0.00    -0.354 N 
ATOM     61  N   UNL     1       6.168   8.559   9.312  1.00  0.00    -0.248 NA
ATOM     62  C   UNL     1       5.955  10.795   9.951  1.00  0.00     0.031 C 
ATOM     63  C   UNL     1      10.002   6.636   8.159  1.00  0.00     0.029 A 
ATOM     64  C   UNL     1       8.823   7.250   8.550  1.00  0.00     0.049 A 
ATOM     65  H   UNL     1       6.894   6.417   8.748  1.00  0.00     0.167 HD
ATOM     66  C   UNL     1       7.413   9.167   9.256  1.00  0.00     0.074 A 
ATOM     67  C   UNL     1       7.218  10.553   9.630  1.00  0.00     0.031 C 
ATOM     68  C   UNL     1       8.612   8.623   8.931  1.00  0.00     0.037 A 
BRANCH  55  69
ATOM     69  C   UNL     1       8.402   2.612   7.533  1.00  0.00     0.064 A 
ATOM     70  C   UNL     1       8.243   2.066   6.251  1.00  0.00     0.173 A 
ATOM     71  C   UNL     1       9.352   2.023   8.383  1.00  0.00     0.173 A 
ATOM     72  F   UNL     1       7.341   2.583   5.403  1.00  0.00    -0.203 F 
ATOM     73  C   UNL     1       8.997   0.968   5.841  1.00  0.00     0.198 A 
ATOM     74  C   UNL     1      10.122   0.942   7.960  1.00  0.00     0.198 A 
ATOM     75  F   UNL     1       9.548   2.509   9.617  1.00  0.00    -0.203 F 
ATOM     76  F   UNL     1       8.804   0.443   4.623  1.00  0.00    -0.200 F 
ATOM     77  C   UNL     1       9.942   0.414   6.691  1.00  0.00     0.200 A 
ATOM     78  F   UNL     1      11.044   0.417   8.778  1.00  0.00    -0.200 F 
ATOM     79  F   UNL     1      10.677  -0.632   6.288  1.00  0.00    -0.200 F 
ENDBRANCH  55  69
BRANCH  56  80
ATOM     80  C   UNL     1       3.051  10.575  10.340  1.00  0.00     0.064 A 
ATOM     81  C   UNL     1       2.822  11.626   9.444  1.00  0.00     0.173 A 
ATOM     82  C   UNL     1       2.464  10.660  11.612  1.00  0.00     0.173 A 
ATOM     83  F   UNL     1       3.379  11.599   8.224  1.00  0.00    -0.203 F 
ATOM     84  C   UNL     1       2.038  12.720   9.804  1.00  0.00     0.198 A 
ATOM     85  C   UNL     1       1.655  11.739  11.961  1.00  0.00     0.198 A 
ATOM     86  F   UNL     1       2.650   9.677  12.505  1.00  0.00    -0.203 F 
ATOM     87  F   UNL     1       1.857  13.726   8.938  1.00  0.00    -0.200 F 
ATOM     88  C   UNL     1       1.447  12.770  11.058  1.00  0.00     0.200 A 
ATOM     89  F   UNL     1       1.071  11.773  13.166  1.00  0.00    -0.200 F 
ATOM     90  F   UNL     1       0.677  13.813  11.397  1.00  0.00    -0.200 F 
ENDBRANCH  56  80
BRANCH  68  91
ATOM     91  C   UNL     1       9.806   9.530   8.960  1.00  0.00     0.064 A 
ATOM     92  C   UNL     1      10.356   9.975  10.171  1.00  0.00     0.173 A 
ATOM     93  C   UNL     1      10.438   9.916   7.769  1.00  0.00     0.173 A 
ATOM     94  F   UNL     1       9.779   9.645  11.336  1.00  0.00    -0.203 F 
ATOM     95  C   UNL     1      11.485  10.789  10.187  1.00  0.00     0.198 A 
ATOM     96  C   UNL     1      11.584  10.706   7.790  1.00  0.00     0.198 A 
ATOM     97  F   UNL     1       9.955   9.511   6.585  1.00  0.00    -0.203 F 
ATOM     98  F   UNL     1      11.970  11.236  11.354  1.00  0.00    -0.200 F 
ATOM     99  C   UNL     1      12.103  11.146   8.998  1.00  0.00     0.200 A 
ATOM    100  F   UNL     1      12.188  11.038   6.641  1.00  0.00    -0.200 F 
ATOM    101  F   UNL     1      13.197  11.920   9.016  1.00  0.00    -0.200 F 
ENDBRANCH  68  91
ENDBRANCH  42  43
ENDBRANCH  34  37
ENDBRANCH  32  33
ENDBRANCH  31  32
ENDBRANCH  30  31
ENDBRANCH   1  30
TORSDOF 13
