REMARK SMILES O=C(NCCCCNC(=O)c1ccc(-c2c3nc(c(-c4c(F)c(F)c(F)c(F)c4F)c4ccc([nH]4)c(-c4c(F)c(F)c(F)c(F)c4F)c4nc(c(-c5c(F)c(F)c(F)c(F)c5F)c5ccc2[nH]5)C=C4)C=C3)cc1)C1=Cc2c(Cl)cc(Cl)cc2O[C@@H]1C(F)(F)F
REMARK SMILES IDX 6 1 5 2 4 3 3 4 1 5 2 6 74 8 75 9 85 10 76 11 84 12 77 13
REMARK SMILES IDX 83 14 78 15 79 16 82 17 80 18 81 19 86 20 87 21 88 22 89 23
REMARK SMILES IDX 7 24 8 25 9 26 10 28 11 29 12 30 73 31 13 32 72 33 14 34
REMARK SMILES IDX 15 35 16 36 66 37 17 38 71 39 65 40 67 41 18 42 70 43 64 44
REMARK SMILES IDX 63 45 19 47 51 48 31 49 50 50 32 51 35 52 49 53 68 54 33 55
REMARK SMILES IDX 34 56 48 58 69 59 36 60 20 61 21 62 29 63 22 64 23 65 27 66
REMARK SMILES IDX 30 67 24 68 25 69 28 70 26 71 52 72 53 73 61 74 54 75 55 76
REMARK SMILES IDX 59 77 62 78 56 79 57 80 60 81 58 82 37 83 38 84 46 85 39 86
REMARK SMILES IDX 40 87 44 88 47 89 41 90 42 91 45 92 43 93
REMARK H PARENT 3 7 8 27 67 46 35 57
REMARK Flexibility Score: inf
ROOT
ATOM      1  C   UNL     1       4.066  -3.143   2.938  1.00  0.00     0.023 C 
ENDROOT
BRANCH   1   2
ATOM      2  C   UNL     1       4.329  -1.665   2.659  1.00  0.00     0.023 C 
BRANCH   2   3
ATOM      3  C   UNL     1       3.858  -1.169   1.292  1.00  0.00     0.116 C 
BRANCH   3   4
ATOM      4  N   UNL     1       2.654  -0.341   1.328  1.00  0.00    -0.352 N 
ATOM      5  O   UNL     1       1.157   1.164   0.536  1.00  0.00    -0.270 OA
ATOM      6  C   UNL     1       2.304   0.737   0.543  1.00  0.00     0.251 C 
ATOM      7  H   UNL     1       1.995  -0.590   2.016  1.00  0.00     0.163 HD
BRANCH   6   8
ATOM      8  C   UNL     1       3.310   1.264  -0.405  1.00  0.00     0.067 C 
ATOM      9  C   UNL     1       4.467   1.784   0.030  1.00  0.00     0.027 C 
ATOM     10  C   UNL     1       3.131   0.912  -1.847  1.00  0.00     0.314 C 
ATOM     11  C   UNL     1       5.637   1.103  -0.583  1.00  0.00     0.036 A 
ATOM     12  O   UNL     1       4.211   0.072  -2.314  1.00  0.00    -0.475 OA
ATOM     13  C   UNL     1       6.860   1.004   0.113  1.00  0.00     0.053 A 
ATOM     14  C   UNL     1       5.412   0.204  -1.654  1.00  0.00     0.130 A 
ATOM     15  Cl  UNL     1       7.205   1.951   1.523  1.00  0.00    -0.083 Cl
ATOM     16  C   UNL     1       7.792   0.013  -0.216  1.00  0.00     0.042 A 
ATOM     17  C   UNL     1       6.357  -0.764  -1.996  1.00  0.00     0.067 A 
ATOM     18  C   UNL     1       7.529  -0.871  -1.259  1.00  0.00     0.046 A 
ATOM     19  Cl  UNL     1       8.623  -2.156  -1.586  1.00  0.00    -0.084 Cl
BRANCH  10  20
ATOM     20  C   UNL     1       2.995   2.173  -2.721  1.00  0.00     0.429 C 
ATOM     21  F   UNL     1       2.715   1.847  -4.006  1.00  0.00    -0.167 F 
ATOM     22  F   UNL     1       1.997   2.980  -2.292  1.00  0.00    -0.167 F 
ATOM     23  F   UNL     1       4.130   2.913  -2.738  1.00  0.00    -0.167 F 
ENDBRANCH  10  20
ENDBRANCH   6   8
ENDBRANCH   3   4
ENDBRANCH   2   3
ENDBRANCH   1   2
BRANCH   1  24
ATOM     24  C   UNL     1       4.656  -4.138   1.940  1.00  0.00     0.116 C 
BRANCH  24  25
ATOM     25  N   UNL     1       6.105  -4.076   1.796  1.00  0.00    -0.352 N 
ATOM     26  C   UNL     1       7.010  -5.115   1.755  1.00  0.00     0.251 C 
ATOM     27  H   UNL     1       6.488  -3.173   1.717  1.00  0.00     0.163 HD
ATOM     28  O   UNL     1       8.216  -4.891   1.683  1.00  0.00    -0.269 OA
BRANCH  26  29
ATOM     29  C   UNL     1       6.522  -6.506   1.863  1.00  0.00     0.039 A 
ATOM     30  C   UNL     1       7.072  -7.342   2.839  1.00  0.00     0.014 A 
ATOM     31  C   UNL     1       5.463  -6.952   1.068  1.00  0.00     0.014 A 
ATOM     32  C   UNL     1       6.483  -8.582   3.096  1.00  0.00     0.010 A 
ATOM     33  C   UNL     1       4.827  -8.148   1.382  1.00  0.00     0.010 A 
ATOM     34  C   UNL     1       5.319  -8.967   2.411  1.00  0.00    -0.014 A 
BRANCH  34  35
ATOM     35  C   UNL     1       4.585 -10.210   2.768  1.00  0.00     0.031 A 
ATOM     36  C   UNL     1       4.434 -11.310   1.756  1.00  0.00     0.074 A 
ATOM     37  C   UNL     1       3.986 -10.311   3.972  1.00  0.00     0.049 A 
ATOM     38  N   UNL     1       3.745 -12.420   1.835  1.00  0.00    -0.248 NA
ATOM     39  C   UNL     1       5.123 -11.121   0.469  1.00  0.00     0.031 C 
ATOM     40  C   UNL     1       4.008  -9.289   5.020  1.00  0.00     0.029 A 
ATOM     41  N   UNL     1       3.228 -11.321   4.514  1.00  0.00    -0.354 N 
ATOM     42  C   UNL     1       3.904 -13.050   0.608  1.00  0.00     0.074 A 
ATOM     43  C   UNL     1       4.707 -12.175  -0.218  1.00  0.00     0.031 C 
ATOM     44  C   UNL     1       3.316  -9.731   6.084  1.00  0.00     0.029 A 
ATOM     45  C   UNL     1       2.773 -11.051   5.783  1.00  0.00     0.049 A 
ATOM     46  H   UNL     1       3.029 -12.159   4.038  1.00  0.00     0.167 HD
ATOM     47  C   UNL     1       3.445 -14.261   0.214  1.00  0.00     0.037 A 
ATOM     48  C   UNL     1       2.001 -11.785   6.607  1.00  0.00     0.037 A 
ATOM     49  C   UNL     1       2.675 -15.146   1.047  1.00  0.00     0.049 A 
ATOM     50  C   UNL     1       1.525 -13.139   6.151  1.00  0.00     0.074 A 
ATOM     51  C   UNL     1       2.195 -16.410   0.753  1.00  0.00     0.029 A 
ATOM     52  N   UNL     1       2.283 -14.859   2.346  1.00  0.00    -0.354 N 
ATOM     53  N   UNL     1       1.729 -13.746   5.008  1.00  0.00    -0.248 NA
ATOM     54  C   UNL     1       0.721 -13.916   7.106  1.00  0.00     0.031 C 
ATOM     55  C   UNL     1       1.489 -16.878   1.867  1.00  0.00     0.029 A 
ATOM     56  C   UNL     1       1.565 -15.923   2.867  1.00  0.00     0.049 A 
ATOM     57  H   UNL     1       2.485 -14.024   2.827  1.00  0.00     0.167 HD
ATOM     58  C   UNL     1       1.110 -14.983   5.116  1.00  0.00     0.074 A 
ATOM     59  C   UNL     1       0.533 -15.048   6.443  1.00  0.00     0.031 C 
ATOM     60  C   UNL     1       1.023 -15.977   4.199  1.00  0.00     0.037 A 
BRANCH  47  61
ATOM     61  C   UNL     1       3.784 -14.712  -1.176  1.00  0.00     0.064 A 
ATOM     62  C   UNL     1       5.092 -15.083  -1.524  1.00  0.00     0.173 A 
ATOM     63  C   UNL     1       2.789 -14.812  -2.160  1.00  0.00     0.173 A 
ATOM     64  F   UNL     1       6.082 -14.991  -0.623  1.00  0.00    -0.203 F 
ATOM     65  C   UNL     1       5.396 -15.514  -2.812  1.00  0.00     0.198 A 
ATOM     66  C   UNL     1       3.091 -15.271  -3.439  1.00  0.00     0.198 A 
ATOM     67  F   UNL     1       1.522 -14.473  -1.878  1.00  0.00    -0.203 F 
ATOM     68  F   UNL     1       6.661 -15.820  -3.134  1.00  0.00    -0.200 F 
ATOM     69  C   UNL     1       4.395 -15.615  -3.766  1.00  0.00     0.200 A 
ATOM     70  F   UNL     1       2.121 -15.379  -4.357  1.00  0.00    -0.200 F 
ATOM     71  F   UNL     1       4.687 -16.039  -5.004  1.00  0.00    -0.200 F 
ENDBRANCH  47  61
BRANCH  48  72
ATOM     72  C   UNL     1       1.647 -11.276   7.958  1.00  0.00     0.064 A 
ATOM     73  C   UNL     1       2.173 -11.874   9.113  1.00  0.00     0.173 A 
ATOM     74  C   UNL     1       0.757 -10.205   8.127  1.00  0.00     0.173 A 
ATOM     75  F   UNL     1       3.012 -12.915   9.003  1.00  0.00    -0.203 F 
ATOM     76  C   UNL     1       1.800 -11.441  10.383  1.00  0.00     0.198 A 
ATOM     77  C   UNL     1       0.407  -9.754   9.399  1.00  0.00     0.198 A 
ATOM     78  F   UNL     1       0.230  -9.594   7.056  1.00  0.00    -0.203 F 
ATOM     79  F   UNL     1       2.275 -12.067  11.468  1.00  0.00    -0.200 F 
ATOM     80  C   UNL     1       0.920 -10.379  10.526  1.00  0.00     0.200 A 
ATOM     81  F   UNL     1      -0.434  -8.719   9.532  1.00  0.00    -0.200 F 
ATOM     82  F   UNL     1       0.558  -9.966  11.748  1.00  0.00    -0.200 F 
ENDBRANCH  48  72
BRANCH  60  83
ATOM     83  C   UNL     1       0.324 -17.237   4.614  1.00  0.00     0.064 A 
ATOM     84  C   UNL     1      -1.070 -17.294   4.751  1.00  0.00     0.173 A 
ATOM     85  C   UNL     1       1.058 -18.412   4.834  1.00  0.00     0.173 A 
ATOM     86  F   UNL     1      -1.813 -16.193   4.565  1.00  0.00    -0.203 F 
ATOM     87  C   UNL     1      -1.703 -18.480   5.115  1.00  0.00     0.198 A 
ATOM     88  C   UNL     1       0.419 -19.601   5.172  1.00  0.00     0.198 A 
ATOM     89  F   UNL     1       2.394 -18.409   4.710  1.00  0.00    -0.203 F 
ATOM     90  F   UNL     1      -3.033 -18.503   5.282  1.00  0.00    -0.200 F 
ATOM     91  C   UNL     1      -0.959 -19.633   5.318  1.00  0.00     0.200 A 
ATOM     92  F   UNL     1       1.138 -20.717   5.357  1.00  0.00    -0.200 F 
ATOM     93  F   UNL     1      -1.572 -20.774   5.662  1.00  0.00    -0.200 F 
ENDBRANCH  60  83
ENDBRANCH  34  35
ENDBRANCH  26  29
ENDBRANCH  24  25
ENDBRANCH   1  24
TORSDOF 12
