REMARK SMILES Cc1onc2c(=O)n(C)nc(C(=O)NCCCCNC(=O)c3ccc(-c4c5nc(c(-c6c(F)c(F)c(F)c(F)c6F)c6ccc([nH]6)c(-c6c(F)c(F)c(F)c(F)c6F)c6nc(c(-c7c(F)c(F)c(F)c(F)c7F)c7ccc4[nH]7)C=C6)C=C5)cc3)c12
REMARK SMILES IDX 17 1 16 2 15 3 14 4 12 5 13 6 11 8 1 9 2 10 3 11 85 12 4 13
REMARK SMILES IDX 5 14 6 15 10 16 7 17 8 18 9 19 18 20 19 21 20 22 21 24 22 25
REMARK SMILES IDX 23 26 84 27 24 28 83 29 25 30 26 31 27 32 77 33 28 34 82 35
REMARK SMILES IDX 76 36 78 37 29 38 81 39 75 40 74 41 30 43 62 44 42 45 61 46
REMARK SMILES IDX 43 47 46 48 60 49 79 50 44 51 45 52 59 54 80 55 47 56 31 57
REMARK SMILES IDX 32 58 40 59 33 60 34 61 38 62 41 63 35 64 36 65 39 66 37 67
REMARK SMILES IDX 63 68 64 69 72 70 65 71 66 72 70 73 73 74 67 75 68 76 71 77
REMARK SMILES IDX 69 78 48 79 49 80 57 81 50 82 51 83 55 84 58 85 52 86 53 87
REMARK SMILES IDX 56 88 54 89
REMARK H PARENT 14 7 19 23 78 42 46 53
REMARK Flexibility Score: inf
ROOT
ATOM      1  C   UNL     1       1.847   5.899   3.542  1.00  0.00     0.023 C 
ENDROOT
BRANCH   1   2
ATOM      2  C   UNL     1       1.345   5.958   2.087  1.00  0.00     0.023 C 
BRANCH   2   3
ATOM      3  C   UNL     1       2.201   5.206   1.069  1.00  0.00     0.116 C 
BRANCH   3   4
ATOM      4  N   UNL     1       2.171   3.772   1.301  1.00  0.00    -0.351 N 
ATOM      5  C   UNL     1       1.752   2.704   0.540  1.00  0.00     0.272 C 
ATOM      6  O   UNL     1       1.877   1.586   1.031  1.00  0.00    -0.267 OA
ATOM      7  H   UNL     1       2.522   3.510   2.183  1.00  0.00     0.163 HD
BRANCH   5   8
ATOM      8  C   UNL     1       1.166   2.844  -0.876  1.00  0.00     0.161 A 
ATOM      9  C   UNL     1       0.700  -0.573  -0.323  1.00  0.00     0.091 C 
ATOM     10  C   UNL     1       0.463   0.383  -1.423  1.00  0.00     0.144 A 
ATOM     11  O   UNL     1      -0.081  -0.174  -2.546  1.00  0.00    -0.360 OA
ATOM     12  C   UNL     1       0.642   1.731  -1.640  1.00  0.00     0.083 A 
ATOM     13  N   UNL     1      -0.273   0.798  -3.510  1.00  0.00    -0.074 NA
ATOM     14  C   UNL     1       0.160   1.931  -2.951  1.00  0.00     0.183 A 
ATOM     15  C   UNL     1       0.153   3.235  -3.572  1.00  0.00     0.296 A 
ATOM     16  N   UNL     1       1.156   4.025  -1.437  1.00  0.00    -0.164 NA
ATOM     17  O   UNL     1      -0.258   3.455  -4.717  1.00  0.00    -0.265 OA
ATOM     18  N   UNL     1       0.661   4.235  -2.727  1.00  0.00    -0.230 N 
ATOM     19  C   UNL     1       0.701   5.598  -3.219  1.00  0.00     0.178 C 
ENDBRANCH   5   8
ENDBRANCH   3   4
ENDBRANCH   2   3
ENDBRANCH   1   2
BRANCH   1  20
ATOM     20  C   UNL     1       3.253   6.467   3.789  1.00  0.00     0.116 C 
BRANCH  20  21
ATOM     21  N   UNL     1       3.335   7.850   3.360  1.00  0.00    -0.352 N 
ATOM     22  C   UNL     1       3.808   8.964   3.991  1.00  0.00     0.251 C 
ATOM     23  H   UNL     1       2.989   8.014   2.453  1.00  0.00     0.163 HD
ATOM     24  O   UNL     1       3.465  10.066   3.564  1.00  0.00    -0.269 OA
BRANCH  22  25
ATOM     25  C   UNL     1       4.734   8.903   5.141  1.00  0.00     0.039 A 
ATOM     26  C   UNL     1       4.598   9.894   6.121  1.00  0.00     0.014 A 
ATOM     27  C   UNL     1       5.825   8.030   5.179  1.00  0.00     0.014 A 
ATOM     28  C   UNL     1       5.540  10.008   7.138  1.00  0.00     0.010 A 
ATOM     29  C   UNL     1       6.770   8.143   6.205  1.00  0.00     0.010 A 
ATOM     30  C   UNL     1       6.630   9.131   7.190  1.00  0.00    -0.014 A 
BRANCH  30  31
ATOM     31  C   UNL     1       7.505   9.236   8.373  1.00  0.00     0.031 A 
ATOM     32  C   UNL     1       7.834   7.923   9.021  1.00  0.00     0.074 A 
ATOM     33  C   UNL     1       8.429  10.213   8.468  1.00  0.00     0.049 A 
ATOM     34  N   UNL     1       8.790   7.126   8.641  1.00  0.00    -0.248 NA
ATOM     35  C   UNL     1       6.912   7.316   9.984  1.00  0.00     0.031 C 
ATOM     36  C   UNL     1       9.335  10.629   7.396  1.00  0.00     0.029 A 
ATOM     37  N   UNL     1       8.882  10.886   9.581  1.00  0.00    -0.354 N 
ATOM     38  C   UNL     1       8.580   5.906   9.265  1.00  0.00     0.074 A 
ATOM     39  C   UNL     1       7.403   6.073  10.088  1.00  0.00     0.031 C 
ATOM     40  C   UNL     1      10.339  11.348   7.938  1.00  0.00     0.029 A 
ATOM     41  C   UNL     1      10.095  11.532   9.368  1.00  0.00     0.049 A 
ATOM     42  H   UNL     1       8.397  10.907  10.438  1.00  0.00     0.167 HD
ATOM     43  C   UNL     1       9.379   4.823   9.075  1.00  0.00     0.037 A 
ATOM     44  C   UNL     1      11.059  11.659  10.326  1.00  0.00     0.037 A 
ATOM     45  C   UNL     1      10.516   5.033   8.233  1.00  0.00     0.049 A 
ATOM     46  C   UNL     1      11.706  10.293  10.247  1.00  0.00     0.074 A 
ATOM     47  C   UNL     1      10.859   4.822   6.917  1.00  0.00     0.029 A 
ATOM     48  N   UNL     1      11.613   5.650   8.788  1.00  0.00    -0.354 N 
ATOM     49  N   UNL     1      12.544   9.886   9.327  1.00  0.00    -0.248 NA
ATOM     50  C   UNL     1      11.083   9.213  11.017  1.00  0.00     0.031 C 
ATOM     51  C   UNL     1      11.929   5.735   6.655  1.00  0.00     0.029 A 
ATOM     52  C   UNL     1      12.139   6.468   7.822  1.00  0.00     0.049 A 
ATOM     53  H   UNL     1      11.954   5.528   9.703  1.00  0.00     0.167 HD
ATOM     54  C   UNL     1      12.325   8.509   9.213  1.00  0.00     0.074 A 
ATOM     55  C   UNL     1      11.453   8.154  10.311  1.00  0.00     0.031 C 
ATOM     56  C   UNL     1      12.687   7.771   8.123  1.00  0.00     0.037 A 
BRANCH  43  57
ATOM     57  C   UNL     1       9.252   3.534   9.782  1.00  0.00     0.064 A 
ATOM     58  C   UNL     1      10.153   3.259  10.821  1.00  0.00     0.173 A 
ATOM     59  C   UNL     1       8.440   2.496   9.317  1.00  0.00     0.173 A 
ATOM     60  F   UNL     1      10.956   4.231  11.285  1.00  0.00    -0.203 F 
ATOM     61  C   UNL     1      10.275   1.978  11.346  1.00  0.00     0.198 A 
ATOM     62  C   UNL     1       8.557   1.213   9.852  1.00  0.00     0.198 A 
ATOM     63  F   UNL     1       7.575   2.709   8.314  1.00  0.00    -0.203 F 
ATOM     64  F   UNL     1      11.183   1.734  12.300  1.00  0.00    -0.200 F 
ATOM     65  C   UNL     1       9.484   0.952  10.854  1.00  0.00     0.200 A 
ATOM     66  F   UNL     1       7.797   0.217   9.376  1.00  0.00    -0.200 F 
ATOM     67  F   UNL     1       9.627  -0.291  11.334  1.00  0.00    -0.200 F 
ENDBRANCH  43  57
BRANCH  44  68
ATOM     68  C   UNL     1      10.598  12.324  11.589  1.00  0.00     0.064 A 
ATOM     69  C   UNL     1       9.962  13.580  11.465  1.00  0.00     0.173 A 
ATOM     70  C   UNL     1      10.672  11.803  12.888  1.00  0.00     0.173 A 
ATOM     71  F   UNL     1       9.958  14.216  10.283  1.00  0.00    -0.203 F 
ATOM     72  C   UNL     1       9.294  14.182  12.530  1.00  0.00     0.198 A 
ATOM     73  C   UNL     1       9.979  12.392  13.951  1.00  0.00     0.198 A 
ATOM     74  F   UNL     1      11.391  10.707  13.159  1.00  0.00    -0.203 F 
ATOM     75  F   UNL     1       8.643  15.338  12.342  1.00  0.00    -0.200 F 
ATOM     76  C   UNL     1       9.266  13.564  13.764  1.00  0.00     0.200 A 
ATOM     77  F   UNL     1       9.972  11.794  15.151  1.00  0.00    -0.200 F 
ATOM     78  F   UNL     1       8.554  14.091  14.769  1.00  0.00    -0.200 F 
ENDBRANCH  44  68
BRANCH  56  79
ATOM     79  C   UNL     1      13.493   8.481   7.093  1.00  0.00     0.064 A 
ATOM     80  C   UNL     1      14.829   8.810   7.346  1.00  0.00     0.173 A 
ATOM     81  C   UNL     1      12.967   8.776   5.825  1.00  0.00     0.173 A 
ATOM     82  F   UNL     1      15.380   8.540   8.539  1.00  0.00    -0.203 F 
ATOM     83  C   UNL     1      15.620   9.383   6.355  1.00  0.00     0.198 A 
ATOM     84  C   UNL     1      13.769   9.320   4.828  1.00  0.00     0.198 A 
ATOM     85  F   UNL     1      11.684   8.507   5.533  1.00  0.00    -0.203 F 
ATOM     86  F   UNL     1      16.902   9.679   6.611  1.00  0.00    -0.200 F 
ATOM     87  C   UNL     1      15.096   9.620   5.092  1.00  0.00     0.200 A 
ATOM     88  F   UNL     1      13.266   9.527   3.603  1.00  0.00    -0.200 F 
ATOM     89  F   UNL     1      15.874  10.124   4.125  1.00  0.00    -0.200 F 
ENDBRANCH  56  79
ENDBRANCH  30  31
ENDBRANCH  22  25
ENDBRANCH  20  21
ENDBRANCH   1  20
TORSDOF 11
