REMARK SMILES C/C=C(\C)[C@@H]1C=C[C@@H]2C[C@H](C)C[C@H](C)[C@@H]2[C@@H]1C(=O)C1=C(NCCCCNC(=O)c2ccc(-c3c4nc(c(-c5c(F)c(F)c(F)c(F)c5F)c5ccc([nH]5)c(-c5c(F)c(F)c(F)c(F)c5F)c5nc(c(-c6c(F)c(F)c(F)c(F)c6F)c6ccc3[nH]6)C=C5)C=C4)cc2)[C@H](C[C@](C)(O)C(=O)[O-])NC1=O
REMARK SMILES IDX 23 1 22 2 21 3 20 5 19 6 101 7 92 8 100 9 102 10 17 12 18 13
REMARK SMILES IDX 16 14 5 15 6 16 7 17 15 18 8 19 13 20 9 21 12 22 14 23 10 24
REMARK SMILES IDX 11 25 3 26 1 27 2 28 4 29 93 30 94 31 95 32 96 33 97 35
REMARK SMILES IDX 98 36 99 37 24 38 25 39 26 40 27 41 28 43 29 44 30 45 91 46
REMARK SMILES IDX 31 47 90 48 32 49 33 50 34 51 84 52 35 53 89 54 83 55 85 56
REMARK SMILES IDX 36 57 88 58 82 59 81 60 37 62 69 63 49 64 68 65 50 66 53 67
REMARK SMILES IDX 67 68 86 69 51 70 52 71 66 73 87 74 54 75 38 76 39 77 47 78
REMARK SMILES IDX 40 79 41 80 45 81 48 82 42 83 43 84 46 85 44 86 70 87 71 88
REMARK SMILES IDX 79 89 72 90 73 91 77 92 80 93 74 94 75 95 78 96 76 97 55 98
REMARK SMILES IDX 56 99 64 100 57 101 58 102 62 103 65 104 59 105 60 106
REMARK SMILES IDX 63 107 61 108
REMARK H PARENT 21 4 100 11 96 34 26 42 85 61 53 72
REMARK Flexibility Score: inf
ROOT
ATOM      1  C   UNL     1       2.630   9.436   1.986  1.00  0.00     0.023 C 
ENDROOT
BRANCH   1   2
ATOM      2  C   UNL     1       1.754   8.987   3.154  1.00  0.00     0.113 C 
BRANCH   2   3
ATOM      3  N   UNL     1       0.677   8.135   2.680  1.00  0.00    -0.386 N 
ATOM      4  H   UNL     1       0.404   8.252   1.741  1.00  0.00     0.160 HD
BRANCH   3   5
ATOM      5  C   UNL     1      -0.005   7.179   3.406  1.00  0.00     0.050 C 
ATOM      6  C   UNL     1       0.405   6.353   4.394  1.00  0.00     0.104 C 
ATOM      7  C   UNL     1      -0.846   5.757   4.906  1.00  0.00     0.257 C 
ATOM      8  C   UNL     1      -1.481   6.952   3.058  1.00  0.00     0.133 C 
ATOM      9  N   UNL     1      -1.803   5.878   3.937  1.00  0.00    -0.343 N 
ATOM     10  O   UNL     1      -1.095   5.321   6.014  1.00  0.00    -0.269 OA
ATOM     11  H   UNL     1      -2.600   5.306   3.859  1.00  0.00     0.164 HD
BRANCH   6  12
ATOM     12  C   UNL     1       1.748   6.223   5.018  1.00  0.00     0.174 C 
ATOM     13  O   UNL     1       2.007   6.972   5.968  1.00  0.00    -0.294 OA
BRANCH  12  14
ATOM     14  C   UNL     1       2.860   5.256   4.483  1.00  0.00     0.076 C 
ATOM     15  C   UNL     1       2.727   4.731   3.020  1.00  0.00     0.048 C 
ATOM     16  C   UNL     1       1.547   3.788   2.941  1.00  0.00    -0.022 C 
ATOM     17  C   UNL     1       1.243   2.984   3.981  1.00  0.00    -0.027 C 
ATOM     18  C   UNL     1       3.174   3.964   5.322  1.00  0.00     0.010 C 
ATOM     19  C   UNL     1       2.011   2.950   5.303  1.00  0.00     0.016 C 
ATOM     20  C   UNL     1       3.831   4.080   6.708  1.00  0.00    -0.010 C 
ATOM     21  C   UNL     1       1.065   3.111   6.495  1.00  0.00     0.011 C 
ATOM     22  C   UNL     1       2.842   4.420   7.809  1.00  0.00     0.007 C 
ATOM     23  C   UNL     1       5.046   5.007   6.721  1.00  0.00     0.008 C 
ATOM     24  C   UNL     1       1.690   3.414   7.863  1.00  0.00    -0.013 C 
ATOM     25  C   UNL     1       0.617   3.948   8.820  1.00  0.00     0.007 C 
BRANCH  15  26
ATOM     26  C   UNL     1       3.043   5.698   1.871  1.00  0.00    -0.070 C 
ATOM     27  C   UNL     1       2.676   6.583  -0.510  1.00  0.00     0.035 C 
ATOM     28  C   UNL     1       2.343   5.787   0.719  1.00  0.00    -0.031 C 
ATOM     29  C   UNL     1       4.368   6.420   2.071  1.00  0.00     0.040 C 
ENDBRANCH  15  26
ENDBRANCH  12  14
ENDBRANCH   6  12
BRANCH   8  30
ATOM     30  C   UNL     1      -2.399   8.145   3.401  1.00  0.00     0.072 C 
BRANCH  30  31
ATOM     31  C   UNL     1      -3.343   8.582   2.269  1.00  0.00     0.103 C 
ATOM     32  C   UNL     1      -2.612   9.433   1.235  1.00  0.00     0.049 C 
BRANCH  31  33
ATOM     33  O   UNL     1      -4.356   9.424   2.843  1.00  0.00    -0.384 OA
ATOM     34  H   UNL     1      -4.966   9.715   2.148  1.00  0.00     0.211 HD
ENDBRANCH  31  33
BRANCH  31  35
ATOM     35  C   UNL     1      -4.015   7.376   1.592  1.00  0.00     0.073 C 
ATOM     36  O   UNL     1      -3.698   6.850   0.538  1.00  0.00    -0.547 OA
ATOM     37  O   UNL     1      -5.025   6.871   2.336  1.00  0.00    -0.547 OA
ENDBRANCH  31  35
ENDBRANCH  30  31
ENDBRANCH   8  30
ENDBRANCH   3   5
ENDBRANCH   2   3
ENDBRANCH   1   2
BRANCH   1  38
ATOM     38  C   UNL     1       1.969  10.396   1.004  1.00  0.00     0.023 C 
BRANCH  38  39
ATOM     39  C   UNL     1       1.746  11.784   1.582  1.00  0.00     0.116 C 
BRANCH  39  40
ATOM     40  N   UNL     1       3.007  12.477   1.815  1.00  0.00    -0.352 N 
ATOM     41  C   UNL     1       3.550  13.546   1.146  1.00  0.00     0.251 C 
ATOM     42  H   UNL     1       3.548  12.128   2.559  1.00  0.00     0.163 HD
ATOM     43  O   UNL     1       4.724  13.858   1.312  1.00  0.00    -0.269 OA
BRANCH  41  44
ATOM     44  C   UNL     1       2.708  14.314   0.208  1.00  0.00     0.039 A 
ATOM     45  C   UNL     1       3.211  14.651  -1.051  1.00  0.00     0.014 A 
ATOM     46  C   UNL     1       1.414  14.689   0.576  1.00  0.00     0.014 A 
ATOM     47  C   UNL     1       2.385  15.298  -1.972  1.00  0.00     0.010 A 
ATOM     48  C   UNL     1       0.568  15.254  -0.367  1.00  0.00     0.010 A 
ATOM     49  C   UNL     1       1.046  15.569  -1.648  1.00  0.00    -0.014 A 
BRANCH  49  50
ATOM     50  C   UNL     1       0.117  16.210  -2.608  1.00  0.00     0.031 A 
ATOM     51  C   UNL     1      -0.490  17.541  -2.266  1.00  0.00     0.074 A 
ATOM     52  C   UNL     1      -0.266  15.553  -3.719  1.00  0.00     0.049 A 
ATOM     53  N   UNL     1      -1.478  18.175  -2.842  1.00  0.00    -0.248 NA
ATOM     54  C   UNL     1       0.057  18.226  -1.083  1.00  0.00     0.031 C 
ATOM     55  C   UNL     1       0.210  14.233  -4.135  1.00  0.00     0.029 A 
ATOM     56  N   UNL     1      -1.165  15.905  -4.694  1.00  0.00    -0.354 N 
ATOM     57  C   UNL     1      -1.716  19.291  -2.053  1.00  0.00     0.074 A 
ATOM     58  C   UNL     1      -0.776  19.247  -0.954  1.00  0.00     0.031 C 
ATOM     59  C   UNL     1      -0.385  13.896  -5.291  1.00  0.00     0.029 A 
ATOM     60  C   UNL     1      -1.308  14.959  -5.677  1.00  0.00     0.049 A 
ATOM     61  H   UNL     1      -1.660  16.756  -4.688  1.00  0.00     0.167 HD
ATOM     62  C   UNL     1      -2.635  20.268  -2.234  1.00  0.00     0.037 A 
ATOM     63  C   UNL     1      -2.101  14.952  -6.764  1.00  0.00     0.037 A 
ATOM     64  C   UNL     1      -3.505  20.357  -3.374  1.00  0.00     0.049 A 
ATOM     65  C   UNL     1      -3.019  16.114  -7.011  1.00  0.00     0.074 A 
ATOM     66  C   UNL     1      -4.419  21.346  -3.691  1.00  0.00     0.029 A 
ATOM     67  N   UNL     1      -3.543  19.428  -4.403  1.00  0.00    -0.354 N 
ATOM     68  N   UNL     1      -3.232  17.170  -6.265  1.00  0.00    -0.248 NA
ATOM     69  C   UNL     1      -3.809  16.084  -8.251  1.00  0.00     0.031 C 
ATOM     70  C   UNL     1      -5.012  21.014  -4.915  1.00  0.00     0.029 A 
ATOM     71  C   UNL     1      -4.455  19.827  -5.364  1.00  0.00     0.049 A 
ATOM     72  H   UNL     1      -3.002  18.606  -4.443  1.00  0.00     0.167 HD
ATOM     73  C   UNL     1      -4.167  17.935  -6.945  1.00  0.00     0.074 A 
ATOM     74  C   UNL     1      -4.474  17.229  -8.172  1.00  0.00     0.031 C 
ATOM     75  C   UNL     1      -4.728  19.113  -6.582  1.00  0.00     0.037 A 
BRANCH  62  76
ATOM     76  C   UNL     1      -2.738  21.318  -1.171  1.00  0.00     0.064 A 
ATOM     77  C   UNL     1      -1.773  22.326  -1.037  1.00  0.00     0.173 A 
ATOM     78  C   UNL     1      -3.821  21.317  -0.280  1.00  0.00     0.173 A 
ATOM     79  F   UNL     1      -0.710  22.355  -1.854  1.00  0.00    -0.203 F 
ATOM     80  C   UNL     1      -1.875  23.282  -0.030  1.00  0.00     0.198 A 
ATOM     81  C   UNL     1      -3.931  22.288   0.712  1.00  0.00     0.198 A 
ATOM     82  F   UNL     1      -4.769  20.372  -0.368  1.00  0.00    -0.203 F 
ATOM     83  F   UNL     1      -0.917  24.209   0.110  1.00  0.00    -0.200 F 
ATOM     84  C   UNL     1      -2.955  23.265   0.840  1.00  0.00     0.200 A 
ATOM     85  F   UNL     1      -4.977  22.273   1.550  1.00  0.00    -0.200 F 
ATOM     86  F   UNL     1      -3.049  24.184   1.810  1.00  0.00    -0.200 F 
ENDBRANCH  62  76
BRANCH  63  87
ATOM     87  C   UNL     1      -2.030  13.821  -7.720  1.00  0.00     0.064 A 
ATOM     88  C   UNL     1      -1.348  13.962  -8.936  1.00  0.00     0.173 A 
ATOM     89  C   UNL     1      -2.623  12.584  -7.437  1.00  0.00     0.173 A 
ATOM     90  F   UNL     1      -0.782  15.136  -9.253  1.00  0.00    -0.203 F 
ATOM     91  C   UNL     1      -1.271  12.908  -9.842  1.00  0.00     0.198 A 
ATOM     92  C   UNL     1      -2.531  11.524  -8.338  1.00  0.00     0.198 A 
ATOM     93  F   UNL     1      -3.281  12.402  -6.283  1.00  0.00    -0.203 F 
ATOM     94  F   UNL     1      -0.636  13.075 -11.010  1.00  0.00    -0.200 F 
ATOM     95  C   UNL     1      -1.859  11.688  -9.541  1.00  0.00     0.200 A 
ATOM     96  F   UNL     1      -3.093  10.345  -8.041  1.00  0.00    -0.200 F 
ATOM     97  F   UNL     1      -1.782  10.673 -10.411  1.00  0.00    -0.200 F 
ENDBRANCH  63  87
BRANCH  75  98
ATOM     98  C   UNL     1      -5.707  19.722  -7.535  1.00  0.00     0.064 A 
ATOM     99  C   UNL     1      -7.036  19.280  -7.589  1.00  0.00     0.173 A 
ATOM    100  C   UNL     1      -5.324  20.786  -8.363  1.00  0.00     0.173 A 
ATOM    101  F   UNL     1      -7.438  18.255  -6.823  1.00  0.00    -0.203 F 
ATOM    102  C   UNL     1      -7.949  19.880  -8.450  1.00  0.00     0.198 A 
ATOM    103  C   UNL     1      -6.244  21.392  -9.213  1.00  0.00     0.198 A 
ATOM    104  F   UNL     1      -4.062  21.238  -8.341  1.00  0.00    -0.203 F 
ATOM    105  F   UNL     1      -9.210  19.430  -8.506  1.00  0.00    -0.200 F 
ATOM    106  C   UNL     1      -7.554  20.938  -9.257  1.00  0.00     0.200 A 
ATOM    107  F   UNL     1      -5.863  22.414  -9.991  1.00  0.00    -0.200 F 
ATOM    108  F   UNL     1      -8.436  21.516 -10.084  1.00  0.00    -0.200 F 
ENDBRANCH  75  98
ENDBRANCH  49  50
ENDBRANCH  41  44
ENDBRANCH  39  40
ENDBRANCH  38  39
ENDBRANCH   1  38
TORSDOF 18
