REMARK SMILES O=C(NCCCCNC(=O)[C@]1(NC(=O)c2nc(C3CC3)n[nH]2)CCSC1)c1ccc(-c2c3nc(c(-c4c(F)c(F)c(F)c(F)c4F)c4ccc([nH]4)c(-c4c(F)c(F)c(F)c(F)c4F)c4nc(c(-c5c(F)c(F)c(F)c(F)c5F)c5ccc2[nH]5)C=C4)C=C3)cc1
REMARK SMILES IDX 6 1 5 2 4 3 3 4 1 5 2 6 27 8 28 9 89 10 29 11 88 12 30 13
REMARK SMILES IDX 31 14 32 15 82 16 33 17 87 18 81 19 83 20 34 21 86 22 80 23
REMARK SMILES IDX 79 24 35 26 67 27 47 28 66 29 48 30 51 31 65 32 84 33 49 34
REMARK SMILES IDX 50 35 64 37 85 38 52 39 36 40 37 41 45 42 38 43 39 44 43 45
REMARK SMILES IDX 46 46 40 47 41 48 44 49 42 50 68 51 69 52 77 53 70 54 71 55
REMARK SMILES IDX 75 56 78 57 72 58 73 59 76 60 74 61 53 62 54 63 62 64 55 65
REMARK SMILES IDX 56 66 60 67 63 68 57 69 58 70 61 71 59 72 7 73 8 74 9 75
REMARK SMILES IDX 10 77 11 78 23 79 26 80 24 81 25 82 12 83 13 84 14 86 15 87
REMARK SMILES IDX 16 88 22 89 17 90 21 91 18 93 19 94 20 95
REMARK H PARENT 3 7 83 25 51 36 8 76 12 85 22 92
REMARK Flexibility Score: inf
ROOT
ATOM      1  C   UNL     1       4.210   1.696   3.929  1.00  0.00     0.023 C 
ENDROOT
BRANCH   1   2
ATOM      2  C   UNL     1       4.699   2.014   2.509  1.00  0.00     0.023 C 
BRANCH   2   3
ATOM      3  C   UNL     1       4.622   0.872   1.496  1.00  0.00     0.116 C 
BRANCH   3   4
ATOM      4  N   UNL     1       3.260   0.419   1.272  1.00  0.00    -0.352 N 
ATOM      5  O   UNL     1       1.363   0.024   0.131  1.00  0.00    -0.269 OA
ATOM      6  C   UNL     1       2.565   0.274   0.097  1.00  0.00     0.251 C 
ATOM      7  H   UNL     1       2.760   0.180   2.086  1.00  0.00     0.163 HD
BRANCH   6   8
ATOM      8  C   UNL     1       3.238   0.441  -1.211  1.00  0.00     0.039 A 
ATOM      9  C   UNL     1       4.452  -0.190  -1.498  1.00  0.00     0.014 A 
ATOM     10  C   UNL     1       2.602   1.213  -2.191  1.00  0.00     0.014 A 
ATOM     11  C   UNL     1       5.075   0.029  -2.729  1.00  0.00     0.010 A 
ATOM     12  C   UNL     1       3.212   1.408  -3.433  1.00  0.00     0.010 A 
ATOM     13  C   UNL     1       4.467   0.842  -3.700  1.00  0.00    -0.014 A 
BRANCH  13  14
ATOM     14  C   UNL     1       5.151   1.106  -4.989  1.00  0.00     0.031 A 
ATOM     15  C   UNL     1       5.795   2.438  -5.246  1.00  0.00     0.074 A 
ATOM     16  C   UNL     1       5.189   0.150  -5.934  1.00  0.00     0.049 A 
ATOM     17  N   UNL     1       6.444   2.852  -6.306  1.00  0.00    -0.248 NA
ATOM     18  C   UNL     1       5.690   3.441  -4.176  1.00  0.00     0.031 C 
ATOM     19  C   UNL     1       4.577  -1.173  -5.819  1.00  0.00     0.029 A 
ATOM     20  N   UNL     1       5.763   0.149  -7.180  1.00  0.00    -0.354 N 
ATOM     21  C   UNL     1       6.813   4.161  -6.037  1.00  0.00     0.074 A 
ATOM     22  C   UNL     1       6.303   4.484  -4.721  1.00  0.00     0.031 C 
ATOM     23  C   UNL     1       4.815  -1.862  -6.947  1.00  0.00     0.029 A 
ATOM     24  C   UNL     1       5.582  -1.024  -7.866  1.00  0.00     0.049 A 
ATOM     25  H   UNL     1       6.259   0.918  -7.546  1.00  0.00     0.167 HD
ATOM     26  C   UNL     1       7.523   5.015  -6.812  1.00  0.00     0.037 A 
ATOM     27  C   UNL     1       5.987  -1.383  -9.099  1.00  0.00     0.037 A 
ATOM     28  C   UNL     1       8.063   4.694  -8.106  1.00  0.00     0.049 A 
ATOM     29  C   UNL     1       6.787  -0.425  -9.932  1.00  0.00     0.074 A 
ATOM     30  C   UNL     1       8.863   5.471  -8.926  1.00  0.00     0.029 A 
ATOM     31  N   UNL     1       7.854   3.495  -8.769  1.00  0.00    -0.354 N 
ATOM     32  N   UNL     1       7.175   0.792  -9.643  1.00  0.00    -0.248 NA
ATOM     33  C   UNL     1       7.205  -0.891 -11.262  1.00  0.00     0.031 C 
ATOM     34  C   UNL     1       9.122   4.749 -10.097  1.00  0.00     0.029 A 
ATOM     35  C   UNL     1       8.494   3.519  -9.997  1.00  0.00     0.049 A 
ATOM     36  H   UNL     1       7.329   2.740  -8.420  1.00  0.00     0.167 HD
ATOM     37  C   UNL     1       7.880   1.239 -10.751  1.00  0.00     0.074 A 
ATOM     38  C   UNL     1       7.881   0.158 -11.714  1.00  0.00     0.031 C 
ATOM     39  C   UNL     1       8.471   2.441 -10.950  1.00  0.00     0.037 A 
BRANCH  26  40
ATOM     40  C   UNL     1       7.765   6.390  -6.276  1.00  0.00     0.064 A 
ATOM     41  C   UNL     1       8.770   6.635  -5.331  1.00  0.00     0.173 A 
ATOM     42  C   UNL     1       7.016   7.478  -6.747  1.00  0.00     0.173 A 
ATOM     43  F   UNL     1       9.500   5.621  -4.844  1.00  0.00    -0.203 F 
ATOM     44  C   UNL     1       9.012   7.925  -4.867  1.00  0.00     0.198 A 
ATOM     45  C   UNL     1       7.269   8.768  -6.290  1.00  0.00     0.198 A 
ATOM     46  F   UNL     1       6.044   7.289  -7.652  1.00  0.00    -0.203 F 
ATOM     47  F   UNL     1       9.962   8.137  -3.946  1.00  0.00    -0.200 F 
ATOM     48  C   UNL     1       8.265   8.990  -5.349  1.00  0.00     0.200 A 
ATOM     49  F   UNL     1       6.548   9.796  -6.756  1.00  0.00    -0.200 F 
ATOM     50  F   UNL     1       8.501  10.231  -4.903  1.00  0.00    -0.200 F 
ENDBRANCH  26  40
BRANCH  27  51
ATOM     51  C   UNL     1       5.641  -2.729  -9.610  1.00  0.00     0.064 A 
ATOM     52  C   UNL     1       6.588  -3.760  -9.616  1.00  0.00     0.173 A 
ATOM     53  C   UNL     1       4.349  -3.016 -10.070  1.00  0.00     0.173 A 
ATOM     54  F   UNL     1       7.841  -3.520  -9.204  1.00  0.00    -0.203 F 
ATOM     55  C   UNL     1       6.254  -5.035 -10.065  1.00  0.00     0.198 A 
ATOM     56  C   UNL     1       4.012  -4.294 -10.507  1.00  0.00     0.198 A 
ATOM     57  F   UNL     1       3.413  -2.056 -10.083  1.00  0.00    -0.203 F 
ATOM     58  F   UNL     1       7.180  -6.003 -10.077  1.00  0.00    -0.200 F 
ATOM     59  C   UNL     1       4.965  -5.303 -10.504  1.00  0.00     0.200 A 
ATOM     60  F   UNL     1       2.766  -4.551 -10.927  1.00  0.00    -0.200 F 
ATOM     61  F   UNL     1       4.642  -6.532 -10.928  1.00  0.00    -0.200 F 
ENDBRANCH  27  51
BRANCH  39  62
ATOM     62  C   UNL     1       9.154   2.654 -12.264  1.00  0.00     0.064 A 
ATOM     63  C   UNL     1       8.421   2.993 -13.409  1.00  0.00     0.173 A 
ATOM     64  C   UNL     1      10.547   2.556 -12.371  1.00  0.00     0.173 A 
ATOM     65  F   UNL     1       7.083   3.083 -13.353  1.00  0.00    -0.203 F 
ATOM     66  C   UNL     1       9.061   3.216 -14.625  1.00  0.00     0.198 A 
ATOM     67  C   UNL     1      11.186   2.791 -13.586  1.00  0.00     0.198 A 
ATOM     68  F   UNL     1      11.287   2.235 -11.300  1.00  0.00    -0.203 F 
ATOM     69  F   UNL     1       8.342   3.515 -15.715  1.00  0.00    -0.200 F 
ATOM     70  C   UNL     1      10.443   3.118 -14.711  1.00  0.00     0.200 A 
ATOM     71  F   UNL     1      12.520   2.697 -13.669  1.00  0.00    -0.200 F 
ATOM     72  F   UNL     1      11.058   3.333 -15.882  1.00  0.00    -0.200 F 
ENDBRANCH  39  62
ENDBRANCH  13  14
ENDBRANCH   6   8
ENDBRANCH   3   4
ENDBRANCH   2   3
ENDBRANCH   1   2
BRANCH   1  73
ATOM     73  C   UNL     1       4.781   0.426   4.559  1.00  0.00     0.116 C 
BRANCH  73  74
ATOM     74  N   UNL     1       6.228   0.431   4.614  1.00  0.00    -0.354 N 
ATOM     75  C   UNL     1       7.104  -0.383   5.274  1.00  0.00     0.246 C 
ATOM     76  H   UNL     1       6.654   1.144   4.086  1.00  0.00     0.163 HD
ATOM     77  O   UNL     1       8.295  -0.072   5.164  1.00  0.00    -0.272 OA
BRANCH  75  78
ATOM     78  C   UNL     1       6.626  -1.465   6.300  1.00  0.00     0.129 C 
ATOM     79  C   UNL     1       6.332  -0.706   7.624  1.00  0.00     0.050 C 
ATOM     80  C   UNL     1       7.756  -2.468   6.633  1.00  0.00     0.108 C 
ATOM     81  C   UNL     1       7.649  -0.387   8.308  1.00  0.00     0.072 C 
ATOM     82  S   UNL     1       8.566  -1.932   8.180  1.00  0.00    -0.159 SA
BRANCH  78  83
ATOM     83  N   UNL     1       5.375  -2.171   5.915  1.00  0.00    -0.334 N 
ATOM     84  C   UNL     1       5.065  -2.919   4.806  1.00  0.00     0.289 C 
ATOM     85  H   UNL     1       4.643  -2.087   6.568  1.00  0.00     0.165 HD
ATOM     86  O   UNL     1       3.951  -3.446   4.781  1.00  0.00    -0.266 OA
BRANCH  84  87
ATOM     87  C   UNL     1       5.945  -2.957   3.670  1.00  0.00     0.214 A 
ATOM     88  N   UNL     1       7.252  -2.810   3.649  1.00  0.00    -0.207 NA
ATOM     89  N   UNL     1       5.502  -3.118   2.389  1.00  0.00    -0.255 N 
ATOM     90  C   UNL     1       7.550  -2.801   2.309  1.00  0.00     0.154 A 
ATOM     91  N   UNL     1       6.489  -2.920   1.501  1.00  0.00    -0.158 NA
ATOM     92  H   UNL     1       4.576  -3.350   2.148  1.00  0.00     0.192 HD
BRANCH  90  93
ATOM     93  C   UNL     1       8.961  -2.654   1.770  1.00  0.00     0.060 C 
ATOM     94  C   UNL     1      10.020  -2.026   2.653  1.00  0.00     0.012 C 
ATOM     95  C   UNL     1      10.062  -3.493   2.386  1.00  0.00     0.012 C 
ENDBRANCH  90  93
ENDBRANCH  84  87
ENDBRANCH  78  83
ENDBRANCH  75  78
ENDBRANCH  73  74
ENDBRANCH   1  73
TORSDOF 14
