REMARK SMILES COc1cc([C@@H]2[NH2+][C@H](C(=O)NCCCCNC(=O)c3ccc(-c4c5nc(c(-c6c(F)c(F)c(F)c(F)c6F)c6ccc([nH]6)c(-c6c(F)c(F)c(F)c(F)c6F)c6nc(c(-c7c(F)c(F)c(F)c(F)c7F)c7ccc4[nH]7)C=C6)C=C5)cc3)CS2)ccc1OCc1ccc(Cl)cc1
REMARK SMILES IDX 12 1 11 2 9 3 10 4 8 6 6 7 7 8 83 9 82 12 5 13 3 14 4 15
REMARK SMILES IDX 86 16 85 17 84 18 2 19 1 20 87 21 88 22 89 23 90 24 95 25
REMARK SMILES IDX 91 26 94 27 92 28 93 29 13 30 14 31 15 32 16 33 17 34 18 36
REMARK SMILES IDX 19 37 20 38 81 39 21 40 80 41 22 42 23 43 24 44 74 45 25 46
REMARK SMILES IDX 79 47 73 48 75 49 26 50 78 51 72 52 71 53 27 55 59 56 39 57
REMARK SMILES IDX 58 58 40 59 43 60 57 61 76 62 41 63 42 64 56 66 77 67 44 68
REMARK SMILES IDX 28 69 29 70 37 71 30 72 31 73 35 74 38 75 32 76 33 77 36 78
REMARK SMILES IDX 34 79 60 80 61 81 69 82 62 83 63 84 67 85 70 86 64 87 65 88
REMARK SMILES IDX 68 89 66 90 45 91 46 92 54 93 47 94 48 95 52 96 55 97 49 98
REMARK SMILES IDX 50 99 53 100 51 101
REMARK H PARENT 11 5 7 10 7 11 16 35 75 54 43 65
REMARK Flexibility Score: inf
ROOT
ATOM      1  C   UNL     1       3.163   3.913  -4.066  1.00  0.00     0.116 C 
ENDROOT
BRANCH   1   2
ATOM      2  N   UNL     1       3.238   4.272  -5.471  1.00  0.00    -0.351 N 
ATOM      3  C   UNL     1       2.300   4.774  -6.325  1.00  0.00     0.279 C 
ATOM      4  O   UNL     1       2.663   4.989  -7.487  1.00  0.00    -0.268 OA
ATOM      5  H   UNL     1       4.122   4.127  -5.880  1.00  0.00     0.163 HD
BRANCH   3   6
ATOM      6  C   UNL     1       0.859   5.102  -5.897  1.00  0.00     0.283 C 
ATOM      7  C   UNL     1      -0.882   4.321  -4.394  1.00  0.00     0.274 C 
ATOM      8  N   UNL     1       0.207   3.926  -5.296  1.00  0.00    -0.321 N 
ATOM      9  S   UNL     1      -0.878   6.137  -4.266  1.00  0.00    -0.088 SA
ATOM     10  H   UNL     1      -0.173   3.341  -6.040  1.00  0.00     0.348 HD
ATOM     11  H   UNL     1       0.904   3.414  -4.755  1.00  0.00     0.348 HD
ATOM     12  C   UNL     1       0.784   6.295  -4.962  1.00  0.00     0.151 C 
BRANCH   7  13
ATOM     13  C   UNL     1      -0.658   3.557  -3.091  1.00  0.00     0.024 A 
ATOM     14  C   UNL     1      -0.239   1.335  -2.127  1.00  0.00     0.161 A 
ATOM     15  C   UNL     1      -0.882   2.159  -3.066  1.00  0.00     0.061 A 
ATOM     16  C   UNL     1       0.659   1.917  -1.238  1.00  0.00     0.161 A 
ATOM     17  C   UNL     1       0.689   3.309  -1.110  1.00  0.00     0.051 A 
ATOM     18  C   UNL     1       0.034   4.127  -2.018  1.00  0.00     0.015 A 
BRANCH  14  19
ATOM     19  O   UNL     1      -0.373  -0.017  -2.286  1.00  0.00    -0.493 OA
ATOM     20  C   UNL     1      -1.178  -0.582  -1.246  1.00  0.00     0.278 C 
ENDBRANCH  14  19
BRANCH  16  21
ATOM     21  O   UNL     1       1.780   1.337  -0.712  1.00  0.00    -0.485 OA
BRANCH  21  22
ATOM     22  C   UNL     1       1.734   0.166   0.083  1.00  0.00     0.265 C 
BRANCH  22  23
ATOM     23  C   UNL     1       0.938   0.316   1.356  1.00  0.00    -0.011 A 
ATOM     24  C   UNL     1       0.689   1.574   1.925  1.00  0.00     0.009 A 
ATOM     25  C   UNL     1       0.439  -0.821   2.000  1.00  0.00     0.009 A 
ATOM     26  C   UNL     1      -0.156   1.715   3.020  1.00  0.00     0.021 A 
ATOM     27  C   UNL     1      -0.390  -0.686   3.115  1.00  0.00     0.021 A 
ATOM     28  C   UNL     1      -0.709   0.582   3.600  1.00  0.00     0.041 A 
ATOM     29  Cl  UNL     1      -1.799   0.748   4.918  1.00  0.00    -0.084 Cl
ENDBRANCH  22  23
ENDBRANCH  21  22
ENDBRANCH  16  21
ENDBRANCH   7  13
ENDBRANCH   3   6
ENDBRANCH   1   2
BRANCH   1  30
ATOM     30  C   UNL     1       3.163   2.400  -3.860  1.00  0.00     0.023 C 
BRANCH  30  31
ATOM     31  C   UNL     1       4.255   1.786  -2.975  1.00  0.00     0.023 C 
BRANCH  31  32
ATOM     32  C   UNL     1       4.961   2.629  -1.918  1.00  0.00     0.116 C 
BRANCH  32  33
ATOM     33  N   UNL     1       4.148   3.059  -0.791  1.00  0.00    -0.352 N 
ATOM     34  C   UNL     1       4.297   2.796   0.554  1.00  0.00     0.251 C 
ATOM     35  H   UNL     1       3.375   3.623  -1.023  1.00  0.00     0.163 HD
ATOM     36  O   UNL     1       3.492   3.217   1.385  1.00  0.00    -0.269 OA
BRANCH  34  37
ATOM     37  C   UNL     1       5.449   1.999   1.004  1.00  0.00     0.039 A 
ATOM     38  C   UNL     1       5.275   0.858   1.799  1.00  0.00     0.014 A 
ATOM     39  C   UNL     1       6.717   2.385   0.577  1.00  0.00     0.014 A 
ATOM     40  C   UNL     1       6.376   0.044   2.083  1.00  0.00     0.010 A 
ATOM     41  C   UNL     1       7.784   1.533   0.777  1.00  0.00     0.010 A 
ATOM     42  C   UNL     1       7.628   0.366   1.545  1.00  0.00    -0.014 A 
BRANCH  42  43
ATOM     43  C   UNL     1       8.862  -0.402   1.817  1.00  0.00     0.031 A 
ATOM     44  C   UNL     1       9.967   0.304   2.547  1.00  0.00     0.074 A 
ATOM     45  C   UNL     1       9.057  -1.598   1.236  1.00  0.00     0.049 A 
ATOM     46  N   UNL     1      11.239   0.018   2.617  1.00  0.00    -0.248 NA
ATOM     47  C   UNL     1       9.591   1.561   3.217  1.00  0.00     0.031 C 
ATOM     48  C   UNL     1       8.063  -2.334   0.455  1.00  0.00     0.029 A 
ATOM     49  N   UNL     1      10.185  -2.374   1.161  1.00  0.00    -0.354 N 
ATOM     50  C   UNL     1      11.820   1.089   3.284  1.00  0.00     0.074 A 
ATOM     51  C   UNL     1      10.774   2.053   3.542  1.00  0.00     0.031 C 
ATOM     52  C   UNL     1       8.632  -3.446  -0.039  1.00  0.00     0.029 A 
ATOM     53  C   UNL     1      10.037  -3.476   0.356  1.00  0.00     0.049 A 
ATOM     54  H   UNL     1      11.020  -2.162   1.639  1.00  0.00     0.167 HD
ATOM     55  C   UNL     1      13.113   1.242   3.657  1.00  0.00     0.037 A 
ATOM     56  C   UNL     1      10.948  -4.386  -0.038  1.00  0.00     0.037 A 
ATOM     57  C   UNL     1      14.119   0.242   3.421  1.00  0.00     0.049 A 
ATOM     58  C   UNL     1      12.365  -4.242   0.449  1.00  0.00     0.074 A 
ATOM     59  C   UNL     1      15.437   0.222   3.836  1.00  0.00     0.029 A 
ATOM     60  N   UNL     1      13.905  -0.928   2.702  1.00  0.00    -0.354 N 
ATOM     61  N   UNL     1      12.903  -3.268   1.145  1.00  0.00    -0.248 NA
ATOM     62  C   UNL     1      13.297  -5.323   0.110  1.00  0.00     0.031 C 
ATOM     63  C   UNL     1      16.032  -0.940   3.331  1.00  0.00     0.029 A 
ATOM     64  C   UNL     1      15.071  -1.671   2.647  1.00  0.00     0.049 A 
ATOM     65  H   UNL     1      13.049  -1.190   2.292  1.00  0.00     0.167 HD
ATOM     66  C   UNL     1      14.228  -3.626   1.347  1.00  0.00     0.074 A 
ATOM     67  C   UNL     1      14.407  -4.916   0.710  1.00  0.00     0.031 C 
ATOM     68  C   UNL     1      15.210  -2.954   2.001  1.00  0.00     0.037 A 
BRANCH  55  69
ATOM     69  C   UNL     1      13.489   2.527   4.340  1.00  0.00     0.064 A 
ATOM     70  C   UNL     1      12.966   2.884   5.595  1.00  0.00     0.173 A 
ATOM     71  C   UNL     1      14.361   3.434   3.719  1.00  0.00     0.173 A 
ATOM     72  F   UNL     1      12.118   2.062   6.231  1.00  0.00    -0.203 F 
ATOM     73  C   UNL     1      13.253   4.120   6.170  1.00  0.00     0.198 A 
ATOM     74  C   UNL     1      14.679   4.652   4.317  1.00  0.00     0.198 A 
ATOM     75  F   UNL     1      14.896   3.149   2.522  1.00  0.00    -0.203 F 
ATOM     76  F   UNL     1      12.671   4.469   7.326  1.00  0.00    -0.200 F 
ATOM     77  C   UNL     1      14.113   5.001   5.533  1.00  0.00     0.200 A 
ATOM     78  F   UNL     1      15.521   5.497   3.706  1.00  0.00    -0.200 F 
ATOM     79  F   UNL     1      14.383   6.192   6.085  1.00  0.00    -0.200 F 
ENDBRANCH  55  69
BRANCH  56  80
ATOM     80  C   UNL     1      10.527  -5.518  -0.905  1.00  0.00     0.064 A 
ATOM     81  C   UNL     1      10.408  -6.813  -0.383  1.00  0.00     0.173 A 
ATOM     82  C   UNL     1      10.176  -5.323  -2.249  1.00  0.00     0.173 A 
ATOM     83  F   UNL     1      10.746  -7.053   0.892  1.00  0.00    -0.203 F 
ATOM     84  C   UNL     1       9.958  -7.871  -1.172  1.00  0.00     0.198 A 
ATOM     85  C   UNL     1       9.703  -6.377  -3.031  1.00  0.00     0.198 A 
ATOM     86  F   UNL     1      10.261  -4.101  -2.796  1.00  0.00    -0.203 F 
ATOM     87  F   UNL     1       9.874  -9.102  -0.651  1.00  0.00    -0.200 F 
ATOM     88  C   UNL     1       9.596  -7.650  -2.492  1.00  0.00     0.200 A 
ATOM     89  F   UNL     1       9.336  -6.155  -4.301  1.00  0.00    -0.200 F 
ATOM     90  F   UNL     1       9.142  -8.663  -3.243  1.00  0.00    -0.200 F 
ENDBRANCH  56  80
BRANCH  68  91
ATOM     91  C   UNL     1      16.553  -3.617   2.080  1.00  0.00     0.064 A 
ATOM     92  C   UNL     1      17.393  -3.714   0.961  1.00  0.00     0.173 A 
ATOM     93  C   UNL     1      17.025  -4.112   3.305  1.00  0.00     0.173 A 
ATOM     94  F   UNL     1      16.980  -3.266  -0.234  1.00  0.00    -0.203 F 
ATOM     95  C   UNL     1      18.648  -4.306   1.061  1.00  0.00     0.198 A 
ATOM     96  C   UNL     1      18.293  -4.674   3.408  1.00  0.00     0.198 A 
ATOM     97  F   UNL     1      16.262  -4.034   4.405  1.00  0.00    -0.203 F 
ATOM     98  F   UNL     1      19.417  -4.429  -0.029  1.00  0.00    -0.200 F 
ATOM     99  C   UNL     1      19.101  -4.777   2.285  1.00  0.00     0.200 A 
ATOM    100  F   UNL     1      18.735  -5.114   4.594  1.00  0.00    -0.200 F 
ATOM    101  F   UNL     1      20.315  -5.336   2.381  1.00  0.00    -0.200 F 
ENDBRANCH  68  91
ENDBRANCH  42  43
ENDBRANCH  34  37
ENDBRANCH  32  33
ENDBRANCH  31  32
ENDBRANCH  30  31
ENDBRANCH   1  30
TORSDOF 16
