REMARK SMILES CCOc1ccc(N2C[C@H](C(=O)NCCCCNC(=O)c3ccc(-c4c5nc(c(-c6c(F)c(F)c(F)c(F)c6F)c6ccc([nH]6)c(-c6c(F)c(F)c(F)c(F)c6F)c6nc(c(-c7c(F)c(F)c(F)c(F)c7F)c7ccc4[nH]7)C=C6)C=C5)cc3)CC2=O)cc1C(F)(F)F
REMARK SMILES IDX 15 1 14 2 13 3 11 4 12 5 10 7 8 8 9 9 85 10 84 11 86 12 7 13
REMARK SMILES IDX 4 14 5 15 88 16 6 17 87 18 3 19 2 20 1 21 89 22 90 23 91 24
REMARK SMILES IDX 92 25 16 26 17 27 18 28 19 29 20 31 21 32 22 33 83 34 23 35
REMARK SMILES IDX 82 36 24 37 25 38 26 39 76 40 27 41 81 42 75 43 77 44 28 45
REMARK SMILES IDX 80 46 74 47 73 48 29 50 61 51 41 52 60 53 42 54 45 55 59 56
REMARK SMILES IDX 78 57 43 58 44 59 58 61 79 62 46 63 30 64 31 65 39 66 32 67
REMARK SMILES IDX 33 68 37 69 40 70 34 71 35 72 38 73 36 74 62 75 63 76 71 77
REMARK SMILES IDX 64 78 65 79 69 80 72 81 66 82 67 83 70 84 68 85 47 86 48 87
REMARK SMILES IDX 56 88 49 89 50 90 54 91 57 92 51 93 52 94 55 95 53 96
REMARK H PARENT 13 6 18 30 77 49 45 60
REMARK Flexibility Score: inf
ROOT
ATOM      1  C   UNL     1      10.613   6.269   0.561  1.00  0.00     0.023 C 
ENDROOT
BRANCH   1   2
ATOM      2  C   UNL     1      10.770   5.444   1.843  1.00  0.00     0.116 C 
BRANCH   2   3
ATOM      3  N   UNL     1       9.645   5.654   2.733  1.00  0.00    -0.356 N 
ATOM      4  C   UNL     1       8.567   4.869   3.006  1.00  0.00     0.225 C 
ATOM      5  O   UNL     1       7.720   5.331   3.771  1.00  0.00    -0.275 OA
ATOM      6  H   UNL     1       9.664   6.508   3.223  1.00  0.00     0.163 HD
BRANCH   4   7
ATOM      7  C   UNL     1       8.494   3.439   2.487  1.00  0.00     0.107 C 
ATOM      8  N   UNL     1       6.366   2.917   1.625  1.00  0.00    -0.312 N 
ATOM      9  C   UNL     1       7.153   2.787   2.829  1.00  0.00     0.139 C 
ATOM     10  C   UNL     1       7.151   3.273   0.532  1.00  0.00     0.227 C 
ATOM     11  C   UNL     1       8.576   3.293   0.976  1.00  0.00     0.116 C 
ATOM     12  O   UNL     1       6.812   3.511  -0.619  1.00  0.00    -0.274 OA
BRANCH   8  13
ATOM     13  C   UNL     1       5.002   2.576   1.530  1.00  0.00     0.044 A 
ATOM     14  C   UNL     1       2.291   1.929   1.195  1.00  0.00     0.131 A 
ATOM     15  C   UNL     1       2.746   2.476   2.402  1.00  0.00     0.049 A 
ATOM     16  C   UNL     1       3.172   1.712   0.139  1.00  0.00     0.100 A 
ATOM     17  C   UNL     1       4.104   2.777   2.578  1.00  0.00     0.030 A 
ATOM     18  C   UNL     1       4.524   2.027   0.335  1.00  0.00     0.043 A 
BRANCH  14  19
ATOM     19  O   UNL     1       0.951   1.734   1.017  1.00  0.00    -0.493 OA
BRANCH  19  20
ATOM     20  C   UNL     1       0.472   0.526   1.618  1.00  0.00     0.226 C 
ATOM     21  C   UNL     1       0.196  -0.504   0.535  1.00  0.00     0.049 C 
ENDBRANCH  19  20
ENDBRANCH  14  19
BRANCH  16  22
ATOM     22  C   UNL     1       2.775   1.111  -1.179  1.00  0.00     0.420 C 
ATOM     23  F   UNL     1       3.549   1.546  -2.216  1.00  0.00    -0.166 F 
ATOM     24  F   UNL     1       2.922  -0.247  -1.177  1.00  0.00    -0.166 F 
ATOM     25  F   UNL     1       1.493   1.351  -1.566  1.00  0.00    -0.166 F 
ENDBRANCH  16  22
ENDBRANCH   8  13
ENDBRANCH   4   7
ENDBRANCH   2   3
ENDBRANCH   1   2
BRANCH   1  26
ATOM     26  C   UNL     1      10.665   7.783   0.770  1.00  0.00     0.023 C 
BRANCH  26  27
ATOM     27  C   UNL     1      11.926   8.290   1.453  1.00  0.00     0.116 C 
BRANCH  27  28
ATOM     28  N   UNL     1      13.138   7.931   0.734  1.00  0.00    -0.352 N 
ATOM     29  C   UNL     1      14.232   8.707   0.446  1.00  0.00     0.251 C 
ATOM     30  H   UNL     1      13.178   7.003   0.408  1.00  0.00     0.163 HD
ATOM     31  O   UNL     1      15.111   8.285  -0.298  1.00  0.00    -0.269 OA
BRANCH  29  32
ATOM     32  C   UNL     1      14.329  10.067   1.012  1.00  0.00     0.039 A 
ATOM     33  C   UNL     1      14.701  11.119   0.172  1.00  0.00     0.014 A 
ATOM     34  C   UNL     1      14.031  10.308   2.356  1.00  0.00     0.014 A 
ATOM     35  C   UNL     1      14.711  12.423   0.666  1.00  0.00     0.010 A 
ATOM     36  C   UNL     1      13.959  11.616   2.823  1.00  0.00     0.010 A 
ATOM     37  C   UNL     1      14.303  12.686   1.984  1.00  0.00    -0.014 A 
BRANCH  37  38
ATOM     38  C   UNL     1      14.217  14.078   2.492  1.00  0.00     0.031 A 
ATOM     39  C   UNL     1      15.085  14.525   3.634  1.00  0.00     0.074 A 
ATOM     40  C   UNL     1      13.308  14.920   1.965  1.00  0.00     0.049 A 
ATOM     41  N   UNL     1      15.130  15.689   4.233  1.00  0.00    -0.248 NA
ATOM     42  C   UNL     1      16.002  13.524   4.199  1.00  0.00     0.031 C 
ATOM     43  C   UNL     1      12.362  14.581   0.901  1.00  0.00     0.029 A 
ATOM     44  N   UNL     1      13.023  16.229   2.259  1.00  0.00    -0.354 N 
ATOM     45  C   UNL     1      16.064  15.553   5.251  1.00  0.00     0.074 A 
ATOM     46  C   UNL     1      16.518  14.180   5.227  1.00  0.00     0.031 C 
ATOM     47  C   UNL     1      11.618  15.660   0.614  1.00  0.00     0.029 A 
ATOM     48  C   UNL     1      12.008  16.754   1.499  1.00  0.00     0.049 A 
ATOM     49  H   UNL     1      13.501  16.743   2.950  1.00  0.00     0.167 HD
ATOM     50  C   UNL     1      16.518  16.496   6.112  1.00  0.00     0.037 A 
ATOM     51  C   UNL     1      11.447  17.978   1.517  1.00  0.00     0.037 A 
ATOM     52  C   UNL     1      16.073  17.865   6.117  1.00  0.00     0.049 A 
ATOM     53  C   UNL     1      11.975  19.012   2.473  1.00  0.00     0.074 A 
ATOM     54  C   UNL     1      16.531  18.918   6.889  1.00  0.00     0.029 A 
ATOM     55  N   UNL     1      15.056  18.369   5.317  1.00  0.00    -0.354 N 
ATOM     56  N   UNL     1      12.928  18.902   3.366  1.00  0.00    -0.248 NA
ATOM     57  C   UNL     1      11.356  20.343   2.415  1.00  0.00     0.031 C 
ATOM     58  C   UNL     1      15.747  20.042   6.604  1.00  0.00     0.029 A 
ATOM     59  C   UNL     1      14.846  19.709   5.606  1.00  0.00     0.049 A 
ATOM     60  H   UNL     1      14.558  17.851   4.645  1.00  0.00     0.167 HD
ATOM     61  C   UNL     1      13.037  20.150   3.965  1.00  0.00     0.074 A 
ATOM     62  C   UNL     1      12.066  21.008   3.315  1.00  0.00     0.031 C 
ATOM     63  C   UNL     1      13.867  20.549   4.961  1.00  0.00     0.037 A 
BRANCH  50  64
ATOM     64  C   UNL     1      17.539  16.070   7.129  1.00  0.00     0.064 A 
ATOM     65  C   UNL     1      18.839  15.687   6.761  1.00  0.00     0.173 A 
ATOM     66  C   UNL     1      17.218  16.057   8.495  1.00  0.00     0.173 A 
ATOM     67  F   UNL     1      19.198  15.670   5.469  1.00  0.00    -0.203 F 
ATOM     68  C   UNL     1      19.761  15.266   7.716  1.00  0.00     0.198 A 
ATOM     69  C   UNL     1      18.154  15.671   9.451  1.00  0.00     0.198 A 
ATOM     70  F   UNL     1      15.993  16.419   8.906  1.00  0.00    -0.203 F 
ATOM     71  F   UNL     1      20.974  14.841   7.333  1.00  0.00    -0.200 F 
ATOM     72  C   UNL     1      19.421  15.264   9.060  1.00  0.00     0.200 A 
ATOM     73  F   UNL     1      17.828  15.684  10.751  1.00  0.00    -0.200 F 
ATOM     74  F   UNL     1      20.309  14.860   9.978  1.00  0.00    -0.200 F 
ENDBRANCH  50  64
BRANCH  51  75
ATOM     75  C   UNL     1      10.339  18.290   0.577  1.00  0.00     0.064 A 
ATOM     76  C   UNL     1      10.528  19.165  -0.500  1.00  0.00     0.173 A 
ATOM     77  C   UNL     1       9.076  17.696   0.722  1.00  0.00     0.173 A 
ATOM     78  F   UNL     1      11.712  19.772  -0.669  1.00  0.00    -0.203 F 
ATOM     79  C   UNL     1       9.494  19.444  -1.392  1.00  0.00     0.198 A 
ATOM     80  C   UNL     1       8.052  17.952  -0.187  1.00  0.00     0.198 A 
ATOM     81  F   UNL     1       8.846  16.845   1.732  1.00  0.00    -0.203 F 
ATOM     82  F   UNL     1       9.692  20.312  -2.393  1.00  0.00    -0.200 F 
ATOM     83  C   UNL     1       8.260  18.830  -1.240  1.00  0.00     0.200 A 
ATOM     84  F   UNL     1       6.867  17.343  -0.046  1.00  0.00    -0.200 F 
ATOM     85  F   UNL     1       7.270  19.088  -2.105  1.00  0.00    -0.200 F 
ENDBRANCH  51  75
BRANCH  63  86
ATOM     86  C   UNL     1      13.774  21.983   5.400  1.00  0.00     0.064 A 
ATOM     87  C   UNL     1      12.660  22.470   6.101  1.00  0.00     0.173 A 
ATOM     88  C   UNL     1      14.827  22.875   5.143  1.00  0.00     0.173 A 
ATOM     89  F   UNL     1      11.620  21.663   6.360  1.00  0.00    -0.203 F 
ATOM     90  C   UNL     1      12.592  23.802   6.502  1.00  0.00     0.198 A 
ATOM     91  C   UNL     1      14.770  24.197   5.576  1.00  0.00     0.198 A 
ATOM     92  F   UNL     1      15.918  22.461   4.482  1.00  0.00    -0.203 F 
ATOM     93  F   UNL     1      11.494  24.257   7.122  1.00  0.00    -0.200 F 
ATOM     94  C   UNL     1      13.649  24.662   6.246  1.00  0.00     0.200 A 
ATOM     95  F   UNL     1      15.800  25.021   5.342  1.00  0.00    -0.200 F 
ATOM     96  F   UNL     1      13.584  25.941   6.639  1.00  0.00    -0.200 F 
ENDBRANCH  63  86
ENDBRANCH  37  38
ENDBRANCH  29  32
ENDBRANCH  27  28
ENDBRANCH  26  27
ENDBRANCH   1  26
TORSDOF 15
