REMARK SMILES O=C(NCCCCNC(=O)c1ccc2c(c1)[C@@H](C1CCOCC1)C(=O)N2)c1ccc(-c2c3nc(c(-c4c(F)c(F)c(F)c(F)c4F)c4ccc([nH]4)c(-c4c(F)c(F)c(F)c(F)c4F)c4nc(c(-c5c(F)c(F)c(F)c(F)c5F)c5ccc2[nH]5)C=C4)C=C3)cc1
REMARK SMILES IDX 5 1 4 2 3 3 1 4 2 5 27 7 28 8 89 9 29 10 88 11 30 12 31 13
REMARK SMILES IDX 32 14 82 15 33 16 87 17 81 18 83 19 34 20 86 21 80 22 79 23
REMARK SMILES IDX 35 25 67 26 47 27 66 28 48 29 51 30 65 31 84 32 49 33 50 34
REMARK SMILES IDX 64 36 85 37 52 38 36 39 37 40 45 41 38 42 39 43 43 44 46 45
REMARK SMILES IDX 40 46 41 47 44 48 42 49 68 50 69 51 77 52 70 53 71 54 75 55
REMARK SMILES IDX 78 56 72 57 73 58 76 59 74 60 53 61 54 62 62 63 55 64 56 65
REMARK SMILES IDX 60 66 63 67 57 68 58 69 61 70 59 71 6 72 7 73 8 74 9 75
REMARK SMILES IDX 10 77 11 78 12 79 16 80 13 81 15 82 14 83 17 84 26 85 24 86
REMARK SMILES IDX 25 88 18 89 19 90 23 91 20 92 22 93 21 94
REMARK H PARENT 3 6 83 24 51 35 8 76 26 87
REMARK Flexibility Score: inf
ROOT
ATOM      1  C   UNL     1       4.978  -2.318  -1.175  1.00  0.00     0.023 C 
ENDROOT
BRANCH   1   2
ATOM      2  C   UNL     1       4.630  -0.842  -1.063  1.00  0.00     0.116 C 
BRANCH   2   3
ATOM      3  N   UNL     1       3.196  -0.584  -1.047  1.00  0.00    -0.352 N 
ATOM      4  O   UNL     1       1.211   0.077  -0.189  1.00  0.00    -0.269 OA
ATOM      5  C   UNL     1       2.434   0.056  -0.095  1.00  0.00     0.251 C 
ATOM      6  H   UNL     1       2.700  -0.915  -1.830  1.00  0.00     0.163 HD
BRANCH   5   7
ATOM      7  C   UNL     1       3.100   0.683   1.066  1.00  0.00     0.039 A 
ATOM      8  C   UNL     1       4.250   1.450   0.886  1.00  0.00     0.014 A 
ATOM      9  C   UNL     1       2.599   0.458   2.351  1.00  0.00     0.014 A 
ATOM     10  C   UNL     1       5.013   1.808   1.989  1.00  0.00     0.010 A 
ATOM     11  C   UNL     1       3.306   0.929   3.461  1.00  0.00     0.010 A 
ATOM     12  C   UNL     1       4.547   1.564   3.291  1.00  0.00    -0.014 A 
BRANCH  12  13
ATOM     13  C   UNL     1       5.363   2.025   4.445  1.00  0.00     0.031 A 
ATOM     14  C   UNL     1       5.922   1.055   5.450  1.00  0.00     0.074 A 
ATOM     15  C   UNL     1       5.640   3.339   4.550  1.00  0.00     0.049 A 
ATOM     16  N   UNL     1       6.693   1.292   6.484  1.00  0.00    -0.248 NA
ATOM     17  C   UNL     1       5.565  -0.361   5.285  1.00  0.00     0.031 C 
ATOM     18  C   UNL     1       5.149   4.376   3.639  1.00  0.00     0.029 A 
ATOM     19  N   UNL     1       6.420   4.027   5.443  1.00  0.00    -0.354 N 
ATOM     20  C   UNL     1       6.891   0.064   7.104  1.00  0.00     0.074 A 
ATOM     21  C   UNL     1       6.137  -0.913   6.348  1.00  0.00     0.031 C 
ATOM     22  C   UNL     1       5.690   5.553   3.978  1.00  0.00     0.029 A 
ATOM     23  C   UNL     1       6.501   5.372   5.175  1.00  0.00     0.049 A 
ATOM     24  H   UNL     1       6.877   3.599   6.203  1.00  0.00     0.167 HD
ATOM     25  C   UNL     1       7.638  -0.219   8.200  1.00  0.00     0.037 A 
ATOM     26  C   UNL     1       7.144   6.356   5.829  1.00  0.00     0.037 A 
ATOM     27  C   UNL     1       8.399   0.759   8.938  1.00  0.00     0.049 A 
ATOM     28  C   UNL     1       7.935   6.014   7.058  1.00  0.00     0.074 A 
ATOM     29  C   UNL     1       9.225   0.564  10.032  1.00  0.00     0.029 A 
ATOM     30  N   UNL     1       8.418   2.120   8.664  1.00  0.00    -0.354 N 
ATOM     31  N   UNL     1       8.151   4.844   7.606  1.00  0.00    -0.248 NA
ATOM     32  C   UNL     1       8.569   7.136   7.761  1.00  0.00     0.031 C 
ATOM     33  C   UNL     1       9.689   1.812  10.460  1.00  0.00     0.029 A 
ATOM     34  C   UNL     1       9.213   2.780   9.590  1.00  0.00     0.049 A 
ATOM     35  H   UNL     1       7.937   2.553   7.922  1.00  0.00     0.167 HD
ATOM     36  C   UNL     1       8.970   5.082   8.700  1.00  0.00     0.074 A 
ATOM     37  C   UNL     1       9.227   6.508   8.725  1.00  0.00     0.031 C 
ATOM     38  C   UNL     1       9.465   4.199   9.602  1.00  0.00     0.037 A 
BRANCH  25  39
ATOM     39  C   UNL     1       7.647  -1.641   8.694  1.00  0.00     0.064 A 
ATOM     40  C   UNL     1       8.262  -2.677   7.976  1.00  0.00     0.173 A 
ATOM     41  C   UNL     1       7.063  -1.963   9.930  1.00  0.00     0.173 A 
ATOM     42  F   UNL     1       8.830  -2.430   6.785  1.00  0.00    -0.203 F 
ATOM     43  C   UNL     1       8.263  -3.985   8.458  1.00  0.00     0.198 A 
ATOM     44  C   UNL     1       7.096  -3.264  10.426  1.00  0.00     0.198 A 
ATOM     45  F   UNL     1       6.469  -1.012  10.666  1.00  0.00    -0.203 F 
ATOM     46  F   UNL     1       8.810  -4.966   7.728  1.00  0.00    -0.200 F 
ATOM     47  C   UNL     1       7.686  -4.276   9.685  1.00  0.00     0.200 A 
ATOM     48  F   UNL     1       6.553  -3.539  11.620  1.00  0.00    -0.200 F 
ATOM     49  F   UNL     1       7.694  -5.532  10.151  1.00  0.00    -0.200 F 
ENDBRANCH  25  39
BRANCH  26  50
ATOM     50  C   UNL     1       7.066   7.752   5.327  1.00  0.00     0.064 A 
ATOM     51  C   UNL     1       8.201   8.401   4.824  1.00  0.00     0.173 A 
ATOM     52  C   UNL     1       5.857   8.465   5.337  1.00  0.00     0.173 A 
ATOM     53  F   UNL     1       9.383   7.767   4.808  1.00  0.00    -0.203 F 
ATOM     54  C   UNL     1       8.136   9.717   4.370  1.00  0.00     0.198 A 
ATOM     55  C   UNL     1       5.785   9.767   4.849  1.00  0.00     0.198 A 
ATOM     56  F   UNL     1       4.739   7.887   5.800  1.00  0.00    -0.203 F 
ATOM     57  F   UNL     1       9.246  10.330   3.940  1.00  0.00    -0.200 F 
ATOM     58  C   UNL     1       6.926  10.396   4.377  1.00  0.00     0.200 A 
ATOM     59  F   UNL     1       4.610  10.411   4.838  1.00  0.00    -0.200 F 
ATOM     60  F   UNL     1       6.863  11.659   3.933  1.00  0.00    -0.200 F 
ENDBRANCH  26  50
BRANCH  38  61
ATOM     61  C   UNL     1      10.376   4.747  10.665  1.00  0.00     0.064 A 
ATOM     62  C   UNL     1       9.906   5.585  11.687  1.00  0.00     0.173 A 
ATOM     63  C   UNL     1      11.741   4.419  10.663  1.00  0.00     0.173 A 
ATOM     64  F   UNL     1       8.614   5.945  11.725  1.00  0.00    -0.203 F 
ATOM     65  C   UNL     1      10.775   6.105  12.643  1.00  0.00     0.198 A 
ATOM     66  C   UNL     1      12.599   4.909  11.643  1.00  0.00     0.198 A 
ATOM     67  F   UNL     1      12.243   3.616   9.712  1.00  0.00    -0.203 F 
ATOM     68  F   UNL     1      10.315   6.958  13.570  1.00  0.00    -0.200 F 
ATOM     69  C   UNL     1      12.118   5.762  12.625  1.00  0.00     0.200 A 
ATOM     70  F   UNL     1      13.893   4.563  11.632  1.00  0.00    -0.200 F 
ATOM     71  F   UNL     1      12.952   6.261  13.547  1.00  0.00    -0.200 F 
ENDBRANCH  38  61
ENDBRANCH  12  13
ENDBRANCH   5   7
ENDBRANCH   2   3
ENDBRANCH   1   2
BRANCH   1  72
ATOM     72  C   UNL     1       4.512  -2.992  -2.460  1.00  0.00     0.023 C 
BRANCH  72  73
ATOM     73  C   UNL     1       4.932  -2.285  -3.744  1.00  0.00     0.116 C 
BRANCH  73  74
ATOM     74  N   UNL     1       6.377  -2.223  -3.905  1.00  0.00    -0.352 N 
ATOM     75  C   UNL     1       7.142  -2.705  -4.939  1.00  0.00     0.251 C 
ATOM     76  H   UNL     1       6.870  -1.778  -3.178  1.00  0.00     0.163 HD
ATOM     77  O   UNL     1       8.366  -2.705  -4.873  1.00  0.00    -0.269 OA
BRANCH  75  78
ATOM     78  C   UNL     1       6.462  -3.257  -6.127  1.00  0.00     0.040 A 
ATOM     79  C   UNL     1       5.525  -2.465  -6.828  1.00  0.00     0.016 A 
ATOM     80  C   UNL     1       6.724  -4.583  -6.494  1.00  0.00     0.020 A 
ATOM     81  C   UNL     1       4.763  -3.021  -7.852  1.00  0.00     0.027 A 
ATOM     82  C   UNL     1       5.965  -5.121  -7.518  1.00  0.00    -0.011 A 
ATOM     83  C   UNL     1       4.998  -4.343  -8.162  1.00  0.00     0.045 A 
ATOM     84  C   UNL     1       5.972  -6.508  -8.120  1.00  0.00     0.114 C 
ATOM     85  N   UNL     1       4.342  -5.098  -9.114  1.00  0.00    -0.325 N 
ATOM     86  C   UNL     1       4.842  -6.389  -9.174  1.00  0.00     0.232 C 
ATOM     87  H   UNL     1       3.611  -4.761  -9.680  1.00  0.00     0.169 HD
ATOM     88  O   UNL     1       4.457  -7.245  -9.956  1.00  0.00    -0.274 OA
BRANCH  84  89
ATOM     89  C   UNL     1       5.795  -7.655  -7.101  1.00  0.00     0.010 C 
ATOM     90  C   UNL     1       5.831  -9.037  -7.777  1.00  0.00     0.033 C 
ATOM     91  C   UNL     1       4.531  -7.536  -6.232  1.00  0.00     0.033 C 
ATOM     92  C   UNL     1       5.597 -10.158  -6.772  1.00  0.00     0.160 C 
ATOM     93  C   UNL     1       4.389  -8.743  -5.311  1.00  0.00     0.160 C 
ATOM     94  O   UNL     1       4.378  -9.954  -6.061  1.00  0.00    -0.381 OA
ENDBRANCH  84  89
ENDBRANCH  75  78
ENDBRANCH  73  74
ENDBRANCH  72  73
ENDBRANCH   1  72
TORSDOF 12
