REMARK SMILES Nc1ccc2[nH]cc(C(=O)NCCCCNC(=O)c3ccc(-c4c5nc(c(-c6c(F)c(F)c(F)c(F)c6F)c6ccc([nH]6)c(-c6c(F)c(F)c(F)c(F)c6F)c6nc(c(-c7c(F)c(F)c(F)c(F)c7F)c7ccc4[nH]7)C=C6)C=C5)cc3)c2c1
REMARK SMILES IDX 14 1 13 2 12 3 11 4 9 5 10 6 8 8 2 9 3 10 83 11 4 12 82 13
REMARK SMILES IDX 5 14 6 15 7 16 1 18 15 21 16 22 17 23 18 25 19 26 20 27
REMARK SMILES IDX 81 28 21 29 80 30 22 31 23 32 24 33 74 34 25 35 79 36 73 37
REMARK SMILES IDX 75 38 26 39 78 40 72 41 71 42 27 44 59 45 39 46 58 47 40 48
REMARK SMILES IDX 43 49 57 50 76 51 41 52 42 53 56 55 77 56 44 57 28 58 29 59
REMARK SMILES IDX 37 60 30 61 31 62 35 63 38 64 32 65 33 66 36 67 34 68 60 69
REMARK SMILES IDX 61 70 69 71 62 72 63 73 67 74 70 75 64 76 65 77 68 78 66 79
REMARK SMILES IDX 45 80 46 81 54 82 47 83 48 84 52 85 55 86 49 87 50 88 53 89
REMARK SMILES IDX 51 90
REMARK H PARENT 11 7 6 17 1 19 1 20 16 24 75 43 43 54
REMARK Flexibility Score: inf
ROOT
ATOM      1  C   UNL     1      -1.210  -2.319  -4.559  1.00  0.00     0.023 C 
ENDROOT
BRANCH   1   2
ATOM      2  C   UNL     1      -0.587  -2.622  -3.202  1.00  0.00     0.023 C 
BRANCH   2   3
ATOM      3  C   UNL     1      -1.393  -2.307  -1.956  1.00  0.00     0.116 C 
BRANCH   3   4
ATOM      4  N   UNL     1      -2.516  -3.151  -1.657  1.00  0.00    -0.352 N 
ATOM      5  C   UNL     1      -3.010  -3.565  -0.430  1.00  0.00     0.253 C 
ATOM      6  O   UNL     1      -4.027  -4.241  -0.465  1.00  0.00    -0.269 OA
ATOM      7  H   UNL     1      -3.009  -3.486  -2.441  1.00  0.00     0.163 HD
BRANCH   5   8
ATOM      8  C   UNL     1      -2.311  -3.310   0.850  1.00  0.00     0.065 A 
ATOM      9  C   UNL     1       0.423  -0.647   1.406  1.00  0.00     0.032 A 
ATOM     10  C   UNL     1       0.845  -1.139   2.634  1.00  0.00     0.027 A 
ATOM     11  C   UNL     1      -0.757  -1.149   0.846  1.00  0.00     0.036 A 
ATOM     12  C   UNL     1       0.166  -2.182   3.270  1.00  0.00     0.029 A 
ATOM     13  C   UNL     1      -1.349  -2.340   1.335  1.00  0.00     0.014 A 
ATOM     14  C   UNL     1      -0.898  -2.780   2.584  1.00  0.00     0.046 A 
ATOM     15  N   UNL     1      -1.694  -3.833   2.954  1.00  0.00    -0.360 N 
ATOM     16  C   UNL     1      -2.528  -4.166   1.927  1.00  0.00     0.097 A 
ATOM     17  H   UNL     1      -1.667  -4.282   3.829  1.00  0.00     0.166 HD
BRANCH   9  18
ATOM     18  N   UNL     1       1.095   0.403   0.793  1.00  0.00    -0.399 N 
ATOM     19  H   UNL     1       1.925   0.755   1.190  1.00  0.00     0.156 HD
ATOM     20  H   UNL     1       0.742   0.796  -0.037  1.00  0.00     0.156 HD
ENDBRANCH   9  18
ENDBRANCH   5   8
ENDBRANCH   3   4
ENDBRANCH   2   3
ENDBRANCH   1   2
BRANCH   1  21
ATOM     21  C   UNL     1      -1.791  -0.916  -4.768  1.00  0.00     0.116 C 
BRANCH  21  22
ATOM     22  N   UNL     1      -0.926   0.190  -4.400  1.00  0.00    -0.352 N 
ATOM     23  C   UNL     1      -0.054   1.002  -5.077  1.00  0.00     0.251 C 
ATOM     24  H   UNL     1      -0.979   0.408  -3.442  1.00  0.00     0.163 HD
ATOM     25  O   UNL     1       0.276   2.041  -4.498  1.00  0.00    -0.269 OA
BRANCH  23  26
ATOM     26  C   UNL     1       0.577   0.696  -6.390  1.00  0.00     0.039 A 
ATOM     27  C   UNL     1       0.379  -0.472  -7.120  1.00  0.00     0.014 A 
ATOM     28  C   UNL     1       1.526   1.626  -6.864  1.00  0.00     0.014 A 
ATOM     29  C   UNL     1       1.189  -0.762  -8.213  1.00  0.00     0.010 A 
ATOM     30  C   UNL     1       2.321   1.355  -7.977  1.00  0.00     0.010 A 
ATOM     31  C   UNL     1       2.188   0.133  -8.622  1.00  0.00    -0.014 A 
BRANCH  31  32
ATOM     32  C   UNL     1       2.964  -0.224  -9.810  1.00  0.00     0.031 A 
ATOM     33  C   UNL     1       2.135  -0.468 -11.023  1.00  0.00     0.074 A 
ATOM     34  C   UNL     1       4.311  -0.289  -9.873  1.00  0.00     0.049 A 
ATOM     35  N   UNL     1       1.969  -1.583 -11.656  1.00  0.00    -0.248 NA
ATOM     36  C   UNL     1       1.290   0.631 -11.513  1.00  0.00     0.031 C 
ATOM     37  C   UNL     1       5.291   0.152  -8.881  1.00  0.00     0.029 A 
ATOM     38  N   UNL     1       5.096  -0.721 -10.906  1.00  0.00    -0.354 N 
ATOM     39  C   UNL     1       1.126  -1.297 -12.727  1.00  0.00     0.074 A 
ATOM     40  C   UNL     1       0.638   0.041 -12.515  1.00  0.00     0.031 C 
ATOM     41  C   UNL     1       6.525   0.161  -9.440  1.00  0.00     0.029 A 
ATOM     42  C   UNL     1       6.444  -0.410 -10.774  1.00  0.00     0.049 A 
ATOM     43  H   UNL     1       4.736  -1.212 -11.680  1.00  0.00     0.167 HD
ATOM     44  C   UNL     1       1.072  -2.112 -13.816  1.00  0.00     0.037 A 
ATOM     45  C   UNL     1       7.415  -0.579 -11.707  1.00  0.00     0.037 A 
ATOM     46  C   UNL     1       1.572  -3.426 -13.511  1.00  0.00     0.049 A 
ATOM     47  C   UNL     1       6.934  -1.595 -12.671  1.00  0.00     0.074 A 
ATOM     48  C   UNL     1       1.205  -4.438 -12.646  1.00  0.00     0.029 A 
ATOM     49  N   UNL     1       2.838  -3.738 -13.933  1.00  0.00    -0.354 N 
ATOM     50  N   UNL     1       6.796  -2.860 -12.392  1.00  0.00    -0.248 NA
ATOM     51  C   UNL     1       6.229  -1.131 -13.855  1.00  0.00     0.031 C 
ATOM     52  C   UNL     1       2.431  -5.037 -12.235  1.00  0.00     0.029 A 
ATOM     53  C   UNL     1       3.466  -4.389 -12.909  1.00  0.00     0.049 A 
ATOM     54  H   UNL     1       3.225  -3.530 -14.814  1.00  0.00     0.167 HD
ATOM     55  C   UNL     1       5.664  -3.246 -13.089  1.00  0.00     0.074 A 
ATOM     56  C   UNL     1       5.425  -2.178 -14.055  1.00  0.00     0.031 C 
ATOM     57  C   UNL     1       4.874  -4.254 -12.625  1.00  0.00     0.037 A 
BRANCH  44  58
ATOM     58  C   UNL     1       0.966  -1.617 -15.242  1.00  0.00     0.064 A 
ATOM     59  C   UNL     1       0.880  -2.562 -16.287  1.00  0.00     0.173 A 
ATOM     60  C   UNL     1       1.292  -0.302 -15.638  1.00  0.00     0.173 A 
ATOM     61  F   UNL     1       0.584  -3.845 -16.027  1.00  0.00    -0.203 F 
ATOM     62  C   UNL     1       1.211  -2.237 -17.605  1.00  0.00     0.198 A 
ATOM     63  C   UNL     1       1.571   0.028 -16.963  1.00  0.00     0.198 A 
ATOM     64  F   UNL     1       1.472   0.687 -14.756  1.00  0.00    -0.203 F 
ATOM     65  F   UNL     1       1.262  -3.201 -18.534  1.00  0.00    -0.200 F 
ATOM     66  C   UNL     1       1.568  -0.945 -17.939  1.00  0.00     0.200 A 
ATOM     67  F   UNL     1       1.932   1.283 -17.264  1.00  0.00    -0.200 F 
ATOM     68  F   UNL     1       1.960  -0.647 -19.184  1.00  0.00    -0.200 F 
ENDBRANCH  44  58
BRANCH  45  69
ATOM     69  C   UNL     1       8.616   0.245 -11.989  1.00  0.00     0.064 A 
ATOM     70  C   UNL     1       9.660  -0.243 -12.796  1.00  0.00     0.173 A 
ATOM     71  C   UNL     1       8.622   1.628 -11.732  1.00  0.00     0.173 A 
ATOM     72  F   UNL     1       9.709  -1.542 -13.127  1.00  0.00    -0.203 F 
ATOM     73  C   UNL     1      10.627   0.608 -13.344  1.00  0.00     0.198 A 
ATOM     74  C   UNL     1       9.590   2.476 -12.274  1.00  0.00     0.198 A 
ATOM     75  F   UNL     1       7.629   2.199 -11.034  1.00  0.00    -0.203 F 
ATOM     76  F   UNL     1      11.563   0.116 -14.167  1.00  0.00    -0.200 F 
ATOM     77  C   UNL     1      10.583   1.969 -13.093  1.00  0.00     0.200 A 
ATOM     78  F   UNL     1       9.515   3.796 -12.055  1.00  0.00    -0.200 F 
ATOM     79  F   UNL     1      11.465   2.795 -13.673  1.00  0.00    -0.200 F 
ENDBRANCH  45  69
BRANCH  57  80
ATOM     80  C   UNL     1       5.418  -5.145 -11.550  1.00  0.00     0.064 A 
ATOM     81  C   UNL     1       5.695  -4.718 -10.241  1.00  0.00     0.173 A 
ATOM     82  C   UNL     1       5.474  -6.520 -11.814  1.00  0.00     0.173 A 
ATOM     83  F   UNL     1       5.582  -3.428  -9.896  1.00  0.00    -0.203 F 
ATOM     84  C   UNL     1       6.023  -5.636  -9.244  1.00  0.00     0.198 A 
ATOM     85  C   UNL     1       5.766  -7.435 -10.809  1.00  0.00     0.198 A 
ATOM     86  F   UNL     1       5.174  -6.981 -13.039  1.00  0.00    -0.203 F 
ATOM     87  F   UNL     1       6.272  -5.212  -7.996  1.00  0.00    -0.200 F 
ATOM     88  C   UNL     1       6.043  -6.993  -9.526  1.00  0.00     0.200 A 
ATOM     89  F   UNL     1       5.737  -8.748 -11.076  1.00  0.00    -0.200 F 
ATOM     90  F   UNL     1       6.295  -7.879  -8.552  1.00  0.00    -0.200 F 
ENDBRANCH  57  80
ENDBRANCH  31  32
ENDBRANCH  23  26
ENDBRANCH  21  22
ENDBRANCH   1  21
TORSDOF 12
