REMARK SMILES C[C@@H]1CC(=O)N(CC(C)(C)C(=O)NCCCCNC(=O)c2ccc(-c3c4nc(c(-c5c(F)c(F)c(F)c(F)c5F)c5ccc([nH]5)c(-c5c(F)c(F)c(F)c(F)c5F)c5nc(c(-c6c(F)c(F)c(F)c(F)c6F)c6ccc3[nH]6)C=C5)C=C4)cc2)C1
REMARK SMILES IDX 15 1 14 2 13 3 11 4 12 5 8 7 9 8 10 9 7 10 6 11 1 12 2 13
REMARK SMILES IDX 3 14 84 15 4 16 5 17 16 18 17 19 18 20 19 21 20 23 21 24
REMARK SMILES IDX 22 25 83 26 23 27 82 28 24 29 25 30 26 31 76 32 27 33 81 34
REMARK SMILES IDX 75 35 77 36 28 37 80 38 74 39 73 40 29 42 61 43 41 44 60 45
REMARK SMILES IDX 42 46 45 47 59 48 78 49 43 50 44 51 58 53 79 54 46 55 30 56
REMARK SMILES IDX 31 57 39 58 32 59 33 60 37 61 40 62 34 63 35 64 38 65 36 66
REMARK SMILES IDX 62 67 63 68 71 69 64 70 65 71 69 72 72 73 66 74 67 75 70 76
REMARK SMILES IDX 68 77 47 78 48 79 56 80 49 81 50 82 54 83 57 84 51 85 52 86
REMARK SMILES IDX 55 87 53 88
REMARK H PARENT 13 6 18 22 77 41 45 52
REMARK Flexibility Score: inf
ROOT
ATOM      1  C   UNL     1      -2.611   1.267   7.586  1.00  0.00     0.023 C 
ENDROOT
BRANCH   1   2
ATOM      2  C   UNL     1      -1.794   0.652   6.453  1.00  0.00     0.116 C 
BRANCH   2   3
ATOM      3  N   UNL     1      -1.826   1.479   5.267  1.00  0.00    -0.356 N 
ATOM      4  C   UNL     1      -0.859   2.136   4.572  1.00  0.00     0.227 C 
ATOM      5  O   UNL     1      -1.283   2.827   3.644  1.00  0.00    -0.274 OA
ATOM      6  H   UNL     1      -2.727   1.589   4.887  1.00  0.00     0.163 HD
BRANCH   4   7
ATOM      7  C   UNL     1       0.641   2.041   4.931  1.00  0.00     0.061 C 
ATOM      8  C   UNL     1       1.112   0.579   5.036  1.00  0.00     0.023 C 
ATOM      9  C   UNL     1       0.881   2.760   6.273  1.00  0.00     0.023 C 
BRANCH   7  10
ATOM     10  C   UNL     1       1.507   2.795   3.862  1.00  0.00     0.135 C 
BRANCH  10  11
ATOM     11  N   UNL     1       1.317   2.403   2.471  1.00  0.00    -0.341 N 
ATOM     12  C   UNL     1       1.138  -0.021  -0.284  1.00  0.00     0.010 C 
ATOM     13  C   UNL     1       0.719   0.992   0.760  1.00  0.00     0.015 C 
ATOM     14  C   UNL     1       0.596   2.426   0.240  1.00  0.00     0.105 C 
ATOM     15  C   UNL     1       1.718   1.146   1.893  1.00  0.00     0.123 C 
ATOM     16  C   UNL     1       0.782   3.245   1.497  1.00  0.00     0.222 C 
ATOM     17  O   UNL     1       0.550   4.444   1.599  1.00  0.00    -0.275 OA
ENDBRANCH  10  11
ENDBRANCH   7  10
ENDBRANCH   4   7
ENDBRANCH   2   3
ENDBRANCH   1   2
BRANCH   1  18
ATOM     18  C   UNL     1      -4.116   1.335   7.328  1.00  0.00     0.023 C 
BRANCH  18  19
ATOM     19  C   UNL     1      -4.766   0.014   6.932  1.00  0.00     0.116 C 
BRANCH  19  20
ATOM     20  N   UNL     1      -4.541  -1.047   7.904  1.00  0.00    -0.352 N 
ATOM     21  C   UNL     1      -5.446  -1.914   8.466  1.00  0.00     0.251 C 
ATOM     22  H   UNL     1      -3.609  -1.158   8.200  1.00  0.00     0.163 HD
ATOM     23  O   UNL     1      -5.103  -2.669   9.370  1.00  0.00    -0.269 OA
BRANCH  21  24
ATOM     24  C   UNL     1      -6.846  -1.907   7.998  1.00  0.00     0.039 A 
ATOM     25  C   UNL     1      -7.873  -1.864   8.943  1.00  0.00     0.014 A 
ATOM     26  C   UNL     1      -7.141  -1.907   6.632  1.00  0.00     0.014 A 
ATOM     27  C   UNL     1      -9.196  -1.743   8.517  1.00  0.00     0.010 A 
ATOM     28  C   UNL     1      -8.450  -1.704   6.211  1.00  0.00     0.010 A 
ATOM     29  C   UNL     1      -9.491  -1.619   7.149  1.00  0.00    -0.014 A 
BRANCH  29  30
ATOM     30  C   UNL     1     -10.881  -1.393   6.678  1.00  0.00     0.031 A 
ATOM     31  C   UNL     1     -11.556  -2.412   5.804  1.00  0.00     0.074 A 
ATOM     32  C   UNL     1     -11.509  -0.240   6.982  1.00  0.00     0.049 A 
ATOM     33  N   UNL     1     -12.732  -2.364   5.231  1.00  0.00    -0.248 NA
ATOM     34  C   UNL     1     -10.795  -3.636   5.509  1.00  0.00     0.031 C 
ATOM     35  C   UNL     1     -10.940   0.849   7.777  1.00  0.00     0.029 A 
ATOM     36  N   UNL     1     -12.759   0.215   6.644  1.00  0.00    -0.354 N 
ATOM     37  C   UNL     1     -12.846  -3.541   4.504  1.00  0.00     0.074 A 
ATOM     38  C   UNL     1     -11.597  -4.254   4.655  1.00  0.00     0.031 C 
ATOM     39  C   UNL     1     -11.844   1.836   7.884  1.00  0.00     0.029 A 
ATOM     40  C   UNL     1     -13.040   1.468   7.131  1.00  0.00     0.049 A 
ATOM     41  H   UNL     1     -13.395  -0.308   6.104  1.00  0.00     0.167 HD
ATOM     42  C   UNL     1     -13.906  -3.997   3.796  1.00  0.00     0.037 A 
ATOM     43  C   UNL     1     -14.134   2.239   6.979  1.00  0.00     0.037 A 
ATOM     44  C   UNL     1     -15.153  -3.291   3.662  1.00  0.00     0.049 A 
ATOM     45  C   UNL     1     -15.294   1.713   6.178  1.00  0.00     0.074 A 
ATOM     46  C   UNL     1     -16.306  -3.692   3.011  1.00  0.00     0.029 A 
ATOM     47  N   UNL     1     -15.408  -2.033   4.189  1.00  0.00    -0.354 N 
ATOM     48  N   UNL     1     -15.418   0.567   5.553  1.00  0.00    -0.248 NA
ATOM     49  C   UNL     1     -16.472   2.585   6.067  1.00  0.00     0.031 C 
ATOM     50  C   UNL     1     -17.242  -2.656   3.100  1.00  0.00     0.029 A 
ATOM     51  C   UNL     1     -16.693  -1.633   3.857  1.00  0.00     0.049 A 
ATOM     52  H   UNL     1     -14.771  -1.503   4.719  1.00  0.00     0.167 HD
ATOM     53  C   UNL     1     -16.692   0.568   5.001  1.00  0.00     0.074 A 
ATOM     54  C   UNL     1     -17.309   1.822   5.379  1.00  0.00     0.031 C 
ATOM     55  C   UNL     1     -17.296  -0.384   4.248  1.00  0.00     0.037 A 
BRANCH  42  56
ATOM     56  C   UNL     1     -13.764  -5.329   3.115  1.00  0.00     0.064 A 
ATOM     57  C   UNL     1     -13.681  -6.524   3.847  1.00  0.00     0.173 A 
ATOM     58  C   UNL     1     -13.743  -5.416   1.715  1.00  0.00     0.173 A 
ATOM     59  F   UNL     1     -13.684  -6.496   5.188  1.00  0.00    -0.203 F 
ATOM     60  C   UNL     1     -13.550  -7.752   3.204  1.00  0.00     0.198 A 
ATOM     61  C   UNL     1     -13.646  -6.649   1.075  1.00  0.00     0.198 A 
ATOM     62  F   UNL     1     -13.825  -4.306   0.966  1.00  0.00    -0.203 F 
ATOM     63  F   UNL     1     -13.417  -8.873   3.926  1.00  0.00    -0.200 F 
ATOM     64  C   UNL     1     -13.540  -7.814   1.819  1.00  0.00     0.200 A 
ATOM     65  F   UNL     1     -13.651  -6.709  -0.264  1.00  0.00    -0.200 F 
ATOM     66  F   UNL     1     -13.422  -8.998   1.201  1.00  0.00    -0.200 F 
ENDBRANCH  42  56
BRANCH  43  67
ATOM     67  C   UNL     1     -14.191   3.583   7.613  1.00  0.00     0.064 A 
ATOM     68  C   UNL     1     -15.068   3.842   8.676  1.00  0.00     0.173 A 
ATOM     69  C   UNL     1     -13.380   4.636   7.166  1.00  0.00     0.173 A 
ATOM     70  F   UNL     1     -15.878   2.873   9.126  1.00  0.00    -0.203 F 
ATOM     71  C   UNL     1     -15.148   5.109   9.251  1.00  0.00     0.198 A 
ATOM     72  C   UNL     1     -13.438   5.894   7.763  1.00  0.00     0.198 A 
ATOM     73  F   UNL     1     -12.519   4.439   6.156  1.00  0.00    -0.203 F 
ATOM     74  F   UNL     1     -16.030   5.341  10.232  1.00  0.00    -0.200 F 
ATOM     75  C   UNL     1     -14.329   6.132   8.798  1.00  0.00     0.200 A 
ATOM     76  F   UNL     1     -12.633   6.875   7.332  1.00  0.00    -0.200 F 
ATOM     77  F   UNL     1     -14.403   7.349   9.354  1.00  0.00    -0.200 F 
ENDBRANCH  43  67
BRANCH  55  78
ATOM     78  C   UNL     1     -18.710  -0.125   3.814  1.00  0.00     0.064 A 
ATOM     79  C   UNL     1     -19.020   0.839   2.844  1.00  0.00     0.173 A 
ATOM     80  C   UNL     1     -19.765  -0.883   4.347  1.00  0.00     0.173 A 
ATOM     81  F   UNL     1     -18.050   1.600   2.315  1.00  0.00    -0.203 F 
ATOM     82  C   UNL     1     -20.336   1.054   2.444  1.00  0.00     0.198 A 
ATOM     83  C   UNL     1     -21.075  -0.688   3.920  1.00  0.00     0.198 A 
ATOM     84  F   UNL     1     -19.522  -1.824   5.272  1.00  0.00    -0.203 F 
ATOM     85  F   UNL     1     -20.615   2.016   1.553  1.00  0.00    -0.200 F 
ATOM     86  C   UNL     1     -21.361   0.285   2.975  1.00  0.00     0.200 A 
ATOM     87  F   UNL     1     -22.061  -1.443   4.423  1.00  0.00    -0.200 F 
ATOM     88  F   UNL     1     -22.626   0.487   2.582  1.00  0.00    -0.200 F 
ENDBRANCH  55  78
ENDBRANCH  29  30
ENDBRANCH  21  24
ENDBRANCH  19  20
ENDBRANCH  18  19
ENDBRANCH   1  18
TORSDOF 13
