REMARK SMILES O=C(NCCCCNC(=O)c1cc(-c2ccoc2)nc2c(F)cccc12)c1ccc(-c2c3nc(c(-c4c(F)c(F)c(F)c(F)c4F)c4ccc([nH]4)c(-c4c(F)c(F)c(F)c(F)c4F)c4nc(c(-c5c(F)c(F)c(F)c(F)c5F)c5ccc2[nH]5)C=C4)C=C3)cc1
REMARK SMILES IDX 5 1 4 2 3 3 1 4 2 5 27 7 28 8 89 9 29 10 88 11 30 12 31 13
REMARK SMILES IDX 32 14 82 15 33 16 87 17 81 18 83 19 34 20 86 21 80 22 79 23
REMARK SMILES IDX 35 25 67 26 47 27 66 28 48 29 51 30 65 31 84 32 49 33 50 34
REMARK SMILES IDX 64 36 85 37 52 38 36 39 37 40 45 41 38 42 39 43 43 44 46 45
REMARK SMILES IDX 40 46 41 47 44 48 42 49 68 50 69 51 77 52 70 53 71 54 75 55
REMARK SMILES IDX 78 56 72 57 73 58 76 59 74 60 53 61 54 62 62 63 55 64 56 65
REMARK SMILES IDX 60 66 63 67 57 68 58 69 61 70 59 71 6 72 7 73 8 74 9 75
REMARK SMILES IDX 10 77 11 78 12 79 26 80 13 81 20 82 25 83 19 84 21 85 24 86
REMARK SMILES IDX 22 87 23 88 14 89 15 90 18 91 16 92 17 93
REMARK H PARENT 3 6 83 24 51 35 8 76
REMARK Flexibility Score: inf
ROOT
ATOM      1  C   UNL     1       4.888  -2.507  -1.094  1.00  0.00     0.023 C 
ENDROOT
BRANCH   1   2
ATOM      2  C   UNL     1       4.580  -1.017  -1.013  1.00  0.00     0.116 C 
BRANCH   2   3
ATOM      3  N   UNL     1       3.157  -0.722  -0.970  1.00  0.00    -0.352 N 
ATOM      4  O   UNL     1       1.193  -0.037  -0.094  1.00  0.00    -0.269 OA
ATOM      5  C   UNL     1       2.416  -0.090   0.003  1.00  0.00     0.251 C 
ATOM      6  H   UNL     1       2.645  -1.019  -1.756  1.00  0.00     0.163 HD
BRANCH   5   7
ATOM      7  C   UNL     1       3.084   0.490   1.188  1.00  0.00     0.039 A 
ATOM      8  C   UNL     1       4.244   1.254   1.056  1.00  0.00     0.014 A 
ATOM      9  C   UNL     1       2.546   0.254   2.457  1.00  0.00     0.014 A 
ATOM     10  C   UNL     1       4.962   1.620   2.189  1.00  0.00     0.010 A 
ATOM     11  C   UNL     1       3.219   0.707   3.596  1.00  0.00     0.010 A 
ATOM     12  C   UNL     1       4.460   1.350   3.473  1.00  0.00    -0.014 A 
BRANCH  12  13
ATOM     13  C   UNL     1       5.246   1.773   4.662  1.00  0.00     0.031 A 
ATOM     14  C   UNL     1       5.822   0.762   5.616  1.00  0.00     0.074 A 
ATOM     15  C   UNL     1       5.487   3.085   4.847  1.00  0.00     0.049 A 
ATOM     16  N   UNL     1       6.584   0.958   6.664  1.00  0.00    -0.248 NA
ATOM     17  C   UNL     1       5.495  -0.650   5.373  1.00  0.00     0.031 C 
ATOM     18  C   UNL     1       4.973   4.161   3.997  1.00  0.00     0.029 A 
ATOM     19  N   UNL     1       6.247   3.737   5.785  1.00  0.00    -0.354 N 
ATOM     20  C   UNL     1       6.805  -0.297   7.217  1.00  0.00     0.074 A 
ATOM     21  C   UNL     1       6.079  -1.248   6.402  1.00  0.00     0.031 C 
ATOM     22  C   UNL     1       5.482   5.330   4.412  1.00  0.00     0.029 A 
ATOM     23  C   UNL     1       6.311   5.094   5.589  1.00  0.00     0.049 A 
ATOM     24  H   UNL     1       6.702   3.276   6.526  1.00  0.00     0.167 HD
ATOM     25  C   UNL     1       7.551  -0.626   8.300  1.00  0.00     0.037 A 
ATOM     26  C   UNL     1       6.965   6.046   6.280  1.00  0.00     0.037 A 
ATOM     27  C   UNL     1       8.300   0.318   9.090  1.00  0.00     0.049 A 
ATOM     28  C   UNL     1       7.784   5.652   7.474  1.00  0.00     0.074 A 
ATOM     29  C   UNL     1       9.129   0.074  10.172  1.00  0.00     0.029 A 
ATOM     30  N   UNL     1       8.310   1.690   8.882  1.00  0.00    -0.354 N 
ATOM     31  N   UNL     1       8.014   4.457   7.961  1.00  0.00    -0.248 NA
ATOM     32  C   UNL     1       8.428   6.742   8.219  1.00  0.00     0.031 C 
ATOM     33  C   UNL     1       9.607   1.301  10.645  1.00  0.00     0.029 A 
ATOM     34  C   UNL     1       9.112   2.307   9.831  1.00  0.00     0.049 A 
ATOM     35  H   UNL     1       7.821   2.156   8.167  1.00  0.00     0.167 HD
ATOM     36  C   UNL     1       8.842   4.648   9.057  1.00  0.00     0.074 A 
ATOM     37  C   UNL     1       9.090   6.072   9.152  1.00  0.00     0.031 C 
ATOM     38  C   UNL     1       9.348   3.725   9.911  1.00  0.00     0.037 A 
BRANCH  25  39
ATOM     39  C   UNL     1       7.585  -2.069   8.712  1.00  0.00     0.064 A 
ATOM     40  C   UNL     1       8.290  -3.033   7.976  1.00  0.00     0.173 A 
ATOM     41  C   UNL     1       6.939  -2.485   9.886  1.00  0.00     0.173 A 
ATOM     42  F   UNL     1       8.915  -2.690   6.839  1.00  0.00    -0.203 F 
ATOM     43  C   UNL     1       8.327  -4.363   8.388  1.00  0.00     0.198 A 
ATOM     44  C   UNL     1       7.000  -3.811  10.309  1.00  0.00     0.198 A 
ATOM     45  F   UNL     1       6.256  -1.602  10.631  1.00  0.00    -0.203 F 
ATOM     46  F   UNL     1       8.973  -5.274   7.647  1.00  0.00    -0.200 F 
ATOM     47  C   UNL     1       7.688  -4.749   9.557  1.00  0.00     0.200 A 
ATOM     48  F   UNL     1       6.391  -4.179  11.445  1.00  0.00    -0.200 F 
ATOM     49  F   UNL     1       7.731  -6.029   9.954  1.00  0.00    -0.200 F 
ENDBRANCH  25  39
BRANCH  26  50
ATOM     50  C   UNL     1       6.881   7.461   5.840  1.00  0.00     0.064 A 
ATOM     51  C   UNL     1       7.993   8.107   5.283  1.00  0.00     0.173 A 
ATOM     52  C   UNL     1       5.687   8.189   5.949  1.00  0.00     0.173 A 
ATOM     53  F   UNL     1       9.161   7.457   5.177  1.00  0.00    -0.203 F 
ATOM     54  C   UNL     1       7.916   9.431   4.858  1.00  0.00     0.198 A 
ATOM     55  C   UNL     1       5.604   9.504   5.498  1.00  0.00     0.198 A 
ATOM     56  F   UNL     1       4.595   7.612   6.471  1.00  0.00    -0.203 F 
ATOM     57  F   UNL     1       9.002  10.036   4.359  1.00  0.00    -0.200 F 
ATOM     58  C   UNL     1       6.720  10.126   4.959  1.00  0.00     0.200 A 
ATOM     59  F   UNL     1       4.442  10.166   5.582  1.00  0.00    -0.200 F 
ATOM     60  F   UNL     1       6.643  11.396   4.540  1.00  0.00    -0.200 F 
ENDBRANCH  26  50
BRANCH  38  61
ATOM     61  C   UNL     1      10.240   4.230  11.006  1.00  0.00     0.064 A 
ATOM     62  C   UNL     1       9.724   4.931  12.107  1.00  0.00     0.173 A 
ATOM     63  C   UNL     1      11.622   3.998  10.961  1.00  0.00     0.173 A 
ATOM     64  F   UNL     1       8.411   5.192  12.185  1.00  0.00    -0.203 F 
ATOM     65  C   UNL     1      10.566   5.405  13.109  1.00  0.00     0.198 A 
ATOM     66  C   UNL     1      12.457   4.452  11.978  1.00  0.00     0.198 A 
ATOM     67  F   UNL     1      12.163   3.330   9.931  1.00  0.00    -0.203 F 
ATOM     68  F   UNL     1      10.059   6.116  14.126  1.00  0.00    -0.200 F 
ATOM     69  C   UNL     1      11.930   5.162  13.046  1.00  0.00     0.200 A 
ATOM     70  F   UNL     1      13.774   4.208  11.921  1.00  0.00    -0.200 F 
ATOM     71  F   UNL     1      12.738   5.620  14.012  1.00  0.00    -0.200 F 
ENDBRANCH  38  61
ENDBRANCH  12  13
ENDBRANCH   5   7
ENDBRANCH   2   3
ENDBRANCH   1   2
BRANCH   1  72
ATOM     72  C   UNL     1       4.413  -3.215  -2.361  1.00  0.00     0.023 C 
BRANCH  72  73
ATOM     73  C   UNL     1       4.772  -2.530  -3.675  1.00  0.00     0.116 C 
BRANCH  73  74
ATOM     74  N   UNL     1       6.195  -2.268  -3.827  1.00  0.00    -0.352 N 
ATOM     75  C   UNL     1       6.977  -2.395  -4.948  1.00  0.00     0.252 C 
ATOM     76  H   UNL     1       6.660  -1.958  -3.016  1.00  0.00     0.163 HD
ATOM     77  O   UNL     1       8.172  -2.124  -4.910  1.00  0.00    -0.269 OA
BRANCH  75  78
ATOM     78  C   UNL     1       6.388  -2.925  -6.191  1.00  0.00     0.051 A 
ATOM     79  C   UNL     1       6.897  -4.147  -6.625  1.00  0.00     0.043 A 
ATOM     80  C   UNL     1       5.350  -2.267  -6.886  1.00  0.00     0.016 A 
ATOM     81  C   UNL     1       6.317  -4.717  -7.736  1.00  0.00     0.075 A 
ATOM     82  C   UNL     1       4.783  -2.969  -7.966  1.00  0.00     0.107 A 
ATOM     83  C   UNL     1       4.855  -0.978  -6.553  1.00  0.00     0.011 A 
ATOM     84  N   UNL     1       5.271  -4.158  -8.383  1.00  0.00    -0.245 NA
ATOM     85  C   UNL     1       3.675  -2.397  -8.595  1.00  0.00     0.149 A 
ATOM     86  C   UNL     1       3.756  -0.432  -7.212  1.00  0.00     0.004 A 
ATOM     87  F   UNL     1       3.062  -3.056  -9.592  1.00  0.00    -0.205 F 
ATOM     88  C   UNL     1       3.150  -1.158  -8.225  1.00  0.00     0.041 A 
BRANCH  81  89
ATOM     89  C   UNL     1       6.821  -5.947  -8.305  1.00  0.00     0.038 A 
ATOM     90  C   UNL     1       7.082  -6.269  -9.664  1.00  0.00     0.052 A 
ATOM     91  C   UNL     1       7.144  -7.077  -7.583  1.00  0.00     0.205 A 
ATOM     92  C   UNL     1       7.570  -7.555  -9.670  1.00  0.00     0.195 A 
ATOM     93  O   UNL     1       7.606  -8.054  -8.408  1.00  0.00    -0.472 OA
ENDBRANCH  81  89
ENDBRANCH  75  78
ENDBRANCH  73  74
ENDBRANCH  72  73
ENDBRANCH   1  72
TORSDOF 12
