REMARK SMILES CC[N@@H+]1CCO[C@@H](Cn2cc(C(=O)NCCCCNC(=O)c3ccc(-c4c5nc(c(-c6c(F)c(F)c(F)c(F)c6F)c6ccc([nH]6)c(-c6c(F)c(F)c(F)c(F)c6F)c6nc(c(-c7c(F)c(F)c(F)c(F)c7F)c7ccc4[nH]7)C=C6)C=C5)cc3)nn2)C1
REMARK SMILES IDX 16 1 15 2 14 3 12 4 13 5 11 7 9 8 10 9 86 10 85 11 8 12 7 13
REMARK SMILES IDX 3 14 4 15 87 16 5 18 6 19 2 20 1 21 17 22 18 23 19 24 20 25
REMARK SMILES IDX 21 27 22 28 23 29 84 30 24 31 83 32 25 33 26 34 27 35 77 36
REMARK SMILES IDX 28 37 82 38 76 39 78 40 29 41 81 42 75 43 74 44 30 46 62 47
REMARK SMILES IDX 42 48 61 49 43 50 46 51 60 52 79 53 44 54 45 55 59 57 80 58
REMARK SMILES IDX 47 59 31 60 32 61 40 62 33 63 34 64 38 65 41 66 35 67 36 68
REMARK SMILES IDX 39 69 37 70 63 71 64 72 72 73 65 74 66 75 70 76 73 77 67 78
REMARK SMILES IDX 68 79 71 80 69 81 48 82 49 83 57 84 50 85 51 86 55 87 58 88
REMARK SMILES IDX 52 89 53 90 56 91 54 92
REMARK H PARENT 14 6 3 17 19 26 78 45 46 56
REMARK Flexibility Score: inf
ROOT
ATOM      1  C   UNL     1       4.127  -4.195  -3.134  1.00  0.00     0.023 C 
ENDROOT
BRANCH   1   2
ATOM      2  C   UNL     1       2.984  -4.448  -2.148  1.00  0.00     0.116 C 
BRANCH   2   3
ATOM      3  N   UNL     1       3.163  -5.690  -1.425  1.00  0.00    -0.351 N 
ATOM      4  C   UNL     1       3.587  -5.960  -0.143  1.00  0.00     0.273 C 
ATOM      5  O   UNL     1       3.542  -7.142   0.202  1.00  0.00    -0.267 OA
ATOM      6  H   UNL     1       2.939  -6.493  -1.950  1.00  0.00     0.163 HD
BRANCH   4   7
ATOM      7  C   UNL     1       4.020  -4.905   0.770  1.00  0.00     0.170 A 
ATOM      8  N   UNL     1       4.593  -3.078   1.793  1.00  0.00    -0.249 N 
ATOM      9  C   UNL     1       4.473  -3.619   0.545  1.00  0.00     0.145 A 
ATOM     10  N   UNL     1       4.374  -3.994   2.744  1.00  0.00    -0.067 NA
ATOM     11  N   UNL     1       4.026  -5.118   2.135  1.00  0.00    -0.125 NA
BRANCH   8  12
ATOM     12  C   UNL     1       4.731  -1.684   2.146  1.00  0.00     0.184 C 
BRANCH  12  13
ATOM     13  C   UNL     1       3.486  -0.864   1.787  1.00  0.00     0.194 C 
ATOM     14  N   UNL     1       1.019  -0.581   2.204  1.00  0.00    -0.331 N 
ATOM     15  C   UNL     1       1.292   0.844   2.431  1.00  0.00     0.291 C 
ATOM     16  C   UNL     1       2.218  -1.380   2.501  1.00  0.00     0.296 C 
ATOM     17  H   UNL     1       0.294  -0.831   2.876  1.00  0.00     0.348 HD
ATOM     18  C   UNL     1       2.616   1.347   1.823  1.00  0.00     0.222 C 
ATOM     19  O   UNL     1       3.733   0.508   2.155  1.00  0.00    -0.365 OA
BRANCH  14  20
ATOM     20  C   UNL     1       0.327  -0.939   0.964  1.00  0.00     0.258 C 
ATOM     21  C   UNL     1       0.630  -0.156  -0.309  1.00  0.00     0.071 C 
ENDBRANCH  14  20
ENDBRANCH  12  13
ENDBRANCH   8  12
ENDBRANCH   4   7
ENDBRANCH   2   3
ENDBRANCH   1   2
BRANCH   1  22
ATOM     22  C   UNL     1       4.109  -5.082  -4.390  1.00  0.00     0.023 C 
BRANCH  22  23
ATOM     23  C   UNL     1       2.921  -4.855  -5.321  1.00  0.00     0.116 C 
BRANCH  23  24
ATOM     24  N   UNL     1       2.892  -3.513  -5.898  1.00  0.00    -0.352 N 
ATOM     25  C   UNL     1       1.868  -2.935  -6.631  1.00  0.00     0.251 C 
ATOM     26  H   UNL     1       3.689  -2.955  -5.748  1.00  0.00     0.163 HD
ATOM     27  O   UNL     1       2.068  -2.004  -7.388  1.00  0.00    -0.269 OA
BRANCH  25  28
ATOM     28  C   UNL     1       0.508  -3.470  -6.448  1.00  0.00     0.039 A 
ATOM     29  C   UNL     1      -0.299  -3.797  -7.540  1.00  0.00     0.014 A 
ATOM     30  C   UNL     1       0.086  -3.696  -5.141  1.00  0.00     0.014 A 
ATOM     31  C   UNL     1      -1.508  -4.448  -7.305  1.00  0.00     0.010 A 
ATOM     32  C   UNL     1      -1.041  -4.446  -4.918  1.00  0.00     0.010 A 
ATOM     33  C   UNL     1      -1.860  -4.795  -5.990  1.00  0.00    -0.014 A 
BRANCH  33  34
ATOM     34  C   UNL     1      -2.994  -5.682  -5.732  1.00  0.00     0.031 A 
ATOM     35  C   UNL     1      -2.913  -6.989  -6.449  1.00  0.00     0.074 A 
ATOM     36  C   UNL     1      -3.883  -5.444  -4.741  1.00  0.00     0.049 A 
ATOM     37  N   UNL     1      -3.734  -7.463  -7.327  1.00  0.00    -0.248 NA
ATOM     38  C   UNL     1      -1.705  -7.816  -6.273  1.00  0.00     0.031 C 
ATOM     39  C   UNL     1      -3.857  -4.336  -3.776  1.00  0.00     0.029 A 
ATOM     40  N   UNL     1      -4.930  -6.198  -4.295  1.00  0.00    -0.354 N 
ATOM     41  C   UNL     1      -3.264  -8.738  -7.649  1.00  0.00     0.074 A 
ATOM     42  C   UNL     1      -1.930  -8.818  -7.126  1.00  0.00     0.031 C 
ATOM     43  C   UNL     1      -4.663  -4.620  -2.731  1.00  0.00     0.029 A 
ATOM     44  C   UNL     1      -5.398  -5.832  -3.036  1.00  0.00     0.049 A 
ATOM     45  H   UNL     1      -5.320  -6.935  -4.819  1.00  0.00     0.167 HD
ATOM     46  C   UNL     1      -4.136  -9.708  -8.047  1.00  0.00     0.037 A 
ATOM     47  C   UNL     1      -6.322  -6.476  -2.283  1.00  0.00     0.037 A 
ATOM     48  C   UNL     1      -5.399  -9.116  -8.411  1.00  0.00     0.049 A 
ATOM     49  C   UNL     1      -7.109  -7.335  -3.192  1.00  0.00     0.074 A 
ATOM     50  C   UNL     1      -5.894  -8.365  -9.452  1.00  0.00     0.029 A 
ATOM     51  N   UNL     1      -6.255  -8.970  -7.353  1.00  0.00    -0.354 N 
ATOM     52  N   UNL     1      -7.898  -6.864  -4.117  1.00  0.00    -0.248 NA
ATOM     53  C   UNL     1      -6.744  -8.739  -3.336  1.00  0.00     0.031 C 
ATOM     54  C   UNL     1      -6.966  -7.596  -8.903  1.00  0.00     0.029 A 
ATOM     55  C   UNL     1      -7.128  -7.941  -7.561  1.00  0.00     0.049 A 
ATOM     56  H   UNL     1      -6.244  -9.535  -6.546  1.00  0.00     0.167 HD
ATOM     57  C   UNL     1      -7.765  -7.754  -5.164  1.00  0.00     0.074 A 
ATOM     58  C   UNL     1      -7.205  -8.963  -4.570  1.00  0.00     0.031 C 
ATOM     59  C   UNL     1      -7.810  -7.311  -6.454  1.00  0.00     0.037 A 
BRANCH  46  60
ATOM     60  C   UNL     1      -4.084 -11.167  -7.606  1.00  0.00     0.064 A 
ATOM     61  C   UNL     1      -5.100 -12.042  -8.057  1.00  0.00     0.173 A 
ATOM     62  C   UNL     1      -3.328 -11.645  -6.515  1.00  0.00     0.173 A 
ATOM     63  F   UNL     1      -5.887 -11.703  -9.090  1.00  0.00    -0.203 F 
ATOM     64  C   UNL     1      -5.402 -13.238  -7.396  1.00  0.00     0.198 A 
ATOM     65  C   UNL     1      -3.604 -12.861  -5.886  1.00  0.00     0.198 A 
ATOM     66  F   UNL     1      -2.365 -10.923  -5.935  1.00  0.00    -0.203 F 
ATOM     67  F   UNL     1      -6.462 -13.963  -7.779  1.00  0.00    -0.200 F 
ATOM     68  C   UNL     1      -4.662 -13.639  -6.301  1.00  0.00     0.200 A 
ATOM     69  F   UNL     1      -2.884 -13.223  -4.814  1.00  0.00    -0.200 F 
ATOM     70  F   UNL     1      -4.992 -14.744  -5.620  1.00  0.00    -0.200 F 
ENDBRANCH  46  60
BRANCH  47  71
ATOM     71  C   UNL     1      -6.433  -6.562  -0.809  1.00  0.00     0.064 A 
ATOM     72  C   UNL     1      -7.642  -6.896  -0.178  1.00  0.00     0.173 A 
ATOM     73  C   UNL     1      -5.277  -6.589  -0.004  1.00  0.00     0.173 A 
ATOM     74  F   UNL     1      -8.782  -6.934  -0.883  1.00  0.00    -0.203 F 
ATOM     75  C   UNL     1      -7.689  -7.260   1.173  1.00  0.00     0.198 A 
ATOM     76  C   UNL     1      -5.325  -6.951   1.343  1.00  0.00     0.198 A 
ATOM     77  F   UNL     1      -4.069  -6.356  -0.537  1.00  0.00    -0.203 F 
ATOM     78  F   UNL     1      -8.852  -7.630   1.727  1.00  0.00    -0.200 F 
ATOM     79  C   UNL     1      -6.528  -7.300   1.929  1.00  0.00     0.200 A 
ATOM     80  F   UNL     1      -4.190  -7.023   2.052  1.00  0.00    -0.200 F 
ATOM     81  F   UNL     1      -6.563  -7.711   3.204  1.00  0.00    -0.200 F 
ENDBRANCH  47  71
BRANCH  59  82
ATOM     82  C   UNL     1      -8.476  -5.993  -6.705  1.00  0.00     0.064 A 
ATOM     83  C   UNL     1      -7.987  -4.754  -6.263  1.00  0.00     0.173 A 
ATOM     84  C   UNL     1      -9.623  -5.987  -7.509  1.00  0.00     0.173 A 
ATOM     85  F   UNL     1      -6.851  -4.670  -5.560  1.00  0.00    -0.203 F 
ATOM     86  C   UNL     1      -8.643  -3.566  -6.580  1.00  0.00     0.198 A 
ATOM     87  C   UNL     1     -10.254  -4.799  -7.857  1.00  0.00     0.198 A 
ATOM     88  F   UNL     1     -10.107  -7.141  -7.995  1.00  0.00    -0.203 F 
ATOM     89  F   UNL     1      -8.168  -2.395  -6.132  1.00  0.00    -0.200 F 
ATOM     90  C   UNL     1      -9.772  -3.590  -7.383  1.00  0.00     0.200 A 
ATOM     91  F   UNL     1     -11.318  -4.825  -8.671  1.00  0.00    -0.200 F 
ATOM     92  F   UNL     1     -10.383  -2.446  -7.719  1.00  0.00    -0.200 F 
ENDBRANCH  59  82
ENDBRANCH  33  34
ENDBRANCH  25  28
ENDBRANCH  23  24
ENDBRANCH  22  23
ENDBRANCH   1  22
TORSDOF 14
