REMARK SMILES CCc1sc(NC(=O)[C@H]2CC(C)=C(C)C[C@H]2C(=O)NCCCCNC(=O)c2ccc(-c3c4nc(c(-c5c(F)c(F)c(F)c(F)c5F)c5ccc([nH]5)c(-c5c(F)c(F)c(F)c(F)c5F)c5nc(c(-c6c(F)c(F)c(F)c(F)c6F)c6ccc3[nH]6)C=C5)C=C4)cc2)nc1-c1ccccc1
REMARK SMILES IDX 21 1 20 2 19 3 17 4 18 5 16 7 9 8 10 9 11 10 15 11 12 12
REMARK SMILES IDX 13 13 14 14 7 15 6 16 8 18 5 19 3 20 4 21 91 22 90 23 2 24
REMARK SMILES IDX 1 25 92 26 93 27 97 28 94 29 96 30 95 31 22 32 23 33 24 34
REMARK SMILES IDX 25 35 26 37 27 38 28 39 89 40 29 41 88 42 30 43 31 44 32 45
REMARK SMILES IDX 82 46 33 47 87 48 81 49 83 50 34 51 86 52 80 53 79 54 35 56
REMARK SMILES IDX 67 57 47 58 66 59 48 60 51 61 65 62 84 63 49 64 50 65 64 67
REMARK SMILES IDX 85 68 52 69 36 70 37 71 45 72 38 73 39 74 43 75 46 76 40 77
REMARK SMILES IDX 41 78 44 79 42 80 68 81 69 82 77 83 70 84 71 85 75 86 78 87
REMARK SMILES IDX 72 88 73 89 76 90 74 91 53 92 54 93 62 94 55 95 56 96 60 97
REMARK SMILES IDX 63 98 57 99 58 100 61 101 59 102
REMARK H PARENT 19 6 6 17 24 36 83 55 51 66
REMARK Flexibility Score: inf
ROOT
ATOM      1  C   UNL     1       3.534   0.145   9.737  1.00  0.00     0.023 C 
ENDROOT
BRANCH   1   2
ATOM      2  C   UNL     1       2.400  -0.854   9.554  1.00  0.00     0.116 C 
BRANCH   2   3
ATOM      3  N   UNL     1       1.315  -0.318   8.769  1.00  0.00    -0.356 N 
ATOM      4  C   UNL     1       0.916  -0.596   7.506  1.00  0.00     0.224 C 
ATOM      5  O   UNL     1      -0.078   0.010   7.094  1.00  0.00    -0.275 OA
ATOM      6  H   UNL     1       0.775   0.364   9.229  1.00  0.00     0.163 HD
BRANCH   4   7
ATOM      7  C   UNL     1       1.626  -1.597   6.593  1.00  0.00     0.095 C 
ATOM      8  C   UNL     1       2.968  -1.144   5.990  1.00  0.00     0.095 C 
ATOM      9  C   UNL     1       4.213  -1.730   6.690  1.00  0.00     0.045 C 
ATOM     10  C   UNL     1       4.068  -3.064   7.383  1.00  0.00    -0.074 C 
ATOM     11  C   UNL     1       1.576  -3.043   7.110  1.00  0.00     0.045 C 
ATOM     12  C   UNL     1       5.371  -3.591   7.935  1.00  0.00     0.039 C 
ATOM     13  C   UNL     1       2.873  -3.660   7.575  1.00  0.00    -0.074 C 
ATOM     14  C   UNL     1       2.712  -4.936   8.362  1.00  0.00     0.039 C 
BRANCH   8  15
ATOM     15  C   UNL     1       3.091   0.388   5.889  1.00  0.00     0.230 C 
ATOM     16  N   UNL     1       2.324   1.179   5.107  1.00  0.00    -0.302 N 
ATOM     17  H   UNL     1       2.283   2.109   5.428  1.00  0.00     0.172 HD
ATOM     18  O   UNL     1       3.921   0.998   6.575  1.00  0.00    -0.274 OA
BRANCH  16  19
ATOM     19  C   UNL     1       1.594   0.981   3.974  1.00  0.00     0.190 A 
ATOM     20  C   UNL     1       0.659   0.233   1.874  1.00  0.00     0.034 A 
ATOM     21  S   UNL     1       1.484  -0.507   3.178  1.00  0.00    -0.101 S 
ATOM     22  C   UNL     1       0.501   1.581   2.156  1.00  0.00     0.087 A 
ATOM     23  N   UNL     1       1.048   1.999   3.355  1.00  0.00    -0.220 NA
BRANCH  20  24
ATOM     24  C   UNL     1       0.295  -0.581   0.674  1.00  0.00     0.046 C 
ATOM     25  C   UNL     1       1.117  -0.195  -0.547  1.00  0.00     0.010 C 
ENDBRANCH  20  24
BRANCH  22  26
ATOM     26  C   UNL     1      -0.067   2.535   1.222  1.00  0.00     0.001 A 
ATOM     27  C   UNL     1      -1.375   2.390   0.749  1.00  0.00     0.010 A 
ATOM     28  C   UNL     1       0.735   3.575   0.734  1.00  0.00     0.010 A 
ATOM     29  C   UNL     1      -1.858   3.243  -0.245  1.00  0.00     0.001 A 
ATOM     30  C   UNL     1       0.250   4.426  -0.260  1.00  0.00     0.001 A 
ATOM     31  C   UNL     1      -1.041   4.251  -0.757  1.00  0.00     0.000 A 
ENDBRANCH  22  26
ENDBRANCH  16  19
ENDBRANCH   8  15
ENDBRANCH   4   7
ENDBRANCH   2   3
ENDBRANCH   1   2
BRANCH   1  32
ATOM     32  C   UNL     1       3.206   1.295  10.677  1.00  0.00     0.023 C 
BRANCH  32  33
ATOM     33  C   UNL     1       2.776   0.841  12.059  1.00  0.00     0.116 C 
BRANCH  33  34
ATOM     34  N   UNL     1       3.734  -0.074  12.667  1.00  0.00    -0.352 N 
ATOM     35  C   UNL     1       4.231  -0.067  13.944  1.00  0.00     0.251 C 
ATOM     36  H   UNL     1       4.068  -0.793  12.083  1.00  0.00     0.163 HD
ATOM     37  O   UNL     1       5.170  -0.783  14.260  1.00  0.00    -0.269 OA
BRANCH  35  38
ATOM     38  C   UNL     1       3.619   0.845  14.925  1.00  0.00     0.039 A 
ATOM     39  C   UNL     1       4.447   1.636  15.720  1.00  0.00     0.014 A 
ATOM     40  C   UNL     1       2.227   0.949  15.009  1.00  0.00     0.014 A 
ATOM     41  C   UNL     1       3.871   2.573  16.572  1.00  0.00     0.010 A 
ATOM     42  C   UNL     1       1.661   1.954  15.777  1.00  0.00     0.010 A 
ATOM     43  C   UNL     1       2.477   2.759  16.582  1.00  0.00    -0.014 A 
BRANCH  43  44
ATOM     44  C   UNL     1       1.865   3.795  17.442  1.00  0.00     0.031 A 
ATOM     45  C   UNL     1       0.930   3.403  18.549  1.00  0.00     0.074 A 
ATOM     46  C   UNL     1       2.126   5.091  17.190  1.00  0.00     0.049 A 
ATOM     47  N   UNL     1       0.340   4.160  19.438  1.00  0.00    -0.248 NA
ATOM     48  C   UNL     1       0.580   1.977  18.651  1.00  0.00     0.031 C 
ATOM     49  C   UNL     1       2.936   5.587  16.076  1.00  0.00     0.029 A 
ATOM     50  N   UNL     1       1.739   6.225  17.853  1.00  0.00    -0.354 N 
ATOM     51  C   UNL     1      -0.456   3.306  20.189  1.00  0.00     0.074 A 
ATOM     52  C   UNL     1      -0.330   1.988  19.611  1.00  0.00     0.031 C 
ATOM     53  C   UNL     1       3.020   6.924  16.157  1.00  0.00     0.029 A 
ATOM     54  C   UNL     1       2.253   7.377  17.312  1.00  0.00     0.049 A 
ATOM     55  H   UNL     1       1.150   6.215  18.642  1.00  0.00     0.167 HD
ATOM     56  C   UNL     1      -1.200   3.594  21.283  1.00  0.00     0.037 A 
ATOM     57  C   UNL     1       2.128   8.654  17.716  1.00  0.00     0.037 A 
ATOM     58  C   UNL     1      -1.296   4.909  21.860  1.00  0.00     0.049 A 
ATOM     59  C   UNL     1       1.353   8.942  18.971  1.00  0.00     0.074 A 
ATOM     60  C   UNL     1      -1.945   5.301  23.016  1.00  0.00     0.029 A 
ATOM     61  N   UNL     1      -0.727   6.051  21.312  1.00  0.00    -0.354 N 
ATOM     62  N   UNL     1       0.697   8.112  19.746  1.00  0.00    -0.248 NA
ATOM     63  C   UNL     1       1.322  10.338  19.419  1.00  0.00     0.031 C 
ATOM     64  C   UNL     1      -1.817   6.690  23.138  1.00  0.00     0.029 A 
ATOM     65  C   UNL     1      -1.035   7.155  22.091  1.00  0.00     0.049 A 
ATOM     66  H   UNL     1      -0.184   6.073  20.491  1.00  0.00     0.167 HD
ATOM     67  C   UNL     1       0.184   8.881  20.781  1.00  0.00     0.074 A 
ATOM     68  C   UNL     1       0.636  10.239  20.549  1.00  0.00     0.031 C 
ATOM     69  C   UNL     1      -0.593   8.502  21.827  1.00  0.00     0.037 A 
BRANCH  56  70
ATOM     70  C   UNL     1      -1.966   2.465  21.914  1.00  0.00     0.064 A 
ATOM     71  C   UNL     1      -1.319   1.391  22.547  1.00  0.00     0.173 A 
ATOM     72  C   UNL     1      -3.369   2.456  21.885  1.00  0.00     0.173 A 
ATOM     73  F   UNL     1       0.021   1.340  22.591  1.00  0.00    -0.203 F 
ATOM     74  C   UNL     1      -2.045   0.332  23.088  1.00  0.00     0.198 A 
ATOM     75  C   UNL     1      -4.092   1.413  22.459  1.00  0.00     0.198 A 
ATOM     76  F   UNL     1      -4.040   3.456  21.296  1.00  0.00    -0.203 F 
ATOM     77  F   UNL     1      -1.401  -0.713  23.626  1.00  0.00    -0.200 F 
ATOM     78  C   UNL     1      -3.430   0.347  23.049  1.00  0.00     0.200 A 
ATOM     79  F   UNL     1      -5.432   1.435  22.430  1.00  0.00    -0.200 F 
ATOM     80  F   UNL     1      -4.128  -0.672  23.569  1.00  0.00    -0.200 F 
ENDBRANCH  56  70
BRANCH  57  81
ATOM     81  C   UNL     1       2.799   9.733  16.948  1.00  0.00     0.064 A 
ATOM     82  C   UNL     1       3.918  10.402  17.463  1.00  0.00     0.173 A 
ATOM     83  C   UNL     1       2.357  10.092  15.666  1.00  0.00     0.173 A 
ATOM     84  F   UNL     1       4.370  10.103  18.690  1.00  0.00    -0.203 F 
ATOM     85  C   UNL     1       4.561  11.398  16.731  1.00  0.00     0.198 A 
ATOM     86  C   UNL     1       3.018  11.069  14.924  1.00  0.00     0.198 A 
ATOM     87  F   UNL     1       1.298   9.474  15.123  1.00  0.00    -0.203 F 
ATOM     88  F   UNL     1       5.608  12.046  17.262  1.00  0.00    -0.200 F 
ATOM     89  C   UNL     1       4.116  11.725  15.459  1.00  0.00     0.200 A 
ATOM     90  F   UNL     1       2.596  11.368  13.688  1.00  0.00    -0.200 F 
ATOM     91  F   UNL     1       4.744  12.673  14.751  1.00  0.00    -0.200 F 
ENDBRANCH  57  81
BRANCH  69  92
ATOM     92  C   UNL     1      -0.993   9.578  22.796  1.00  0.00     0.064 A 
ATOM     93  C   UNL     1      -1.888  10.596  22.436  1.00  0.00     0.173 A 
ATOM     94  C   UNL     1      -0.475   9.589  24.100  1.00  0.00     0.173 A 
ATOM     95  F   UNL     1      -2.402  10.637  21.197  1.00  0.00    -0.203 F 
ATOM     96  C   UNL     1      -2.213  11.612  23.330  1.00  0.00     0.198 A 
ATOM     97  C   UNL     1      -0.831  10.586  25.003  1.00  0.00     0.198 A 
ATOM     98  F   UNL     1       0.377   8.633  24.499  1.00  0.00    -0.203 F 
ATOM     99  F   UNL     1      -3.015  12.613  22.941  1.00  0.00    -0.200 F 
ATOM    100  C   UNL     1      -1.688  11.604  24.614  1.00  0.00     0.200 A 
ATOM    101  F   UNL     1      -0.335  10.568  26.248  1.00  0.00    -0.200 F 
ATOM    102  F   UNL     1      -1.999  12.585  25.472  1.00  0.00    -0.200 F 
ENDBRANCH  69  92
ENDBRANCH  43  44
ENDBRANCH  35  38
ENDBRANCH  33  34
ENDBRANCH  32  33
ENDBRANCH   1  32
TORSDOF 15
