REMARK SMILES C[C@@H]1CN(C(=O)Nc2ccc(O)c(C(=O)NCCCCNC(=O)c3ccc(-c4c5nc(c(-c6c(F)c(F)c(F)c(F)c6F)c6ccc([nH]6)c(-c6c(F)c(F)c(F)c(F)c6F)c6nc(c(-c7c(F)c(F)c(F)c(F)c7F)c7ccc4[nH]7)C=C6)C=C5)cc3)c2)C[C@H]1C
REMARK SMILES IDX 19 1 18 2 17 3 16 4 14 5 15 6 13 8 8 9 9 10 87 11 10 12
REMARK SMILES IDX 11 13 7 14 1 15 2 16 3 17 89 18 4 19 88 20 90 21 5 22 6 23
REMARK SMILES IDX 12 25 20 27 21 28 22 29 23 31 24 32 25 33 86 34 26 35 85 36
REMARK SMILES IDX 27 37 28 38 29 39 79 40 30 41 84 42 78 43 80 44 31 45 83 46
REMARK SMILES IDX 77 47 76 48 32 50 64 51 44 52 63 53 45 54 48 55 62 56 81 57
REMARK SMILES IDX 46 58 47 59 61 61 82 62 49 63 33 64 34 65 42 66 35 67 36 68
REMARK SMILES IDX 40 69 43 70 37 71 38 72 41 73 39 74 65 75 66 76 74 77 67 78
REMARK SMILES IDX 68 79 72 80 75 81 69 82 70 83 73 84 71 85 50 86 51 87 59 88
REMARK SMILES IDX 52 89 53 90 57 91 60 92 54 93 55 94 58 95 56 96
REMARK H PARENT 16 7 7 24 12 26 21 30 80 49 48 60
REMARK Flexibility Score: inf
ROOT
ATOM      1  C   UNL     1      -4.076   6.968   2.276  1.00  0.00     0.023 C 
ENDROOT
BRANCH   1   2
ATOM      2  C   UNL     1      -3.336   6.016   1.342  1.00  0.00     0.023 C 
BRANCH   2   3
ATOM      3  C   UNL     1      -3.194   4.577   1.845  1.00  0.00     0.116 C 
BRANCH   3   4
ATOM      4  N   UNL     1      -4.409   3.836   1.602  1.00  0.00    -0.352 N 
ATOM      5  C   UNL     1      -4.805   3.049   0.553  1.00  0.00     0.255 C 
ATOM      6  O   UNL     1      -5.943   2.576   0.631  1.00  0.00    -0.269 OA
ATOM      7  H   UNL     1      -5.076   3.911   2.322  1.00  0.00     0.163 HD
BRANCH   5   8
ATOM      8  C   UNL     1      -3.957   2.648  -0.611  1.00  0.00     0.083 A 
ATOM      9  C   UNL     1      -3.483   0.789  -2.121  1.00  0.00     0.043 A 
ATOM     10  C   UNL     1      -2.623   1.588  -2.863  1.00  0.00     0.030 A 
ATOM     11  C   UNL     1      -4.210   1.339  -1.066  1.00  0.00     0.044 A 
ATOM     12  C   UNL     1      -2.365   2.886  -2.444  1.00  0.00     0.049 A 
ATOM     13  C   UNL     1      -2.997   3.399  -1.304  1.00  0.00     0.128 A 
BRANCH   9  14
ATOM     14  N   UNL     1      -3.631  -0.570  -2.390  1.00  0.00    -0.308 N 
ATOM     15  C   UNL     1       1.134  -0.358   0.223  1.00  0.00     0.010 C 
ATOM     16  C   UNL     1       0.610  -0.860  -1.112  1.00  0.00     0.010 C 
ATOM     17  C   UNL     1      -0.820  -0.397  -1.375  1.00  0.00     0.125 C 
ATOM     18  C   UNL     1       0.485  -2.379  -1.236  1.00  0.00     0.010 C 
ATOM     19  N   UNL     1      -1.405  -1.395  -2.266  1.00  0.00    -0.324 N 
ATOM     20  C   UNL     1      -0.496  -2.525  -2.405  1.00  0.00     0.125 C 
ATOM     21  C   UNL     1       1.811  -3.076  -1.482  1.00  0.00     0.010 C 
ATOM     22  C   UNL     1      -2.702  -1.515  -2.709  1.00  0.00     0.321 C 
ATOM     23  O   UNL     1      -3.099  -2.536  -3.276  1.00  0.00    -0.248 OA
ATOM     24  H   UNL     1      -4.557  -0.902  -2.343  1.00  0.00     0.171 HD
ENDBRANCH   9  14
BRANCH  13  25
ATOM     25  O   UNL     1      -2.634   4.659  -0.945  1.00  0.00    -0.507 OA
ATOM     26  H   UNL     1      -1.986   5.119  -1.441  1.00  0.00     0.293 HD
ENDBRANCH  13  25
ENDBRANCH   5   8
ENDBRANCH   3   4
ENDBRANCH   2   3
ENDBRANCH   1   2
BRANCH   1  27
ATOM     27  C   UNL     1      -3.389   7.217   3.608  1.00  0.00     0.116 C 
BRANCH  27  28
ATOM     28  N   UNL     1      -2.023   7.700   3.479  1.00  0.00    -0.352 N 
ATOM     29  C   UNL     1      -1.336   8.561   4.303  1.00  0.00     0.251 C 
ATOM     30  H   UNL     1      -1.524   7.367   2.698  1.00  0.00     0.163 HD
ATOM     31  O   UNL     1      -0.215   8.943   4.011  1.00  0.00    -0.269 OA
BRANCH  29  32
ATOM     32  C   UNL     1      -2.001   9.057   5.526  1.00  0.00     0.039 A 
ATOM     33  C   UNL     1      -1.990  10.429   5.784  1.00  0.00     0.014 A 
ATOM     34  C   UNL     1      -2.674   8.179   6.380  1.00  0.00     0.014 A 
ATOM     35  C   UNL     1      -2.716  10.928   6.864  1.00  0.00     0.010 A 
ATOM     36  C   UNL     1      -3.465   8.686   7.403  1.00  0.00     0.010 A 
ATOM     37  C   UNL     1      -3.489  10.064   7.658  1.00  0.00    -0.014 A 
BRANCH  37  38
ATOM     38  C   UNL     1      -4.329  10.591   8.760  1.00  0.00     0.031 A 
ATOM     39  C   UNL     1      -4.029  10.217  10.183  1.00  0.00     0.074 A 
ATOM     40  C   UNL     1      -5.390  11.367   8.471  1.00  0.00     0.049 A 
ATOM     41  N   UNL     1      -4.647  10.573  11.281  1.00  0.00    -0.248 NA
ATOM     42  C   UNL     1      -2.902   9.297  10.400  1.00  0.00     0.031 C 
ATOM     43  C   UNL     1      -5.818  11.746   7.123  1.00  0.00     0.029 A 
ATOM     44  N   UNL     1      -6.302  11.977   9.294  1.00  0.00    -0.354 N 
ATOM     45  C   UNL     1      -3.989   9.918  12.312  1.00  0.00     0.074 A 
ATOM     46  C   UNL     1      -2.971   9.088  11.706  1.00  0.00     0.031 C 
ATOM     47  C   UNL     1      -6.882  12.559   7.214  1.00  0.00     0.029 A 
ATOM     48  C   UNL     1      -7.230  12.733   8.621  1.00  0.00     0.049 A 
ATOM     49  H   UNL     1      -6.292  11.882  10.274  1.00  0.00     0.167 HD
ATOM     50  C   UNL     1      -4.194  10.022  13.647  1.00  0.00     0.037 A 
ATOM     51  C   UNL     1      -8.239  13.489   9.090  1.00  0.00     0.037 A 
ATOM     52  C   UNL     1      -5.202  10.858  14.245  1.00  0.00     0.049 A 
ATOM     53  C   UNL     1      -8.450  13.586  10.576  1.00  0.00     0.074 A 
ATOM     54  C   UNL     1      -5.461  11.077  15.586  1.00  0.00     0.029 A 
ATOM     55  N   UNL     1      -6.123  11.613  13.532  1.00  0.00    -0.354 N 
ATOM     56  N   UNL     1      -7.773  13.024  11.548  1.00  0.00    -0.248 NA
ATOM     57  C   UNL     1      -9.562  14.433  11.028  1.00  0.00     0.031 C 
ATOM     58  C   UNL     1      -6.567  11.928  15.685  1.00  0.00     0.029 A 
ATOM     59  C   UNL     1      -6.966  12.281  14.406  1.00  0.00     0.049 A 
ATOM     60  H   UNL     1      -6.171  11.665  12.550  1.00  0.00     0.167 HD
ATOM     61  C   UNL     1      -8.358  13.469  12.726  1.00  0.00     0.074 A 
ATOM     62  C   UNL     1      -9.433  14.362  12.345  1.00  0.00     0.031 C 
ATOM     63  C   UNL     1      -8.034  13.165  14.008  1.00  0.00     0.037 A 
BRANCH  50  64
ATOM     64  C   UNL     1      -3.303   9.209  14.542  1.00  0.00     0.064 A 
ATOM     65  C   UNL     1      -1.933   9.489  14.665  1.00  0.00     0.173 A 
ATOM     66  C   UNL     1      -3.821   8.137  15.284  1.00  0.00     0.173 A 
ATOM     67  F   UNL     1      -1.383  10.494  13.967  1.00  0.00    -0.203 F 
ATOM     68  C   UNL     1      -1.107   8.700  15.463  1.00  0.00     0.198 A 
ATOM     69  C   UNL     1      -2.998   7.372  16.107  1.00  0.00     0.198 A 
ATOM     70  F   UNL     1      -5.124   7.827  15.208  1.00  0.00    -0.203 F 
ATOM     71  F   UNL     1       0.209   8.947  15.510  1.00  0.00    -0.200 F 
ATOM     72  C   UNL     1      -1.641   7.646  16.186  1.00  0.00     0.200 A 
ATOM     73  F   UNL     1      -3.518   6.359  16.815  1.00  0.00    -0.200 F 
ATOM     74  F   UNL     1      -0.846   6.886  16.952  1.00  0.00    -0.200 F 
ENDBRANCH  50  64
BRANCH  51  75
ATOM     75  C   UNL     1      -9.088  14.259   8.145  1.00  0.00     0.064 A 
ATOM     76  C   UNL     1      -8.993  15.656   8.076  1.00  0.00     0.173 A 
ATOM     77  C   UNL     1      -9.996  13.622   7.288  1.00  0.00     0.173 A 
ATOM     78  F   UNL     1      -8.151  16.310   8.890  1.00  0.00    -0.203 F 
ATOM     79  C   UNL     1      -9.787  16.389   7.197  1.00  0.00     0.198 A 
ATOM     80  C   UNL     1     -10.771  14.354   6.391  1.00  0.00     0.198 A 
ATOM     81  F   UNL     1     -10.119  12.287   7.311  1.00  0.00    -0.203 F 
ATOM     82  F   UNL     1      -9.704  17.726   7.180  1.00  0.00    -0.200 F 
ATOM     83  C   UNL     1     -10.671  15.737   6.351  1.00  0.00     0.200 A 
ATOM     84  F   UNL     1     -11.614  13.720   5.564  1.00  0.00    -0.200 F 
ATOM     85  F   UNL     1     -11.429  16.442   5.500  1.00  0.00    -0.200 F 
ENDBRANCH  51  75
BRANCH  63  86
ATOM     86  C   UNL     1      -8.838  13.828  15.089  1.00  0.00     0.064 A 
ATOM     87  C   UNL     1     -10.177  13.483  15.329  1.00  0.00     0.173 A 
ATOM     88  C   UNL     1      -8.257  14.811  15.904  1.00  0.00     0.173 A 
ATOM     89  F   UNL     1     -10.783  12.560  14.567  1.00  0.00    -0.203 F 
ATOM     90  C   UNL     1     -10.914  14.123  16.322  1.00  0.00     0.198 A 
ATOM     91  C   UNL     1      -8.987  15.426  16.917  1.00  0.00     0.198 A 
ATOM     92  F   UNL     1      -6.978  15.173  15.721  1.00  0.00    -0.203 F 
ATOM     93  F   UNL     1     -12.207  13.819  16.494  1.00  0.00    -0.200 F 
ATOM     94  C   UNL     1     -10.317  15.089  17.118  1.00  0.00     0.200 A 
ATOM     95  F   UNL     1      -8.406  16.350  17.694  1.00  0.00    -0.200 F 
ATOM     96  F   UNL     1     -11.028  15.704  18.073  1.00  0.00    -0.200 F 
ENDBRANCH  63  86
ENDBRANCH  37  38
ENDBRANCH  29  32
ENDBRANCH  27  28
ENDBRANCH   1  27
TORSDOF 13
