REMARK SMILES O=C1OC(c2ccc(Cl)cc2)=N/C1=C/Nc1ccc(O)c(C(=O)NCCCCNC(=O)c2ccc(-c3c4nc(c(-c5c(F)c(F)c(F)c(F)c5F)c5ccc([nH]5)c(-c5c(F)c(F)c(F)c(F)c5F)c5nc(c(-c6c(F)c(F)c(F)c(F)c6F)c6ccc3[nH]6)C=C5)C=C4)cc2)c1
REMARK SMILES IDX 26 1 25 2 24 3 22 4 23 5 21 7 16 8 17 9 95 10 18 11 19 12
REMARK SMILES IDX 15 13 14 15 1 16 2 17 3 18 13 19 4 20 12 21 5 22 6 23 11 24
REMARK SMILES IDX 7 25 10 26 8 27 9 28 20 29 27 31 28 32 29 33 30 34 31 36
REMARK SMILES IDX 32 37 33 38 94 39 34 40 93 41 35 42 36 43 37 44 87 45 38 46
REMARK SMILES IDX 92 47 86 48 88 49 39 50 91 51 85 52 84 53 40 55 72 56 52 57
REMARK SMILES IDX 71 58 53 59 56 60 70 61 89 62 54 63 55 64 69 66 90 67 57 68
REMARK SMILES IDX 41 69 42 70 50 71 43 72 44 73 48 74 51 75 45 76 46 77 49 78
REMARK SMILES IDX 47 79 73 80 74 81 82 82 75 83 76 84 80 85 83 86 77 87 78 88
REMARK SMILES IDX 81 89 79 90 58 91 59 92 67 93 60 94 61 95 65 96 68 97 62 98
REMARK SMILES IDX 63 99 66 100 64 101
REMARK H PARENT 24 6 15 14 20 30 29 35 88 54 56 65
REMARK Flexibility Score: inf
ROOT
ATOM      1  C   UNL     1      -2.787 -10.130  -0.031  1.00  0.00     0.023 C 
ENDROOT
BRANCH   1   2
ATOM      2  C   UNL     1      -2.068  -9.434  -1.192  1.00  0.00     0.116 C 
BRANCH   2   3
ATOM      3  N   UNL     1      -2.851  -8.309  -1.640  1.00  0.00    -0.352 N 
ATOM      4  C   UNL     1      -2.879  -6.999  -1.244  1.00  0.00     0.255 C 
ATOM      5  O   UNL     1      -3.776  -6.314  -1.748  1.00  0.00    -0.269 OA
ATOM      6  H   UNL     1      -3.481  -8.522  -2.365  1.00  0.00     0.163 HD
BRANCH   4   7
ATOM      7  C   UNL     1      -1.876  -6.328  -0.354  1.00  0.00     0.083 A 
ATOM      8  C   UNL     1      -0.843  -4.138   0.101  1.00  0.00     0.039 A 
ATOM      9  C   UNL     1       0.011  -4.742   1.021  1.00  0.00     0.030 A 
ATOM     10  C   UNL     1      -1.754  -4.942  -0.591  1.00  0.00     0.043 A 
ATOM     11  C   UNL     1      -0.120  -6.093   1.319  1.00  0.00     0.049 A 
ATOM     12  C   UNL     1      -1.079  -6.873   0.661  1.00  0.00     0.128 A 
BRANCH   8  13
ATOM     13  N   UNL     1      -0.774  -2.772  -0.192  1.00  0.00    -0.360 N 
ATOM     14  H   UNL     1      -1.614  -2.331  -0.455  1.00  0.00     0.166 HD
BRANCH  13  15
ATOM     15  C   UNL     1       0.347  -1.989  -0.148  1.00  0.00     0.119 C 
ATOM     16  O   UNL     1      -1.891   0.033  -0.007  1.00  0.00    -0.244 OA
ATOM     17  C   UNL     1      -0.702   0.273  -0.013  1.00  0.00     0.365 C 
ATOM     18  O   UNL     1      -0.094   1.491   0.084  1.00  0.00    -0.402 OA
ATOM     19  C   UNL     1       0.452  -0.660  -0.117  1.00  0.00     0.168 C 
ATOM     20  C   UNL     1       1.233   1.251  -0.011  1.00  0.00     0.231 C 
ATOM     21  N   UNL     1       1.633   0.029  -0.136  1.00  0.00    -0.204 NA
BRANCH  20  22
ATOM     22  C   UNL     1       2.080   2.435  -0.026  1.00  0.00     0.037 A 
ATOM     23  C   UNL     1       1.984   3.390   0.988  1.00  0.00     0.015 A 
ATOM     24  C   UNL     1       3.020   2.566  -1.054  1.00  0.00     0.015 A 
ATOM     25  C   UNL     1       2.845   4.490   0.970  1.00  0.00     0.021 A 
ATOM     26  C   UNL     1       3.863   3.676  -1.077  1.00  0.00     0.021 A 
ATOM     27  C   UNL     1       3.776   4.630  -0.062  1.00  0.00     0.041 A 
ATOM     28  Cl  UNL     1       4.832   5.987  -0.080  1.00  0.00    -0.084 Cl
ENDBRANCH  20  22
ENDBRANCH  13  15
ENDBRANCH   8  13
BRANCH  12  29
ATOM     29  O   UNL     1      -1.223  -8.148   1.117  1.00  0.00    -0.507 OA
ATOM     30  H   UNL     1      -0.665  -8.467   1.799  1.00  0.00     0.293 HD
ENDBRANCH  12  29
ENDBRANCH   4   7
ENDBRANCH   2   3
ENDBRANCH   1   2
BRANCH   1  31
ATOM     31  C   UNL     1      -3.839 -11.147  -0.466  1.00  0.00     0.023 C 
BRANCH  31  32
ATOM     32  C   UNL     1      -3.277 -12.335  -1.233  1.00  0.00     0.116 C 
BRANCH  32  33
ATOM     33  N   UNL     1      -2.238 -13.048  -0.505  1.00  0.00    -0.352 N 
ATOM     34  C   UNL     1      -1.949 -14.389  -0.519  1.00  0.00     0.251 C 
ATOM     35  H   UNL     1      -1.667 -12.495   0.075  1.00  0.00     0.163 HD
ATOM     36  O   UNL     1      -1.114 -14.854   0.248  1.00  0.00    -0.269 OA
BRANCH  34  37
ATOM     37  C   UNL     1      -2.692 -15.273  -1.437  1.00  0.00     0.039 A 
ATOM     38  C   UNL     1      -3.229 -16.457  -0.932  1.00  0.00     0.014 A 
ATOM     39  C   UNL     1      -2.895 -14.914  -2.772  1.00  0.00     0.014 A 
ATOM     40  C   UNL     1      -4.024 -17.252  -1.755  1.00  0.00     0.010 A 
ATOM     41  C   UNL     1      -3.762 -15.660  -3.563  1.00  0.00     0.010 A 
ATOM     42  C   UNL     1      -4.331 -16.840  -3.064  1.00  0.00    -0.014 A 
BRANCH  42  43
ATOM     43  C   UNL     1      -5.264 -17.634  -3.900  1.00  0.00     0.031 A 
ATOM     44  C   UNL     1      -4.794 -18.279  -5.172  1.00  0.00     0.074 A 
ATOM     45  C   UNL     1      -6.549 -17.753  -3.513  1.00  0.00     0.049 A 
ATOM     46  N   UNL     1      -5.454 -19.049  -6.000  1.00  0.00    -0.248 NA
ATOM     47  C   UNL     1      -3.409 -18.005  -5.586  1.00  0.00     0.031 C 
ATOM     48  C   UNL     1      -7.138 -17.113  -2.335  1.00  0.00     0.029 A 
ATOM     49  N   UNL     1      -7.588 -18.460  -4.061  1.00  0.00    -0.354 N 
ATOM     50  C   UNL     1      -4.568 -19.351  -7.025  1.00  0.00     0.074 A 
ATOM     51  C   UNL     1      -3.347 -18.625  -6.755  1.00  0.00     0.031 C 
ATOM     52  C   UNL     1      -8.420 -17.495  -2.222  1.00  0.00     0.029 A 
ATOM     53  C   UNL     1      -8.753 -18.374  -3.338  1.00  0.00     0.049 A 
ATOM     54  H   UNL     1      -7.508 -18.980  -4.894  1.00  0.00     0.167 HD
ATOM     55  C   UNL     1      -4.747 -20.181  -8.080  1.00  0.00     0.037 A 
ATOM     56  C   UNL     1      -9.953 -18.946  -3.549  1.00  0.00     0.037 A 
ATOM     57  C   UNL     1      -5.966 -20.905  -8.339  1.00  0.00     0.049 A 
ATOM     58  C   UNL     1     -10.126 -19.860  -4.731  1.00  0.00     0.074 A 
ATOM     59  C   UNL     1      -6.232 -21.814  -9.347  1.00  0.00     0.029 A 
ATOM     60  N   UNL     1      -7.128 -20.790  -7.589  1.00  0.00    -0.354 N 
ATOM     61  N   UNL     1      -9.251 -20.213  -5.643  1.00  0.00    -0.248 NA
ATOM     62  C   UNL     1     -11.452 -20.465  -4.906  1.00  0.00     0.031 C 
ATOM     63  C   UNL     1      -7.572 -22.201  -9.245  1.00  0.00     0.029 A 
ATOM     64  C   UNL     1      -8.124 -21.587  -8.132  1.00  0.00     0.049 A 
ATOM     65  H   UNL     1      -7.231 -20.225  -6.789  1.00  0.00     0.167 HD
ATOM     66  C   UNL     1      -9.913 -21.097  -6.484  1.00  0.00     0.074 A 
ATOM     67  C   UNL     1     -11.252 -21.251  -5.953  1.00  0.00     0.031 C 
ATOM     68  C   UNL     1      -9.457 -21.721  -7.599  1.00  0.00     0.037 A 
BRANCH  55  69
ATOM     69  C   UNL     1      -3.598 -20.351  -9.034  1.00  0.00     0.064 A 
ATOM     70  C   UNL     1      -2.410 -20.995  -8.652  1.00  0.00     0.173 A 
ATOM     71  C   UNL     1      -3.696 -19.896 -10.357  1.00  0.00     0.173 A 
ATOM     72  F   UNL     1      -2.256 -21.440  -7.395  1.00  0.00    -0.203 F 
ATOM     73  C   UNL     1      -1.354 -21.146  -9.547  1.00  0.00     0.198 A 
ATOM     74  C   UNL     1      -2.652 -20.081 -11.260  1.00  0.00     0.198 A 
ATOM     75  F   UNL     1      -4.809 -19.277 -10.779  1.00  0.00    -0.203 F 
ATOM     76  F   UNL     1      -0.210 -21.715  -9.142  1.00  0.00    -0.200 F 
ATOM     77  C   UNL     1      -1.480 -20.697 -10.853  1.00  0.00     0.200 A 
ATOM     78  F   UNL     1      -2.781 -19.660 -12.526  1.00  0.00    -0.200 F 
ATOM     79  F   UNL     1      -0.467 -20.852 -11.716  1.00  0.00    -0.200 F 
ENDBRANCH  55  69
BRANCH  56  80
ATOM     80  C   UNL     1     -11.075 -18.694  -2.605  1.00  0.00     0.064 A 
ATOM     81  C   UNL     1     -11.586 -19.720  -1.798  1.00  0.00     0.173 A 
ATOM     82  C   UNL     1     -11.666 -17.427  -2.498  1.00  0.00     0.173 A 
ATOM     83  F   UNL     1     -11.068 -20.955  -1.876  1.00  0.00    -0.203 F 
ATOM     84  C   UNL     1     -12.662 -19.496  -0.942  1.00  0.00     0.198 A 
ATOM     85  C   UNL     1     -12.719 -17.194  -1.617  1.00  0.00     0.198 A 
ATOM     86  F   UNL     1     -11.210 -16.408  -3.242  1.00  0.00    -0.203 F 
ATOM     87  F   UNL     1     -13.167 -20.508  -0.224  1.00  0.00    -0.200 F 
ATOM     88  C   UNL     1     -13.224 -18.232  -0.848  1.00  0.00     0.200 A 
ATOM     89  F   UNL     1     -13.246 -15.967  -1.515  1.00  0.00    -0.200 F 
ATOM     90  F   UNL     1     -14.257 -18.015  -0.022  1.00  0.00    -0.200 F 
ENDBRANCH  56  80
BRANCH  68  91
ATOM     91  C   UNL     1     -10.414 -22.644  -8.302  1.00  0.00     0.064 A 
ATOM     92  C   UNL     1     -11.558 -22.163  -8.958  1.00  0.00     0.173 A 
ATOM     93  C   UNL     1     -10.184 -24.029  -8.320  1.00  0.00     0.173 A 
ATOM     94  F   UNL     1     -11.832 -20.849  -8.962  1.00  0.00    -0.203 F 
ATOM     95  C   UNL     1     -12.460 -23.036  -9.559  1.00  0.00     0.198 A 
ATOM     96  C   UNL     1     -11.067 -24.895  -8.958  1.00  0.00     0.198 A 
ATOM     97  F   UNL     1      -9.101 -24.543  -7.719  1.00  0.00    -0.203 F 
ATOM     98  F   UNL     1     -13.585 -22.559 -10.111  1.00  0.00    -0.200 F 
ATOM     99  C   UNL     1     -12.212 -24.400  -9.563  1.00  0.00     0.200 A 
ATOM    100  F   UNL     1     -10.816 -26.211  -8.977  1.00  0.00    -0.200 F 
ATOM    101  F   UNL     1     -13.083 -25.240 -10.139  1.00  0.00    -0.200 F 
ENDBRANCH  68  91
ENDBRANCH  42  43
ENDBRANCH  34  37
ENDBRANCH  32  33
ENDBRANCH  31  32
ENDBRANCH   1  31
TORSDOF 15
