REMARK SMILES COc1cc(CNc2ccc(N3CCOCC3)c(C(=O)NCCCCNC(=O)c3ccc(-c4c5nc(c(-c6c(F)c(F)c(F)c(F)c6F)c6ccc([nH]6)c(-c6c(F)c(F)c(F)c(F)c6F)c6nc(c(-c7c(F)c(F)c(F)c(F)c7F)c7ccc4[nH]7)C=C6)C=C5)cc3)c2)cc(Br)c1OC
REMARK SMILES IDX 22 1 21 2 19 3 20 4 18 6 8 7 9 8 92 9 10 10 11 11 7 12 6 14
REMARK SMILES IDX 5 15 3 16 4 17 96 18 94 19 93 20 95 21 2 22 1 23 97 24 98 25
REMARK SMILES IDX 12 26 13 27 17 28 14 29 16 30 15 31 23 32 24 33 25 34 26 35
REMARK SMILES IDX 27 36 28 38 29 39 30 40 91 41 31 42 90 43 32 44 33 45 34 46
REMARK SMILES IDX 84 47 35 48 89 49 83 50 85 51 36 52 88 53 82 54 81 55 37 57
REMARK SMILES IDX 69 58 49 59 68 60 50 61 53 62 67 63 86 64 51 65 52 66 66 68
REMARK SMILES IDX 87 69 54 70 38 71 39 72 47 73 40 74 41 75 45 76 48 77 42 78
REMARK SMILES IDX 43 79 46 80 44 81 70 82 71 83 79 84 72 85 73 86 77 87 80 88
REMARK SMILES IDX 74 89 75 90 78 91 76 92 55 93 56 94 64 95 57 96 58 97 62 98
REMARK SMILES IDX 65 99 59 100 60 101 63 102 61 103
REMARK H PARENT 21 5 7 13 26 37 85 56 53 67
REMARK Flexibility Score: inf
ROOT
ATOM      1  C   UNL     1       8.148   4.315   1.901  1.00  0.00     0.116 C 
ENDROOT
BRANCH   1   2
ATOM      2  N   UNL     1       9.009   3.305   1.300  1.00  0.00    -0.352 N 
ATOM      3  C   UNL     1       8.814   1.949   1.073  1.00  0.00     0.253 C 
ATOM      4  O   UNL     1       9.666   1.372   0.401  1.00  0.00    -0.269 OA
ATOM      5  H   UNL     1       9.884   3.644   1.003  1.00  0.00     0.163 HD
BRANCH   3   6
ATOM      6  C   UNL     1       7.635   1.226   1.650  1.00  0.00     0.065 A 
ATOM      7  C   UNL     1       5.324   1.469   2.425  1.00  0.00     0.035 A 
ATOM      8  C   UNL     1       5.432   0.218   3.024  1.00  0.00     0.028 A 
ATOM      9  C   UNL     1       6.404   1.897   1.661  1.00  0.00     0.041 A 
ATOM     10  C   UNL     1       6.578  -0.565   2.849  1.00  0.00     0.029 A 
ATOM     11  C   UNL     1       7.700  -0.088   2.151  1.00  0.00     0.050 A 
BRANCH   7  12
ATOM     12  N   UNL     1       4.179   2.211   2.594  1.00  0.00    -0.381 N 
ATOM     13  H   UNL     1       3.471   1.816   3.152  1.00  0.00     0.160 HD
BRANCH  12  14
ATOM     14  C   UNL     1       3.913   3.521   2.027  1.00  0.00     0.149 C 
BRANCH  14  15
ATOM     15  C   UNL     1       2.499   3.550   1.508  1.00  0.00    -0.024 A 
ATOM     16  C   UNL     1       0.704   2.479   0.272  1.00  0.00     0.162 A 
ATOM     17  C   UNL     1       2.012   2.479   0.756  1.00  0.00     0.056 A 
ATOM     18  C   UNL     1      -0.137   3.603   0.458  1.00  0.00     0.174 A 
ATOM     19  C   UNL     1       0.372   4.702   1.174  1.00  0.00     0.064 A 
ATOM     20  C   UNL     1       1.677   4.661   1.701  1.00  0.00     0.025 A 
ATOM     21  Br  UNL     1      -0.515   6.357   1.486  1.00  0.00    -0.047 Br
BRANCH  16  22
ATOM     22  O   UNL     1       0.193   1.413  -0.435  1.00  0.00    -0.493 OA
ATOM     23  C   UNL     1       0.717   0.134  -0.086  1.00  0.00     0.278 C 
ENDBRANCH  16  22
BRANCH  18  24
ATOM     24  O   UNL     1      -1.355   3.448  -0.147  1.00  0.00    -0.492 OA
ATOM     25  C   UNL     1      -2.459   4.259   0.194  1.00  0.00     0.278 C 
ENDBRANCH  18  24
ENDBRANCH  14  15
ENDBRANCH  12  14
ENDBRANCH   7  12
BRANCH  11  26
ATOM     26  N   UNL     1       8.748  -0.950   1.913  1.00  0.00    -0.366 N 
ATOM     27  C   UNL     1      10.040  -0.837   2.590  1.00  0.00     0.145 C 
ATOM     28  C   UNL     1       8.502  -2.210   1.205  1.00  0.00     0.145 C 
ATOM     29  C   UNL     1      11.174  -1.278   1.643  1.00  0.00     0.181 C 
ATOM     30  C   UNL     1       9.695  -2.511   0.288  1.00  0.00     0.181 C 
ATOM     31  O   UNL     1      10.918  -2.564   1.044  1.00  0.00    -0.378 OA
ENDBRANCH  11  26
ENDBRANCH   3   6
ENDBRANCH   1   2
BRANCH   1  32
ATOM     32  C   UNL     1       8.844   5.350   2.773  1.00  0.00     0.023 C 
BRANCH  32  33
ATOM     33  C   UNL     1       9.985   6.131   2.138  1.00  0.00     0.023 C 
BRANCH  33  34
ATOM     34  C   UNL     1       9.707   6.739   0.770  1.00  0.00     0.116 C 
BRANCH  34  35
ATOM     35  N   UNL     1       8.591   7.673   0.750  1.00  0.00    -0.352 N 
ATOM     36  C   UNL     1       8.540   8.976   0.305  1.00  0.00     0.251 C 
ATOM     37  H   UNL     1       7.745   7.321   1.109  1.00  0.00     0.163 HD
ATOM     38  O   UNL     1       7.515   9.630   0.433  1.00  0.00    -0.269 OA
BRANCH  36  39
ATOM     39  C   UNL     1       9.746   9.601  -0.285  1.00  0.00     0.039 A 
ATOM     40  C   UNL     1      10.137  10.864   0.169  1.00  0.00     0.014 A 
ATOM     41  C   UNL     1      10.507   8.935  -1.247  1.00  0.00     0.014 A 
ATOM     42  C   UNL     1      11.344  11.414  -0.270  1.00  0.00     0.010 A 
ATOM     43  C   UNL     1      11.747   9.445  -1.619  1.00  0.00     0.010 A 
ATOM     44  C   UNL     1      12.183  10.685  -1.128  1.00  0.00    -0.014 A 
BRANCH  44  45
ATOM     45  C   UNL     1      13.524  11.193  -1.517  1.00  0.00     0.031 A 
ATOM     46  C   UNL     1      13.827  11.489  -2.959  1.00  0.00     0.074 A 
ATOM     47  C   UNL     1      14.493  11.305  -0.587  1.00  0.00     0.049 A 
ATOM     48  N   UNL     1      14.960  11.840  -3.513  1.00  0.00    -0.248 NA
ATOM     49  C   UNL     1      12.715  11.340  -3.910  1.00  0.00     0.031 C 
ATOM     50  C   UNL     1      14.341  10.998   0.836  1.00  0.00     0.029 A 
ATOM     51  N   UNL     1      15.805  11.694  -0.703  1.00  0.00    -0.354 N 
ATOM     52  C   UNL     1      14.702  11.931  -4.874  1.00  0.00     0.074 A 
ATOM     53  C   UNL     1      13.320  11.551  -5.069  1.00  0.00     0.031 C 
ATOM     54  C   UNL     1      15.506  11.228   1.463  1.00  0.00     0.029 A 
ATOM     55  C   UNL     1      16.497  11.662   0.483  1.00  0.00     0.049 A 
ATOM     56  H   UNL     1      16.211  11.970  -1.556  1.00  0.00     0.167 HD
ATOM     57  C   UNL     1      15.535  12.320  -5.868  1.00  0.00     0.037 A 
ATOM     58  C   UNL     1      17.787  11.944   0.749  1.00  0.00     0.037 A 
ATOM     59  C   UNL     1      16.899  12.731  -5.667  1.00  0.00     0.049 A 
ATOM     60  C   UNL     1      18.689  12.384  -0.372  1.00  0.00     0.074 A 
ATOM     61  C   UNL     1      17.805  13.204  -6.601  1.00  0.00     0.029 A 
ATOM     62  N   UNL     1      17.555  12.718  -4.445  1.00  0.00    -0.354 N 
ATOM     63  N   UNL     1      18.414  12.532  -1.645  1.00  0.00    -0.248 NA
ATOM     64  C   UNL     1      20.079  12.703  -0.018  1.00  0.00     0.031 C 
ATOM     65  C   UNL     1      19.020  13.442  -5.950  1.00  0.00     0.029 A 
ATOM     66  C   UNL     1      18.858  13.160  -4.603  1.00  0.00     0.049 A 
ATOM     67  H   UNL     1      17.153  12.436  -3.591  1.00  0.00     0.167 HD
ATOM     68  C   UNL     1      19.584  12.987  -2.237  1.00  0.00     0.074 A 
ATOM     69  C   UNL     1      20.570  13.103  -1.183  1.00  0.00     0.031 C 
ATOM     70  C   UNL     1      19.821  13.282  -3.539  1.00  0.00     0.037 A 
BRANCH  57  71
ATOM     71  C   UNL     1      14.989  12.327  -7.266  1.00  0.00     0.064 A 
ATOM     72  C   UNL     1      14.031  13.267  -7.675  1.00  0.00     0.173 A 
ATOM     73  C   UNL     1      15.451  11.405  -8.217  1.00  0.00     0.173 A 
ATOM     74  F   UNL     1      13.547  14.162  -6.801  1.00  0.00    -0.203 F 
ATOM     75  C   UNL     1      13.533  13.263  -8.976  1.00  0.00     0.198 A 
ATOM     76  C   UNL     1      14.974  11.423  -9.524  1.00  0.00     0.198 A 
ATOM     77  F   UNL     1      16.372  10.489  -7.879  1.00  0.00    -0.203 F 
ATOM     78  F   UNL     1      12.581  14.138  -9.329  1.00  0.00    -0.200 F 
ATOM     79  C   UNL     1      14.010  12.347  -9.901  1.00  0.00     0.200 A 
ATOM     80  F   UNL     1      15.444  10.545 -10.421  1.00  0.00    -0.200 F 
ATOM     81  F   UNL     1      13.534  12.349 -11.154  1.00  0.00    -0.200 F 
ENDBRANCH  57  71
BRANCH  58  82
ATOM     82  C   UNL     1      18.297  11.847   2.141  1.00  0.00     0.064 A 
ATOM     83  C   UNL     1      18.634  13.001   2.864  1.00  0.00     0.173 A 
ATOM     84  C   UNL     1      18.466  10.608   2.775  1.00  0.00     0.173 A 
ATOM     85  F   UNL     1      18.510  14.208   2.292  1.00  0.00    -0.203 F 
ATOM     86  C   UNL     1      19.138  12.918   4.160  1.00  0.00     0.198 A 
ATOM     87  C   UNL     1      18.945  10.527   4.081  1.00  0.00     0.198 A 
ATOM     88  F   UNL     1      18.154   9.475   2.129  1.00  0.00    -0.203 F 
ATOM     89  F   UNL     1      19.494  14.034   4.811  1.00  0.00    -0.200 F 
ATOM     90  C   UNL     1      19.289  11.681   4.769  1.00  0.00     0.200 A 
ATOM     91  F   UNL     1      19.077   9.332   4.672  1.00  0.00    -0.200 F 
ATOM     92  F   UNL     1      19.771  11.602   6.017  1.00  0.00    -0.200 F 
ENDBRANCH  58  82
BRANCH  70  93
ATOM     93  C   UNL     1      21.186  13.797  -3.891  1.00  0.00     0.064 A 
ATOM     94  C   UNL     1      22.307  12.955  -3.912  1.00  0.00     0.173 A 
ATOM     95  C   UNL     1      21.363  15.140  -4.256  1.00  0.00     0.173 A 
ATOM     96  F   UNL     1      22.191  11.667  -3.555  1.00  0.00    -0.203 F 
ATOM     97  C   UNL     1      23.561  13.445  -4.266  1.00  0.00     0.198 A 
ATOM     98  C   UNL     1      22.613  15.619  -4.637  1.00  0.00     0.198 A 
ATOM     99  F   UNL     1      20.320  15.984  -4.258  1.00  0.00    -0.203 F 
ATOM    100  F   UNL     1      24.627  12.633  -4.238  1.00  0.00    -0.200 F 
ATOM    101  C   UNL     1      23.712  14.774  -4.635  1.00  0.00     0.200 A 
ATOM    102  F   UNL     1      22.754  16.900  -5.005  1.00  0.00    -0.200 F 
ATOM    103  F   UNL     1      24.918  15.241  -4.984  1.00  0.00    -0.200 F 
ENDBRANCH  70  93
ENDBRANCH  44  45
ENDBRANCH  36  39
ENDBRANCH  34  35
ENDBRANCH  33  34
ENDBRANCH  32  33
ENDBRANCH   1  32
TORSDOF 17
