REMARK SMILES Cc1cc(C)c2c(c1)C=C(C(=O)NCCCCNC(=O)c1ccc(-c3c4nc(c(-c5c(F)c(F)c(F)c(F)c5F)c5ccc([nH]5)c(-c5c(F)c(F)c(F)c(F)c5F)c5nc(c(-c6c(F)c(F)c(F)c(F)c6F)c6ccc3[nH]6)C=C5)C=C4)cc1)[C@@H](C(F)(F)F)O2
REMARK SMILES IDX 16 1 15 2 14 3 13 4 11 5 12 6 10 8 1 9 2 10 3 11 8 12 4 13
REMARK SMILES IDX 7 14 5 15 6 16 9 17 89 18 84 19 85 20 86 21 87 22 88 23
REMARK SMILES IDX 17 24 18 25 19 26 20 28 21 29 22 30 83 31 23 32 82 33 24 34
REMARK SMILES IDX 25 35 26 36 76 37 27 38 81 39 75 40 77 41 28 42 80 43 74 44
REMARK SMILES IDX 73 45 29 47 61 48 41 49 60 50 42 51 45 52 59 53 78 54 43 55
REMARK SMILES IDX 44 56 58 58 79 59 46 60 30 61 31 62 39 63 32 64 33 65 37 66
REMARK SMILES IDX 40 67 34 68 35 69 38 70 36 71 62 72 63 73 71 74 64 75 65 76
REMARK SMILES IDX 69 77 72 78 66 79 67 80 70 81 68 82 47 83 48 84 56 85 49 86
REMARK SMILES IDX 50 87 54 88 57 89 51 90 52 91 55 92 53 93
REMARK H PARENT 13 7 18 27 77 46 45 57
REMARK Flexibility Score: inf
ROOT
ATOM      1  C   UNL     1      -2.548   7.228  -7.898  1.00  0.00     0.023 C 
ENDROOT
BRANCH   1   2
ATOM      2  C   UNL     1      -2.264   5.827  -7.353  1.00  0.00     0.023 C 
BRANCH   2   3
ATOM      3  C   UNL     1      -0.782   5.531  -7.146  1.00  0.00     0.116 C 
BRANCH   3   4
ATOM      4  N   UNL     1      -0.316   5.982  -5.848  1.00  0.00    -0.352 N 
ATOM      5  C   UNL     1      -0.002   5.415  -4.659  1.00  0.00     0.251 C 
ATOM      6  O   UNL     1       0.361   6.206  -3.783  1.00  0.00    -0.270 OA
ATOM      7  H   UNL     1      -0.198   6.960  -5.825  1.00  0.00     0.163 HD
BRANCH   5   8
ATOM      8  C   UNL     1      -0.064   3.954  -4.357  1.00  0.00     0.067 C 
ATOM      9  C   UNL     1       0.995  -0.030   0.250  1.00  0.00     0.044 C 
ATOM     10  C   UNL     1       0.508   0.420  -1.096  1.00  0.00    -0.050 A 
ATOM     11  C   UNL     1       0.028  -0.511  -2.028  1.00  0.00     0.010 A 
ATOM     12  C   UNL     1       0.567   1.775  -1.448  1.00  0.00     0.015 A 
ATOM     13  C   UNL     1      -0.411  -0.101  -3.293  1.00  0.00    -0.008 A 
ATOM     14  C   UNL     1       0.140   2.199  -2.709  1.00  0.00     0.018 A 
ATOM     15  C   UNL     1      -0.930  -1.104  -4.282  1.00  0.00     0.048 C 
ATOM     16  C   UNL     1      -0.342   1.259  -3.623  1.00  0.00     0.130 A 
ATOM     17  C   UNL     1       0.157   3.611  -3.075  1.00  0.00     0.025 C 
ATOM     18  O   UNL     1      -0.808   1.626  -4.855  1.00  0.00    -0.475 OA
ATOM     19  C   UNL     1      -0.312   2.884  -5.382  1.00  0.00     0.314 C 
BRANCH  19  20
ATOM     20  C   UNL     1       0.917   2.615  -6.271  1.00  0.00     0.429 C 
ATOM     21  F   UNL     1       0.557   1.908  -7.373  1.00  0.00    -0.167 F 
ATOM     22  F   UNL     1       1.488   3.757  -6.724  1.00  0.00    -0.167 F 
ATOM     23  F   UNL     1       1.884   1.916  -5.638  1.00  0.00    -0.167 F 
ENDBRANCH  19  20
ENDBRANCH   5   8
ENDBRANCH   3   4
ENDBRANCH   2   3
ENDBRANCH   1   2
BRANCH   1  24
ATOM     24  C   UNL     1      -1.827   7.582  -9.197  1.00  0.00     0.116 C 
BRANCH  24  25
ATOM     25  N   UNL     1      -1.992   6.590 -10.250  1.00  0.00    -0.352 N 
ATOM     26  C   UNL     1      -2.063   6.797 -11.606  1.00  0.00     0.251 C 
ATOM     27  H   UNL     1      -2.060   5.654  -9.953  1.00  0.00     0.163 HD
ATOM     28  O   UNL     1      -2.284   5.869 -12.376  1.00  0.00    -0.269 OA
BRANCH  26  29
ATOM     29  C   UNL     1      -1.912   8.170 -12.121  1.00  0.00     0.039 A 
ATOM     30  C   UNL     1      -2.920   8.700 -12.927  1.00  0.00     0.014 A 
ATOM     31  C   UNL     1      -0.808   8.943 -11.751  1.00  0.00     0.014 A 
ATOM     32  C   UNL     1      -2.856  10.039 -13.310  1.00  0.00     0.010 A 
ATOM     33  C   UNL     1      -0.777  10.292 -12.082  1.00  0.00     0.010 A 
ATOM     34  C   UNL     1      -1.802  10.851 -12.861  1.00  0.00    -0.014 A 
BRANCH  34  35
ATOM     35  C   UNL     1      -1.744  12.290 -13.207  1.00  0.00     0.031 A 
ATOM     36  C   UNL     1      -0.656  12.793 -14.108  1.00  0.00     0.074 A 
ATOM     37  C   UNL     1      -2.631  13.144 -12.664  1.00  0.00     0.049 A 
ATOM     38  N   UNL     1      -0.379  14.020 -14.466  1.00  0.00    -0.248 NA
ATOM     39  C   UNL     1       0.259  11.782 -14.663  1.00  0.00     0.031 C 
ATOM     40  C   UNL     1      -3.711  12.773 -11.749  1.00  0.00     0.029 A 
ATOM     41  N   UNL     1      -2.761  14.503 -12.800  1.00  0.00    -0.354 N 
ATOM     42  C   UNL     1       0.744  13.930 -15.276  1.00  0.00     0.074 A 
ATOM     43  C   UNL     1       1.130  12.537 -15.317  1.00  0.00     0.031 C 
ATOM     44  C   UNL     1      -4.410  13.874 -11.427  1.00  0.00     0.029 A 
ATOM     45  C   UNL     1      -3.807  15.030 -12.085  1.00  0.00     0.049 A 
ATOM     46  H   UNL     1      -2.161  15.048 -13.358  1.00  0.00     0.167 HD
ATOM     47  C   UNL     1       1.379  14.919 -15.946  1.00  0.00     0.037 A 
ATOM     48  C   UNL     1      -4.229  16.304 -11.973  1.00  0.00     0.037 A 
ATOM     49  C   UNL     1       0.976  16.299 -15.923  1.00  0.00     0.049 A 
ATOM     50  C   UNL     1      -3.498  17.386 -12.719  1.00  0.00     0.074 A 
ATOM     51  C   UNL     1       1.530  17.371 -16.599  1.00  0.00     0.029 A 
ATOM     52  N   UNL     1      -0.089  16.796 -15.186  1.00  0.00    -0.354 N 
ATOM     53  N   UNL     1      -2.457  17.286 -13.510  1.00  0.00    -0.248 NA
ATOM     54  C   UNL     1      -3.999  18.758 -12.556  1.00  0.00     0.031 C 
ATOM     55  C   UNL     1       0.819  18.523 -16.247  1.00  0.00     0.029 A 
ATOM     56  C   UNL     1      -0.201  18.163 -15.382  1.00  0.00     0.049 A 
ATOM     57  H   UNL     1      -0.677  16.257 -14.610  1.00  0.00     0.167 HD
ATOM     58  C   UNL     1      -2.189  18.573 -13.952  1.00  0.00     0.074 A 
ATOM     59  C   UNL     1      -3.187  19.437 -13.354  1.00  0.00     0.031 C 
ATOM     60  C   UNL     1      -1.202  19.003 -14.776  1.00  0.00     0.037 A 
BRANCH  47  61
ATOM     61  C   UNL     1       2.570  14.537 -16.773  1.00  0.00     0.064 A 
ATOM     62  C   UNL     1       2.426  13.820 -17.970  1.00  0.00     0.173 A 
ATOM     63  C   UNL     1       3.862  14.917 -16.385  1.00  0.00     0.173 A 
ATOM     64  F   UNL     1       1.211  13.419 -18.375  1.00  0.00    -0.203 F 
ATOM     65  C   UNL     1       3.536  13.477 -18.737  1.00  0.00     0.198 A 
ATOM     66  C   UNL     1       4.968  14.596 -17.168  1.00  0.00     0.198 A 
ATOM     67  F   UNL     1       4.053  15.605 -15.249  1.00  0.00    -0.203 F 
ATOM     68  F   UNL     1       3.378  12.755 -19.855  1.00  0.00    -0.200 F 
ATOM     69  C   UNL     1       4.804  13.872 -18.340  1.00  0.00     0.200 A 
ATOM     70  F   UNL     1       6.192  14.986 -16.788  1.00  0.00    -0.200 F 
ATOM     71  F   UNL     1       5.871  13.548 -19.083  1.00  0.00    -0.200 F 
ENDBRANCH  47  61
BRANCH  48  72
ATOM     72  C   UNL     1      -5.426  16.616 -11.152  1.00  0.00     0.064 A 
ATOM     73  C   UNL     1      -6.636  16.974 -11.763  1.00  0.00     0.173 A 
ATOM     74  C   UNL     1      -5.395  16.546  -9.753  1.00  0.00     0.173 A 
ATOM     75  F   UNL     1      -6.707  17.074 -13.098  1.00  0.00    -0.203 F 
ATOM     76  C   UNL     1      -7.768  17.260 -11.003  1.00  0.00     0.198 A 
ATOM     77  C   UNL     1      -6.534  16.810  -8.995  1.00  0.00     0.198 A 
ATOM     78  F   UNL     1      -4.261  16.204  -9.122  1.00  0.00    -0.203 F 
ATOM     79  F   UNL     1      -8.904  17.629 -11.610  1.00  0.00    -0.200 F 
ATOM     80  C   UNL     1      -7.718  17.171  -9.620  1.00  0.00     0.200 A 
ATOM     81  F   UNL     1      -6.485  16.712  -7.659  1.00  0.00    -0.200 F 
ATOM     82  F   UNL     1      -8.809  17.438  -8.890  1.00  0.00    -0.200 F 
ENDBRANCH  48  72
BRANCH  60  83
ATOM     83  C   UNL     1      -1.157  20.468 -15.091  1.00  0.00     0.064 A 
ATOM     84  C   UNL     1      -0.706  21.403 -14.149  1.00  0.00     0.173 A 
ATOM     85  C   UNL     1      -1.510  20.933 -16.366  1.00  0.00     0.173 A 
ATOM     86  F   UNL     1      -0.372  21.006 -12.911  1.00  0.00    -0.203 F 
ATOM     87  C   UNL     1      -0.623  22.755 -14.468  1.00  0.00     0.198 A 
ATOM     88  C   UNL     1      -1.401  22.282 -16.690  1.00  0.00     0.198 A 
ATOM     89  F   UNL     1      -1.941  20.075 -17.304  1.00  0.00    -0.203 F 
ATOM     90  F   UNL     1      -0.221  23.637 -13.543  1.00  0.00    -0.200 F 
ATOM     91  C   UNL     1      -0.963  23.192 -15.740  1.00  0.00     0.200 A 
ATOM     92  F   UNL     1      -1.718  22.701 -17.923  1.00  0.00    -0.200 F 
ATOM     93  F   UNL     1      -0.870  24.492 -16.050  1.00  0.00    -0.200 F 
ENDBRANCH  60  83
ENDBRANCH  34  35
ENDBRANCH  26  29
ENDBRANCH  24  25
ENDBRANCH   1  24
TORSDOF 12
