REMARK SMILES Cc1cnn(C2(C(=O)NCCCCNC(=O)c3ccc(-c4c5nc(c(-c6c(F)c(F)c(F)c(F)c6F)c6ccc([nH]6)c(-c6c(F)c(F)c(F)c(F)c6F)c6nc(c(-c7c(F)c(F)c(F)c(F)c7F)c7ccc4[nH]7)C=C6)C=C5)cc3)CCN(C(=O)c3cc4ccccc4[nH]3)CC2)c1
REMARK SMILES IDX 12 1 11 2 10 3 9 4 7 5 8 6 6 8 80 9 95 10 81 11 94 12 82 13
REMARK SMILES IDX 83 14 84 15 5 16 1 17 2 18 3 19 96 20 4 21 85 22 86 23 93 24
REMARK SMILES IDX 87 25 92 26 88 28 91 29 89 30 90 31 13 32 14 33 15 34 16 36
REMARK SMILES IDX 17 37 18 38 79 39 19 40 78 41 20 42 21 43 22 44 72 45 23 46
REMARK SMILES IDX 77 47 71 48 73 49 24 50 76 51 70 52 69 53 25 55 57 56 37 57
REMARK SMILES IDX 56 58 38 59 41 60 55 61 74 62 39 63 40 64 54 66 75 67 42 68
REMARK SMILES IDX 26 69 27 70 35 71 28 72 29 73 33 74 36 75 30 76 31 77 34 78
REMARK SMILES IDX 32 79 58 80 59 81 67 82 60 83 61 84 65 85 68 86 62 87 63 88
REMARK SMILES IDX 66 89 64 90 43 91 44 92 52 93 45 94 46 95 50 96 53 97 47 98
REMARK SMILES IDX 48 99 51 100 49 101
REMARK H PARENT 9 7 93 27 14 35 73 54 41 65
REMARK Flexibility Score: inf
ROOT
ATOM      1  C   UNL     1      -0.574   1.861  -9.624  1.00  0.00     0.023 C 
ENDROOT
BRANCH   1   2
ATOM      2  C   UNL     1      -0.528   2.587  -8.274  1.00  0.00     0.023 C 
BRANCH   2   3
ATOM      3  C   UNL     1      -1.507   2.089  -7.202  1.00  0.00     0.116 C 
BRANCH   3   4
ATOM      4  N   UNL     1      -1.250   0.712  -6.799  1.00  0.00    -0.354 N 
ATOM      5  C   UNL     1      -0.804   0.123  -5.634  1.00  0.00     0.248 C 
ATOM      6  O   UNL     1      -0.692  -1.100  -5.737  1.00  0.00    -0.272 OA
ATOM      7  H   UNL     1      -1.434   0.060  -7.514  1.00  0.00     0.163 HD
BRANCH   5   8
ATOM      8  C   UNL     1      -0.508   0.962  -4.339  1.00  0.00     0.144 C 
ATOM      9  C   UNL     1       0.612   1.973  -4.704  1.00  0.00     0.062 C 
ATOM     10  C   UNL     1      -1.859   1.581  -3.909  1.00  0.00     0.062 C 
ATOM     11  C   UNL     1       0.542   3.329  -4.019  1.00  0.00     0.123 C 
ATOM     12  C   UNL     1      -1.746   2.904  -3.175  1.00  0.00     0.123 C 
ATOM     13  N   UNL     1      -0.814   3.814  -3.829  1.00  0.00    -0.337 N 
ATOM     14  C   UNL     1      -1.107   5.138  -4.177  1.00  0.00     0.270 C 
ATOM     15  O   UNL     1      -0.425   5.748  -4.999  1.00  0.00    -0.267 OA
BRANCH   8  16
ATOM     16  N   UNL     1      -0.019   0.163  -3.165  1.00  0.00    -0.257 N 
ATOM     17  C   UNL     1       1.203  -0.354   0.257  1.00  0.00     0.048 C 
ATOM     18  C   UNL     1       0.705  -0.396  -1.135  1.00  0.00    -0.013 A 
ATOM     19  C   UNL     1       0.419  -1.516  -1.934  1.00  0.00     0.138 A 
ATOM     20  C   UNL     1       0.411   0.669  -1.955  1.00  0.00     0.113 A 
ATOM     21  N   UNL     1      -0.050  -1.181  -3.136  1.00  0.00    -0.180 NA
ENDBRANCH   8  16
BRANCH  14  22
ATOM     22  C   UNL     1      -2.264   5.755  -3.568  1.00  0.00     0.105 A 
ATOM     23  C   UNL     1      -2.784   5.651  -2.288  1.00  0.00     0.042 A 
ATOM     24  N   UNL     1      -3.056   6.668  -4.229  1.00  0.00    -0.351 N 
ATOM     25  C   UNL     1      -4.042   6.301  -2.268  1.00  0.00     0.000 A 
ATOM     26  C   UNL     1      -4.188   6.942  -3.496  1.00  0.00     0.046 A 
ATOM     27  H   UNL     1      -2.843   7.067  -5.104  1.00  0.00     0.167 HD
ATOM     28  C   UNL     1      -5.077   6.389  -1.320  1.00  0.00     0.010 A 
ATOM     29  C   UNL     1      -5.319   7.698  -3.819  1.00  0.00     0.026 A 
ATOM     30  C   UNL     1      -6.230   7.112  -1.640  1.00  0.00     0.001 A 
ATOM     31  C   UNL     1      -6.343   7.762  -2.867  1.00  0.00     0.002 A 
ENDBRANCH  14  22
ENDBRANCH   5   8
ENDBRANCH   3   4
ENDBRANCH   2   3
ENDBRANCH   1   2
BRANCH   1  32
ATOM     32  C   UNL     1      -1.892   1.990 -10.374  1.00  0.00     0.116 C 
BRANCH  32  33
ATOM     33  N   UNL     1      -2.208   3.369 -10.738  1.00  0.00    -0.352 N 
ATOM     34  C   UNL     1      -3.381   3.846 -11.296  1.00  0.00     0.251 C 
ATOM     35  H   UNL     1      -1.505   4.036 -10.568  1.00  0.00     0.163 HD
ATOM     36  O   UNL     1      -3.424   4.911 -11.882  1.00  0.00    -0.269 OA
BRANCH  34  37
ATOM     37  C   UNL     1      -4.592   3.018 -11.163  1.00  0.00     0.039 A 
ATOM     38  C   UNL     1      -5.375   2.713 -12.277  1.00  0.00     0.014 A 
ATOM     39  C   UNL     1      -4.881   2.483  -9.909  1.00  0.00     0.014 A 
ATOM     40  C   UNL     1      -6.395   1.775 -12.141  1.00  0.00     0.010 A 
ATOM     41  C   UNL     1      -5.808   1.472  -9.804  1.00  0.00     0.010 A 
ATOM     42  C   UNL     1      -6.586   1.127 -10.908  1.00  0.00    -0.014 A 
BRANCH  42  43
ATOM     43  C   UNL     1      -7.487  -0.025 -10.821  1.00  0.00     0.031 A 
ATOM     44  C   UNL     1      -7.214  -1.102 -11.816  1.00  0.00     0.074 A 
ATOM     45  C   UNL     1      -8.345  -0.230  -9.796  1.00  0.00     0.049 A 
ATOM     46  N   UNL     1      -7.997  -1.532 -12.749  1.00  0.00    -0.248 NA
ATOM     47  C   UNL     1      -5.872  -1.712 -11.846  1.00  0.00     0.031 C 
ATOM     48  C   UNL     1      -8.475   0.579  -8.578  1.00  0.00     0.029 A 
ATOM     49  N   UNL     1      -9.204  -1.268  -9.559  1.00  0.00    -0.354 N 
ATOM     50  C   UNL     1      -7.336  -2.606 -13.345  1.00  0.00     0.074 A 
ATOM     51  C   UNL     1      -5.979  -2.561 -12.872  1.00  0.00     0.031 C 
ATOM     52  C   UNL     1      -9.149  -0.118  -7.639  1.00  0.00     0.029 A 
ATOM     53  C   UNL     1      -9.667  -1.327  -8.250  1.00  0.00     0.049 A 
ATOM     54  H   UNL     1      -9.468  -1.915 -10.252  1.00  0.00     0.167 HD
ATOM     55  C   UNL     1      -8.047  -3.603 -13.942  1.00  0.00     0.037 A 
ATOM     56  C   UNL     1     -10.434  -2.287  -7.682  1.00  0.00     0.037 A 
ATOM     57  C   UNL     1      -9.416  -3.208 -14.138  1.00  0.00     0.049 A 
ATOM     58  C   UNL     1     -11.142  -3.008  -8.759  1.00  0.00     0.074 A 
ATOM     59  C   UNL     1     -10.138  -2.456 -15.036  1.00  0.00     0.029 A 
ATOM     60  N   UNL     1     -10.192  -3.373 -13.025  1.00  0.00    -0.354 N 
ATOM     61  N   UNL     1     -12.064  -2.462  -9.502  1.00  0.00    -0.248 NA
ATOM     62  C   UNL     1     -10.609  -4.275  -9.249  1.00  0.00     0.031 C 
ATOM     63  C   UNL     1     -11.338  -2.072 -14.364  1.00  0.00     0.029 A 
ATOM     64  C   UNL     1     -11.332  -2.623 -13.086  1.00  0.00     0.049 A 
ATOM     65  H   UNL     1      -9.958  -3.962 -12.271  1.00  0.00     0.167 HD
ATOM     66  C   UNL     1     -11.906  -3.070 -10.728  1.00  0.00     0.074 A 
ATOM     67  C   UNL     1     -11.154  -4.289 -10.468  1.00  0.00     0.031 C 
ATOM     68  C   UNL     1     -12.082  -2.364 -11.881  1.00  0.00     0.037 A 
BRANCH  55  69
ATOM     69  C   UNL     1      -7.698  -5.080 -13.893  1.00  0.00     0.064 A 
ATOM     70  C   UNL     1      -8.495  -5.992 -14.622  1.00  0.00     0.173 A 
ATOM     71  C   UNL     1      -6.866  -5.659 -12.912  1.00  0.00     0.173 A 
ATOM     72  F   UNL     1      -9.337  -5.557 -15.572  1.00  0.00    -0.203 F 
ATOM     73  C   UNL     1      -8.514  -7.361 -14.331  1.00  0.00     0.198 A 
ATOM     74  C   UNL     1      -6.851  -7.032 -12.658  1.00  0.00     0.198 A 
ATOM     75  F   UNL     1      -6.125  -4.919 -12.080  1.00  0.00    -0.203 F 
ATOM     76  F   UNL     1      -9.378  -8.166 -14.964  1.00  0.00    -0.200 F 
ATOM     77  C   UNL     1      -7.697  -7.878 -13.343  1.00  0.00     0.200 A 
ATOM     78  F   UNL     1      -6.070  -7.512 -11.680  1.00  0.00    -0.200 F 
ATOM     79  F   UNL     1      -7.758  -9.176 -13.018  1.00  0.00    -0.200 F 
ENDBRANCH  55  69
BRANCH  56  80
ATOM     80  C   UNL     1     -10.489  -2.722  -6.272  1.00  0.00     0.064 A 
ATOM     81  C   UNL     1     -11.626  -3.349  -5.742  1.00  0.00     0.173 A 
ATOM     82  C   UNL     1      -9.318  -2.772  -5.493  1.00  0.00     0.173 A 
ATOM     83  F   UNL     1     -12.771  -3.370  -6.439  1.00  0.00    -0.203 F 
ATOM     84  C   UNL     1     -11.586  -4.019  -4.516  1.00  0.00     0.198 A 
ATOM     85  C   UNL     1      -9.279  -3.438  -4.268  1.00  0.00     0.198 A 
ATOM     86  F   UNL     1      -8.169  -2.253  -5.954  1.00  0.00    -0.203 F 
ATOM     87  F   UNL     1     -12.675  -4.659  -4.068  1.00  0.00    -0.200 F 
ATOM     88  C   UNL     1     -10.409  -4.075  -3.787  1.00  0.00     0.200 A 
ATOM     89  F   UNL     1      -8.127  -3.514  -3.588  1.00  0.00    -0.200 F 
ATOM     90  F   UNL     1     -10.353  -4.773  -2.645  1.00  0.00    -0.200 F 
ENDBRANCH  56  80
BRANCH  68  91
ATOM     91  C   UNL     1     -12.966  -1.162 -11.826  1.00  0.00     0.064 A 
ATOM     92  C   UNL     1     -12.672   0.012 -11.115  1.00  0.00     0.173 A 
ATOM     93  C   UNL     1     -14.147  -1.189 -12.579  1.00  0.00     0.173 A 
ATOM     94  F   UNL     1     -11.527   0.138 -10.432  1.00  0.00    -0.203 F 
ATOM     95  C   UNL     1     -13.550   1.095 -11.127  1.00  0.00     0.198 A 
ATOM     96  C   UNL     1     -15.002  -0.094 -12.618  1.00  0.00     0.198 A 
ATOM     97  F   UNL     1     -14.456  -2.274 -13.305  1.00  0.00    -0.203 F 
ATOM     98  F   UNL     1     -13.263   2.200 -10.421  1.00  0.00    -0.200 F 
ATOM     99  C   UNL     1     -14.710   1.043 -11.882  1.00  0.00     0.200 A 
ATOM    100  F   UNL     1     -16.103  -0.137 -13.381  1.00  0.00    -0.200 F 
ATOM    101  F   UNL     1     -15.540   2.095 -11.917  1.00  0.00    -0.200 F 
ENDBRANCH  68  91
ENDBRANCH  42  43
ENDBRANCH  34  37
ENDBRANCH  32  33
ENDBRANCH   1  32
TORSDOF 13
