REMARK SMILES COc1cc(/C=C2/CCc3c2nc2ccccc2c3C(=O)NCCCCNC(=O)c2ccc(-c3c4nc(c(-c5c(F)c(F)c(F)c(F)c5F)c5ccc([nH]5)c(-c5c(F)c(F)c(F)c(F)c5F)c5nc(c(-c6c(F)c(F)c(F)c(F)c6F)c6ccc3[nH]6)C=C5)C=C4)cc2)cc(Br)c1O
REMARK SMILES IDX 24 1 23 2 22 3 20 4 21 5 19 7 6 8 7 9 8 10 11 11 9 12 10 13
REMARK SMILES IDX 12 14 13 15 18 16 14 17 17 18 15 19 16 20 5 21 3 22 4 23
REMARK SMILES IDX 96 24 94 25 93 26 95 27 2 28 1 29 97 30 25 32 26 33 27 34
REMARK SMILES IDX 28 35 29 37 30 38 31 39 92 40 32 41 91 42 33 43 34 44 35 45
REMARK SMILES IDX 85 46 36 47 90 48 84 49 86 50 37 51 89 52 83 53 82 54 38 56
REMARK SMILES IDX 70 57 50 58 69 59 51 60 54 61 68 62 87 63 52 64 53 65 67 67
REMARK SMILES IDX 88 68 55 69 39 70 40 71 48 72 41 73 42 74 46 75 49 76 43 77
REMARK SMILES IDX 44 78 47 79 45 80 71 81 72 82 80 83 73 84 74 85 78 86 81 87
REMARK SMILES IDX 75 88 76 89 79 90 77 91 56 92 57 93 65 94 58 95 59 96 63 97
REMARK SMILES IDX 66 98 60 99 61 100 64 101 62 102
REMARK H PARENT 22 6 97 31 27 36 86 55 54 66
REMARK Flexibility Score: inf
ROOT
ATOM      1  C   UNL     1       3.185   3.032  -8.678  1.00  0.00     0.023 C 
ENDROOT
BRANCH   1   2
ATOM      2  C   UNL     1       2.053   2.145  -8.165  1.00  0.00     0.116 C 
BRANCH   2   3
ATOM      3  N   UNL     1       2.467   1.250  -7.120  1.00  0.00    -0.352 N 
ATOM      4  C   UNL     1       2.834   1.702  -5.864  1.00  0.00     0.252 C 
ATOM      5  O   UNL     1       4.025   1.861  -5.620  1.00  0.00    -0.269 OA
ATOM      6  H   UNL     1       2.490   0.283  -7.303  1.00  0.00     0.163 HD
BRANCH   4   7
ATOM      7  C   UNL     1       1.806   1.913  -4.787  1.00  0.00     0.054 A 
ATOM      8  C   UNL     1      -0.712   0.662  -5.422  1.00  0.00     0.014 C 
ATOM      9  C   UNL     1      -0.735   2.016  -5.079  1.00  0.00    -0.021 C 
ATOM     10  C   UNL     1      -0.754   3.006  -6.277  1.00  0.00     0.042 C 
ATOM     11  C   UNL     1       0.091   2.935  -4.012  1.00  0.00     0.071 A 
ATOM     12  C   UNL     1       0.481   3.902  -5.971  1.00  0.00     0.043 C 
ATOM     13  C   UNL     1       1.103   3.119  -4.851  1.00  0.00    -0.008 A 
ATOM     14  N   UNL     1       0.505   2.883  -2.735  1.00  0.00    -0.248 NA
ATOM     15  C   UNL     1       1.456   1.994  -2.373  1.00  0.00     0.072 A 
ATOM     16  C   UNL     1       1.506   0.820  -3.575  1.00  0.00     0.013 A 
ATOM     17  C   UNL     1       1.944   1.532  -0.708  1.00  0.00     0.029 A 
ATOM     18  C   UNL     1       1.476  -1.135  -2.957  1.00  0.00     0.011 A 
ATOM     19  C   UNL     1       2.095  -0.178  -0.158  1.00  0.00     0.002 A 
ATOM     20  C   UNL     1       1.825  -1.535  -1.237  1.00  0.00     0.001 A 
BRANCH   8  21
ATOM     21  C   UNL     1       0.074  -0.466  -4.686  1.00  0.00    -0.020 A 
ATOM     22  C   UNL     1       0.696   0.159  -1.853  1.00  0.00     0.162 A 
ATOM     23  C   UNL     1      -0.474  -0.192  -3.103  1.00  0.00     0.058 A 
ATOM     24  C   UNL     1       2.687   0.122  -2.277  1.00  0.00     0.172 A 
ATOM     25  C   UNL     1       3.151  -0.463  -3.943  1.00  0.00     0.064 A 
ATOM     26  C   UNL     1       1.804  -0.749  -5.099  1.00  0.00     0.028 A 
ATOM     27  Br  UNL     1       4.932  -0.923  -4.365  1.00  0.00    -0.047 Br
BRANCH  22  28
ATOM     28  O   UNL     1      -0.195   0.802  -0.905  1.00  0.00    -0.493 OA
ATOM     29  C   UNL     1      -0.530   0.287   0.381  1.00  0.00     0.278 C 
ENDBRANCH  22  28
BRANCH  24  30
ATOM     30  O   UNL     1       3.866   0.645  -1.720  1.00  0.00    -0.503 OA
ATOM     31  H   UNL     1       3.856   1.005  -0.856  1.00  0.00     0.293 HD
ENDBRANCH  24  30
ENDBRANCH   8  21
ENDBRANCH   4   7
ENDBRANCH   2   3
ENDBRANCH   1   2
BRANCH   1  32
ATOM     32  C   UNL     1       3.738   2.541  -9.999  1.00  0.00     0.023 C 
BRANCH  32  33
ATOM     33  C   UNL     1       2.664   2.324 -11.046  1.00  0.00     0.116 C 
BRANCH  33  34
ATOM     34  N   UNL     1       1.815   3.494 -11.278  1.00  0.00    -0.352 N 
ATOM     35  C   UNL     1       1.445   4.007 -12.503  1.00  0.00     0.251 C 
ATOM     36  H   UNL     1       1.474   3.961 -10.481  1.00  0.00     0.163 HD
ATOM     37  O   UNL     1       0.813   5.045 -12.624  1.00  0.00    -0.269 OA
BRANCH  35  38
ATOM     38  C   UNL     1       1.902   3.234 -13.667  1.00  0.00     0.039 A 
ATOM     39  C   UNL     1       1.546   1.884 -13.705  1.00  0.00     0.014 A 
ATOM     40  C   UNL     1       2.968   3.737 -14.413  1.00  0.00     0.014 A 
ATOM     41  C   UNL     1       2.420   0.997 -14.309  1.00  0.00     0.010 A 
ATOM     42  C   UNL     1       3.751   2.849 -15.147  1.00  0.00     0.010 A 
ATOM     43  C   UNL     1       3.521   1.467 -15.052  1.00  0.00    -0.014 A 
BRANCH  43  44
ATOM     44  C   UNL     1       4.390   0.495 -15.760  1.00  0.00     0.031 A 
ATOM     45  C   UNL     1       5.873   0.420 -15.512  1.00  0.00     0.074 A 
ATOM     46  C   UNL     1       3.805  -0.337 -16.643  1.00  0.00     0.049 A 
ATOM     47  N   UNL     1       6.771  -0.310 -16.127  1.00  0.00    -0.248 NA
ATOM     48  C   UNL     1       6.427   1.271 -14.446  1.00  0.00     0.031 C 
ATOM     49  C   UNL     1       2.370  -0.373 -16.942  1.00  0.00     0.029 A 
ATOM     50  N   UNL     1       4.332  -1.316 -17.441  1.00  0.00    -0.354 N 
ATOM     51  C   UNL     1       7.991   0.005 -15.542  1.00  0.00     0.074 A 
ATOM     52  C   UNL     1       7.727   1.016 -14.540  1.00  0.00     0.031 C 
ATOM     53  C   UNL     1       2.125  -1.357 -17.813  1.00  0.00     0.029 A 
ATOM     54  C   UNL     1       3.393  -1.942 -18.221  1.00  0.00     0.049 A 
ATOM     55  H   UNL     1       5.289  -1.548 -17.454  1.00  0.00     0.167 HD
ATOM     56  C   UNL     1       9.214  -0.514 -15.816  1.00  0.00     0.037 A 
ATOM     57  C   UNL     1       3.532  -2.854 -19.197  1.00  0.00     0.037 A 
ATOM     58  C   UNL     1       9.457  -1.528 -16.813  1.00  0.00     0.049 A 
ATOM     59  C   UNL     1       4.907  -3.339 -19.538  1.00  0.00     0.074 A 
ATOM     60  C   UNL     1      10.658  -2.121 -17.163  1.00  0.00     0.029 A 
ATOM     61  N   UNL     1       8.482  -2.099 -17.621  1.00  0.00    -0.354 N 
ATOM     62  N   UNL     1       6.053  -3.028 -18.985  1.00  0.00    -0.248 NA
ATOM     63  C   UNL     1       5.007  -4.304 -20.637  1.00  0.00     0.031 C 
ATOM     64  C   UNL     1      10.423  -2.996 -18.227  1.00  0.00     0.029 A 
ATOM     65  C   UNL     1       9.062  -3.018 -18.484  1.00  0.00     0.049 A 
ATOM     66  H   UNL     1       7.522  -1.884 -17.587  1.00  0.00     0.167 HD
ATOM     67  C   UNL     1       7.009  -3.788 -19.643  1.00  0.00     0.074 A 
ATOM     68  C   UNL     1       6.302  -4.586 -20.624  1.00  0.00     0.031 C 
ATOM     69  C   UNL     1       8.350  -3.820 -19.448  1.00  0.00     0.037 A 
BRANCH  56  70
ATOM     70  C   UNL     1      10.400  -0.004 -15.041  1.00  0.00     0.064 A 
ATOM     71  C   UNL     1      10.574  -0.297 -13.681  1.00  0.00     0.173 A 
ATOM     72  C   UNL     1      11.430   0.694 -15.694  1.00  0.00     0.173 A 
ATOM     73  F   UNL     1       9.621  -0.957 -13.005  1.00  0.00    -0.203 F 
ATOM     74  C   UNL     1      11.727   0.096 -13.002  1.00  0.00     0.198 A 
ATOM     75  C   UNL     1      12.596   1.054 -15.022  1.00  0.00     0.198 A 
ATOM     76  F   UNL     1      11.324   0.993 -16.998  1.00  0.00    -0.203 F 
ATOM     77  F   UNL     1      11.857  -0.172 -11.696  1.00  0.00    -0.200 F 
ATOM     78  C   UNL     1      12.742   0.758 -13.676  1.00  0.00     0.200 A 
ATOM     79  F   UNL     1      13.585   1.673 -15.682  1.00  0.00    -0.200 F 
ATOM     80  F   UNL     1      13.861   1.109 -13.029  1.00  0.00    -0.200 F 
ENDBRANCH  56  70
BRANCH  57  81
ATOM     81  C   UNL     1       2.327  -3.355 -19.906  1.00  0.00     0.064 A 
ATOM     82  C   UNL     1       1.923  -4.688 -19.768  1.00  0.00     0.173 A 
ATOM     83  C   UNL     1       1.535  -2.509 -20.699  1.00  0.00     0.173 A 
ATOM     84  F   UNL     1       2.653  -5.535 -19.027  1.00  0.00    -0.203 F 
ATOM     85  C   UNL     1       0.784  -5.163 -20.412  1.00  0.00     0.198 A 
ATOM     86  C   UNL     1       0.373  -2.975 -21.308  1.00  0.00     0.198 A 
ATOM     87  F   UNL     1       1.869  -1.219 -20.849  1.00  0.00    -0.203 F 
ATOM     88  F   UNL     1       0.445  -6.454 -20.299  1.00  0.00    -0.200 F 
ATOM     89  C   UNL     1       0.004  -4.304 -21.172  1.00  0.00     0.200 A 
ATOM     90  F   UNL     1      -0.393  -2.133 -22.015  1.00  0.00    -0.200 F 
ATOM     91  F   UNL     1      -1.102  -4.758 -21.776  1.00  0.00    -0.200 F 
ENDBRANCH  57  81
BRANCH  69  92
ATOM     92  C   UNL     1       9.144  -4.793 -20.272  1.00  0.00     0.064 A 
ATOM     93  C   UNL     1       9.304  -4.640 -21.657  1.00  0.00     0.173 A 
ATOM     94  C   UNL     1       9.794  -5.874 -19.654  1.00  0.00     0.173 A 
ATOM     95  F   UNL     1       8.693  -3.633 -22.300  1.00  0.00    -0.203 F 
ATOM     96  C   UNL     1      10.056  -5.548 -22.397  1.00  0.00     0.198 A 
ATOM     97  C   UNL     1      10.582  -6.754 -20.390  1.00  0.00     0.198 A 
ATOM     98  F   UNL     1       9.682  -6.066 -18.331  1.00  0.00    -0.203 F 
ATOM     99  F   UNL     1      10.143  -5.416 -23.727  1.00  0.00    -0.200 F 
ATOM    100  C   UNL     1      10.704  -6.597 -21.761  1.00  0.00     0.200 A 
ATOM    101  F   UNL     1      11.225  -7.753 -19.770  1.00  0.00    -0.200 F 
ATOM    102  F   UNL     1      11.440  -7.461 -22.473  1.00  0.00    -0.200 F 
ENDBRANCH  69  92
ENDBRANCH  43  44
ENDBRANCH  35  38
ENDBRANCH  33  34
ENDBRANCH  32  33
ENDBRANCH   1  32
TORSDOF 14
