REMARK SMILES CCc1ccc(N2C(=O)C[C@@H](SC[C@@H](NC(C)=O)C(=O)NCCCCNC(=O)c3ccc(-c4c5nc(c(-c6c(F)c(F)c(F)c(F)c6F)c6ccc([nH]6)c(-c6c(F)c(F)c(F)c(F)c6F)c6nc(c(-c7c(F)c(F)c(F)c(F)c7F)c7ccc4[nH]7)C=C6)C=C5)cc3)C2=O)cc1
REMARK SMILES IDX 22 1 21 2 19 3 20 4 14 6 13 7 12 8 11 9 7 10 8 11 92 12 9 13
REMARK SMILES IDX 10 14 93 15 6 16 3 17 4 18 95 19 5 20 94 21 2 22 1 23 15 24
REMARK SMILES IDX 16 25 17 27 18 28 23 29 24 30 25 31 26 32 27 33 28 35 29 36
REMARK SMILES IDX 30 37 91 38 31 39 90 40 32 41 33 42 34 43 84 44 35 45 89 46
REMARK SMILES IDX 83 47 85 48 36 49 88 50 82 51 81 52 37 54 69 55 49 56 68 57
REMARK SMILES IDX 50 58 53 59 67 60 86 61 51 62 52 63 66 65 87 66 54 67 38 68
REMARK SMILES IDX 39 69 47 70 40 71 41 72 45 73 48 74 42 75 43 76 46 77 44 78
REMARK SMILES IDX 70 79 71 80 79 81 72 82 73 83 77 84 80 85 74 86 75 87 78 88
REMARK SMILES IDX 76 89 55 90 56 91 64 92 57 93 58 94 62 95 65 96 59 97 60 98
REMARK SMILES IDX 63 99 61 100
REMARK H PARENT 21 5 15 26 26 34 85 53 53 64
REMARK Flexibility Score: inf
ROOT
ATOM      1  C   UNL     1       2.640  -5.575  -1.752  1.00  0.00     0.116 C 
ENDROOT
BRANCH   1   2
ATOM      2  N   UNL     1       2.970  -6.967  -1.536  1.00  0.00    -0.354 N 
ATOM      3  C   UNL     1       3.339  -7.926  -2.430  1.00  0.00     0.243 C 
ATOM      4  O   UNL     1       3.372  -9.093  -2.025  1.00  0.00    -0.273 OA
ATOM      5  H   UNL     1       2.920  -7.267  -0.600  1.00  0.00     0.163 HD
BRANCH   3   6
ATOM      6  C   UNL     1       3.503  -7.613  -3.932  1.00  0.00     0.181 C 
BRANCH   6   7
ATOM      7  C   UNL     1       2.078  -7.535  -4.525  1.00  0.00     0.105 C 
BRANCH   7   8
ATOM      8  S   UNL     1       2.031  -7.388  -6.358  1.00  0.00    -0.145 SA
BRANCH   8   9
ATOM      9  C   UNL     1       1.646  -5.632  -6.710  1.00  0.00     0.146 C 
ATOM     10  N   UNL     1       1.765  -3.724  -5.338  1.00  0.00    -0.250 N 
ATOM     11  C   UNL     1       2.944  -3.768  -6.045  1.00  0.00     0.235 C 
ATOM     12  C   UNL     1       0.981  -4.829  -5.622  1.00  0.00     0.247 C 
ATOM     13  O   UNL     1       3.967  -3.115  -5.889  1.00  0.00    -0.274 OA
ATOM     14  C   UNL     1       2.868  -4.834  -7.092  1.00  0.00     0.125 C 
ATOM     15  O   UNL     1      -0.095  -5.153  -5.134  1.00  0.00    -0.273 OA
BRANCH  10  16
ATOM     16  C   UNL     1       1.401  -2.661  -4.444  1.00  0.00     0.052 A 
ATOM     17  C   UNL     1       0.523  -0.437  -2.877  1.00  0.00    -0.048 A 
ATOM     18  C   UNL     1      -0.139  -1.663  -2.816  1.00  0.00     0.006 A 
ATOM     19  C   UNL     1       1.673  -0.348  -3.660  1.00  0.00     0.006 A 
ATOM     20  C   UNL     1       0.287  -2.749  -3.596  1.00  0.00     0.027 A 
ATOM     21  C   UNL     1       2.104  -1.443  -4.428  1.00  0.00     0.027 A 
BRANCH  17  22
ATOM     22  C   UNL     1      -0.026   0.771  -2.160  1.00  0.00     0.032 C 
ATOM     23  C   UNL     1       0.379   0.849  -0.702  1.00  0.00     0.009 C 
ENDBRANCH  17  22
ENDBRANCH  10  16
ENDBRANCH   8   9
ENDBRANCH   7   8
ENDBRANCH   6   7
BRANCH   6  24
ATOM     24  N   UNL     1       4.287  -6.415  -4.254  1.00  0.00    -0.344 N 
ATOM     25  C   UNL     1       5.486  -6.122  -3.640  1.00  0.00     0.217 C 
ATOM     26  H   UNL     1       3.943  -5.795  -4.937  1.00  0.00     0.164 HD
ATOM     27  C   UNL     1       6.209  -4.958  -4.262  1.00  0.00     0.114 C 
ATOM     28  O   UNL     1       5.903  -6.694  -2.641  1.00  0.00    -0.275 OA
ENDBRANCH   6  24
ENDBRANCH   3   6
ENDBRANCH   1   2
BRANCH   1  29
ATOM     29  C   UNL     1       1.324  -5.230  -1.063  1.00  0.00     0.023 C 
BRANCH  29  30
ATOM     30  C   UNL     1       1.395  -5.220   0.462  1.00  0.00     0.023 C 
BRANCH  30  31
ATOM     31  C   UNL     1       2.459  -4.294   1.034  1.00  0.00     0.116 C 
BRANCH  31  32
ATOM     32  N   UNL     1       2.315  -2.912   0.600  1.00  0.00    -0.352 N 
ATOM     33  C   UNL     1       2.515  -1.779   1.347  1.00  0.00     0.251 C 
ATOM     34  H   UNL     1       2.042  -2.775  -0.337  1.00  0.00     0.163 HD
ATOM     35  O   UNL     1       2.406  -0.657   0.883  1.00  0.00    -0.269 OA
BRANCH  33  36
ATOM     36  C   UNL     1       2.872  -1.935   2.757  1.00  0.00     0.039 A 
ATOM     37  C   UNL     1       2.001  -1.455   3.738  1.00  0.00     0.014 A 
ATOM     38  C   UNL     1       4.050  -2.607   3.080  1.00  0.00     0.014 A 
ATOM     39  C   UNL     1       2.298  -1.690   5.076  1.00  0.00     0.010 A 
ATOM     40  C   UNL     1       4.309  -2.896   4.407  1.00  0.00     0.010 A 
ATOM     41  C   UNL     1       3.441  -2.430   5.409  1.00  0.00    -0.014 A 
BRANCH  41  42
ATOM     42  C   UNL     1       3.805  -2.716   6.810  1.00  0.00     0.031 A 
ATOM     43  C   UNL     1       5.068  -2.122   7.351  1.00  0.00     0.074 A 
ATOM     44  C   UNL     1       3.084  -3.607   7.510  1.00  0.00     0.049 A 
ATOM     45  N   UNL     1       5.726  -2.419   8.439  1.00  0.00    -0.248 NA
ATOM     46  C   UNL     1       5.704  -1.086   6.521  1.00  0.00     0.031 C 
ATOM     47  C   UNL     1       1.858  -4.256   7.043  1.00  0.00     0.029 A 
ATOM     48  N   UNL     1       3.303  -4.151   8.747  1.00  0.00    -0.354 N 
ATOM     49  C   UNL     1       6.873  -1.638   8.403  1.00  0.00     0.074 A 
ATOM     50  C   UNL     1       6.842  -0.887   7.167  1.00  0.00     0.031 C 
ATOM     51  C   UNL     1       1.439  -5.122   7.979  1.00  0.00     0.029 A 
ATOM     52  C   UNL     1       2.392  -5.121   9.084  1.00  0.00     0.049 A 
ATOM     53  H   UNL     1       4.042  -3.875   9.337  1.00  0.00     0.167 HD
ATOM     54  C   UNL     1       7.856  -1.555   9.329  1.00  0.00     0.037 A 
ATOM     55  C   UNL     1       2.357  -5.936  10.153  1.00  0.00     0.037 A 
ATOM     56  C   UNL     1       7.844  -2.303  10.558  1.00  0.00     0.049 A 
ATOM     57  C   UNL     1       3.444  -5.812  11.183  1.00  0.00     0.074 A 
ATOM     58  C   UNL     1       8.749  -2.271  11.602  1.00  0.00     0.029 A 
ATOM     59  N   UNL     1       6.863  -3.226  10.904  1.00  0.00    -0.354 N 
ATOM     60  N   UNL     1       4.509  -5.044  11.170  1.00  0.00    -0.248 NA
ATOM     61  C   UNL     1       3.326  -6.657  12.377  1.00  0.00     0.031 C 
ATOM     62  C   UNL     1       8.336  -3.203  12.562  1.00  0.00     0.029 A 
ATOM     63  C   UNL     1       7.145  -3.778  12.141  1.00  0.00     0.049 A 
ATOM     64  H   UNL     1       6.081  -3.453  10.349  1.00  0.00     0.167 HD
ATOM     65  C   UNL     1       5.175  -5.292  12.360  1.00  0.00     0.074 A 
ATOM     66  C   UNL     1       4.387  -6.277  13.076  1.00  0.00     0.031 C 
ATOM     67  C   UNL     1       6.331  -4.753  12.824  1.00  0.00     0.037 A 
BRANCH  54  68
ATOM     68  C   UNL     1       9.013  -0.646   9.028  1.00  0.00     0.064 A 
ATOM     69  C   UNL     1       8.859   0.748   8.949  1.00  0.00     0.173 A 
ATOM     70  C   UNL     1      10.290  -1.175   8.790  1.00  0.00     0.173 A 
ATOM     71  F   UNL     1       7.657   1.307   9.152  1.00  0.00    -0.203 F 
ATOM     72  C   UNL     1       9.927   1.570   8.596  1.00  0.00     0.198 A 
ATOM     73  C   UNL     1      11.364  -0.346   8.472  1.00  0.00     0.198 A 
ATOM     74  F   UNL     1      10.499  -2.498   8.854  1.00  0.00    -0.203 F 
ATOM     75  F   UNL     1       9.735   2.889   8.454  1.00  0.00    -0.200 F 
ATOM     76  C   UNL     1      11.179   1.024   8.362  1.00  0.00     0.200 A 
ATOM     77  F   UNL     1      12.577  -0.875   8.258  1.00  0.00    -0.200 F 
ATOM     78  F   UNL     1      12.203   1.816   8.017  1.00  0.00    -0.200 F 
ENDBRANCH  54  68
BRANCH  55  79
ATOM     79  C   UNL     1       1.243  -6.908  10.295  1.00  0.00     0.064 A 
ATOM     80  C   UNL     1       0.230  -6.702  11.241  1.00  0.00     0.173 A 
ATOM     81  C   UNL     1       1.131  -8.022   9.450  1.00  0.00     0.173 A 
ATOM     82  F   UNL     1       0.300  -5.658  12.079  1.00  0.00    -0.203 F 
ATOM     83  C   UNL     1      -0.851  -7.576  11.339  1.00  0.00     0.198 A 
ATOM     84  C   UNL     1       0.036  -8.881   9.533  1.00  0.00     0.198 A 
ATOM     85  F   UNL     1       2.067  -8.256   8.518  1.00  0.00    -0.203 F 
ATOM     86  F   UNL     1      -1.796  -7.367  12.267  1.00  0.00    -0.200 F 
ATOM     87  C   UNL     1      -0.952  -8.659  10.479  1.00  0.00     0.200 A 
ATOM     88  F   UNL     1      -0.068  -9.915   8.686  1.00  0.00    -0.200 F 
ATOM     89  F   UNL     1      -2.003  -9.486  10.561  1.00  0.00    -0.200 F 
ENDBRANCH  55  79
BRANCH  67  90
ATOM     90  C   UNL     1       6.785  -5.189  14.184  1.00  0.00     0.064 A 
ATOM     91  C   UNL     1       7.335  -6.460  14.405  1.00  0.00     0.173 A 
ATOM     92  C   UNL     1       6.717  -4.300  15.268  1.00  0.00     0.173 A 
ATOM     93  F   UNL     1       7.406  -7.349  13.403  1.00  0.00    -0.203 F 
ATOM     94  C   UNL     1       7.783  -6.831  15.669  1.00  0.00     0.198 A 
ATOM     95  C   UNL     1       7.193  -4.665  16.522  1.00  0.00     0.198 A 
ATOM     96  F   UNL     1       6.205  -3.071  15.102  1.00  0.00    -0.203 F 
ATOM     97  F   UNL     1       8.268  -8.065  15.870  1.00  0.00    -0.200 F 
ATOM     98  C   UNL     1       7.720  -5.931  16.724  1.00  0.00     0.200 A 
ATOM     99  F   UNL     1       7.144  -3.790  17.536  1.00  0.00    -0.200 F 
ATOM    100  F   UNL     1       8.163  -6.288  17.937  1.00  0.00    -0.200 F 
ENDBRANCH  67  90
ENDBRANCH  41  42
ENDBRANCH  33  36
ENDBRANCH  31  32
ENDBRANCH  30  31
ENDBRANCH  29  30
ENDBRANCH   1  29
TORSDOF 17
