REMARK SMILES CC1(C)CCSC[C@@]1(Nc1ccccc1Br)C(=O)NCCCCNC(=O)c1ccc(-c2c3nc(c(-c4c(F)c(F)c(F)c(F)c4F)c4ccc([nH]4)c(-c4c(F)c(F)c(F)c(F)c4F)c4nc(c(-c5c(F)c(F)c(F)c(F)c5F)c5ccc2[nH]5)C=C4)C=C3)cc1
REMARK SMILES IDX 21 1 20 2 19 3 17 4 18 5 8 7 1 8 2 9 3 10 4 11 5 12 7 13
REMARK SMILES IDX 6 14 9 15 10 17 11 18 15 19 12 20 14 21 16 22 13 23 22 24
REMARK SMILES IDX 23 25 24 26 25 27 26 29 27 30 28 31 89 32 29 33 88 34 30 35
REMARK SMILES IDX 31 36 32 37 82 38 33 39 87 40 81 41 83 42 34 43 86 44 80 45
REMARK SMILES IDX 79 46 35 48 67 49 47 50 66 51 48 52 51 53 65 54 84 55 49 56
REMARK SMILES IDX 50 57 64 59 85 60 52 61 36 62 37 63 45 64 38 65 39 66 43 67
REMARK SMILES IDX 46 68 40 69 41 70 44 71 42 72 68 73 69 74 77 75 70 76 71 77
REMARK SMILES IDX 75 78 78 79 72 80 73 81 76 82 74 83 53 84 54 85 62 86 55 87
REMARK SMILES IDX 56 88 60 89 63 90 57 91 58 92 61 93 59 94
REMARK H PARENT 19 6 9 16 24 28 83 47 51 58
REMARK Flexibility Score: inf
ROOT
ATOM      1  C   UNL     1      -4.846   1.787  -0.588  1.00  0.00     0.023 C 
ENDROOT
BRANCH   1   2
ATOM      2  C   UNL     1      -3.969   1.258   0.539  1.00  0.00     0.116 C 
BRANCH   2   3
ATOM      3  N   UNL     1      -3.067   0.192   0.157  1.00  0.00    -0.354 N 
ATOM      4  C   UNL     1      -1.763  -0.048   0.509  1.00  0.00     0.247 C 
ATOM      5  O   UNL     1      -1.420  -1.225   0.343  1.00  0.00    -0.272 OA
ATOM      6  H   UNL     1      -3.455  -0.472  -0.457  1.00  0.00     0.163 HD
BRANCH   4   7
ATOM      7  C   UNL     1      -0.744   1.073   0.979  1.00  0.00     0.131 C 
ATOM      8  C   UNL     1       1.213  -0.178  -0.324  1.00  0.00     0.014 C 
ATOM      9  C   UNL     1       0.789   0.522   0.997  1.00  0.00    -0.002 C 
ATOM     10  C   UNL     1       1.014  -0.503   2.141  1.00  0.00     0.014 C 
ATOM     11  C   UNL     1       1.825   1.672   1.252  1.00  0.00     0.020 C 
ATOM     12  C   UNL     1       1.813   2.815   0.246  1.00  0.00     0.070 C 
ATOM     13  C   UNL     1      -0.845   2.224  -0.069  1.00  0.00     0.108 C 
ATOM     14  S   UNL     1       0.224   3.667   0.250  1.00  0.00    -0.159 SA
BRANCH   7  15
ATOM     15  N   UNL     1      -0.979   1.615   2.368  1.00  0.00    -0.369 N 
ATOM     16  H   UNL     1      -0.165   1.881   2.854  1.00  0.00     0.161 HD
BRANCH  15  17
ATOM     17  C   UNL     1      -2.161   1.797   3.063  1.00  0.00     0.049 A 
ATOM     18  C   UNL     1      -2.658   3.114   3.159  1.00  0.00     0.027 A 
ATOM     19  C   UNL     1      -2.934   0.776   3.643  1.00  0.00     0.041 A 
ATOM     20  C   UNL     1      -3.897   3.395   3.739  1.00  0.00     0.002 A 
ATOM     21  C   UNL     1      -4.178   1.059   4.231  1.00  0.00     0.018 A 
ATOM     22  Br  UNL     1      -2.343  -1.025   3.746  1.00  0.00    -0.049 Br
ATOM     23  C   UNL     1      -4.665   2.364   4.264  1.00  0.00     0.001 A 
ENDBRANCH  15  17
ENDBRANCH   7  15
ENDBRANCH   4   7
ENDBRANCH   2   3
ENDBRANCH   1   2
BRANCH   1  24
ATOM     24  C   UNL     1      -6.322   1.389  -0.507  1.00  0.00     0.023 C 
BRANCH  24  25
ATOM     25  C   UNL     1      -7.024   1.570   0.839  1.00  0.00     0.116 C 
BRANCH  25  26
ATOM     26  N   UNL     1      -6.910   2.889   1.440  1.00  0.00    -0.352 N 
ATOM     27  C   UNL     1      -7.778   3.491   2.331  1.00  0.00     0.251 C 
ATOM     28  H   UNL     1      -6.120   3.417   1.181  1.00  0.00     0.163 HD
ATOM     29  O   UNL     1      -7.555   4.608   2.771  1.00  0.00    -0.269 OA
BRANCH  27  30
ATOM     30  C   UNL     1      -9.025   2.781   2.703  1.00  0.00     0.039 A 
ATOM     31  C   UNL     1     -10.247   3.424   2.496  1.00  0.00     0.014 A 
ATOM     32  C   UNL     1      -8.990   1.458   3.152  1.00  0.00     0.014 A 
ATOM     33  C   UNL     1     -11.434   2.700   2.624  1.00  0.00     0.010 A 
ATOM     34  C   UNL     1     -10.168   0.718   3.208  1.00  0.00     0.010 A 
ATOM     35  C   UNL     1     -11.399   1.325   2.915  1.00  0.00    -0.014 A 
BRANCH  35  36
ATOM     36  C   UNL     1     -12.635   0.505   2.827  1.00  0.00     0.031 A 
ATOM     37  C   UNL     1     -13.213  -0.155   4.044  1.00  0.00     0.074 A 
ATOM     38  C   UNL     1     -13.201   0.311   1.619  1.00  0.00     0.049 A 
ATOM     39  N   UNL     1     -14.303  -0.872   4.154  1.00  0.00    -0.248 NA
ATOM     40  C   UNL     1     -12.454  -0.018   5.295  1.00  0.00     0.031 C 
ATOM     41  C   UNL     1     -12.676   0.820   0.349  1.00  0.00     0.029 A 
ATOM     42  N   UNL     1     -14.342  -0.361   1.258  1.00  0.00    -0.354 N 
ATOM     43  C   UNL     1     -14.358  -1.274   5.482  1.00  0.00     0.074 A 
ATOM     44  C   UNL     1     -13.162  -0.771   6.124  1.00  0.00     0.031 C 
ATOM     45  C   UNL     1     -13.514   0.481  -0.643  1.00  0.00     0.029 A 
ATOM     46  C   UNL     1     -14.625  -0.283  -0.085  1.00  0.00     0.049 A 
ATOM     47  H   UNL     1     -14.905  -0.852   1.899  1.00  0.00     0.167 HD
ATOM     48  C   UNL     1     -15.331  -1.975   6.112  1.00  0.00     0.037 A 
ATOM     49  C   UNL     1     -15.675  -0.756  -0.783  1.00  0.00     0.037 A 
ATOM     50  C   UNL     1     -16.525  -2.458   5.470  1.00  0.00     0.049 A 
ATOM     51  C   UNL     1     -16.770  -1.480  -0.050  1.00  0.00     0.074 A 
ATOM     52  C   UNL     1     -17.597  -3.132   6.028  1.00  0.00     0.029 A 
ATOM     53  N   UNL     1     -16.802  -2.318   4.117  1.00  0.00    -0.354 N 
ATOM     54  N   UNL     1     -16.860  -1.768   1.226  1.00  0.00    -0.248 NA
ATOM     55  C   UNL     1     -17.919  -1.926  -0.849  1.00  0.00     0.031 C 
ATOM     56  C   UNL     1     -18.509  -3.426   5.007  1.00  0.00     0.029 A 
ATOM     57  C   UNL     1     -18.023  -2.901   3.820  1.00  0.00     0.049 A 
ATOM     58  H   UNL     1     -16.217  -1.869   3.465  1.00  0.00     0.167 HD
ATOM     59  C   UNL     1     -18.080  -2.409   1.387  1.00  0.00     0.074 A 
ATOM     60  C   UNL     1     -18.706  -2.447   0.082  1.00  0.00     0.031 C 
ATOM     61  C   UNL     1     -18.630  -2.923   2.514  1.00  0.00     0.037 A 
BRANCH  48  62
ATOM     62  C   UNL     1     -15.144  -2.246   7.577  1.00  0.00     0.064 A 
ATOM     63  C   UNL     1     -15.225  -1.216   8.527  1.00  0.00     0.173 A 
ATOM     64  C   UNL     1     -14.896  -3.546   8.040  1.00  0.00     0.173 A 
ATOM     65  F   UNL     1     -15.449   0.048   8.136  1.00  0.00    -0.203 F 
ATOM     66  C   UNL     1     -15.030  -1.472   9.882  1.00  0.00     0.198 A 
ATOM     67  C   UNL     1     -14.730  -3.803   9.399  1.00  0.00     0.198 A 
ATOM     68  F   UNL     1     -14.815  -4.569   7.176  1.00  0.00    -0.203 F 
ATOM     69  F   UNL     1     -15.058  -0.463  10.764  1.00  0.00    -0.200 F 
ATOM     70  C   UNL     1     -14.788  -2.765  10.317  1.00  0.00     0.200 A 
ATOM     71  F   UNL     1     -14.506  -5.056   9.820  1.00  0.00    -0.200 F 
ATOM     72  F   UNL     1     -14.599  -3.011  11.621  1.00  0.00    -0.200 F 
ENDBRANCH  48  62
BRANCH  49  73
ATOM     73  C   UNL     1     -15.772  -0.498  -2.244  1.00  0.00     0.064 A 
ATOM     74  C   UNL     1     -16.717   0.406  -2.750  1.00  0.00     0.173 A 
ATOM     75  C   UNL     1     -14.924  -1.136  -3.159  1.00  0.00     0.173 A 
ATOM     76  F   UNL     1     -17.561   1.029  -1.915  1.00  0.00    -0.203 F 
ATOM     77  C   UNL     1     -16.823   0.647  -4.118  1.00  0.00     0.198 A 
ATOM     78  C   UNL     1     -15.014  -0.875  -4.526  1.00  0.00     0.198 A 
ATOM     79  F   UNL     1     -13.997  -2.003  -2.725  1.00  0.00    -0.203 F 
ATOM     80  F   UNL     1     -17.761   1.486  -4.577  1.00  0.00    -0.200 F 
ATOM     81  C   UNL     1     -15.968   0.011  -5.005  1.00  0.00     0.200 A 
ATOM     82  F   UNL     1     -14.176  -1.481  -5.378  1.00  0.00    -0.200 F 
ATOM     83  F   UNL     1     -16.066   0.247  -6.320  1.00  0.00    -0.200 F 
ENDBRANCH  49  73
BRANCH  61  84
ATOM     84  C   UNL     1     -19.986  -3.551   2.383  1.00  0.00     0.064 A 
ATOM     85  C   UNL     1     -20.160  -4.793   1.755  1.00  0.00     0.173 A 
ATOM     86  C   UNL     1     -21.117  -2.917   2.915  1.00  0.00     0.173 A 
ATOM     87  F   UNL     1     -19.109  -5.431   1.217  1.00  0.00    -0.203 F 
ATOM     88  C   UNL     1     -21.424  -5.365   1.641  1.00  0.00     0.198 A 
ATOM     89  C   UNL     1     -22.376  -3.503   2.822  1.00  0.00     0.198 A 
ATOM     90  F   UNL     1     -21.001  -1.729   3.528  1.00  0.00    -0.203 F 
ATOM     91  F   UNL     1     -21.575  -6.529   0.995  1.00  0.00    -0.200 F 
ATOM     92  C   UNL     1     -22.529  -4.723   2.179  1.00  0.00     0.200 A 
ATOM     93  F   UNL     1     -23.442  -2.886   3.350  1.00  0.00    -0.200 F 
ATOM     94  F   UNL     1     -23.745  -5.275   2.069  1.00  0.00    -0.200 F 
ENDBRANCH  61  84
ENDBRANCH  35  36
ENDBRANCH  27  30
ENDBRANCH  25  26
ENDBRANCH  24  25
ENDBRANCH   1  24
TORSDOF 13
