REMARK SMILES O=C(/C=C/[C@@]12C=C(O)C(=O)C=C1C(=O)C1=Cc3cc(O)c(O)cc3O[C@@H](c3ccc(O)c(O)c3)[C@@H]12)NCCCCNC(=O)c1ccc(-c2c3nc(c(-c4c(F)c(F)c(F)c(F)c4F)c4ccc([nH]4)c(-c4c(F)c(F)c(F)c(F)c4F)c4nc(c(-c5c(F)c(F)c(F)c(F)c5F)c5ccc2[nH]5)C=C4)C=C3)cc1
REMARK SMILES IDX 1 1 2 2 36 3 3 5 4 6 5 7 6 8 12 9 35 10 7 11 11 12 13 13
REMARK SMILES IDX 15 14 9 16 14 17 16 18 10 19 8 20 17 22 18 23 24 24 19 25
REMARK SMILES IDX 23 26 21 27 25 28 26 29 27 31 28 32 34 33 29 34 32 35 30 36
REMARK SMILES IDX 33 37 31 39 20 41 22 43 37 45 38 46 39 47 40 48 41 49 42 50
REMARK SMILES IDX 43 52 44 53 45 54 106 55 46 56 105 57 47 58 48 59 49 60
REMARK SMILES IDX 99 61 50 62 104 63 98 64 100 65 51 66 103 67 97 68 96 69
REMARK SMILES IDX 52 71 84 72 64 73 83 74 65 75 68 76 82 77 101 78 66 79 67 80
REMARK SMILES IDX 81 82 102 83 69 84 53 85 54 86 62 87 55 88 56 89 60 90 63 91
REMARK SMILES IDX 57 92 58 93 61 94 59 95 85 96 86 97 94 98 87 99 88 100
REMARK SMILES IDX 92 101 95 102 89 103 90 104 93 105 91 106 70 107 71 108
REMARK SMILES IDX 79 109 72 110 73 111 77 112 80 113 74 114 75 115 78 116
REMARK SMILES IDX 76 117
REMARK H PARENT 36 4 8 21 33 38 31 40 20 42 22 44 41 51 100 70 68 81
REMARK Flexibility Score: 80.00
ROOT
ATOM      1  O   UNL     1       1.168   0.314  -0.291  1.00  0.00    -0.270 OA
ATOM      2  C   UNL     1       2.345  -0.024  -0.226  1.00  0.00     0.243 C 
ATOM      3  N   UNL     1       2.927  -0.926  -1.064  1.00  0.00    -0.353 N 
ATOM      4  H   UNL     1       3.871  -1.177  -0.937  1.00  0.00     0.163 HD
ENDROOT
BRANCH   2   5
ATOM      5  C   UNL     1       3.189   0.556   0.845  1.00  0.00     0.068 C 
ATOM      6  C   UNL     1       4.528   0.671   0.990  1.00  0.00    -0.005 C 
BRANCH   6   7
ATOM      7  C   UNL     1       5.147   1.541   2.128  1.00  0.00     0.051 C 
ATOM      8  C   UNL     1       5.018   2.960   1.643  1.00  0.00     0.040 C 
ATOM      9  C   UNL     1       4.355   1.306   3.397  1.00  0.00     0.018 C 
ATOM     10  C   UNL     1       6.572   1.085   2.623  1.00  0.00     0.087 CG0
ATOM     11  C   UNL     1       4.121   3.822   2.141  1.00  0.00     0.160 C 
ATOM     12  C   UNL     1       3.477   2.141   3.960  1.00  0.00     0.065 C 
ATOM     13  C   UNL     1       4.837   0.030   3.981  1.00  0.00     0.186 C 
ATOM     14  C   UNL     1       6.219  -0.137   3.451  1.00  0.00     0.009 C 
ATOM     15  G   UNL     1       7.354   2.032   3.609  1.00  0.00     0.000 G0
ATOM     16  C   UNL     1       3.255   3.455   3.309  1.00  0.00     0.220 C 
ATOM     17  O   UNL     1       4.261  -0.674   4.772  1.00  0.00    -0.289 OA
ATOM     18  C   UNL     1       7.074  -1.089   3.832  1.00  0.00     0.020 C 
ATOM     19  O   UNL     1       2.436   4.263   3.732  1.00  0.00    -0.286 OA
BRANCH  11  20
ATOM     20  O   UNL     1       3.986   5.086   1.602  1.00  0.00    -0.504 OA
ATOM     21  H   UNL     1       4.513   5.343   0.872  1.00  0.00     0.293 HD
ENDBRANCH  11  20
BRANCH  18  22
ATOM     22  C   UNL     1       8.507  -0.880   3.580  1.00  0.00     0.021 A 
ATOM     23  C   UNL     1       9.305  -1.944   3.131  1.00  0.00     0.062 A 
ATOM     24  C   UNL     1       9.115   0.359   3.884  1.00  0.00     0.131 A 
ATOM     25  C   UNL     1      10.682  -1.762   3.010  1.00  0.00     0.158 A 
ATOM     26  C   UNL     1      10.502   0.501   3.825  1.00  0.00     0.097 A 
ATOM     27  C   UNL     1      11.272  -0.554   3.370  1.00  0.00     0.161 A 
BRANCH  24  28
ATOM     28  O   UNL     1       8.439   1.444   4.375  1.00  0.00    -0.484 OA
BRANCH  28  29
ATOM     29  C   UNL     1       7.354   2.032   3.609  1.00  0.00     0.213 CG0
ATOM     30  G   UNL     1       6.572   1.085   2.623  1.00  0.00     0.000 G0
BRANCH  29  31
ATOM     31  C   UNL     1       7.870   3.317   2.980  1.00  0.00    -0.003 A 
ATOM     32  C   UNL     1       7.181   4.525   3.196  1.00  0.00     0.011 A 
ATOM     33  C   UNL     1       9.009   3.341   2.163  1.00  0.00     0.057 A 
ATOM     34  C   UNL     1       7.521   5.684   2.496  1.00  0.00     0.050 A 
ATOM     35  C   UNL     1       9.394   4.523   1.530  1.00  0.00     0.157 A 
ATOM     36  C   UNL     1       8.617   5.670   1.644  1.00  0.00     0.157 A 
BRANCH  35  37
ATOM     37  O   UNL     1      10.528   4.544   0.769  1.00  0.00    -0.504 OA
ATOM     38  H   UNL     1      10.790   5.336   0.342  1.00  0.00     0.293 HD
ENDBRANCH  35  37
BRANCH  36  39
ATOM     39  O   UNL     1       8.938   6.782   0.922  1.00  0.00    -0.504 OA
ATOM     40  H   UNL     1       8.416   7.557   0.998  1.00  0.00     0.293 HD
ENDBRANCH  36  39
ENDBRANCH  29  31
ENDBRANCH  28  29
ENDBRANCH  24  28
BRANCH  25  41
ATOM     41  O   UNL     1      11.510  -2.753   2.559  1.00  0.00    -0.504 OA
ATOM     42  H   UNL     1      11.154  -3.582   2.306  1.00  0.00     0.293 HD
ENDBRANCH  25  41
BRANCH  27  43
ATOM     43  O   UNL     1      12.625  -0.394   3.283  1.00  0.00    -0.504 OA
ATOM     44  H   UNL     1      13.161  -1.099   2.977  1.00  0.00     0.293 HD
ENDBRANCH  27  43
ENDBRANCH  18  22
ENDBRANCH   6   7
ENDBRANCH   2   5
BRANCH   3  45
ATOM     45  C   UNL     1       2.160  -1.519  -2.145  1.00  0.00     0.116 C 
BRANCH  45  46
ATOM     46  C   UNL     1       2.376  -0.792  -3.471  1.00  0.00     0.023 C 
BRANCH  46  47
ATOM     47  C   UNL     1       3.832  -0.737  -3.932  1.00  0.00     0.023 C 
BRANCH  47  48
ATOM     48  C   UNL     1       4.562  -2.073  -3.934  1.00  0.00     0.116 C 
BRANCH  48  49
ATOM     49  N   UNL     1       3.986  -3.052  -4.842  1.00  0.00    -0.352 N 
ATOM     50  C   UNL     1       4.637  -3.921  -5.688  1.00  0.00     0.251 C 
ATOM     51  H   UNL     1       3.002  -3.100  -4.852  1.00  0.00     0.163 HD
ATOM     52  O   UNL     1       4.008  -4.627  -6.468  1.00  0.00    -0.269 OA
BRANCH  50  53
ATOM     53  C   UNL     1       6.115  -3.955  -5.684  1.00  0.00     0.039 A 
ATOM     54  C   UNL     1       6.819  -4.031  -4.480  1.00  0.00     0.014 A 
ATOM     55  C   UNL     1       6.799  -3.835  -6.896  1.00  0.00     0.014 A 
ATOM     56  C   UNL     1       8.190  -3.803  -4.474  1.00  0.00     0.010 A 
ATOM     57  C   UNL     1       8.189  -3.691  -6.893  1.00  0.00     0.010 A 
ATOM     58  C   UNL     1       8.888  -3.614  -5.679  1.00  0.00    -0.014 A 
BRANCH  58  59
ATOM     59  C   UNL     1      10.342  -3.313  -5.639  1.00  0.00     0.031 A 
ATOM     60  C   UNL     1      10.868  -1.983  -6.109  1.00  0.00     0.074 A 
ATOM     61  C   UNL     1      11.189  -4.224  -5.124  1.00  0.00     0.049 A 
ATOM     62  N   UNL     1      12.101  -1.539  -6.118  1.00  0.00    -0.248 NA
ATOM     63  C   UNL     1       9.886  -1.027  -6.642  1.00  0.00     0.031 C 
ATOM     64  C   UNL     1      10.801  -5.546  -4.633  1.00  0.00     0.029 A 
ATOM     65  N   UNL     1      12.542  -4.170  -4.905  1.00  0.00    -0.354 N 
ATOM     66  C   UNL     1      12.044  -0.268  -6.676  1.00  0.00     0.074 A 
ATOM     67  C   UNL     1      10.661  -0.019  -7.018  1.00  0.00     0.031 C 
ATOM     68  C   UNL     1      11.880  -6.158  -4.124  1.00  0.00     0.029 A 
ATOM     69  C   UNL     1      13.044  -5.297  -4.305  1.00  0.00     0.049 A 
ATOM     70  H   UNL     1      13.099  -3.397  -5.155  1.00  0.00     0.167 HD
ATOM     71  C   UNL     1      13.053   0.615  -6.872  1.00  0.00     0.037 A 
ATOM     72  C   UNL     1      14.304  -5.611  -3.949  1.00  0.00     0.037 A 
ATOM     73  C   UNL     1      14.425   0.378  -6.503  1.00  0.00     0.049 A 
ATOM     74  C   UNL     1      15.409  -4.628  -4.204  1.00  0.00     0.074 A 
ATOM     75  C   UNL     1      15.507   1.233  -6.617  1.00  0.00     0.029 A 
ATOM     76  N   UNL     1      14.903  -0.801  -5.952  1.00  0.00    -0.354 N 
ATOM     77  N   UNL     1      15.338  -3.422  -4.712  1.00  0.00    -0.248 NA
ATOM     78  C   UNL     1      16.769  -5.052  -3.846  1.00  0.00     0.031 C 
ATOM     79  C   UNL     1      16.649   0.555  -6.177  1.00  0.00     0.029 A 
ATOM     80  C   UNL     1      16.271  -0.706  -5.746  1.00  0.00     0.049 A 
ATOM     81  H   UNL     1      14.353  -1.589  -5.737  1.00  0.00     0.167 HD
ATOM     82  C   UNL     1      16.640  -2.942  -4.736  1.00  0.00     0.074 A 
ATOM     83  C   UNL     1      17.478  -3.978  -4.167  1.00  0.00     0.031 C 
ATOM     84  C   UNL     1      17.096  -1.750  -5.193  1.00  0.00     0.037 A 
BRANCH  71  85
ATOM     85  C   UNL     1      12.718   1.923  -7.527  1.00  0.00     0.064 A 
ATOM     86  C   UNL     1      12.003   2.925  -6.854  1.00  0.00     0.173 A 
ATOM     87  C   UNL     1      13.162   2.198  -8.830  1.00  0.00     0.173 A 
ATOM     88  F   UNL     1      11.545   2.706  -5.612  1.00  0.00    -0.203 F 
ATOM     89  C   UNL     1      11.727   4.144  -7.467  1.00  0.00     0.198 A 
ATOM     90  C   UNL     1      12.907   3.429  -9.431  1.00  0.00     0.198 A 
ATOM     91  F   UNL     1      13.855   1.277  -9.517  1.00  0.00    -0.203 F 
ATOM     92  F   UNL     1      11.006   5.070  -6.820  1.00  0.00    -0.200 F 
ATOM     93  C   UNL     1      12.185   4.398  -8.752  1.00  0.00     0.200 A 
ATOM     94  F   UNL     1      13.360   3.676 -10.668  1.00  0.00    -0.200 F 
ATOM     95  F   UNL     1      11.925   5.575  -9.338  1.00  0.00    -0.200 F 
ENDBRANCH  71  85
BRANCH  72  96
ATOM     96  C   UNL     1      14.565  -6.919  -3.300  1.00  0.00     0.064 A 
ATOM     97  C   UNL     1      14.858  -6.995  -1.933  1.00  0.00     0.173 A 
ATOM     98  C   UNL     1      14.455  -8.120  -4.017  1.00  0.00     0.173 A 
ATOM     99  F   UNL     1      14.984  -5.872  -1.212  1.00  0.00    -0.203 F 
ATOM    100  C   UNL     1      15.027  -8.226  -1.304  1.00  0.00     0.198 A 
ATOM    101  C   UNL     1      14.599  -9.351  -3.381  1.00  0.00     0.198 A 
ATOM    102  F   UNL     1      14.166  -8.097  -5.326  1.00  0.00    -0.203 F 
ATOM    103  F   UNL     1      15.316  -8.273   0.004  1.00  0.00    -0.200 F 
ATOM    104  C   UNL     1      14.886  -9.403  -2.026  1.00  0.00     0.200 A 
ATOM    105  F   UNL     1      14.440 -10.485  -4.077  1.00  0.00    -0.200 F 
ATOM    106  F   UNL     1      15.019 -10.587  -1.413  1.00  0.00    -0.200 F 
ENDBRANCH  72  96
BRANCH  84 107
ATOM    107  C   UNL     1      18.572  -1.497  -5.106  1.00  0.00     0.064 A 
ATOM    108  C   UNL     1      19.470  -2.123  -5.982  1.00  0.00     0.173 A 
ATOM    109  C   UNL     1      19.085  -0.571  -4.186  1.00  0.00     0.173 A 
ATOM    110  F   UNL     1      19.029  -3.028  -6.869  1.00  0.00    -0.203 F 
ATOM    111  C   UNL     1      20.832  -1.840  -5.931  1.00  0.00     0.198 A 
ATOM    112  C   UNL     1      20.444  -0.271  -4.155  1.00  0.00     0.198 A 
ATOM    113  F   UNL     1      18.265   0.058  -3.331  1.00  0.00    -0.203 F 
ATOM    114  F   UNL     1      21.678  -2.474  -6.756  1.00  0.00    -0.200 F 
ATOM    115  C   UNL     1      21.317  -0.908  -5.025  1.00  0.00     0.200 A 
ATOM    116  F   UNL     1      20.909   0.638  -3.288  1.00  0.00    -0.200 F 
ATOM    117  F   UNL     1      22.626  -0.626  -4.988  1.00  0.00    -0.200 F 
ENDBRANCH  84 107
ENDBRANCH  58  59
ENDBRANCH  50  53
ENDBRANCH  48  49
ENDBRANCH  47  48
ENDBRANCH  46  47
ENDBRANCH  45  46
ENDBRANCH   3  45
TORSDOF 18
