REMARK SMILES C[C@@H](C(=O)NCCCCNC(=O)c1ccc(-c2c3nc(c(-c4c(F)c(F)c(F)c(F)c4F)c4ccc([nH]4)c(-c4c(F)c(F)c(F)c(F)c4F)c4nc(c(-c5c(F)c(F)c(F)c(F)c5F)c5ccc2[nH]5)C=C4)C=C3)cc1)[N@@H+]1CCc2n[nH]c(C(c3ccccc3)c3ccccc3)c2C1
REMARK SMILES IDX 7 1 6 2 5 3 3 4 4 5 2 7 1 8 76 9 77 10 97 11 78 13 96 14
REMARK SMILES IDX 79 15 82 16 80 17 81 18 83 20 84 21 85 22 89 23 86 24 88 25
REMARK SMILES IDX 87 26 90 27 91 28 95 29 92 30 94 31 93 32 8 33 9 34 10 35
REMARK SMILES IDX 11 36 12 38 13 39 14 40 75 41 15 42 74 43 16 44 17 45 18 46
REMARK SMILES IDX 68 47 19 48 73 49 67 50 69 51 20 52 72 53 66 54 65 55 21 57
REMARK SMILES IDX 53 58 33 59 52 60 34 61 37 62 51 63 70 64 35 65 36 66 50 68
REMARK SMILES IDX 71 69 38 70 22 71 23 72 31 73 24 74 25 75 29 76 32 77 26 78
REMARK SMILES IDX 27 79 30 80 28 81 54 82 55 83 63 84 56 85 57 86 61 87 64 88
REMARK SMILES IDX 58 89 59 90 62 91 60 92 39 93 40 94 48 95 41 96 42 97 46 98
REMARK SMILES IDX 49 99 43 100 44 101 47 102 45 103
REMARK H PARENT 5 6 76 12 81 19 10 37 69 56 37 67
REMARK Flexibility Score: inf
ROOT
ATOM      1  C   UNL     1       4.104   1.795   0.608  1.00  0.00     0.023 C 
ENDROOT
BRANCH   1   2
ATOM      2  C   UNL     1       3.531   2.486   1.837  1.00  0.00     0.116 C 
BRANCH   2   3
ATOM      3  N   UNL     1       2.323   3.274   1.646  1.00  0.00    -0.351 N 
ATOM      4  C   UNL     1       1.022   2.934   1.921  1.00  0.00     0.278 C 
ATOM      5  O   UNL     1       0.387   3.760   2.591  1.00  0.00    -0.268 OA
ATOM      6  H   UNL     1       2.457   4.173   1.267  1.00  0.00     0.163 HD
BRANCH   4   7
ATOM      7  C   UNL     1       0.286   1.705   1.307  1.00  0.00     0.271 C 
ATOM      8  C   UNL     1       0.977   0.360   1.422  1.00  0.00     0.086 C 
BRANCH   7   9
ATOM      9  N   UNL     1      -0.182   2.040  -0.065  1.00  0.00    -0.321 N 
ATOM     10  C   UNL     1      -1.325   1.230  -0.553  1.00  0.00     0.269 C 
ATOM     11  C   UNL     1       0.896   2.285  -1.036  1.00  0.00     0.303 C 
ATOM     12  H   UNL     1      -0.605   2.962   0.037  1.00  0.00     0.349 HD
ATOM     13  C   UNL     1      -1.664   1.437  -2.062  1.00  0.00     0.120 C 
ATOM     14  C   UNL     1       0.838   1.380  -2.211  1.00  0.00     0.052 A 
ATOM     15  C   UNL     1      -0.417   1.158  -2.813  1.00  0.00     0.077 A 
ATOM     16  C   UNL     1       1.678   0.500  -2.883  1.00  0.00     0.056 A 
ATOM     17  N   UNL     1      -0.327   0.533  -3.981  1.00  0.00    -0.180 NA
ATOM     18  N   UNL     1       0.989   0.273  -4.063  1.00  0.00    -0.281 N 
ATOM     19  H   UNL     1       1.423  -0.049  -4.886  1.00  0.00     0.190 HD
BRANCH  16  20
ATOM     20  C   UNL     1       3.048  -0.138  -2.645  1.00  0.00     0.098 C 
BRANCH  20  21
ATOM     21  C   UNL     1       3.159  -1.021  -1.383  1.00  0.00    -0.035 A 
ATOM     22  C   UNL     1       4.402  -1.139  -0.726  1.00  0.00     0.005 A 
ATOM     23  C   UNL     1       2.104  -1.833  -0.929  1.00  0.00     0.005 A 
ATOM     24  C   UNL     1       4.557  -1.963   0.394  1.00  0.00     0.000 A 
ATOM     25  C   UNL     1       2.268  -2.674   0.180  1.00  0.00     0.000 A 
ATOM     26  C   UNL     1       3.487  -2.724   0.852  1.00  0.00     0.000 A 
ENDBRANCH  20  21
BRANCH  20  27
ATOM     27  C   UNL     1       3.532  -0.919  -3.883  1.00  0.00    -0.035 A 
ATOM     28  C   UNL     1       3.393  -2.318  -3.981  1.00  0.00     0.005 A 
ATOM     29  C   UNL     1       4.008  -0.218  -5.002  1.00  0.00     0.005 A 
ATOM     30  C   UNL     1       3.693  -2.992  -5.160  1.00  0.00     0.000 A 
ATOM     31  C   UNL     1       4.283  -0.894  -6.192  1.00  0.00     0.000 A 
ATOM     32  C   UNL     1       4.121  -2.277  -6.271  1.00  0.00     0.000 A 
ENDBRANCH  20  27
ENDBRANCH  16  20
ENDBRANCH   7   9
ENDBRANCH   4   7
ENDBRANCH   2   3
ENDBRANCH   1   2
BRANCH   1  33
ATOM     33  C   UNL     1       4.697   2.681  -0.488  1.00  0.00     0.023 C 
BRANCH  33  34
ATOM     34  C   UNL     1       6.017   3.362  -0.157  1.00  0.00     0.116 C 
BRANCH  34  35
ATOM     35  N   UNL     1       7.096   2.443   0.188  1.00  0.00    -0.352 N 
ATOM     36  C   UNL     1       8.427   2.455  -0.169  1.00  0.00     0.251 C 
ATOM     37  H   UNL     1       6.832   1.694   0.769  1.00  0.00     0.163 HD
ATOM     38  O   UNL     1       9.164   1.544   0.204  1.00  0.00    -0.269 OA
BRANCH  36  39
ATOM     39  C   UNL     1       8.969   3.527  -1.037  1.00  0.00     0.039 A 
ATOM     40  C   UNL     1       9.906   3.202  -2.027  1.00  0.00     0.014 A 
ATOM     41  C   UNL     1       8.540   4.845  -0.904  1.00  0.00     0.014 A 
ATOM     42  C   UNL     1      10.323   4.174  -2.944  1.00  0.00     0.010 A 
ATOM     43  C   UNL     1       8.862   5.778  -1.879  1.00  0.00     0.010 A 
ATOM     44  C   UNL     1       9.758   5.457  -2.912  1.00  0.00    -0.014 A 
BRANCH  44  45
ATOM     45  C   UNL     1      10.071   6.511  -3.913  1.00  0.00     0.031 A 
ATOM     46  C   UNL     1      10.588   7.841  -3.437  1.00  0.00     0.074 A 
ATOM     47  C   UNL     1       9.737   6.342  -5.207  1.00  0.00     0.049 A 
ATOM     48  N   UNL     1      10.650   8.986  -4.066  1.00  0.00    -0.248 NA
ATOM     49  C   UNL     1      11.030   7.899  -2.035  1.00  0.00     0.031 C 
ATOM     50  C   UNL     1       9.175   5.124  -5.790  1.00  0.00     0.029 A 
ATOM     51  N   UNL     1       9.786   7.221  -6.262  1.00  0.00    -0.354 N 
ATOM     52  C   UNL     1      11.066   9.911  -3.116  1.00  0.00     0.074 A 
ATOM     53  C   UNL     1      11.200   9.201  -1.863  1.00  0.00     0.031 C 
ATOM     54  C   UNL     1       8.935   5.329  -7.095  1.00  0.00     0.029 A 
ATOM     55  C   UNL     1       9.279   6.707  -7.431  1.00  0.00     0.049 A 
ATOM     56  H   UNL     1      10.150   8.133  -6.187  1.00  0.00     0.167 HD
ATOM     57  C   UNL     1      11.328  11.230  -3.280  1.00  0.00     0.037 A 
ATOM     58  C   UNL     1       9.091   7.288  -8.631  1.00  0.00     0.037 A 
ATOM     59  C   UNL     1      11.270  11.906  -4.548  1.00  0.00     0.049 A 
ATOM     60  C   UNL     1       9.470   8.732  -8.816  1.00  0.00     0.074 A 
ATOM     61  C   UNL     1      11.617  13.210  -4.849  1.00  0.00     0.029 A 
ATOM     62  N   UNL     1      10.848  11.318  -5.733  1.00  0.00    -0.354 N 
ATOM     63  N   UNL     1       9.911   9.588  -7.927  1.00  0.00    -0.248 NA
ATOM     64  C   UNL     1       9.330   9.289 -10.168  1.00  0.00     0.031 C 
ATOM     65  C   UNL     1      11.378  13.421  -6.212  1.00  0.00     0.029 A 
ATOM     66  C   UNL     1      10.922  12.236  -6.767  1.00  0.00     0.049 A 
ATOM     67  H   UNL     1      10.542  10.387  -5.824  1.00  0.00     0.167 HD
ATOM     68  C   UNL     1      10.127  10.775  -8.613  1.00  0.00     0.074 A 
ATOM     69  C   UNL     1       9.773  10.527  -9.996  1.00  0.00     0.031 C 
ATOM     70  C   UNL     1      10.581  11.962  -8.141  1.00  0.00     0.037 A 
BRANCH  57  71
ATOM     71  C   UNL     1      11.698  12.018  -2.056  1.00  0.00     0.064 A 
ATOM     72  C   UNL     1      12.900  11.797  -1.365  1.00  0.00     0.173 A 
ATOM     73  C   UNL     1      10.830  13.002  -1.557  1.00  0.00     0.173 A 
ATOM     74  F   UNL     1      13.761  10.861  -1.792  1.00  0.00    -0.203 F 
ATOM     75  C   UNL     1      13.193  12.490  -0.194  1.00  0.00     0.198 A 
ATOM     76  C   UNL     1      11.144  13.720  -0.406  1.00  0.00     0.198 A 
ATOM     77  F   UNL     1       9.672  13.263  -2.181  1.00  0.00    -0.203 F 
ATOM     78  F   UNL     1      14.310  12.203   0.490  1.00  0.00    -0.200 F 
ATOM     79  C   UNL     1      12.317  13.453   0.283  1.00  0.00     0.200 A 
ATOM     80  F   UNL     1      10.303  14.660   0.046  1.00  0.00    -0.200 F 
ATOM     81  F   UNL     1      12.597  14.114   1.415  1.00  0.00    -0.200 F 
ENDBRANCH  57  71
BRANCH  58  82
ATOM     82  C   UNL     1       8.545   6.484  -9.755  1.00  0.00     0.064 A 
ATOM     83  C   UNL     1       9.378   6.061 -10.800  1.00  0.00     0.173 A 
ATOM     84  C   UNL     1       7.202   6.084  -9.786  1.00  0.00     0.173 A 
ATOM     85  F   UNL     1      10.666   6.433 -10.820  1.00  0.00    -0.203 F 
ATOM     86  C   UNL     1       8.886   5.271 -11.837  1.00  0.00     0.198 A 
ATOM     87  C   UNL     1       6.717   5.275 -10.813  1.00  0.00     0.198 A 
ATOM     88  F   UNL     1       6.367   6.454  -8.804  1.00  0.00    -0.203 F 
ATOM     89  F   UNL     1       9.699   4.900 -12.836  1.00  0.00    -0.200 F 
ATOM     90  C   UNL     1       7.558   4.872 -11.839  1.00  0.00     0.200 A 
ATOM     91  F   UNL     1       5.437   4.877 -10.801  1.00  0.00    -0.200 F 
ATOM     92  F   UNL     1       7.090   4.099 -12.828  1.00  0.00    -0.200 F 
ENDBRANCH  58  82
BRANCH  70  93
ATOM     93  C   UNL     1      10.766  13.075  -9.128  1.00  0.00     0.064 A 
ATOM     94  C   UNL     1       9.676  13.785  -9.650  1.00  0.00     0.173 A 
ATOM     95  C   UNL     1      12.057  13.482  -9.497  1.00  0.00     0.173 A 
ATOM     96  F   UNL     1       8.422  13.423  -9.337  1.00  0.00    -0.203 F 
ATOM     97  C   UNL     1       9.872  14.858 -10.514  1.00  0.00     0.198 A 
ATOM     98  C   UNL     1      12.250  14.571 -10.341  1.00  0.00     0.198 A 
ATOM     99  F   UNL     1      13.132  12.836  -9.019  1.00  0.00    -0.203 F 
ATOM    100  F   UNL     1       8.816  15.507 -11.024  1.00  0.00    -0.200 F 
ATOM    101  C   UNL     1      11.158  15.256 -10.851  1.00  0.00     0.200 A 
ATOM    102  F   UNL     1      13.493  14.961 -10.656  1.00  0.00    -0.200 F 
ATOM    103  F   UNL     1      11.344  16.300 -11.671  1.00  0.00    -0.200 F 
ENDBRANCH  70  93
ENDBRANCH  44  45
ENDBRANCH  36  39
ENDBRANCH  34  35
ENDBRANCH  33  34
ENDBRANCH   1  33
TORSDOF 15
