REMARK SMILES CC(C)C(=O)Nc1ccc(C(=O)Nc2ccc(CC(=O)NCCCCNC(=O)c3ccc(-c4c5nc(c(-c6c(F)c(F)c(F)c(F)c6F)c6ccc([nH]6)c(-c6c(F)c(F)c(F)c(F)c6F)c6nc(c(-c7c(F)c(F)c(F)c(F)c7F)c7ccc4[nH]7)C=C6)C=C5)cc3)cc2)cc1
REMARK SMILES IDX 22 1 21 2 19 3 20 4 18 6 17 7 14 8 15 9 93 10 16 11 92 12
REMARK SMILES IDX 13 13 11 14 12 15 10 17 7 18 8 19 95 20 9 21 94 22 6 23 4 24
REMARK SMILES IDX 5 25 2 27 1 28 3 29 23 30 24 31 25 32 26 33 27 34 28 36
REMARK SMILES IDX 29 37 30 38 91 39 31 40 90 41 32 42 33 43 34 44 84 45 35 46
REMARK SMILES IDX 89 47 83 48 85 49 36 50 88 51 82 52 81 53 37 55 69 56 49 57
REMARK SMILES IDX 68 58 50 59 53 60 67 61 86 62 51 63 52 64 66 66 87 67 54 68
REMARK SMILES IDX 38 69 39 70 47 71 40 72 41 73 45 74 48 75 42 76 43 77 46 78
REMARK SMILES IDX 44 79 70 80 71 81 79 82 72 83 73 84 77 85 80 86 74 87 75 88
REMARK SMILES IDX 78 89 76 90 55 91 56 92 64 93 57 94 58 95 62 96 65 97 59 98
REMARK SMILES IDX 60 99 63 100 61 101
REMARK H PARENT 21 5 13 16 6 26 26 35 85 54 53 65
REMARK Flexibility Score: inf
ROOT
ATOM      1  C   UNL     1       2.927  -4.217  -5.355  1.00  0.00     0.116 C 
ENDROOT
BRANCH   1   2
ATOM      2  N   UNL     1       4.277  -4.325  -4.843  1.00  0.00    -0.356 N 
ATOM      3  C   UNL     1       4.846  -3.645  -3.802  1.00  0.00     0.224 C 
ATOM      4  O   UNL     1       6.040  -3.828  -3.562  1.00  0.00    -0.275 OA
ATOM      5  H   UNL     1       4.861  -4.972  -5.302  1.00  0.00     0.163 HD
BRANCH   3   6
ATOM      6  C   UNL     1       3.997  -2.723  -2.942  1.00  0.00     0.135 C 
BRANCH   6   7
ATOM      7  C   UNL     1       3.558  -1.455  -3.637  1.00  0.00    -0.039 A 
ATOM      8  C   UNL     1       2.713   0.941  -4.840  1.00  0.00     0.041 A 
ATOM      9  C   UNL     1       4.073   0.713  -4.615  1.00  0.00     0.026 A 
ATOM     10  C   UNL     1       1.798  -0.087  -4.609  1.00  0.00     0.026 A 
ATOM     11  C   UNL     1       4.492  -0.478  -4.007  1.00  0.00     0.006 A 
ATOM     12  C   UNL     1       2.207  -1.248  -3.950  1.00  0.00     0.006 A 
BRANCH   8  13
ATOM     13  N   UNL     1       2.305   2.249  -5.161  1.00  0.00    -0.322 N 
ATOM     14  C   UNL     1       1.208   2.985  -4.725  1.00  0.00     0.255 C 
ATOM     15  O   UNL     1       0.939   4.042  -5.297  1.00  0.00    -0.269 OA
ATOM     16  H   UNL     1       2.890   2.719  -5.798  1.00  0.00     0.170 HD
BRANCH  14  17
ATOM     17  C   UNL     1       0.414   2.616  -3.507  1.00  0.00     0.040 A 
ATOM     18  C   UNL     1      -1.055   1.942  -1.190  1.00  0.00     0.041 A 
ATOM     19  C   UNL     1      -1.553   2.895  -2.079  1.00  0.00     0.027 A 
ATOM     20  C   UNL     1       0.096   1.272  -1.532  1.00  0.00     0.027 A 
ATOM     21  C   UNL     1      -0.830   3.212  -3.250  1.00  0.00     0.016 A 
ATOM     22  C   UNL     1       0.897   1.721  -2.563  1.00  0.00     0.016 A 
BRANCH  18  23
ATOM     23  N   UNL     1      -1.696   1.659   0.021  1.00  0.00    -0.326 N 
ATOM     24  C   UNL     1      -1.197   1.159   1.197  1.00  0.00     0.226 C 
ATOM     25  O   UNL     1      -2.021   0.715   2.008  1.00  0.00    -0.274 OA
ATOM     26  H   UNL     1      -2.661   1.851   0.030  1.00  0.00     0.169 HD
BRANCH  24  27
ATOM     27  C   UNL     1       0.298   1.197   1.603  1.00  0.00     0.072 C 
ATOM     28  C   UNL     1       1.151  -0.007   1.196  1.00  0.00     0.018 C 
ATOM     29  C   UNL     1       0.999   2.531   1.349  1.00  0.00     0.018 C 
ENDBRANCH  24  27
ENDBRANCH  18  23
ENDBRANCH  14  17
ENDBRANCH   8  13
ENDBRANCH   6   7
ENDBRANCH   3   6
ENDBRANCH   1   2
BRANCH   1  30
ATOM     30  C   UNL     1       2.825  -3.175  -6.471  1.00  0.00     0.023 C 
BRANCH  30  31
ATOM     31  C   UNL     1       3.414  -3.606  -7.808  1.00  0.00     0.023 C 
BRANCH  31  32
ATOM     32  C   UNL     1       2.778  -4.846  -8.411  1.00  0.00     0.116 C 
BRANCH  32  33
ATOM     33  N   UNL     1       1.343  -4.716  -8.623  1.00  0.00    -0.352 N 
ATOM     34  C   UNL     1       0.593  -5.200  -9.667  1.00  0.00     0.251 C 
ATOM     35  H   UNL     1       0.849  -4.219  -7.931  1.00  0.00     0.163 HD
ATOM     36  O   UNL     1      -0.599  -4.930  -9.765  1.00  0.00    -0.269 OA
BRANCH  34  37
ATOM     37  C   UNL     1       1.263  -6.011 -10.702  1.00  0.00     0.039 A 
ATOM     38  C   UNL     1       1.140  -5.630 -12.039  1.00  0.00     0.014 A 
ATOM     39  C   UNL     1       2.083  -7.082 -10.336  1.00  0.00     0.014 A 
ATOM     40  C   UNL     1       1.915  -6.270 -13.006  1.00  0.00     0.010 A 
ATOM     41  C   UNL     1       2.906  -7.668 -11.289  1.00  0.00     0.010 A 
ATOM     42  C   UNL     1       2.840  -7.257 -12.630  1.00  0.00    -0.014 A 
BRANCH  42  43
ATOM     43  C   UNL     1       3.780  -7.848 -13.613  1.00  0.00     0.031 A 
ATOM     44  C   UNL     1       3.706  -9.310 -13.940  1.00  0.00     0.074 A 
ATOM     45  C   UNL     1       4.755  -7.082 -14.140  1.00  0.00     0.049 A 
ATOM     46  N   UNL     1       4.498 -10.030 -14.693  1.00  0.00    -0.248 NA
ATOM     47  C   UNL     1       2.614 -10.071 -13.314  1.00  0.00     0.031 C 
ATOM     48  C   UNL     1       4.959  -5.659 -13.858  1.00  0.00     0.029 A 
ATOM     49  N   UNL     1       5.769  -7.396 -15.009  1.00  0.00    -0.354 N 
ATOM     50  C   UNL     1       4.008 -11.326 -14.622  1.00  0.00     0.074 A 
ATOM     51  C   UNL     1       2.882 -11.306 -13.714  1.00  0.00     0.031 C 
ATOM     52  C   UNL     1       6.021  -5.221 -14.553  1.00  0.00     0.029 A 
ATOM     53  C   UNL     1       6.596  -6.338 -15.296  1.00  0.00     0.049 A 
ATOM     54  H   UNL     1       5.892  -8.295 -15.391  1.00  0.00     0.167 HD
ATOM     55  C   UNL     1       4.447 -12.429 -15.274  1.00  0.00     0.037 A 
ATOM     56  C   UNL     1       7.702  -6.279 -16.062  1.00  0.00     0.037 A 
ATOM     57  C   UNL     1       5.553 -12.439 -16.195  1.00  0.00     0.049 A 
ATOM     58  C   UNL     1       8.177  -7.523 -16.762  1.00  0.00     0.074 A 
ATOM     59  C   UNL     1       6.027 -13.488 -16.961  1.00  0.00     0.029 A 
ATOM     60  N   UNL     1       6.360 -11.345 -16.470  1.00  0.00    -0.354 N 
ATOM     61  N   UNL     1       7.662  -8.728 -16.746  1.00  0.00    -0.248 NA
ATOM     62  C   UNL     1       9.388  -7.398 -17.586  1.00  0.00     0.031 C 
ATOM     63  C   UNL     1       7.151 -13.043 -17.664  1.00  0.00     0.029 A 
ATOM     64  C   UNL     1       7.349 -11.703 -17.372  1.00  0.00     0.049 A 
ATOM     65  H   UNL     1       6.248 -10.447 -16.081  1.00  0.00     0.167 HD
ATOM     66  C   UNL     1       8.470  -9.498 -17.571  1.00  0.00     0.074 A 
ATOM     67  C   UNL     1       9.501  -8.621 -18.085  1.00  0.00     0.031 C 
ATOM     68  C   UNL     1       8.367 -10.816 -17.873  1.00  0.00     0.037 A 
BRANCH  55  69
ATOM     69  C   UNL     1       3.725 -13.718 -15.018  1.00  0.00     0.064 A 
ATOM     70  C   UNL     1       2.424 -13.939 -15.497  1.00  0.00     0.173 A 
ATOM     71  C   UNL     1       4.354 -14.760 -14.321  1.00  0.00     0.173 A 
ATOM     72  F   UNL     1       1.775 -12.970 -16.158  1.00  0.00    -0.203 F 
ATOM     73  C   UNL     1       1.771 -15.146 -15.264  1.00  0.00     0.198 A 
ATOM     74  C   UNL     1       3.708 -15.976 -14.115  1.00  0.00     0.198 A 
ATOM     75  F   UNL     1       5.598 -14.602 -13.845  1.00  0.00    -0.203 F 
ATOM     76  F   UNL     1       0.512 -15.317 -15.691  1.00  0.00    -0.200 F 
ATOM     77  C   UNL     1       2.415 -16.166 -14.580  1.00  0.00     0.200 A 
ATOM     78  F   UNL     1       4.336 -16.965 -13.463  1.00  0.00    -0.200 F 
ATOM     79  F   UNL     1       1.787 -17.330 -14.363  1.00  0.00    -0.200 F 
ENDBRANCH  55  69
BRANCH  56  80
ATOM     80  C   UNL     1       8.430  -4.993 -16.217  1.00  0.00     0.064 A 
ATOM     81  C   UNL     1       8.416  -4.303 -17.437  1.00  0.00     0.173 A 
ATOM     82  C   UNL     1       9.151  -4.428 -15.155  1.00  0.00     0.173 A 
ATOM     83  F   UNL     1       7.758  -4.815 -18.487  1.00  0.00    -0.203 F 
ATOM     84  C   UNL     1       9.111  -3.106 -17.594  1.00  0.00     0.198 A 
ATOM     85  C   UNL     1       9.823  -3.217 -15.306  1.00  0.00     0.198 A 
ATOM     86  F   UNL     1       9.191  -5.047 -13.966  1.00  0.00    -0.203 F 
ATOM     87  F   UNL     1       9.117  -2.489 -18.784  1.00  0.00    -0.200 F 
ATOM     88  C   UNL     1       9.809  -2.561 -16.527  1.00  0.00     0.200 A 
ATOM     89  F   UNL     1      10.485  -2.687 -14.268  1.00  0.00    -0.200 F 
ATOM     90  F   UNL     1      10.474  -1.407 -16.678  1.00  0.00    -0.200 F 
ENDBRANCH  56  80
BRANCH  68  91
ATOM     91  C   UNL     1       9.384 -11.385 -18.818  1.00  0.00     0.064 A 
ATOM     92  C   UNL     1      10.710 -11.610 -18.418  1.00  0.00     0.173 A 
ATOM     93  C   UNL     1       9.018 -11.751 -20.122  1.00  0.00     0.173 A 
ATOM     94  F   UNL     1      11.112 -11.260 -17.187  1.00  0.00    -0.203 F 
ATOM     95  C   UNL     1      11.636 -12.165 -19.296  1.00  0.00     0.198 A 
ATOM     96  C   UNL     1       9.940 -12.332 -20.988  1.00  0.00     0.198 A 
ATOM     97  F   UNL     1       7.761 -11.561 -20.550  1.00  0.00    -0.203 F 
ATOM     98  F   UNL     1      12.907 -12.334 -18.907  1.00  0.00    -0.200 F 
ATOM     99  C   UNL     1      11.249 -12.533 -20.577  1.00  0.00     0.200 A 
ATOM    100  F   UNL     1       9.561 -12.698 -22.220  1.00  0.00    -0.200 F 
ATOM    101  F   UNL     1      12.140 -13.076 -21.417  1.00  0.00    -0.200 F 
ENDBRANCH  68  91
ENDBRANCH  42  43
ENDBRANCH  34  37
ENDBRANCH  32  33
ENDBRANCH  31  32
ENDBRANCH  30  31
ENDBRANCH   1  30
TORSDOF 16
