REMARK SMILES Cc1cc(NS(=O)(=O)c2ccc(NC(=O)[C@@H]3CCCC[C@@H]3C(=O)NCCCCNC(=O)c3ccc(-c4c5nc(c(-c6c(F)c(F)c(F)c(F)c6F)c6ccc([nH]6)c(-c6c(F)c(F)c(F)c(F)c6F)c6nc(c(-c7c(F)c(F)c(F)c(F)c7F)c7ccc4[nH]7)C=C6)C=C5)cc3)cc2)no1
REMARK SMILES IDX 25 1 24 2 22 3 23 4 21 6 16 7 17 8 18 9 20 10 19 11 14 12
REMARK SMILES IDX 13 13 15 15 12 16 9 17 10 18 96 19 11 20 95 21 6 22 7 23
REMARK SMILES IDX 8 24 5 25 4 27 1 28 2 29 3 30 98 31 97 32 26 33 27 34 28 35
REMARK SMILES IDX 29 36 30 37 31 39 32 40 33 41 94 42 34 43 93 44 35 45 36 46
REMARK SMILES IDX 37 47 87 48 38 49 92 50 86 51 88 52 39 53 91 54 85 55 84 56
REMARK SMILES IDX 40 58 72 59 52 60 71 61 53 62 56 63 70 64 89 65 54 66 55 67
REMARK SMILES IDX 69 69 90 70 57 71 41 72 42 73 50 74 43 75 44 76 48 77 51 78
REMARK SMILES IDX 45 79 46 80 49 81 47 82 73 83 74 84 82 85 75 86 76 87 80 88
REMARK SMILES IDX 83 89 77 90 78 91 81 92 79 93 58 94 59 95 67 96 60 97 61 98
REMARK SMILES IDX 65 99 68 100 62 101 63 102 66 103 64 104
REMARK H PARENT 24 5 13 14 5 26 29 38 88 57 56 68
REMARK Flexibility Score: inf
ROOT
ATOM      1  C   UNL     1      -3.065   7.999   2.734  1.00  0.00     0.116 C 
ENDROOT
BRANCH   1   2
ATOM      2  N   UNL     1      -3.628   6.780   3.297  1.00  0.00    -0.356 N 
ATOM      3  C   UNL     1      -3.037   5.590   3.604  1.00  0.00     0.223 C 
ATOM      4  O   UNL     1      -3.732   4.724   4.138  1.00  0.00    -0.275 OA
ATOM      5  H   UNL     1      -4.593   6.821   3.487  1.00  0.00     0.163 HD
BRANCH   3   6
ATOM      6  C   UNL     1      -1.559   5.360   3.302  1.00  0.00     0.091 C 
ATOM      7  C   UNL     1      -1.262   4.771   1.903  1.00  0.00     0.091 C 
ATOM      8  C   UNL     1      -0.881   3.290   1.786  1.00  0.00     0.014 C 
ATOM      9  C   UNL     1      -0.197   2.703   3.011  1.00  0.00     0.001 C 
ATOM     10  C   UNL     1      -0.878   4.611   4.457  1.00  0.00     0.014 C 
ATOM     11  C   UNL     1      -0.904   3.100   4.296  1.00  0.00     0.001 C 
BRANCH   7  12
ATOM     12  C   UNL     1      -2.171   5.349   0.817  1.00  0.00     0.228 C 
ATOM     13  N   UNL     1      -3.306   4.829   0.284  1.00  0.00    -0.326 N 
ATOM     14  H   UNL     1      -3.832   5.490  -0.221  1.00  0.00     0.169 HD
ATOM     15  O   UNL     1      -1.837   6.449   0.341  1.00  0.00    -0.274 OA
BRANCH  13  16
ATOM     16  C   UNL     1      -3.893   3.557   0.295  1.00  0.00     0.041 A 
ATOM     17  C   UNL     1      -4.419   0.856  -0.079  1.00  0.00     0.088 A 
ATOM     18  C   UNL     1      -4.229   1.345   1.214  1.00  0.00     0.024 A 
ATOM     19  C   UNL     1      -4.564   1.734  -1.152  1.00  0.00     0.024 A 
ATOM     20  C   UNL     1      -3.986   2.713   1.398  1.00  0.00     0.027 A 
ATOM     21  C   UNL     1      -4.321   3.091  -0.956  1.00  0.00     0.027 A 
BRANCH  17  22
ATOM     22  S   UNL     1      -4.352  -0.886  -0.400  1.00  0.00     0.263 S 
ATOM     23  O   UNL     1      -4.547  -1.107  -1.820  1.00  0.00    -0.201 OA
ATOM     24  O   UNL     1      -5.217  -1.525   0.568  1.00  0.00    -0.201 OA
BRANCH  22  25
ATOM     25  N   UNL     1      -2.805  -1.380  -0.010  1.00  0.00    -0.261 N 
ATOM     26  H   UNL     1      -2.727  -2.240   0.464  1.00  0.00     0.182 HD
BRANCH  25  27
ATOM     27  C   UNL     1      -1.618  -0.716  -0.279  1.00  0.00     0.183 A 
ATOM     28  C   UNL     1       1.987  -0.035  -0.091  1.00  0.00     0.091 C 
ATOM     29  C   UNL     1       0.532  -0.217  -0.244  1.00  0.00     0.135 A 
ATOM     30  C   UNL     1      -0.346  -1.223   0.075  1.00  0.00     0.096 A 
ATOM     31  O   UNL     1      -0.163   0.812  -0.798  1.00  0.00    -0.360 OA
ATOM     32  N   UNL     1      -1.508   0.488  -0.840  1.00  0.00    -0.061 NA
ENDBRANCH  25  27
ENDBRANCH  22  25
ENDBRANCH  17  22
ENDBRANCH  13  16
ENDBRANCH   7  12
ENDBRANCH   3   6
ENDBRANCH   1   2
BRANCH   1  33
ATOM     33  C   UNL     1      -3.845   8.488   1.514  1.00  0.00     0.023 C 
BRANCH  33  34
ATOM     34  C   UNL     1      -5.293   8.885   1.782  1.00  0.00     0.023 C 
BRANCH  34  35
ATOM     35  C   UNL     1      -5.476   9.954   2.846  1.00  0.00     0.116 C 
BRANCH  35  36
ATOM     36  N   UNL     1      -4.806  11.204   2.514  1.00  0.00    -0.352 N 
ATOM     37  C   UNL     1      -5.323  12.472   2.414  1.00  0.00     0.251 C 
ATOM     38  H   UNL     1      -3.840  11.128   2.336  1.00  0.00     0.163 HD
ATOM     39  O   UNL     1      -4.637  13.391   1.980  1.00  0.00    -0.269 OA
BRANCH  37  40
ATOM     40  C   UNL     1      -6.727  12.720   2.803  1.00  0.00     0.039 A 
ATOM     41  C   UNL     1      -7.540  13.479   1.957  1.00  0.00     0.014 A 
ATOM     42  C   UNL     1      -7.246  12.182   3.982  1.00  0.00     0.014 A 
ATOM     43  C   UNL     1      -8.894  13.633   2.257  1.00  0.00     0.010 A 
ATOM     44  C   UNL     1      -8.611  12.257   4.232  1.00  0.00     0.010 A 
ATOM     45  C   UNL     1      -9.448  12.988   3.375  1.00  0.00    -0.014 A 
BRANCH  45  46
ATOM     46  C   UNL     1     -10.899  13.069   3.675  1.00  0.00     0.031 A 
ATOM     47  C   UNL     1     -11.366  13.710   4.952  1.00  0.00     0.074 A 
ATOM     48  C   UNL     1     -11.789  12.502   2.838  1.00  0.00     0.049 A 
ATOM     49  N   UNL     1     -12.578  13.808   5.436  1.00  0.00    -0.248 NA
ATOM     50  C   UNL     1     -10.326  14.289   5.817  1.00  0.00     0.031 C 
ATOM     51  C   UNL     1     -11.456  11.803   1.596  1.00  0.00     0.029 A 
ATOM     52  N   UNL     1     -13.156  12.412   2.913  1.00  0.00    -0.354 N 
ATOM     53  C   UNL     1     -12.442  14.438   6.666  1.00  0.00     0.074 A 
ATOM     54  C   UNL     1     -11.027  14.645   6.882  1.00  0.00     0.031 C 
ATOM     55  C   UNL     1     -12.589  11.382   1.012  1.00  0.00     0.029 A 
ATOM     56  C   UNL     1     -13.723  11.746   1.855  1.00  0.00     0.049 A 
ATOM     57  H   UNL     1     -13.681  12.791   3.655  1.00  0.00     0.167 HD
ATOM     58  C   UNL     1     -13.412  14.833   7.525  1.00  0.00     0.037 A 
ATOM     59  C   UNL     1     -15.013  11.457   1.598  1.00  0.00     0.037 A 
ATOM     60  C   UNL     1     -14.820  14.652   7.291  1.00  0.00     0.049 A 
ATOM     61  C   UNL     1     -16.073  11.908   2.567  1.00  0.00     0.074 A 
ATOM     62  C   UNL     1     -15.885  15.076   8.065  1.00  0.00     0.029 A 
ATOM     63  N   UNL     1     -15.358  13.988   6.198  1.00  0.00    -0.354 N 
ATOM     64  N   UNL     1     -15.939  12.567   3.692  1.00  0.00    -0.248 NA
ATOM     65  C   UNL     1     -17.463  11.577   2.226  1.00  0.00     0.031 C 
ATOM     66  C   UNL     1     -17.067  14.630   7.463  1.00  0.00     0.029 A 
ATOM     67  C   UNL     1     -16.740  13.972   6.288  1.00  0.00     0.049 A 
ATOM     68  H   UNL     1     -14.835  13.588   5.466  1.00  0.00     0.167 HD
ATOM     69  C   UNL     1     -17.225  12.754   4.180  1.00  0.00     0.074 A 
ATOM     70  C   UNL     1     -18.127  12.150   3.221  1.00  0.00     0.031 C 
ATOM     71  C   UNL     1     -17.623  13.370   5.321  1.00  0.00     0.037 A 
BRANCH  58  72
ATOM     72  C   UNL     1     -12.975  15.504   8.796  1.00  0.00     0.064 A 
ATOM     73  C   UNL     1     -12.393  16.781   8.792  1.00  0.00     0.173 A 
ATOM     74  C   UNL     1     -13.152  14.869  10.034  1.00  0.00     0.173 A 
ATOM     75  F   UNL     1     -12.190  17.427   7.634  1.00  0.00    -0.203 F 
ATOM     76  C   UNL     1     -11.970  17.380   9.976  1.00  0.00     0.198 A 
ATOM     77  C   UNL     1     -12.758  15.485  11.219  1.00  0.00     0.198 A 
ATOM     78  F   UNL     1     -13.708  13.649  10.096  1.00  0.00    -0.203 F 
ATOM     79  F   UNL     1     -11.361  18.574   9.940  1.00  0.00    -0.200 F 
ATOM     80  C   UNL     1     -12.158  16.735  11.188  1.00  0.00     0.200 A 
ATOM     81  F   UNL     1     -12.951  14.865  12.391  1.00  0.00    -0.200 F 
ATOM     82  F   UNL     1     -11.751  17.313  12.326  1.00  0.00    -0.200 F 
ENDBRANCH  58  72
BRANCH  59  83
ATOM     83  C   UNL     1     -15.376  10.736   0.351  1.00  0.00     0.064 A 
ATOM     84  C   UNL     1     -16.044  11.397  -0.690  1.00  0.00     0.173 A 
ATOM     85  C   UNL     1     -15.058   9.383   0.167  1.00  0.00     0.173 A 
ATOM     86  F   UNL     1     -16.387  12.686  -0.552  1.00  0.00    -0.203 F 
ATOM     87  C   UNL     1     -16.394  10.727  -1.860  1.00  0.00     0.198 A 
ATOM     88  C   UNL     1     -15.385   8.721  -1.014  1.00  0.00     0.198 A 
ATOM     89  F   UNL     1     -14.415   8.707   1.131  1.00  0.00    -0.203 F 
ATOM     90  F   UNL     1     -17.067  11.372  -2.822  1.00  0.00    -0.200 F 
ATOM     91  C   UNL     1     -16.059   9.392  -2.024  1.00  0.00     0.200 A 
ATOM     92  F   UNL     1     -15.047   7.434  -1.175  1.00  0.00    -0.200 F 
ATOM     93  F   UNL     1     -16.390   8.750  -3.153  1.00  0.00    -0.200 F 
ENDBRANCH  59  83
BRANCH  71  94
ATOM     94  C   UNL     1     -19.099  13.450   5.579  1.00  0.00     0.064 A 
ATOM     95  C   UNL     1     -19.844  12.321   5.948  1.00  0.00     0.173 A 
ATOM     96  C   UNL     1     -19.767  14.681   5.495  1.00  0.00     0.173 A 
ATOM     97  F   UNL     1     -19.254  11.119   6.026  1.00  0.00    -0.203 F 
ATOM     98  C   UNL     1     -21.210  12.418   6.201  1.00  0.00     0.198 A 
ATOM     99  C   UNL     1     -21.126  14.779   5.779  1.00  0.00     0.198 A 
ATOM    100  F   UNL     1     -19.098  15.793   5.153  1.00  0.00    -0.203 F 
ATOM    101  F   UNL     1     -21.912  11.318   6.507  1.00  0.00    -0.200 F 
ATOM    102  C   UNL     1     -21.848  13.647   6.124  1.00  0.00     0.200 A 
ATOM    103  F   UNL     1     -21.738  15.970   5.717  1.00  0.00    -0.200 F 
ATOM    104  F   UNL     1     -23.161  13.739   6.376  1.00  0.00    -0.200 F 
ENDBRANCH  71  94
ENDBRANCH  45  46
ENDBRANCH  37  40
ENDBRANCH  35  36
ENDBRANCH  34  35
ENDBRANCH  33  34
ENDBRANCH   1  33
TORSDOF 16
