REMARK SMILES C[C@H]1[C@H](C(=O)NCCCCNC(=O)c2ccc(-c3c4nc(c(-c5c(F)c(F)c(F)c(F)c5F)c5ccc([nH]5)c(-c5c(F)c(F)c(F)c(F)c5F)c5nc(c(-c6c(F)c(F)c(F)c(F)c6F)c6ccc3[nH]6)C=C5)C=C4)cc2)CCN1C(=O)COc1ccccc1F
REMARK SMILES IDX 7 1 6 2 4 3 5 4 3 6 1 7 2 8 79 9 77 10 78 11 80 12 81 13
REMARK SMILES IDX 82 14 83 15 84 16 85 17 89 18 86 19 88 20 90 21 87 22 8 23
REMARK SMILES IDX 9 24 10 25 11 26 12 27 13 29 14 30 15 31 76 32 16 33 75 34
REMARK SMILES IDX 17 35 18 36 19 37 69 38 20 39 74 40 68 41 70 42 21 43 73 44
REMARK SMILES IDX 67 45 66 46 22 48 54 49 34 50 53 51 35 52 38 53 52 54 71 55
REMARK SMILES IDX 36 56 37 57 51 59 72 60 39 61 23 62 24 63 32 64 25 65 26 66
REMARK SMILES IDX 30 67 33 68 27 69 28 70 31 71 29 72 55 73 56 74 64 75 57 76
REMARK SMILES IDX 58 77 62 78 65 79 59 80 60 81 63 82 61 83 40 84 41 85 49 86
REMARK SMILES IDX 42 87 43 88 47 89 50 90 44 91 45 92 48 93 46 94
REMARK H PARENT 6 5 11 28 70 47 38 58
REMARK Flexibility Score: inf
ROOT
ATOM      1  C   UNL     1      -0.986   0.558   2.948  1.00  0.00     0.116 C 
ENDROOT
BRANCH   1   2
ATOM      2  N   UNL     1      -0.515   1.850   2.482  1.00  0.00    -0.356 N 
ATOM      3  C   UNL     1      -0.082   2.253   1.259  1.00  0.00     0.225 C 
ATOM      4  O   UNL     1       0.301   3.421   1.153  1.00  0.00    -0.275 OA
ATOM      5  H   UNL     1      -0.510   2.554   3.170  1.00  0.00     0.163 HD
BRANCH   3   6
ATOM      6  C   UNL     1      -0.063   1.334   0.050  1.00  0.00     0.102 C 
ATOM      7  C   UNL     1       1.986   0.191  -0.825  1.00  0.00     0.032 C 
ATOM      8  C   UNL     1       0.875   0.122   0.224  1.00  0.00     0.094 C 
ATOM      9  N   UNL     1      -0.009  -1.038   0.079  1.00  0.00    -0.336 N 
ATOM     10  C   UNL     1      -1.444   0.796  -0.330  1.00  0.00     0.037 C 
ATOM     11  C   UNL     1      -1.237  -0.679  -0.602  1.00  0.00     0.121 C 
BRANCH   9  12
ATOM     12  C   UNL     1       0.106  -2.291   0.650  1.00  0.00     0.260 C 
ATOM     13  O   UNL     1      -0.893  -2.988   0.863  1.00  0.00    -0.271 OA
BRANCH  12  14
ATOM     14  C   UNL     1       1.484  -2.823   1.064  1.00  0.00     0.329 C 
BRANCH  14  15
ATOM     15  O   UNL     1       2.643  -2.652   0.278  1.00  0.00    -0.481 OA
BRANCH  15  16
ATOM     16  C   UNL     1       2.754  -3.294  -0.924  1.00  0.00     0.155 A 
ATOM     17  C   UNL     1       4.076  -3.539  -1.315  1.00  0.00     0.049 A 
ATOM     18  C   UNL     1       1.735  -3.611  -1.823  1.00  0.00     0.165 A 
ATOM     19  C   UNL     1       4.368  -4.080  -2.571  1.00  0.00     0.004 A 
ATOM     20  C   UNL     1       2.020  -4.134  -3.085  1.00  0.00     0.043 A 
ATOM     21  F   UNL     1       0.448  -3.384  -1.553  1.00  0.00    -0.203 F 
ATOM     22  C   UNL     1       3.338  -4.368  -3.463  1.00  0.00     0.003 A 
ENDBRANCH  15  16
ENDBRANCH  14  15
ENDBRANCH  12  14
ENDBRANCH   9  12
ENDBRANCH   3   6
ENDBRANCH   1   2
BRANCH   1  23
ATOM     23  C   UNL     1       0.003  -0.088   3.913  1.00  0.00     0.023 C 
BRANCH  23  24
ATOM     24  C   UNL     1       0.115   0.617   5.263  1.00  0.00     0.023 C 
BRANCH  24  25
ATOM     25  C   UNL     1      -1.202   0.786   6.011  1.00  0.00     0.116 C 
BRANCH  25  26
ATOM     26  N   UNL     1      -1.888  -0.473   6.255  1.00  0.00    -0.352 N 
ATOM     27  C   UNL     1      -2.535  -0.889   7.393  1.00  0.00     0.251 C 
ATOM     28  H   UNL     1      -1.889  -1.112   5.506  1.00  0.00     0.163 HD
ATOM     29  O   UNL     1      -2.963  -2.035   7.488  1.00  0.00    -0.269 OA
BRANCH  27  30
ATOM     30  C   UNL     1      -2.677   0.049   8.524  1.00  0.00     0.039 A 
ATOM     31  C   UNL     1      -2.309  -0.376   9.802  1.00  0.00     0.014 A 
ATOM     32  C   UNL     1      -3.127   1.355   8.312  1.00  0.00     0.014 A 
ATOM     33  C   UNL     1      -2.325   0.534  10.860  1.00  0.00     0.010 A 
ATOM     34  C   UNL     1      -3.069   2.279   9.350  1.00  0.00     0.010 A 
ATOM     35  C   UNL     1      -2.666   1.877  10.633  1.00  0.00    -0.014 A 
BRANCH  35  36
ATOM     36  C   UNL     1      -2.603   2.880  11.725  1.00  0.00     0.031 A 
ATOM     37  C   UNL     1      -3.855   3.567  12.189  1.00  0.00     0.074 A 
ATOM     38  C   UNL     1      -1.409   3.221  12.247  1.00  0.00     0.049 A 
ATOM     39  N   UNL     1      -3.997   4.518  13.078  1.00  0.00    -0.248 NA
ATOM     40  C   UNL     1      -5.113   3.152  11.548  1.00  0.00     0.031 C 
ATOM     41  C   UNL     1      -0.117   2.663  11.841  1.00  0.00     0.029 A 
ATOM     42  N   UNL     1      -1.086   4.127  13.226  1.00  0.00    -0.354 N 
ATOM     43  C   UNL     1      -5.352   4.822  13.090  1.00  0.00     0.074 A 
ATOM     44  C   UNL     1      -5.981   3.997  12.083  1.00  0.00     0.031 C 
ATOM     45  C   UNL     1       0.855   3.222  12.580  1.00  0.00     0.029 A 
ATOM     46  C   UNL     1       0.261   4.202  13.485  1.00  0.00     0.049 A 
ATOM     47  H   UNL     1      -1.756   4.672  13.698  1.00  0.00     0.167 HD
ATOM     48  C   UNL     1      -6.014   5.693  13.889  1.00  0.00     0.037 A 
ATOM     49  C   UNL     1       0.940   4.979  14.350  1.00  0.00     0.037 A 
ATOM     50  C   UNL     1      -5.387   6.492  14.908  1.00  0.00     0.049 A 
ATOM     51  C   UNL     1       0.179   5.938  15.226  1.00  0.00     0.074 A 
ATOM     52  C   UNL     1      -5.978   7.356  15.813  1.00  0.00     0.029 A 
ATOM     53  N   UNL     1      -4.022   6.525  15.156  1.00  0.00    -0.354 N 
ATOM     54  N   UNL     1      -1.110   6.164  15.281  1.00  0.00    -0.248 NA
ATOM     55  C   UNL     1       0.971   6.746  16.165  1.00  0.00     0.031 C 
ATOM     56  C   UNL     1      -4.967   7.946  16.578  1.00  0.00     0.029 A 
ATOM     57  C   UNL     1      -3.751   7.412  16.186  1.00  0.00     0.049 A 
ATOM     58  H   UNL     1      -3.347   5.997  14.673  1.00  0.00     0.167 HD
ATOM     59  C   UNL     1      -1.289   7.115  16.276  1.00  0.00     0.074 A 
ATOM     60  C   UNL     1       0.024   7.413  16.809  1.00  0.00     0.031 C 
ATOM     61  C   UNL     1      -2.438   7.691  16.709  1.00  0.00     0.037 A 
BRANCH  48  62
ATOM     62  C   UNL     1      -7.497   5.822  13.694  1.00  0.00     0.064 A 
ATOM     63  C   UNL     1      -8.377   4.787  14.043  1.00  0.00     0.173 A 
ATOM     64  C   UNL     1      -8.048   7.007  13.183  1.00  0.00     0.173 A 
ATOM     65  F   UNL     1      -7.901   3.629  14.524  1.00  0.00    -0.203 F 
ATOM     66  C   UNL     1      -9.751   4.921  13.860  1.00  0.00     0.198 A 
ATOM     67  C   UNL     1      -9.425   7.149  13.030  1.00  0.00     0.198 A 
ATOM     68  F   UNL     1      -7.252   8.030  12.838  1.00  0.00    -0.203 F 
ATOM     69  F   UNL     1     -10.567   3.899  14.153  1.00  0.00    -0.200 F 
ATOM     70  C   UNL     1     -10.274   6.104  13.361  1.00  0.00     0.200 A 
ATOM     71  F   UNL     1      -9.930   8.299  12.560  1.00  0.00    -0.200 F 
ATOM     72  F   UNL     1     -11.597   6.235  13.192  1.00  0.00    -0.200 F 
ENDBRANCH  48  62
BRANCH  49  73
ATOM     73  C   UNL     1       2.418   4.864  14.451  1.00  0.00     0.064 A 
ATOM     74  C   UNL     1       3.020   4.316  15.592  1.00  0.00     0.173 A 
ATOM     75  C   UNL     1       3.258   5.301  13.417  1.00  0.00     0.173 A 
ATOM     76  F   UNL     1       2.259   3.902  16.617  1.00  0.00    -0.203 F 
ATOM     77  C   UNL     1       4.405   4.229  15.705  1.00  0.00     0.198 A 
ATOM     78  C   UNL     1       4.643   5.188  13.518  1.00  0.00     0.198 A 
ATOM     79  F   UNL     1       2.732   5.827  12.301  1.00  0.00    -0.203 F 
ATOM     80  F   UNL     1       4.955   3.744  16.827  1.00  0.00    -0.200 F 
ATOM     81  C   UNL     1       5.216   4.660  14.666  1.00  0.00     0.200 A 
ATOM     82  F   UNL     1       5.423   5.592  12.506  1.00  0.00    -0.200 F 
ATOM     83  F   UNL     1       6.549   4.574  14.773  1.00  0.00    -0.200 F 
ENDBRANCH  49  73
BRANCH  61  84
ATOM     84  C   UNL     1      -2.330   8.676  17.836  1.00  0.00     0.064 A 
ATOM     85  C   UNL     1      -1.775   9.950  17.650  1.00  0.00     0.173 A 
ATOM     86  C   UNL     1      -2.827   8.354  19.109  1.00  0.00     0.173 A 
ATOM     87  F   UNL     1      -1.273  10.300  16.457  1.00  0.00    -0.203 F 
ATOM     88  C   UNL     1      -1.698  10.857  18.704  1.00  0.00     0.198 A 
ATOM     89  C   UNL     1      -2.776   9.274  20.152  1.00  0.00     0.198 A 
ATOM     90  F   UNL     1      -3.374   7.151  19.337  1.00  0.00    -0.203 F 
ATOM     91  F   UNL     1      -1.120  12.052  18.516  1.00  0.00    -0.200 F 
ATOM     92  C   UNL     1      -2.205  10.522  19.951  1.00  0.00     0.200 A 
ATOM     93  F   UNL     1      -3.279   8.954  21.352  1.00  0.00    -0.200 F 
ATOM     94  F   UNL     1      -2.137  11.399  20.961  1.00  0.00    -0.200 F 
ENDBRANCH  61  84
ENDBRANCH  35  36
ENDBRANCH  27  30
ENDBRANCH  25  26
ENDBRANCH  24  25
ENDBRANCH  23  24
ENDBRANCH   1  23
TORSDOF 15
