REMARK SMILES C=CCC(=O)N[C@@](C)(CC)C(=O)NCCCCNC(=O)c1ccc(-c2c3nc(c(-c4c(F)c(F)c(F)c(F)c4F)c4ccc([nH]4)c(-c4c(F)c(F)c(F)c(F)c4F)c4nc(c(-c5c(F)c(F)c(F)c(F)c5F)c5ccc2[nH]5)C=C4)C=C3)cc1
REMARK SMILES IDX 15 1 14 2 13 3 11 4 12 5 7 7 8 8 6 9 4 10 5 11 3 13 2 14
REMARK SMILES IDX 1 15 9 16 10 17 16 18 17 19 18 20 19 21 20 23 21 24 22 25
REMARK SMILES IDX 83 26 23 27 82 28 24 29 25 30 26 31 76 32 27 33 81 34 75 35
REMARK SMILES IDX 77 36 28 37 80 38 74 39 73 40 29 42 61 43 41 44 60 45 42 46
REMARK SMILES IDX 45 47 59 48 78 49 43 50 44 51 58 53 79 54 46 55 30 56 31 57
REMARK SMILES IDX 39 58 32 59 33 60 37 61 40 62 34 63 35 64 38 65 36 66 62 67
REMARK SMILES IDX 63 68 71 69 64 70 65 71 69 72 72 73 66 74 67 75 70 76 68 77
REMARK SMILES IDX 47 78 48 79 56 80 49 81 50 82 54 83 57 84 51 85 52 86 55 87
REMARK SMILES IDX 53 88
REMARK H PARENT 13 6 6 12 18 22 77 41 45 52
REMARK Flexibility Score: inf
ROOT
ATOM      1  C   UNL     1       0.588   4.436   1.177  1.00  0.00     0.023 C 
ENDROOT
BRANCH   1   2
ATOM      2  C   UNL     1       1.196   3.564   0.076  1.00  0.00     0.116 C 
BRANCH   2   3
ATOM      3  N   UNL     1       0.719   2.200   0.196  1.00  0.00    -0.354 N 
ATOM      4  C   UNL     1      -0.426   1.663  -0.320  1.00  0.00     0.245 C 
ATOM      5  O   UNL     1      -1.116   1.020   0.476  1.00  0.00    -0.272 OA
ATOM      6  H   UNL     1       1.290   1.587   0.713  1.00  0.00     0.163 HD
BRANCH   4   7
ATOM      7  C   UNL     1      -0.853   1.908  -1.799  1.00  0.00     0.116 C 
ATOM      8  C   UNL     1       0.357   1.977  -2.754  1.00  0.00     0.045 C 
BRANCH   7   9
ATOM      9  N   UNL     1      -1.754   0.848  -2.340  1.00  0.00    -0.342 N 
ATOM     10  C   UNL     1      -1.610  -0.502  -2.436  1.00  0.00     0.224 C 
ATOM     11  O   UNL     1      -2.097  -1.043  -3.435  1.00  0.00    -0.275 OA
ATOM     12  H   UNL     1      -2.608   1.188  -2.692  1.00  0.00     0.164 HD
BRANCH  10  13
ATOM     13  C   UNL     1      -0.985  -1.347  -1.332  1.00  0.00     0.126 C 
BRANCH  13  14
ATOM     14  C   UNL     1       0.514  -1.368  -1.325  1.00  0.00    -0.025 C 
ATOM     15  C   UNL     1       1.251  -1.234  -0.213  1.00  0.00     0.004 C 
ENDBRANCH  13  14
ENDBRANCH  10  13
ENDBRANCH   7   9
BRANCH   7  16
ATOM     16  C   UNL     1      -1.642   3.248  -1.868  1.00  0.00     0.035 C 
ATOM     17  C   UNL     1      -2.947   3.249  -1.072  1.00  0.00     0.007 C 
ENDBRANCH   7  16
ENDBRANCH   4   7
ENDBRANCH   2   3
ENDBRANCH   1   2
BRANCH   1  18
ATOM     18  C   UNL     1       0.932   3.991   2.603  1.00  0.00     0.023 C 
BRANCH  18  19
ATOM     19  C   UNL     1       2.420   3.802   2.882  1.00  0.00     0.116 C 
BRANCH  19  20
ATOM     20  N   UNL     1       3.198   4.992   2.583  1.00  0.00    -0.352 N 
ATOM     21  C   UNL     1       4.195   5.587   3.308  1.00  0.00     0.251 C 
ATOM     22  H   UNL     1       2.975   5.437   1.733  1.00  0.00     0.163 HD
ATOM     23  O   UNL     1       4.635   6.682   2.953  1.00  0.00    -0.269 OA
BRANCH  21  24
ATOM     24  C   UNL     1       4.727   4.943   4.525  1.00  0.00     0.039 A 
ATOM     25  C   UNL     1       4.967   5.739   5.647  1.00  0.00     0.014 A 
ATOM     26  C   UNL     1       5.011   3.574   4.563  1.00  0.00     0.014 A 
ATOM     27  C   UNL     1       5.450   5.157   6.819  1.00  0.00     0.010 A 
ATOM     28  C   UNL     1       5.423   2.982   5.756  1.00  0.00     0.010 A 
ATOM     29  C   UNL     1       5.656   3.769   6.893  1.00  0.00    -0.014 A 
BRANCH  29  30
ATOM     30  C   UNL     1       6.115   3.147   8.160  1.00  0.00     0.031 A 
ATOM     31  C   UNL     1       7.465   2.490   8.245  1.00  0.00     0.074 A 
ATOM     32  C   UNL     1       5.301   3.161   9.233  1.00  0.00     0.049 A 
ATOM     33  N   UNL     1       8.048   1.931   9.276  1.00  0.00    -0.248 NA
ATOM     34  C   UNL     1       8.255   2.430   7.006  1.00  0.00     0.031 C 
ATOM     35  C   UNL     1       3.945   3.712   9.256  1.00  0.00     0.029 A 
ATOM     36  N   UNL     1       5.496   2.705  10.512  1.00  0.00    -0.354 N 
ATOM     37  C   UNL     1       9.266   1.454   8.809  1.00  0.00     0.074 A 
ATOM     38  C   UNL     1       9.313   1.732   7.391  1.00  0.00     0.031 C 
ATOM     39  C   UNL     1       3.446   3.598  10.496  1.00  0.00     0.029 A 
ATOM     40  C   UNL     1       4.433   2.942  11.348  1.00  0.00     0.049 A 
ATOM     41  H   UNL     1       6.320   2.252  10.803  1.00  0.00     0.167 HD
ATOM     42  C   UNL     1      10.267   0.864   9.507  1.00  0.00     0.037 A 
ATOM     43  C   UNL     1       4.277   2.669  12.657  1.00  0.00     0.037 A 
ATOM     44  C   UNL     1      10.223   0.604  10.922  1.00  0.00     0.049 A 
ATOM     45  C   UNL     1       5.409   2.025  13.410  1.00  0.00     0.074 A 
ATOM     46  C   UNL     1      11.204   0.060  11.732  1.00  0.00     0.029 A 
ATOM     47  N   UNL     1       9.133   0.869  11.740  1.00  0.00    -0.354 N 
ATOM     48  N   UNL     1       6.589   1.655  12.975  1.00  0.00    -0.248 NA
ATOM     49  C   UNL     1       5.190   1.775  14.841  1.00  0.00     0.031 C 
ATOM     50  C   UNL     1      10.692  -0.047  13.030  1.00  0.00     0.029 A 
ATOM     51  C   UNL     1       9.412   0.481  13.041  1.00  0.00     0.049 A 
ATOM     52  H   UNL     1       8.287   1.274  11.440  1.00  0.00     0.167 HD
ATOM     53  C   UNL     1       7.263   1.154  14.081  1.00  0.00     0.074 A 
ATOM     54  C   UNL     1       6.367   1.291  15.211  1.00  0.00     0.031 C 
ATOM     55  C   UNL     1       8.509   0.626  14.155  1.00  0.00     0.037 A 
BRANCH  42  56
ATOM     56  C   UNL     1      11.501   0.465   8.748  1.00  0.00     0.064 A 
ATOM     57  C   UNL     1      12.384   1.423   8.225  1.00  0.00     0.173 A 
ATOM     58  C   UNL     1      11.826  -0.889   8.574  1.00  0.00     0.173 A 
ATOM     59  F   UNL     1      12.114   2.731   8.353  1.00  0.00    -0.203 F 
ATOM     60  C   UNL     1      13.530   1.040   7.532  1.00  0.00     0.198 A 
ATOM     61  C   UNL     1      12.989  -1.267   7.908  1.00  0.00     0.198 A 
ATOM     62  F   UNL     1      11.020  -1.846   9.057  1.00  0.00    -0.203 F 
ATOM     63  F   UNL     1      14.331   1.973   6.999  1.00  0.00    -0.200 F 
ATOM     64  C   UNL     1      13.835  -0.303   7.381  1.00  0.00     0.200 A 
ATOM     65  F   UNL     1      13.290  -2.566   7.774  1.00  0.00    -0.200 F 
ATOM     66  F   UNL     1      14.943  -0.670   6.721  1.00  0.00    -0.200 F 
ENDBRANCH  42  56
BRANCH  43  67
ATOM     67  C   UNL     1       3.016   3.044  13.350  1.00  0.00     0.064 A 
ATOM     68  C   UNL     1       2.998   4.062  14.313  1.00  0.00     0.173 A 
ATOM     69  C   UNL     1       1.808   2.387  13.072  1.00  0.00     0.173 A 
ATOM     70  F   UNL     1       4.131   4.707  14.626  1.00  0.00    -0.203 F 
ATOM     71  C   UNL     1       1.826   4.393  14.991  1.00  0.00     0.198 A 
ATOM     72  C   UNL     1       0.631   2.739  13.729  1.00  0.00     0.198 A 
ATOM     73  F   UNL     1       1.770   1.411  12.154  1.00  0.00    -0.203 F 
ATOM     74  F   UNL     1       1.849   5.335  15.943  1.00  0.00    -0.200 F 
ATOM     75  C   UNL     1       0.642   3.734  14.694  1.00  0.00     0.200 A 
ATOM     76  F   UNL     1      -0.514   2.111  13.428  1.00  0.00    -0.200 F 
ATOM     77  F   UNL     1      -0.485   4.053  15.345  1.00  0.00    -0.200 F 
ENDBRANCH  43  67
BRANCH  55  78
ATOM     78  C   UNL     1       8.986   0.188  15.510  1.00  0.00     0.064 A 
ATOM     79  C   UNL     1       8.444  -0.934  16.156  1.00  0.00     0.173 A 
ATOM     80  C   UNL     1      10.006   0.893  16.167  1.00  0.00     0.173 A 
ATOM     81  F   UNL     1       7.456  -1.635  15.577  1.00  0.00    -0.203 F 
ATOM     82  C   UNL     1       8.878  -1.309  17.424  1.00  0.00     0.198 A 
ATOM     83  C   UNL     1      10.461   0.495  17.420  1.00  0.00     0.198 A 
ATOM     84  F   UNL     1      10.564   1.968  15.590  1.00  0.00    -0.203 F 
ATOM     85  F   UNL     1       8.301  -2.346  18.048  1.00  0.00    -0.200 F 
ATOM     86  C   UNL     1       9.889  -0.598  18.053  1.00  0.00     0.200 A 
ATOM     87  F   UNL     1      11.448   1.174  18.020  1.00  0.00    -0.200 F 
ATOM     88  F   UNL     1      10.305  -0.960  19.274  1.00  0.00    -0.200 F 
ENDBRANCH  55  78
ENDBRANCH  29  30
ENDBRANCH  21  24
ENDBRANCH  19  20
ENDBRANCH  18  19
ENDBRANCH   1  18
TORSDOF 15
