REMARK SMILES CC(C)(CNC(=O)[C@H]1CCC[C@H](C(=O)NCCCCNC(=O)c2ccc(-c3c4nc(c(-c5c(F)c(F)c(F)c(F)c5F)c5ccc([nH]5)c(-c5c(F)c(F)c(F)c(F)c5F)c5nc(c(-c6c(F)c(F)c(F)c(F)c6F)c6ccc3[nH]6)C=C5)C=C4)cc2)C1)S(C)(=O)=O
REMARK SMILES IDX 16 1 15 2 13 3 14 4 12 6 8 7 9 8 86 9 10 10 11 11 6 12 5 13
REMARK SMILES IDX 7 15 4 16 2 17 1 18 3 19 87 20 88 21 89 22 90 23 17 24 18 25
REMARK SMILES IDX 19 26 20 27 21 28 22 30 23 31 24 32 85 33 25 34 84 35 26 36
REMARK SMILES IDX 27 37 28 38 78 39 29 40 83 41 77 42 79 43 30 44 82 45 76 46
REMARK SMILES IDX 75 47 31 49 63 50 43 51 62 52 44 53 47 54 61 55 80 56 45 57
REMARK SMILES IDX 46 58 60 60 81 61 48 62 32 63 33 64 41 65 34 66 35 67 39 68
REMARK SMILES IDX 42 69 36 70 37 71 40 72 38 73 64 74 65 75 73 76 66 77 67 78
REMARK SMILES IDX 71 79 74 80 68 81 69 82 72 83 70 84 49 85 50 86 58 87 51 88
REMARK SMILES IDX 52 89 56 90 59 91 53 92 54 93 57 94 55 95
REMARK H PARENT 15 5 5 14 20 29 79 48 47 59
REMARK Flexibility Score: inf
ROOT
ATOM      1  C   UNL     1       0.518   4.144   4.358  1.00  0.00     0.116 C 
ENDROOT
BRANCH   1   2
ATOM      2  N   UNL     1      -0.307   4.498   5.498  1.00  0.00    -0.356 N 
ATOM      3  C   UNL     1      -1.662   4.575   5.628  1.00  0.00     0.223 C 
ATOM      4  O   UNL     1      -2.109   4.952   6.713  1.00  0.00    -0.275 OA
ATOM      5  H   UNL     1       0.196   4.720   6.315  1.00  0.00     0.163 HD
BRANCH   3   6
ATOM      6  C   UNL     1      -2.595   4.173   4.490  1.00  0.00     0.079 C 
ATOM      7  C   UNL     1      -3.050   2.188   2.896  1.00  0.00     0.079 C 
ATOM      8  C   UNL     1      -2.601   3.089   1.745  1.00  0.00     0.013 C 
ATOM      9  C   UNL     1      -2.482   2.661   4.234  1.00  0.00     0.027 C 
ATOM     10  C   UNL     1      -3.016   4.536   1.977  1.00  0.00     0.002 C 
ATOM     11  C   UNL     1      -2.440   5.093   3.270  1.00  0.00     0.013 C 
BRANCH   7  12
ATOM     12  C   UNL     1      -4.572   2.088   2.929  1.00  0.00     0.223 C 
ATOM     13  N   UNL     1      -5.207   1.263   2.048  1.00  0.00    -0.354 N 
ATOM     14  H   UNL     1      -6.191   1.283   2.083  1.00  0.00     0.163 HD
ATOM     15  O   UNL     1      -5.269   2.727   3.715  1.00  0.00    -0.275 OA
BRANCH  13  16
ATOM     16  C   UNL     1      -4.637   0.361   1.064  1.00  0.00     0.138 C 
BRANCH  16  17
ATOM     17  C   UNL     1      -5.028  -1.118   1.240  1.00  0.00     0.084 C 
ATOM     18  C   UNL     1      -6.550  -1.306   1.276  1.00  0.00     0.030 C 
ATOM     19  C   UNL     1      -4.471  -1.884   0.018  1.00  0.00     0.030 C 
BRANCH  17  20
ATOM     20  S   UNL     1      -4.243  -1.847   2.723  1.00  0.00     0.154 S 
ATOM     21  C   UNL     1      -4.993  -1.121   4.167  1.00  0.00     0.158 C 
ATOM     22  O   UNL     1      -4.598  -3.257   2.750  1.00  0.00    -0.229 OA
ATOM     23  O   UNL     1      -2.845  -1.460   2.728  1.00  0.00    -0.229 OA
ENDBRANCH  17  20
ENDBRANCH  16  17
ENDBRANCH  13  16
ENDBRANCH   7  12
ENDBRANCH   3   6
ENDBRANCH   1   2
BRANCH   1  24
ATOM     24  C   UNL     1       1.282   5.351   3.818  1.00  0.00     0.023 C 
BRANCH  24  25
ATOM     25  C   UNL     1       2.319   5.921   4.782  1.00  0.00     0.023 C 
BRANCH  25  26
ATOM     26  C   UNL     1       3.335   4.910   5.292  1.00  0.00     0.116 C 
BRANCH  26  27
ATOM     27  N   UNL     1       4.072   4.259   4.219  1.00  0.00    -0.352 N 
ATOM     28  C   UNL     1       5.423   4.041   4.114  1.00  0.00     0.251 C 
ATOM     29  H   UNL     1       3.528   3.931   3.467  1.00  0.00     0.163 HD
ATOM     30  O   UNL     1       5.904   3.610   3.071  1.00  0.00    -0.269 OA
BRANCH  28  31
ATOM     31  C   UNL     1       6.298   4.361   5.259  1.00  0.00     0.039 A 
ATOM     32  C   UNL     1       7.478   5.071   5.031  1.00  0.00     0.014 A 
ATOM     33  C   UNL     1       5.938   3.985   6.556  1.00  0.00     0.014 A 
ATOM     34  C   UNL     1       8.269   5.455   6.114  1.00  0.00     0.010 A 
ATOM     35  C   UNL     1       6.677   4.448   7.638  1.00  0.00     0.010 A 
ATOM     36  C   UNL     1       7.858   5.175   7.428  1.00  0.00    -0.014 A 
BRANCH  36  37
ATOM     37  C   UNL     1       8.664   5.615   8.594  1.00  0.00     0.031 A 
ATOM     38  C   UNL     1       9.266   4.594   9.519  1.00  0.00     0.074 A 
ATOM     39  C   UNL     1       8.810   6.930   8.847  1.00  0.00     0.049 A 
ATOM     40  N   UNL     1       9.974   4.775  10.605  1.00  0.00    -0.248 NA
ATOM     41  C   UNL     1       9.015   3.181   9.197  1.00  0.00     0.031 C 
ATOM     42  C   UNL     1       8.233   8.015   8.052  1.00  0.00     0.029 A 
ATOM     43  N   UNL     1       9.490   7.577   9.848  1.00  0.00    -0.354 N 
ATOM     44  C   UNL     1      10.237   3.504  11.100  1.00  0.00     0.074 A 
ATOM     45  C   UNL     1       9.557   2.565  10.235  1.00  0.00     0.031 C 
ATOM     46  C   UNL     1       8.615   9.192   8.572  1.00  0.00     0.029 A 
ATOM     47  C   UNL     1       9.429   8.946   9.759  1.00  0.00     0.049 A 
ATOM     48  H   UNL     1       9.976   7.105  10.562  1.00  0.00     0.167 HD
ATOM     49  C   UNL     1      11.000   3.150  12.161  1.00  0.00     0.037 A 
ATOM     50  C   UNL     1       9.970   9.894  10.547  1.00  0.00     0.037 A 
ATOM     51  C   UNL     1      11.690   4.089  13.005  1.00  0.00     0.049 A 
ATOM     52  C   UNL     1      10.799   9.474  11.732  1.00  0.00     0.074 A 
ATOM     53  C   UNL     1      12.537   3.834  14.069  1.00  0.00     0.029 A 
ATOM     54  N   UNL     1      11.605   5.469  12.884  1.00  0.00    -0.354 N 
ATOM     55  N   UNL     1      11.109   8.269  12.143  1.00  0.00    -0.248 NA
ATOM     56  C   UNL     1      11.360  10.552  12.558  1.00  0.00     0.031 C 
ATOM     57  C   UNL     1      12.917   5.059  14.628  1.00  0.00     0.029 A 
ATOM     58  C   UNL     1      12.361   6.079  13.873  1.00  0.00     0.049 A 
ATOM     59  H   UNL     1      11.084   5.945  12.197  1.00  0.00     0.167 HD
ATOM     60  C   UNL     1      11.930   8.442  13.249  1.00  0.00     0.074 A 
ATOM     61  C   UNL     1      12.080   9.870  13.436  1.00  0.00     0.031 C 
ATOM     62  C   UNL     1      12.509   7.503  14.039  1.00  0.00     0.037 A 
BRANCH  49  63
ATOM     63  C   UNL     1      11.122   1.683  12.467  1.00  0.00     0.064 A 
ATOM     64  C   UNL     1      11.792   0.800  11.605  1.00  0.00     0.173 A 
ATOM     65  C   UNL     1      10.573   1.155  13.645  1.00  0.00     0.173 A 
ATOM     66  F   UNL     1      12.326   1.250  10.460  1.00  0.00    -0.203 F 
ATOM     67  C   UNL     1      11.872  -0.560  11.891  1.00  0.00     0.198 A 
ATOM     68  C   UNL     1      10.687  -0.201  13.946  1.00  0.00     0.198 A 
ATOM     69  F   UNL     1       9.927   1.952  14.509  1.00  0.00    -0.203 F 
ATOM     70  F   UNL     1      12.460  -1.392  11.020  1.00  0.00    -0.200 F 
ATOM     71  C   UNL     1      11.326  -1.058  13.063  1.00  0.00     0.200 A 
ATOM     72  F   UNL     1      10.172  -0.678  15.087  1.00  0.00    -0.200 F 
ATOM     73  F   UNL     1      11.406  -2.368  13.339  1.00  0.00    -0.200 F 
ENDBRANCH  49  63
BRANCH  50  74
ATOM     74  C   UNL     1       9.783  11.333  10.220  1.00  0.00     0.064 A 
ATOM     75  C   UNL     1      10.866  12.119   9.800  1.00  0.00     0.173 A 
ATOM     76  C   UNL     1       8.531  11.954  10.331  1.00  0.00     0.173 A 
ATOM     77  F   UNL     1      12.088  11.576   9.697  1.00  0.00    -0.203 F 
ATOM     78  C   UNL     1      10.708  13.476   9.528  1.00  0.00     0.198 A 
ATOM     79  C   UNL     1       8.368  13.305  10.028  1.00  0.00     0.198 A 
ATOM     80  F   UNL     1       7.462  11.247  10.723  1.00  0.00    -0.203 F 
ATOM     81  F   UNL     1      11.771  14.215   9.178  1.00  0.00    -0.200 F 
ATOM     82  C   UNL     1       9.459  14.067   9.636  1.00  0.00     0.200 A 
ATOM     83  F   UNL     1       7.156  13.868  10.119  1.00  0.00    -0.200 F 
ATOM     84  F   UNL     1       9.307  15.372   9.372  1.00  0.00    -0.200 F 
ENDBRANCH  50  74
BRANCH  62  85
ATOM     85  C   UNL     1      13.400   7.990  15.146  1.00  0.00     0.064 A 
ATOM     86  C   UNL     1      12.890   8.653  16.272  1.00  0.00     0.173 A 
ATOM     87  C   UNL     1      14.784   7.762  15.091  1.00  0.00     0.173 A 
ATOM     88  F   UNL     1      11.577   8.909  16.368  1.00  0.00    -0.203 F 
ATOM     89  C   UNL     1      13.736   9.101  17.284  1.00  0.00     0.198 A 
ATOM     90  C   UNL     1      15.622   8.178  16.122  1.00  0.00     0.198 A 
ATOM     91  F   UNL     1      15.324   7.124  14.042  1.00  0.00    -0.203 F 
ATOM     92  F   UNL     1      13.233   9.785  18.321  1.00  0.00    -0.200 F 
ATOM     93  C   UNL     1      15.099   8.856  17.212  1.00  0.00     0.200 A 
ATOM     94  F   UNL     1      16.937   7.924  16.058  1.00  0.00    -0.200 F 
ATOM     95  F   UNL     1      15.911   9.282  18.190  1.00  0.00    -0.200 F 
ENDBRANCH  62  85
ENDBRANCH  36  37
ENDBRANCH  28  31
ENDBRANCH  26  27
ENDBRANCH  25  26
ENDBRANCH  24  25
ENDBRANCH   1  24
TORSDOF 15
