REMARK SMILES Cc1ccc(-c2nn(-c3ccccc3)cc2[C@@H]2[NH2+][C@H](C(=O)NCCCCNC(=O)c3ccc(-c4c5nc(c(-c6c(F)c(F)c(F)c(F)c6F)c6ccc([nH]6)c(-c6c(F)c(F)c(F)c(F)c6F)c6nc(c(-c7c(F)c(F)c(F)c(F)c7F)c7ccc4[nH]7)C=C6)C=C5)cc3)CS2)cc1
REMARK SMILES IDX 24 1 23 2 22 3 20 4 21 5 19 7 17 8 18 9 94 10 93 13 16 14
REMARK SMILES IDX 6 15 7 16 8 17 15 18 5 19 1 20 2 21 3 22 96 23 4 24 95 25
REMARK SMILES IDX 9 26 10 27 14 28 11 29 13 30 12 31 25 32 26 33 27 34 28 35
REMARK SMILES IDX 29 37 30 38 31 39 92 40 32 41 91 42 33 43 34 44 35 45 85 46
REMARK SMILES IDX 36 47 90 48 84 49 86 50 37 51 89 52 83 53 82 54 38 56 70 57
REMARK SMILES IDX 50 58 69 59 51 60 54 61 68 62 87 63 52 64 53 65 67 67 88 68
REMARK SMILES IDX 55 69 39 70 40 71 48 72 41 73 42 74 46 75 49 76 43 77 44 78
REMARK SMILES IDX 47 79 45 80 71 81 72 82 80 83 73 84 74 85 78 86 81 87 75 88
REMARK SMILES IDX 76 89 79 90 77 91 56 92 57 93 65 94 58 95 59 96 63 97 66 98
REMARK SMILES IDX 60 99 61 100 64 101 62 102
REMARK H PARENT 22 6 18 11 18 12 27 36 86 55 54 66
REMARK Flexibility Score: inf
ROOT
ATOM      1  C   UNL     1      -3.900  -2.547  -2.310  1.00  0.00     0.023 C 
ENDROOT
BRANCH   1   2
ATOM      2  C   UNL     1      -4.671  -2.210  -1.025  1.00  0.00     0.116 C 
BRANCH   2   3
ATOM      3  N   UNL     1      -5.304  -3.324  -0.323  1.00  0.00    -0.351 N 
ATOM      4  C   UNL     1      -5.837  -3.330   0.945  1.00  0.00     0.279 C 
ATOM      5  O   UNL     1      -6.936  -3.898   1.051  1.00  0.00    -0.268 OA
ATOM      6  H   UNL     1      -5.355  -4.173  -0.818  1.00  0.00     0.163 HD
BRANCH   4   7
ATOM      7  C   UNL     1      -5.127  -2.872   2.252  1.00  0.00     0.283 C 
ATOM      8  C   UNL     1      -3.953  -0.793   2.741  1.00  0.00     0.278 C 
ATOM      9  N   UNL     1      -3.851  -2.125   2.115  1.00  0.00    -0.320 N 
ATOM     10  S   UNL     1      -5.056  -1.025   4.149  1.00  0.00    -0.087 SA
ATOM     11  H   UNL     1      -3.105  -2.651   2.570  1.00  0.00     0.348 HD
ATOM     12  H   UNL     1      -3.648  -2.005   1.123  1.00  0.00     0.348 HD
ATOM     13  C   UNL     1      -6.098  -2.181   3.221  1.00  0.00     0.151 C 
BRANCH   8  14
ATOM     14  C   UNL     1      -4.478   0.131   1.693  1.00  0.00     0.067 A 
ATOM     15  C   UNL     1      -3.824   0.561   0.492  1.00  0.00     0.103 A 
ATOM     16  N   UNL     1      -4.769   0.967  -0.397  1.00  0.00    -0.167 NA
ATOM     17  N   UNL     1      -5.965   0.792   0.251  1.00  0.00    -0.240 N 
ATOM     18  C   UNL     1      -5.743   0.689   1.600  1.00  0.00     0.126 A 
BRANCH  15  19
ATOM     19  C   UNL     1      -2.368   0.433   0.181  1.00  0.00     0.003 A 
ATOM     20  C   UNL     1       1.975   0.103  -0.129  1.00  0.00     0.044 C 
ATOM     21  C   UNL     1       0.481   0.233  -0.058  1.00  0.00    -0.051 A 
ATOM     22  C   UNL     1      -0.294  -0.905   0.134  1.00  0.00     0.004 A 
ATOM     23  C   UNL     1      -0.176   1.463  -0.183  1.00  0.00     0.004 A 
ATOM     24  C   UNL     1      -1.685  -0.798   0.260  1.00  0.00     0.011 A 
ATOM     25  C   UNL     1      -1.581   1.559  -0.074  1.00  0.00     0.011 A 
ENDBRANCH  15  19
BRANCH  17  26
ATOM     26  C   UNL     1      -7.245   0.538  -0.363  1.00  0.00     0.065 A 
ATOM     27  C   UNL     1      -7.367   0.012  -1.649  1.00  0.00     0.028 A 
ATOM     28  C   UNL     1      -8.427   0.680   0.371  1.00  0.00     0.028 A 
ATOM     29  C   UNL     1      -8.601  -0.396  -2.180  1.00  0.00     0.002 A 
ATOM     30  C   UNL     1      -9.675   0.358  -0.186  1.00  0.00     0.002 A 
ATOM     31  C   UNL     1      -9.764  -0.183  -1.462  1.00  0.00     0.000 A 
ENDBRANCH  17  26
ENDBRANCH   8  14
ENDBRANCH   4   7
ENDBRANCH   2   3
ENDBRANCH   1   2
BRANCH   1  32
ATOM     32  C   UNL     1      -3.645  -1.482  -3.445  1.00  0.00     0.023 C 
BRANCH  32  33
ATOM     33  C   UNL     1      -4.414  -0.149  -3.519  1.00  0.00     0.116 C 
BRANCH  33  34
ATOM     34  N   UNL     1      -3.787   0.918  -4.311  1.00  0.00    -0.352 N 
ATOM     35  C   UNL     1      -4.182   2.227  -4.596  1.00  0.00     0.251 C 
ATOM     36  H   UNL     1      -2.928   0.662  -4.717  1.00  0.00     0.163 HD
ATOM     37  O   UNL     1      -3.350   2.992  -5.056  1.00  0.00    -0.269 OA
BRANCH  35  38
ATOM     38  C   UNL     1      -5.557   2.760  -4.324  1.00  0.00     0.039 A 
ATOM     39  C   UNL     1      -5.740   4.137  -4.068  1.00  0.00     0.014 A 
ATOM     40  C   UNL     1      -6.684   1.954  -4.339  1.00  0.00     0.014 A 
ATOM     41  C   UNL     1      -6.979   4.635  -3.617  1.00  0.00     0.010 A 
ATOM     42  C   UNL     1      -7.899   2.437  -3.863  1.00  0.00     0.010 A 
ATOM     43  C   UNL     1      -8.036   3.752  -3.413  1.00  0.00    -0.014 A 
BRANCH  43  44
ATOM     44  C   UNL     1      -9.183   4.001  -2.525  1.00  0.00     0.031 A 
ATOM     45  C   UNL     1     -10.598   4.026  -2.968  1.00  0.00     0.074 A 
ATOM     46  C   UNL     1      -8.948   3.881  -1.198  1.00  0.00     0.049 A 
ATOM     47  N   UNL     1     -11.581   4.489  -2.262  1.00  0.00    -0.248 NA
ATOM     48  C   UNL     1     -11.029   3.497  -4.251  1.00  0.00     0.031 C 
ATOM     49  C   UNL     1      -9.919   3.607  -0.140  1.00  0.00     0.029 A 
ATOM     50  N   UNL     1      -7.737   4.027  -0.517  1.00  0.00    -0.354 N 
ATOM     51  C   UNL     1     -12.762   4.044  -2.822  1.00  0.00     0.074 A 
ATOM     52  C   UNL     1     -12.360   3.504  -4.103  1.00  0.00     0.031 C 
ATOM     53  C   UNL     1      -9.336   3.782   1.056  1.00  0.00     0.029 A 
ATOM     54  C   UNL     1      -8.036   4.374   0.812  1.00  0.00     0.049 A 
ATOM     55  H   UNL     1      -6.837   3.909  -0.899  1.00  0.00     0.167 HD
ATOM     56  C   UNL     1     -13.916   4.057  -2.079  1.00  0.00     0.037 A 
ATOM     57  C   UNL     1      -7.666   5.598   1.293  1.00  0.00     0.037 A 
ATOM     58  C   UNL     1     -13.671   4.574  -0.722  1.00  0.00     0.049 A 
ATOM     59  C   UNL     1      -8.841   6.493   1.613  1.00  0.00     0.074 A 
ATOM     60  C   UNL     1     -13.582   3.951   0.514  1.00  0.00     0.029 A 
ATOM     61  N   UNL     1     -13.216   5.879  -0.530  1.00  0.00    -0.354 N 
ATOM     62  N   UNL     1     -10.059   6.256   1.212  1.00  0.00    -0.248 NA
ATOM     63  C   UNL     1      -8.742   7.727   2.385  1.00  0.00     0.031 C 
ATOM     64  C   UNL     1     -13.013   4.867   1.434  1.00  0.00     0.029 A 
ATOM     65  C   UNL     1     -12.766   6.056   0.768  1.00  0.00     0.049 A 
ATOM     66  H   UNL     1     -13.215   6.579  -1.222  1.00  0.00     0.167 HD
ATOM     67  C   UNL     1     -10.878   7.276   1.592  1.00  0.00     0.074 A 
ATOM     68  C   UNL     1     -10.014   8.162   2.351  1.00  0.00     0.031 C 
ATOM     69  C   UNL     1     -12.190   7.318   1.219  1.00  0.00     0.037 A 
BRANCH  56  70
ATOM     70  C   UNL     1     -15.227   3.355  -2.451  1.00  0.00     0.064 A 
ATOM     71  C   UNL     1     -16.198   3.037  -1.468  1.00  0.00     0.173 A 
ATOM     72  C   UNL     1     -15.589   2.949  -3.750  1.00  0.00     0.173 A 
ATOM     73  F   UNL     1     -16.088   3.467  -0.205  1.00  0.00    -0.203 F 
ATOM     74  C   UNL     1     -17.346   2.279  -1.742  1.00  0.00     0.198 A 
ATOM     75  C   UNL     1     -16.710   2.149  -4.019  1.00  0.00     0.198 A 
ATOM     76  F   UNL     1     -14.926   3.375  -4.828  1.00  0.00    -0.203 F 
ATOM     77  F   UNL     1     -18.219   2.012  -0.760  1.00  0.00    -0.200 F 
ATOM     78  C   UNL     1     -17.583   1.803  -3.012  1.00  0.00     0.200 A 
ATOM     79  F   UNL     1     -16.942   1.732  -5.272  1.00  0.00    -0.200 F 
ATOM     80  F   UNL     1     -18.663   1.053  -3.272  1.00  0.00    -0.200 F 
ENDBRANCH  56  70
BRANCH  57  81
ATOM     81  C   UNL     1      -6.364   6.039   0.726  1.00  0.00     0.064 A 
ATOM     82  C   UNL     1      -5.219   5.311   1.101  1.00  0.00     0.173 A 
ATOM     83  C   UNL     1      -6.303   6.784  -0.459  1.00  0.00     0.173 A 
ATOM     84  F   UNL     1      -5.234   4.573   2.223  1.00  0.00    -0.203 F 
ATOM     85  C   UNL     1      -4.111   5.230   0.264  1.00  0.00     0.198 A 
ATOM     86  C   UNL     1      -5.188   6.698  -1.295  1.00  0.00     0.198 A 
ATOM     87  F   UNL     1      -7.370   7.481  -0.877  1.00  0.00    -0.203 F 
ATOM     88  F   UNL     1      -3.072   4.458   0.609  1.00  0.00    -0.200 F 
ATOM     89  C   UNL     1      -4.112   5.891  -0.952  1.00  0.00     0.200 A 
ATOM     90  F   UNL     1      -5.194   7.324  -2.481  1.00  0.00    -0.200 F 
ATOM     91  F   UNL     1      -3.093   5.726  -1.808  1.00  0.00    -0.200 F 
ENDBRANCH  57  81
BRANCH  69  92
ATOM     92  C   UNL     1     -13.053   8.539   1.360  1.00  0.00     0.064 A 
ATOM     93  C   UNL     1     -12.551   9.847   1.248  1.00  0.00     0.173 A 
ATOM     94  C   UNL     1     -14.453   8.425   1.492  1.00  0.00     0.173 A 
ATOM     95  F   UNL     1     -11.257  10.074   0.981  1.00  0.00    -0.203 F 
ATOM     96  C   UNL     1     -13.376  10.966   1.359  1.00  0.00     0.198 A 
ATOM     97  C   UNL     1     -15.282   9.545   1.548  1.00  0.00     0.198 A 
ATOM     98  F   UNL     1     -15.053   7.227   1.551  1.00  0.00    -0.203 F 
ATOM     99  F   UNL     1     -12.839  12.193   1.305  1.00  0.00    -0.200 F 
ATOM    100  C   UNL     1     -14.741  10.815   1.505  1.00  0.00     0.200 A 
ATOM    101  F   UNL     1     -16.611   9.387   1.631  1.00  0.00    -0.200 F 
ATOM    102  F   UNL     1     -15.534  11.891   1.583  1.00  0.00    -0.200 F 
ENDBRANCH  69  92
ENDBRANCH  43  44
ENDBRANCH  35  38
ENDBRANCH  33  34
ENDBRANCH  32  33
ENDBRANCH   1  32
TORSDOF 14
