REMARK SMILES CS(=O)(=O)c1ccc(/C=C(/C(=O)NCCCCNC(=O)c2ccc(-c3c4nc(c(-c5c(F)c(F)c(F)c(F)c5F)c5ccc([nH]5)c(-c5c(F)c(F)c(F)c(F)c5F)c5nc(c(-c6c(F)c(F)c(F)c(F)c6F)c6ccc3[nH]6)C=C5)C=C4)cc2)c2cccc(-c3ccc(S(C)(=O)=O)cc3)c2)cc1
REMARK SMILES IDX 15 1 14 2 13 3 11 4 12 5 10 7 9 8 8 9 5 10 6 11 101 12 7 13
REMARK SMILES IDX 100 14 2 15 1 16 3 17 4 18 84 19 85 20 99 21 86 22 88 23
REMARK SMILES IDX 87 24 89 25 90 26 98 27 91 28 97 29 92 30 93 31 94 32 95 33
REMARK SMILES IDX 96 34 16 35 17 36 18 37 19 38 20 40 21 41 22 42 83 43 23 44
REMARK SMILES IDX 82 45 24 46 25 47 26 48 76 49 27 50 81 51 75 52 77 53 28 54
REMARK SMILES IDX 80 55 74 56 73 57 29 59 61 60 41 61 60 62 42 63 45 64 59 65
REMARK SMILES IDX 78 66 43 67 44 68 58 70 79 71 46 72 30 73 31 74 39 75 32 76
REMARK SMILES IDX 33 77 37 78 40 79 34 80 35 81 38 82 36 83 62 84 63 85 71 86
REMARK SMILES IDX 64 87 65 88 69 89 72 90 66 91 67 92 70 93 68 94 47 95 48 96
REMARK SMILES IDX 56 97 49 98 50 99 54 100 57 101 51 102 52 103 55 104 53 105
REMARK H PARENT 13 6 18 39 77 58 45 69
REMARK Flexibility Score: inf
ROOT
ATOM      1  C   UNL     1       1.125   9.315  -1.477  1.00  0.00     0.023 C 
ENDROOT
BRANCH   1   2
ATOM      2  C   UNL     1       1.664   8.787  -2.811  1.00  0.00     0.116 C 
BRANCH   2   3
ATOM      3  N   UNL     1       3.113   8.792  -2.799  1.00  0.00    -0.352 N 
ATOM      4  C   UNL     1       4.051   7.840  -2.545  1.00  0.00     0.251 C 
ATOM      5  O   UNL     1       5.224   8.221  -2.562  1.00  0.00    -0.269 OA
ATOM      6  H   UNL     1       3.501   9.668  -3.023  1.00  0.00     0.163 HD
BRANCH   4   7
ATOM      7  C   UNL     1       3.721   6.377  -2.339  1.00  0.00     0.047 C 
ATOM      8  C   UNL     1       2.589   5.977  -1.712  1.00  0.00     0.022 C 
BRANCH   8   9
ATOM      9  C   UNL     1       2.032   4.616  -1.535  1.00  0.00    -0.025 A 
ATOM     10  C   UNL     1       0.872   2.063  -1.441  1.00  0.00     0.067 A 
ATOM     11  C   UNL     1       2.227   2.223  -1.151  1.00  0.00     0.021 A 
ATOM     12  C   UNL     1       0.077   3.168  -1.740  1.00  0.00     0.021 A 
ATOM     13  C   UNL     1       2.789   3.502  -1.156  1.00  0.00     0.009 A 
ATOM     14  C   UNL     1       0.660   4.438  -1.792  1.00  0.00     0.009 A 
BRANCH  10  15
ATOM     15  S   UNL     1       0.163   0.435  -1.436  1.00  0.00     0.175 S 
ATOM     16  C   UNL     1       0.624  -0.243   0.136  1.00  0.00     0.163 C 
ATOM     17  O   UNL     1       0.843  -0.318  -2.472  1.00  0.00    -0.224 OA
ATOM     18  O   UNL     1      -1.279   0.586  -1.433  1.00  0.00    -0.224 OA
ENDBRANCH  10  15
ENDBRANCH   8   9
BRANCH   7  19
ATOM     19  C   UNL     1       4.774   5.391  -2.699  1.00  0.00    -0.012 A 
ATOM     20  C   UNL     1       5.979   5.395  -1.979  1.00  0.00     0.009 A 
ATOM     21  C   UNL     1       4.546   4.368  -3.629  1.00  0.00     0.017 A 
ATOM     22  C   UNL     1       6.919   4.382  -2.155  1.00  0.00     0.001 A 
ATOM     23  C   UNL     1       5.452   3.301  -3.769  1.00  0.00    -0.018 A 
ATOM     24  C   UNL     1       6.647   3.333  -3.031  1.00  0.00     0.009 A 
BRANCH  23  25
ATOM     25  C   UNL     1       5.091   2.128  -4.577  1.00  0.00    -0.018 A 
ATOM     26  C   UNL     1       5.002   0.857  -3.979  1.00  0.00     0.010 A 
ATOM     27  C   UNL     1       4.751   2.254  -5.933  1.00  0.00     0.010 A 
ATOM     28  C   UNL     1       4.567  -0.254  -4.705  1.00  0.00     0.021 A 
ATOM     29  C   UNL     1       4.324   1.147  -6.671  1.00  0.00     0.021 A 
ATOM     30  C   UNL     1       4.236  -0.101  -6.051  1.00  0.00     0.067 A 
BRANCH  30  31
ATOM     31  S   UNL     1       3.656  -1.508  -6.966  1.00  0.00     0.175 S 
ATOM     32  C   UNL     1       5.086  -2.549  -7.082  1.00  0.00     0.163 C 
ATOM     33  O   UNL     1       2.673  -2.185  -6.144  1.00  0.00    -0.224 OA
ATOM     34  O   UNL     1       3.331  -1.062  -8.308  1.00  0.00    -0.224 OA
ENDBRANCH  30  31
ENDBRANCH  23  25
ENDBRANCH   7  19
ENDBRANCH   4   7
ENDBRANCH   2   3
ENDBRANCH   1   2
BRANCH   1  35
ATOM     35  C   UNL     1       1.322  10.821  -1.272  1.00  0.00     0.023 C 
BRANCH  35  36
ATOM     36  C   UNL     1       0.620  11.706  -2.295  1.00  0.00     0.116 C 
BRANCH  36  37
ATOM     37  N   UNL     1      -0.817  11.485  -2.348  1.00  0.00    -0.352 N 
ATOM     38  C   UNL     1      -1.814  12.399  -2.584  1.00  0.00     0.251 C 
ATOM     39  H   UNL     1      -1.113  10.559  -2.194  1.00  0.00     0.163 HD
ATOM     40  O   UNL     1      -2.992  12.075  -2.481  1.00  0.00    -0.269 OA
BRANCH  38  41
ATOM     41  C   UNL     1      -1.454  13.788  -2.928  1.00  0.00     0.039 A 
ATOM     42  C   UNL     1      -2.064  14.834  -2.231  1.00  0.00     0.014 A 
ATOM     43  C   UNL     1      -0.499  14.054  -3.913  1.00  0.00     0.014 A 
ATOM     44  C   UNL     1      -1.670  16.149  -2.480  1.00  0.00     0.010 A 
ATOM     45  C   UNL     1      -0.060  15.358  -4.112  1.00  0.00     0.010 A 
ATOM     46  C   UNL     1      -0.643  16.418  -3.399  1.00  0.00    -0.014 A 
BRANCH  46  47
ATOM     47  C   UNL     1      -0.168  17.801  -3.644  1.00  0.00     0.031 A 
ATOM     48  C   UNL     1      -0.356  18.427  -4.997  1.00  0.00     0.074 A 
ATOM     49  C   UNL     1       0.498  18.461  -2.677  1.00  0.00     0.049 A 
ATOM     50  N   UNL     1       0.077  19.577  -5.446  1.00  0.00    -0.248 NA
ATOM     51  C   UNL     1      -1.105  17.638  -5.988  1.00  0.00     0.031 C 
ATOM     52  C   UNL     1       0.779  17.942  -1.338  1.00  0.00     0.029 A 
ATOM     53  N   UNL     1       1.074  19.706  -2.678  1.00  0.00    -0.354 N 
ATOM     54  C   UNL     1      -0.329  19.640  -6.772  1.00  0.00     0.074 A 
ATOM     55  C   UNL     1      -0.997  18.393  -7.071  1.00  0.00     0.031 C 
ATOM     56  C   UNL     1       1.460  18.866  -0.642  1.00  0.00     0.029 A 
ATOM     57  C   UNL     1       1.696  20.027  -1.496  1.00  0.00     0.049 A 
ATOM     58  H   UNL     1       1.044  20.313  -3.453  1.00  0.00     0.167 HD
ATOM     59  C   UNL     1      -0.176  20.657  -7.653  1.00  0.00     0.037 A 
ATOM     60  C   UNL     1       2.387  21.129  -1.147  1.00  0.00     0.037 A 
ATOM     61  C   UNL     1       0.462  21.908  -7.341  1.00  0.00     0.049 A 
ATOM     62  C   UNL     1       2.539  22.245  -2.145  1.00  0.00     0.074 A 
ATOM     63  C   UNL     1       0.617  23.023  -8.145  1.00  0.00     0.029 A 
ATOM     64  N   UNL     1       1.051  22.209  -6.121  1.00  0.00    -0.354 N 
ATOM     65  N   UNL     1       2.098  22.320  -3.377  1.00  0.00    -0.248 NA
ATOM     66  C   UNL     1       3.279  23.435  -1.700  1.00  0.00     0.031 C 
ATOM     67  C   UNL     1       1.335  23.984  -7.426  1.00  0.00     0.029 A 
ATOM     68  C   UNL     1       1.584  23.487  -6.157  1.00  0.00     0.049 A 
ATOM     69  H   UNL     1       1.085  21.603  -5.345  1.00  0.00     0.167 HD
ATOM     70  C   UNL     1       2.474  23.573  -3.842  1.00  0.00     0.074 A 
ATOM     71  C   UNL     1       3.174  24.228  -2.757  1.00  0.00     0.031 C 
ATOM     72  C   UNL     1       2.259  24.130  -5.059  1.00  0.00     0.037 A 
BRANCH  59  73
ATOM     73  C   UNL     1      -0.714  20.458  -9.041  1.00  0.00     0.064 A 
ATOM     74  C   UNL     1      -2.093  20.411  -9.295  1.00  0.00     0.173 A 
ATOM     75  C   UNL     1       0.158  20.346 -10.133  1.00  0.00     0.173 A 
ATOM     76  F   UNL     1      -2.970  20.502  -8.283  1.00  0.00    -0.203 F 
ATOM     77  C   UNL     1      -2.578  20.228 -10.587  1.00  0.00     0.198 A 
ATOM     78  C   UNL     1      -0.331  20.194 -11.428  1.00  0.00     0.198 A 
ATOM     79  F   UNL     1       1.486  20.389  -9.947  1.00  0.00    -0.203 F 
ATOM     80  F   UNL     1      -3.898  20.134 -10.798  1.00  0.00    -0.200 F 
ATOM     81  C   UNL     1      -1.698  20.126 -11.653  1.00  0.00     0.200 A 
ATOM     82  F   UNL     1       0.521  20.109 -12.459  1.00  0.00    -0.200 F 
ATOM     83  F   UNL     1      -2.166  19.956 -12.897  1.00  0.00    -0.200 F 
ENDBRANCH  59  73
BRANCH  60  84
ATOM     84  C   UNL     1       2.964  21.243   0.217  1.00  0.00     0.064 A 
ATOM     85  C   UNL     1       2.440  22.154   1.145  1.00  0.00     0.173 A 
ATOM     86  C   UNL     1       4.051  20.454   0.620  1.00  0.00     0.173 A 
ATOM     87  F   UNL     1       1.413  22.944   0.799  1.00  0.00    -0.203 F 
ATOM     88  C   UNL     1       2.994  22.288   2.416  1.00  0.00     0.198 A 
ATOM     89  C   UNL     1       4.587  20.569   1.901  1.00  0.00     0.198 A 
ATOM     90  F   UNL     1       4.586  19.564  -0.227  1.00  0.00    -0.203 F 
ATOM     91  F   UNL     1       2.502  23.199   3.266  1.00  0.00    -0.200 F 
ATOM     92  C   UNL     1       4.064  21.492   2.795  1.00  0.00     0.200 A 
ATOM     93  F   UNL     1       5.612  19.788   2.269  1.00  0.00    -0.200 F 
ATOM     94  F   UNL     1       4.596  21.619   4.018  1.00  0.00    -0.200 F 
ENDBRANCH  60  84
BRANCH  72  95
ATOM     95  C   UNL     1       2.738  25.537  -5.268  1.00  0.00     0.064 A 
ATOM     96  C   UNL     1       4.099  25.840  -5.406  1.00  0.00     0.173 A 
ATOM     97  C   UNL     1       1.814  26.587  -5.385  1.00  0.00     0.173 A 
ATOM     98  F   UNL     1       5.022  24.874  -5.288  1.00  0.00    -0.203 F 
ATOM     99  C   UNL     1       4.520  27.148  -5.632  1.00  0.00     0.198 A 
ATOM    100  C   UNL     1       2.236  27.888  -5.639  1.00  0.00     0.198 A 
ATOM    101  F   UNL     1       0.499  26.347  -5.267  1.00  0.00    -0.203 F 
ATOM    102  F   UNL     1       5.829  27.423  -5.718  1.00  0.00    -0.200 F 
ATOM    103  C   UNL     1       3.589  28.169  -5.757  1.00  0.00     0.200 A 
ATOM    104  F   UNL     1       1.334  28.870  -5.774  1.00  0.00    -0.200 F 
ATOM    105  F   UNL     1       3.996  29.425  -5.985  1.00  0.00    -0.200 F 
ENDBRANCH  72  95
ENDBRANCH  46  47
ENDBRANCH  38  41
ENDBRANCH  36  37
ENDBRANCH  35  36
ENDBRANCH   1  35
TORSDOF 16
