REMARK SMILES COCc1cccc(O[C@@H](F)C(=O)NCCCCNC(=O)c2ccc(-c3c4nc(c(-c5c(F)c(F)c(F)c(F)c5F)c5ccc([nH]5)c(-c5c(F)c(F)c(F)c(F)c5F)c5nc(c(-c6c(F)c(F)c(F)c(F)c6F)c6ccc3[nH]6)C=C5)C=C4)cc2)c1
REMARK SMILES IDX 15 1 14 2 12 3 13 4 10 6 11 7 9 8 8 9 4 10 5 11 85 12 6 13
REMARK SMILES IDX 7 14 3 15 2 16 1 17 16 18 17 19 18 20 19 21 20 22 21 24
REMARK SMILES IDX 22 25 23 26 84 27 24 28 83 29 25 30 26 31 27 32 77 33 28 34
REMARK SMILES IDX 82 35 76 36 78 37 29 38 81 39 75 40 74 41 30 43 62 44 42 45
REMARK SMILES IDX 61 46 43 47 46 48 60 49 79 50 44 51 45 52 59 54 80 55 47 56
REMARK SMILES IDX 31 57 32 58 40 59 33 60 34 61 38 62 41 63 35 64 36 65 39 66
REMARK SMILES IDX 37 67 63 68 64 69 72 70 65 71 66 72 70 73 73 74 67 75 68 76
REMARK SMILES IDX 71 77 69 78 48 79 49 80 57 81 50 82 51 83 55 84 58 85 52 86
REMARK SMILES IDX 53 87 56 88 54 89
REMARK H PARENT 14 5 19 23 78 42 46 53
REMARK Flexibility Score: inf
ROOT
ATOM      1  C   UNL     1       2.795  -0.928   1.550  1.00  0.00     0.116 C 
ENDROOT
BRANCH   1   2
ATOM      2  N   UNL     1       3.503  -2.190   1.555  1.00  0.00    -0.350 N 
ATOM      3  C   UNL     1       3.021  -3.468   1.469  1.00  0.00     0.294 C 
ATOM      4  O   UNL     1       3.848  -4.379   1.606  1.00  0.00    -0.267 OA
ATOM      5  H   UNL     1       4.482  -2.118   1.633  1.00  0.00     0.163 HD
BRANCH   3   6
ATOM      6  C   UNL     1       1.526  -3.783   1.183  1.00  0.00     0.440 C 
ATOM      7  F   UNL     1       1.027  -3.032   0.157  1.00  0.00    -0.191 F 
BRANCH   6   8
ATOM      8  O   UNL     1       0.620  -3.838   2.287  1.00  0.00    -0.452 OA
BRANCH   8   9
ATOM      9  C   UNL     1       0.003  -2.698   2.706  1.00  0.00     0.124 A 
ATOM     10  C   UNL     1      -1.036  -0.523   2.350  1.00  0.00    -0.019 A 
ATOM     11  C   UNL     1      -1.098  -0.345   3.741  1.00  0.00     0.006 A 
ATOM     12  C   UNL     1      -0.561  -1.747   1.858  1.00  0.00     0.052 A 
ATOM     13  C   UNL     1      -0.660  -1.352   4.605  1.00  0.00     0.004 A 
ATOM     14  C   UNL     1      -0.096  -2.519   4.086  1.00  0.00     0.046 A 
BRANCH  10  15
ATOM     15  C   UNL     1      -1.367   0.639   1.437  1.00  0.00     0.195 C 
BRANCH  15  16
ATOM     16  O   UNL     1      -1.504   0.301   0.055  1.00  0.00    -0.380 OA
ATOM     17  C   UNL     1      -0.303   0.412  -0.700  1.00  0.00     0.195 C 
ENDBRANCH  15  16
ENDBRANCH  10  15
ENDBRANCH   8   9
ENDBRANCH   6   8
ENDBRANCH   3   6
ENDBRANCH   1   2
BRANCH   1  18
ATOM     18  C   UNL     1       2.640  -0.380   2.972  1.00  0.00     0.023 C 
BRANCH  18  19
ATOM     19  C   UNL     1       3.494   0.849   3.274  1.00  0.00     0.023 C 
BRANCH  19  20
ATOM     20  C   UNL     1       3.088   2.105   2.509  1.00  0.00     0.116 C 
BRANCH  20  21
ATOM     21  N   UNL     1       1.780   2.633   2.870  1.00  0.00    -0.352 N 
ATOM     22  C   UNL     1       1.359   3.949   2.885  1.00  0.00     0.251 C 
ATOM     23  H   UNL     1       1.108   1.966   3.138  1.00  0.00     0.163 HD
ATOM     24  O   UNL     1       0.221   4.235   3.225  1.00  0.00    -0.269 OA
BRANCH  22  25
ATOM     25  C   UNL     1       2.337   5.015   2.563  1.00  0.00     0.039 A 
ATOM     26  C   UNL     1       2.527   6.044   3.489  1.00  0.00     0.014 A 
ATOM     27  C   UNL     1       3.146   4.929   1.429  1.00  0.00     0.014 A 
ATOM     28  C   UNL     1       3.615   6.909   3.344  1.00  0.00     0.010 A 
ATOM     29  C   UNL     1       4.273   5.739   1.328  1.00  0.00     0.010 A 
ATOM     30  C   UNL     1       4.537   6.715   2.302  1.00  0.00    -0.014 A 
BRANCH  30  31
ATOM     31  C   UNL     1       5.811   7.480   2.248  1.00  0.00     0.031 A 
ATOM     32  C   UNL     1       6.102   8.389   1.089  1.00  0.00     0.074 A 
ATOM     33  C   UNL     1       6.742   7.287   3.205  1.00  0.00     0.049 A 
ATOM     34  N   UNL     1       7.191   9.063   0.820  1.00  0.00    -0.248 NA
ATOM     35  C   UNL     1       5.040   8.536   0.082  1.00  0.00     0.031 C 
ATOM     36  C   UNL     1       6.607   6.382   4.350  1.00  0.00     0.029 A 
ATOM     37  N   UNL     1       7.993   7.830   3.364  1.00  0.00    -0.354 N 
ATOM     38  C   UNL     1       6.950   9.703  -0.388  1.00  0.00     0.074 A 
ATOM     39  C   UNL     1       5.633   9.295  -0.828  1.00  0.00     0.031 C 
ATOM     40  C   UNL     1       7.716   6.453   5.104  1.00  0.00     0.029 A 
ATOM     41  C   UNL     1       8.656   7.379   4.481  1.00  0.00     0.049 A 
ATOM     42  H   UNL     1       8.380   8.483   2.736  1.00  0.00     0.167 HD
ATOM     43  C   UNL     1       7.744  10.572  -1.058  1.00  0.00     0.037 A 
ATOM     44  C   UNL     1       9.884   7.677   4.947  1.00  0.00     0.037 A 
ATOM     45  C   UNL     1       9.041  11.000  -0.607  1.00  0.00     0.049 A 
ATOM     46  C   UNL     1      10.735   8.662   4.192  1.00  0.00     0.074 A 
ATOM     47  C   UNL     1       9.907  11.904  -1.197  1.00  0.00     0.029 A 
ATOM     48  N   UNL     1       9.656  10.557   0.555  1.00  0.00    -0.354 N 
ATOM     49  N   UNL     1      10.470   9.302   3.080  1.00  0.00    -0.248 NA
ATOM     50  C   UNL     1      12.054   8.973   4.763  1.00  0.00     0.031 C 
ATOM     51  C   UNL     1      11.056  11.991  -0.405  1.00  0.00     0.029 A 
ATOM     52  C   UNL     1      10.891  11.168   0.697  1.00  0.00     0.049 A 
ATOM     53  H   UNL     1       9.272   9.906   1.185  1.00  0.00     0.167 HD
ATOM     54  C   UNL     1      11.571  10.111   2.834  1.00  0.00     0.074 A 
ATOM     55  C   UNL     1      12.502   9.893   3.921  1.00  0.00     0.031 C 
ATOM     56  C   UNL     1      11.793  10.955   1.798  1.00  0.00     0.037 A 
BRANCH  43  57
ATOM     57  C   UNL     1       7.218  11.139  -2.343  1.00  0.00     0.064 A 
ATOM     58  C   UNL     1       6.179  12.081  -2.352  1.00  0.00     0.173 A 
ATOM     59  C   UNL     1       7.783  10.770  -3.573  1.00  0.00     0.173 A 
ATOM     60  F   UNL     1       5.597  12.454  -1.203  1.00  0.00    -0.203 F 
ATOM     61  C   UNL     1       5.708  12.616  -3.548  1.00  0.00     0.198 A 
ATOM     62  C   UNL     1       7.328  11.328  -4.765  1.00  0.00     0.198 A 
ATOM     63  F   UNL     1       8.782   9.876  -3.618  1.00  0.00    -0.203 F 
ATOM     64  F   UNL     1       4.686  13.482  -3.535  1.00  0.00    -0.200 F 
ATOM     65  C   UNL     1       6.288  12.246  -4.752  1.00  0.00     0.200 A 
ATOM     66  F   UNL     1       7.895  10.977  -5.927  1.00  0.00    -0.200 F 
ATOM     67  F   UNL     1       5.839  12.768  -5.901  1.00  0.00    -0.200 F 
ENDBRANCH  43  57
BRANCH  44  68
ATOM     68  C   UNL     1      10.380   7.061   6.206  1.00  0.00     0.064 A 
ATOM     69  C   UNL     1      10.549   7.833   7.365  1.00  0.00     0.173 A 
ATOM     70  C   UNL     1      10.723   5.703   6.272  1.00  0.00     0.173 A 
ATOM     71  F   UNL     1      10.255   9.142   7.345  1.00  0.00    -0.203 F 
ATOM     72  C   UNL     1      11.070   7.278   8.532  1.00  0.00     0.198 A 
ATOM     73  C   UNL     1      11.218   5.142   7.448  1.00  0.00     0.198 A 
ATOM     74  F   UNL     1      10.575   4.919   5.194  1.00  0.00    -0.203 F 
ATOM     75  F   UNL     1      11.273   8.052   9.606  1.00  0.00    -0.200 F 
ATOM     76  C   UNL     1      11.401   5.932   8.574  1.00  0.00     0.200 A 
ATOM     77  F   UNL     1      11.526   3.839   7.489  1.00  0.00    -0.200 F 
ATOM     78  F   UNL     1      11.907   5.399   9.694  1.00  0.00    -0.200 F 
ENDBRANCH  44  68
BRANCH  56  79
ATOM     79  C   UNL     1      13.071  11.738   1.813  1.00  0.00     0.064 A 
ATOM     80  C   UNL     1      14.304  11.136   1.527  1.00  0.00     0.173 A 
ATOM     81  C   UNL     1      13.054  13.116   2.076  1.00  0.00     0.173 A 
ATOM     82  F   UNL     1      14.371   9.818   1.285  1.00  0.00    -0.203 F 
ATOM     83  C   UNL     1      15.479  11.882   1.524  1.00  0.00     0.198 A 
ATOM     84  C   UNL     1      14.228  13.864   2.047  1.00  0.00     0.198 A 
ATOM     85  F   UNL     1      11.898  13.738   2.351  1.00  0.00    -0.203 F 
ATOM     86  F   UNL     1      16.653  11.280   1.287  1.00  0.00    -0.200 F 
ATOM     87  C   UNL     1      15.439  13.246   1.777  1.00  0.00     0.200 A 
ATOM     88  F   UNL     1      14.186  15.183   2.282  1.00  0.00    -0.200 F 
ATOM     89  F   UNL     1      16.571  13.963   1.767  1.00  0.00    -0.200 F 
ENDBRANCH  56  79
ENDBRANCH  30  31
ENDBRANCH  22  25
ENDBRANCH  20  21
ENDBRANCH  19  20
ENDBRANCH  18  19
ENDBRANCH   1  18
TORSDOF 15
