REMARK SMILES O=C(CCc1cncc([C@@H]2CN(c3ccccc3)CCO2)n1)NCCCCNC(=O)c1ccc(-c2c3nc(c(-c4c(F)c(F)c(F)c(F)c4F)c4ccc([nH]4)c(-c4c(F)c(F)c(F)c(F)c4F)c4nc(c(-c5c(F)c(F)c(F)c(F)c5F)c5ccc2[nH]5)C=C4)C=C3)cc1
REMARK SMILES IDX 24 1 23 2 1 3 2 4 3 6 4 7 5 8 6 9 22 10 7 11 9 12 8 13 10 14
REMARK SMILES IDX 11 15 21 16 12 17 20 18 19 19 13 20 14 21 18 22 15 23 17 24
REMARK SMILES IDX 16 25 25 26 26 27 27 28 28 29 29 30 30 32 31 33 32 34 93 35
REMARK SMILES IDX 33 36 92 37 34 38 35 39 36 40 86 41 37 42 91 43 85 44 87 45
REMARK SMILES IDX 38 46 90 47 84 48 83 49 39 51 71 52 51 53 70 54 52 55 55 56
REMARK SMILES IDX 69 57 88 58 53 59 54 60 68 62 89 63 56 64 40 65 41 66 49 67
REMARK SMILES IDX 42 68 43 69 47 70 50 71 44 72 45 73 48 74 46 75 72 76 73 77
REMARK SMILES IDX 81 78 74 79 75 80 79 81 82 82 76 83 77 84 80 85 78 86 57 87
REMARK SMILES IDX 58 88 66 89 59 90 60 91 64 92 67 93 61 94 62 95 65 96 63 97
REMARK H PARENT 23 5 28 31 87 50 55 61
REMARK Flexibility Score: inf
ROOT
ATOM      1  C   UNL     1       1.993   1.670   1.859  1.00  0.00     0.116 C 
ENDROOT
BRANCH   1   2
ATOM      2  N   UNL     1       2.708   0.696   1.064  1.00  0.00    -0.356 N 
ATOM      3  O   UNL     1       0.904  -0.036  -0.164  1.00  0.00    -0.275 OA
ATOM      4  C   UNL     1       2.108  -0.057   0.082  1.00  0.00     0.220 C 
ATOM      5  H   UNL     1       3.668   0.565   1.234  1.00  0.00     0.163 HD
BRANCH   4   6
ATOM      6  C   UNL     1       3.064  -0.952  -0.680  1.00  0.00     0.106 C 
BRANCH   6   7
ATOM      7  C   UNL     1       3.847  -0.187  -1.746  1.00  0.00     0.068 C 
BRANCH   7   8
ATOM      8  C   UNL     1       4.884   0.742  -1.173  1.00  0.00     0.060 A 
ATOM      9  C   UNL     1       6.057   0.252  -0.612  1.00  0.00     0.134 A 
ATOM     10  N   UNL     1       4.605   2.071  -1.159  1.00  0.00    -0.252 NA
ATOM     11  N   UNL     1       6.981   1.054  -0.038  1.00  0.00    -0.261 NA
ATOM     12  C   UNL     1       5.548   2.901  -0.637  1.00  0.00     0.090 A 
ATOM     13  C   UNL     1       6.718   2.380  -0.098  1.00  0.00     0.137 A 
BRANCH  12  14
ATOM     14  C   UNL     1       5.339   4.403  -0.687  1.00  0.00     0.188 C 
ATOM     15  C   UNL     1       3.901   4.812  -0.289  1.00  0.00     0.155 C 
ATOM     16  O   UNL     1       5.684   4.874  -2.009  1.00  0.00    -0.368 OA
ATOM     17  N   UNL     1       3.687   6.256  -0.487  1.00  0.00    -0.366 N 
ATOM     18  C   UNL     1       5.530   6.302  -2.106  1.00  0.00     0.182 C 
ATOM     19  C   UNL     1       4.088   6.750  -1.810  1.00  0.00     0.145 C 
BRANCH  17  20
ATOM     20  C   UNL     1       3.680   7.152   0.564  1.00  0.00     0.037 A 
ATOM     21  C   UNL     1       2.625   8.066   0.684  1.00  0.00     0.026 A 
ATOM     22  C   UNL     1       4.698   7.210   1.518  1.00  0.00     0.026 A 
ATOM     23  C   UNL     1       2.570   8.982   1.740  1.00  0.00     0.002 A 
ATOM     24  C   UNL     1       4.656   8.129   2.572  1.00  0.00     0.002 A 
ATOM     25  C   UNL     1       3.586   9.009   2.689  1.00  0.00     0.000 A 
ENDBRANCH  17  20
ENDBRANCH  12  14
ENDBRANCH   7   8
ENDBRANCH   6   7
ENDBRANCH   4   6
ENDBRANCH   1   2
BRANCH   1  26
ATOM     26  C   UNL     1       2.264   1.504   3.353  1.00  0.00     0.023 C 
BRANCH  26  27
ATOM     27  C   UNL     1       3.740   1.534   3.774  1.00  0.00     0.023 C 
BRANCH  27  28
ATOM     28  C   UNL     1       4.530   2.777   3.372  1.00  0.00     0.116 C 
BRANCH  28  29
ATOM     29  N   UNL     1       4.009   3.995   3.964  1.00  0.00    -0.352 N 
ATOM     30  C   UNL     1       4.655   5.064   4.531  1.00  0.00     0.251 C 
ATOM     31  H   UNL     1       3.027   4.066   3.957  1.00  0.00     0.163 HD
ATOM     32  O   UNL     1       3.991   5.892   5.158  1.00  0.00    -0.269 OA
BRANCH  30  33
ATOM     33  C   UNL     1       6.125   5.254   4.428  1.00  0.00     0.039 A 
ATOM     34  C   UNL     1       6.777   5.926   5.471  1.00  0.00     0.014 A 
ATOM     35  C   UNL     1       6.862   4.866   3.305  1.00  0.00     0.014 A 
ATOM     36  C   UNL     1       8.157   6.145   5.421  1.00  0.00     0.010 A 
ATOM     37  C   UNL     1       8.244   5.056   3.263  1.00  0.00     0.010 A 
ATOM     38  C   UNL     1       8.904   5.680   4.330  1.00  0.00    -0.014 A 
BRANCH  38  39
ATOM     39  C   UNL     1      10.385   5.723   4.344  1.00  0.00     0.031 A 
ATOM     40  C   UNL     1      11.149   6.664   3.463  1.00  0.00     0.074 A 
ATOM     41  C   UNL     1      11.036   4.820   5.102  1.00  0.00     0.049 A 
ATOM     42  N   UNL     1      12.444   6.785   3.313  1.00  0.00    -0.248 NA
ATOM     43  C   UNL     1      10.358   7.577   2.626  1.00  0.00     0.031 C 
ATOM     44  C   UNL     1      10.390   3.821   5.955  1.00  0.00     0.029 A 
ATOM     45  N   UNL     1      12.376   4.579   5.259  1.00  0.00    -0.354 N 
ATOM     46  C   UNL     1      12.627   7.783   2.367  1.00  0.00     0.074 A 
ATOM     47  C   UNL     1      11.307   8.212   1.949  1.00  0.00     0.031 C 
ATOM     48  C   UNL     1      11.334   3.071   6.544  1.00  0.00     0.029 A 
ATOM     49  C   UNL     1      12.646   3.522   6.093  1.00  0.00     0.049 A 
ATOM     50  H   UNL     1      13.076   5.111   4.817  1.00  0.00     0.167 HD
ATOM     51  C   UNL     1      13.792   8.299   1.903  1.00  0.00     0.037 A 
ATOM     52  C   UNL     1      13.821   2.972   6.448  1.00  0.00     0.037 A 
ATOM     53  C   UNL     1      15.099   7.867   2.331  1.00  0.00     0.049 A 
ATOM     54  C   UNL     1      15.096   3.562   5.916  1.00  0.00     0.074 A 
ATOM     55  C   UNL     1      16.337   8.378   1.978  1.00  0.00     0.029 A 
ATOM     56  N   UNL     1      15.338   6.811   3.199  1.00  0.00    -0.354 N 
ATOM     57  N   UNL     1      15.258   4.567   5.092  1.00  0.00    -0.248 NA
ATOM     58  C   UNL     1      16.349   2.948   6.373  1.00  0.00     0.031 C 
ATOM     59  C   UNL     1      17.325   7.603   2.596  1.00  0.00     0.029 A 
ATOM     60  C   UNL     1      16.703   6.638   3.371  1.00  0.00     0.049 A 
ATOM     61  H   UNL     1      14.641   6.265   3.629  1.00  0.00     0.167 HD
ATOM     62  C   UNL     1      16.629   4.727   4.953  1.00  0.00     0.074 A 
ATOM     63  C   UNL     1      17.253   3.719   5.786  1.00  0.00     0.031 C 
ATOM     64  C   UNL     1      17.308   5.630   4.204  1.00  0.00     0.037 A 
BRANCH  51  65
ATOM     65  C   UNL     1      13.714   9.394   0.879  1.00  0.00     0.064 A 
ATOM     66  C   UNL     1      13.292  10.688   1.219  1.00  0.00     0.173 A 
ATOM     67  C   UNL     1      14.127   9.165  -0.443  1.00  0.00     0.173 A 
ATOM     68  F   UNL     1      12.881  10.957   2.467  1.00  0.00    -0.203 F 
ATOM     69  C   UNL     1      13.266  11.707   0.269  1.00  0.00     0.198 A 
ATOM     70  C   UNL     1      14.124  10.193  -1.383  1.00  0.00     0.198 A 
ATOM     71  F   UNL     1      14.548   7.948  -0.819  1.00  0.00    -0.203 F 
ATOM     72  F   UNL     1      12.826  12.926   0.609  1.00  0.00    -0.200 F 
ATOM     73  C   UNL     1      13.689  11.460  -1.028  1.00  0.00     0.200 A 
ATOM     74  F   UNL     1      14.544   9.956  -2.634  1.00  0.00    -0.200 F 
ATOM     75  F   UNL     1      13.672  12.444  -1.938  1.00  0.00    -0.200 F 
ENDBRANCH  51  65
BRANCH  52  76
ATOM     76  C   UNL     1      13.839   1.820   7.383  1.00  0.00     0.064 A 
ATOM     77  C   UNL     1      14.275   1.978   8.705  1.00  0.00     0.173 A 
ATOM     78  C   UNL     1      13.399   0.549   6.986  1.00  0.00     0.173 A 
ATOM     79  F   UNL     1      14.719   3.172   9.124  1.00  0.00    -0.203 F 
ATOM     80  C   UNL     1      14.283   0.905   9.592  1.00  0.00     0.198 A 
ATOM     81  C   UNL     1      13.385  -0.518   7.880  1.00  0.00     0.198 A 
ATOM     82  F   UNL     1      12.963   0.351   5.733  1.00  0.00    -0.203 F 
ATOM     83  F   UNL     1      14.737   1.075  10.841  1.00  0.00    -0.200 F 
ATOM     84  C   UNL     1      13.833  -0.341   9.181  1.00  0.00     0.200 A 
ATOM     85  F   UNL     1      12.935  -1.716   7.484  1.00  0.00    -0.200 F 
ATOM     86  F   UNL     1      13.833  -1.371  10.037  1.00  0.00    -0.200 F 
ENDBRANCH  52  76
BRANCH  64  87
ATOM     87  C   UNL     1      18.805   5.585   4.277  1.00  0.00     0.064 A 
ATOM     88  C   UNL     1      19.540   4.564   3.658  1.00  0.00     0.173 A 
ATOM     89  C   UNL     1      19.514   6.588   4.956  1.00  0.00     0.173 A 
ATOM     90  F   UNL     1      18.907   3.572   3.013  1.00  0.00    -0.203 F 
ATOM     91  C   UNL     1      20.930   4.535   3.737  1.00  0.00     0.198 A 
ATOM     92  C   UNL     1      20.904   6.570   5.011  1.00  0.00     0.198 A 
ATOM     93  F   UNL     1      18.856   7.588   5.562  1.00  0.00    -0.203 F 
ATOM     94  F   UNL     1      21.610   3.524   3.178  1.00  0.00    -0.200 F 
ATOM     95  C   UNL     1      21.611   5.541   4.407  1.00  0.00     0.200 A 
ATOM     96  F   UNL     1      21.561   7.547   5.651  1.00  0.00    -0.200 F 
ATOM     97  F   UNL     1      22.948   5.513   4.479  1.00  0.00    -0.200 F 
ENDBRANCH  64  87
ENDBRANCH  38  39
ENDBRANCH  30  33
ENDBRANCH  28  29
ENDBRANCH  27  28
ENDBRANCH  26  27
ENDBRANCH   1  26
TORSDOF 15
