REMARK SMILES Cc1ccc(C(=O)N[C@@H](CC(=O)NCCCCNC(=O)c2ccc(-c3c4nc(c(-c5c(F)c(F)c(F)c(F)c5F)c5ccc([nH]5)c(-c5c(F)c(F)c(F)c(F)c5F)c5nc(c(-c6c(F)c(F)c(F)c(F)c6F)c6ccc3[nH]6)C=C5)C=C4)cc2)c2cccs2)o1
REMARK SMILES IDX 15 1 14 2 13 3 11 4 12 5 10 7 9 8 8 9 6 10 7 11 5 13 1 14
REMARK SMILES IDX 2 15 3 16 89 17 4 18 84 19 85 20 88 21 86 22 87 23 16 24
REMARK SMILES IDX 17 25 18 26 19 27 20 29 21 30 22 31 83 32 23 33 82 34 24 35
REMARK SMILES IDX 25 36 26 37 76 38 27 39 81 40 75 41 77 42 28 43 80 44 74 45
REMARK SMILES IDX 73 46 29 48 61 49 41 50 60 51 42 52 45 53 59 54 78 55 43 56
REMARK SMILES IDX 44 57 58 59 79 60 46 61 30 62 31 63 39 64 32 65 33 66 37 67
REMARK SMILES IDX 40 68 34 69 35 70 38 71 36 72 62 73 63 74 71 75 64 76 65 77
REMARK SMILES IDX 69 78 72 79 66 80 67 81 70 82 68 83 47 84 48 85 56 86 49 87
REMARK SMILES IDX 50 88 54 89 57 90 51 91 52 92 55 93 53 94
REMARK H PARENT 13 6 8 12 18 28 77 47 45 58
REMARK Flexibility Score: inf
ROOT
ATOM      1  C   UNL     1      -4.939   3.403   0.227  1.00  0.00     0.023 C 
ENDROOT
BRANCH   1   2
ATOM      2  C   UNL     1      -5.049   2.529   1.475  1.00  0.00     0.116 C 
BRANCH   2   3
ATOM      3  N   UNL     1      -6.167   1.611   1.380  1.00  0.00    -0.356 N 
ATOM      4  C   UNL     1      -6.178   0.260   1.219  1.00  0.00     0.222 C 
ATOM      5  O   UNL     1      -7.271  -0.307   1.166  1.00  0.00    -0.275 OA
ATOM      6  H   UNL     1      -7.056   2.030   1.442  1.00  0.00     0.163 HD
BRANCH   4   7
ATOM      7  C   UNL     1      -4.889  -0.535   1.162  1.00  0.00     0.130 C 
BRANCH   7   8
ATOM      8  C   UNL     1      -4.180  -0.631  -0.195  1.00  0.00     0.132 C 
BRANCH   8   9
ATOM      9  N   UNL     1      -3.397   0.545  -0.522  1.00  0.00    -0.341 N 
ATOM     10  C   UNL     1      -2.096   0.930  -0.371  1.00  0.00     0.287 C 
ATOM     11  O   UNL     1      -1.910   2.144  -0.506  1.00  0.00    -0.266 OA
ATOM     12  H   UNL     1      -3.939   1.238  -0.964  1.00  0.00     0.164 HD
BRANCH  10  13
ATOM     13  C   UNL     1      -1.016  -0.001  -0.130  1.00  0.00     0.191 A 
ATOM     14  C   UNL     1       2.558   0.007   0.178  1.00  0.00     0.087 C 
ATOM     15  C   UNL     1       1.149  -0.423   0.104  1.00  0.00     0.101 A 
ATOM     16  C   UNL     1       0.523  -1.645   0.061  1.00  0.00     0.046 A 
ATOM     17  O   UNL     1       0.228   0.569   0.021  1.00  0.00    -0.456 OA
ATOM     18  C   UNL     1      -0.862  -1.376  -0.095  1.00  0.00     0.056 A 
ENDBRANCH  10  13
ENDBRANCH   8   9
BRANCH   8  19
ATOM     19  C   UNL     1      -5.083  -0.932  -1.371  1.00  0.00     0.027 A 
ATOM     20  C   UNL     1      -5.306  -2.160  -1.968  1.00  0.00     0.017 A 
ATOM     21  S   UNL     1      -5.943   0.311  -2.198  1.00  0.00    -0.147 S 
ATOM     22  C   UNL     1      -6.149  -2.070  -3.114  1.00  0.00     0.012 A 
ATOM     23  C   UNL     1      -6.561  -0.780  -3.352  1.00  0.00     0.065 A 
ENDBRANCH   8  19
ENDBRANCH   7   8
ENDBRANCH   4   7
ENDBRANCH   2   3
ENDBRANCH   1   2
BRANCH   1  24
ATOM     24  C   UNL     1      -6.016   4.467   0.079  1.00  0.00     0.023 C 
BRANCH  24  25
ATOM     25  C   UNL     1      -6.051   5.488   1.200  1.00  0.00     0.116 C 
BRANCH  25  26
ATOM     26  N   UNL     1      -4.788   6.189   1.383  1.00  0.00    -0.352 N 
ATOM     27  C   UNL     1      -4.575   7.534   1.577  1.00  0.00     0.251 C 
ATOM     28  H   UNL     1      -3.981   5.626   1.367  1.00  0.00     0.163 HD
ATOM     29  O   UNL     1      -3.445   7.998   1.617  1.00  0.00    -0.269 OA
BRANCH  27  30
ATOM     30  C   UNL     1      -5.748   8.422   1.692  1.00  0.00     0.039 A 
ATOM     31  C   UNL     1      -5.814   9.563   0.891  1.00  0.00     0.014 A 
ATOM     32  C   UNL     1      -6.811   8.073   2.529  1.00  0.00     0.014 A 
ATOM     33  C   UNL     1      -6.988  10.316   0.872  1.00  0.00     0.010 A 
ATOM     34  C   UNL     1      -8.010   8.764   2.431  1.00  0.00     0.010 A 
ATOM     35  C   UNL     1      -8.107   9.897   1.609  1.00  0.00    -0.014 A 
BRANCH  35  36
ATOM     36  C   UNL     1      -9.390  10.638   1.557  1.00  0.00     0.031 A 
ATOM     37  C   UNL     1      -9.939  11.256   2.811  1.00  0.00     0.074 A 
ATOM     38  C   UNL     1     -10.095  10.680   0.411  1.00  0.00     0.049 A 
ATOM     39  N   UNL     1     -11.083  11.861   3.006  1.00  0.00    -0.248 NA
ATOM     40  C   UNL     1      -9.107  11.143   4.020  1.00  0.00     0.031 C 
ATOM     41  C   UNL     1      -9.696  10.059  -0.853  1.00  0.00     0.029 A 
ATOM     42  N   UNL     1     -11.305  11.261   0.128  1.00  0.00    -0.354 N 
ATOM     43  C   UNL     1     -11.116  12.172   4.359  1.00  0.00     0.074 A 
ATOM     44  C   UNL     1      -9.911  11.634   4.950  1.00  0.00     0.031 C 
ATOM     45  C   UNL     1     -10.631  10.315  -1.783  1.00  0.00     0.029 A 
ATOM     46  C   UNL     1     -11.709  11.087  -1.173  1.00  0.00     0.049 A 
ATOM     47  H   UNL     1     -11.834  11.756   0.795  1.00  0.00     0.167 HD
ATOM     48  C   UNL     1     -12.053  12.871   5.041  1.00  0.00     0.037 A 
ATOM     49  C   UNL     1     -12.825  11.504  -1.799  1.00  0.00     0.037 A 
ATOM     50  C   UNL     1     -13.227  13.439   4.438  1.00  0.00     0.049 A 
ATOM     51  C   UNL     1     -13.838  12.305  -1.028  1.00  0.00     0.074 A 
ATOM     52  C   UNL     1     -14.202  14.228   5.020  1.00  0.00     0.029 A 
ATOM     53  N   UNL     1     -13.583  13.278   3.106  1.00  0.00    -0.354 N 
ATOM     54  N   UNL     1     -13.826  12.659   0.235  1.00  0.00    -0.248 NA
ATOM     55  C   UNL     1     -15.017  12.772  -1.770  1.00  0.00     0.031 C 
ATOM     56  C   UNL     1     -15.169  14.514   4.049  1.00  0.00     0.029 A 
ATOM     57  C   UNL     1     -14.772  13.940   2.851  1.00  0.00     0.049 A 
ATOM     58  H   UNL     1     -13.066  12.769   2.440  1.00  0.00     0.167 HD
ATOM     59  C   UNL     1     -14.976  13.409   0.433  1.00  0.00     0.074 A 
ATOM     60  C   UNL     1     -15.658  13.471  -0.844  1.00  0.00     0.031 C 
ATOM     61  C   UNL     1     -15.429  13.993   1.570  1.00  0.00     0.037 A 
BRANCH  48  62
ATOM     62  C   UNL     1     -11.832  13.062   6.514  1.00  0.00     0.064 A 
ATOM     63  C   UNL     1     -10.795  13.872   7.004  1.00  0.00     0.173 A 
ATOM     64  C   UNL     1     -12.667  12.431   7.447  1.00  0.00     0.173 A 
ATOM     65  F   UNL     1      -9.958  14.486   6.153  1.00  0.00    -0.203 F 
ATOM     66  C   UNL     1     -10.578  14.010   8.372  1.00  0.00     0.198 A 
ATOM     67  C   UNL     1     -12.467  12.598   8.815  1.00  0.00     0.198 A 
ATOM     68  F   UNL     1     -13.675  11.649   7.034  1.00  0.00    -0.203 F 
ATOM     69  F   UNL     1      -9.542  14.736   8.814  1.00  0.00    -0.200 F 
ATOM     70  C   UNL     1     -11.416  13.378   9.276  1.00  0.00     0.200 A 
ATOM     71  F   UNL     1     -13.285  11.996   9.689  1.00  0.00    -0.200 F 
ATOM     72  F   UNL     1     -11.206  13.511  10.593  1.00  0.00    -0.200 F 
ENDBRANCH  48  62
BRANCH  49  73
ATOM     73  C   UNL     1     -13.019  11.205  -3.241  1.00  0.00     0.064 A 
ATOM     74  C   UNL     1     -12.922  12.220  -4.202  1.00  0.00     0.173 A 
ATOM     75  C   UNL     1     -13.287   9.904  -3.690  1.00  0.00     0.173 A 
ATOM     76  F   UNL     1     -12.685  13.484  -3.820  1.00  0.00    -0.203 F 
ATOM     77  C   UNL     1     -13.101  11.949  -5.557  1.00  0.00     0.198 A 
ATOM     78  C   UNL     1     -13.441   9.629  -5.047  1.00  0.00     0.198 A 
ATOM     79  F   UNL     1     -13.383   8.897  -2.810  1.00  0.00    -0.203 F 
ATOM     80  F   UNL     1     -13.039  12.945  -6.452  1.00  0.00    -0.200 F 
ATOM     81  C   UNL     1     -13.354  10.652  -5.979  1.00  0.00     0.200 A 
ATOM     82  F   UNL     1     -13.671   8.373  -5.452  1.00  0.00    -0.200 F 
ATOM     83  F   UNL     1     -13.518  10.390  -7.283  1.00  0.00    -0.200 F 
ENDBRANCH  49  73
BRANCH  61  84
ATOM     84  C   UNL     1     -16.706  14.775   1.477  1.00  0.00     0.064 A 
ATOM     85  C   UNL     1     -17.948  14.140   1.343  1.00  0.00     0.173 A 
ATOM     86  C   UNL     1     -16.688  16.175   1.573  1.00  0.00     0.173 A 
ATOM     87  F   UNL     1     -18.015  12.805   1.232  1.00  0.00    -0.203 F 
ATOM     88  C   UNL     1     -19.126  14.880   1.286  1.00  0.00     0.198 A 
ATOM     89  C   UNL     1     -17.869  16.910   1.545  1.00  0.00     0.198 A 
ATOM     90  F   UNL     1     -15.524  16.829   1.710  1.00  0.00    -0.203 F 
ATOM     91  F   UNL     1     -20.299  14.255   1.114  1.00  0.00    -0.200 F 
ATOM     92  C   UNL     1     -19.086  16.262   1.395  1.00  0.00     0.200 A 
ATOM     93  F   UNL     1     -17.830  18.244   1.664  1.00  0.00    -0.200 F 
ATOM     94  F   UNL     1     -20.222  16.972   1.349  1.00  0.00    -0.200 F 
ENDBRANCH  61  84
ENDBRANCH  35  36
ENDBRANCH  27  30
ENDBRANCH  25  26
ENDBRANCH  24  25
ENDBRANCH   1  24
TORSDOF 15
