REMARK SMILES Cc1cccc(O[C@H](C)C(=O)NNC(=O)[C@H]2[C@@H]3CC[C@@H](C3)[C@@H]2C(=O)NCCCCNC(=O)c2ccc(-c3c4nc(c(-c5c(F)c(F)c(F)c(F)c5F)c5ccc([nH]5)c(-c5c(F)c(F)c(F)c(F)c5F)c5nc(c(-c6c(F)c(F)c(F)c(F)c6F)c6ccc3[nH]6)C=C5)C=C4)cc2)c1
REMARK SMILES IDX 26 1 25 2 23 3 24 4 22 6 16 7 17 8 18 9 21 10 20 11 19 12
REMARK SMILES IDX 14 13 13 14 15 16 12 17 10 18 11 19 8 21 9 22 7 23 6 24 1 25
REMARK SMILES IDX 2 26 3 27 96 28 4 29 5 30 27 31 28 32 29 33 30 34 31 35
REMARK SMILES IDX 32 37 33 38 34 39 95 40 35 41 94 42 36 43 37 44 38 45 88 46
REMARK SMILES IDX 39 47 93 48 87 49 89 50 40 51 92 52 86 53 85 54 41 56 73 57
REMARK SMILES IDX 53 58 72 59 54 60 57 61 71 62 90 63 55 64 56 65 70 67 91 68
REMARK SMILES IDX 58 69 42 70 43 71 51 72 44 73 45 74 49 75 52 76 46 77 47 78
REMARK SMILES IDX 50 79 48 80 74 81 75 82 83 83 76 84 77 85 81 86 84 87 78 88
REMARK SMILES IDX 79 89 82 90 80 91 59 92 60 93 68 94 61 95 62 96 66 97 69 98
REMARK SMILES IDX 63 99 64 100 67 101 65 102
REMARK H PARENT 25 5 13 15 12 20 30 36 89 55 57 66
REMARK Flexibility Score: inf
ROOT
ATOM      1  C   UNL     1       3.458   5.251  -3.058  1.00  0.00     0.116 C 
ENDROOT
BRANCH   1   2
ATOM      2  N   UNL     1       4.542   4.309  -2.815  1.00  0.00    -0.356 N 
ATOM      3  C   UNL     1       4.500   2.944  -2.712  1.00  0.00     0.224 C 
ATOM      4  O   UNL     1       5.538   2.337  -2.462  1.00  0.00    -0.275 OA
ATOM      5  H   UNL     1       5.434   4.712  -2.710  1.00  0.00     0.163 HD
BRANCH   3   6
ATOM      6  C   UNL     1       3.162   2.257  -2.922  1.00  0.00     0.094 C 
ATOM      7  C   UNL     1       3.010   0.891  -2.239  1.00  0.00     0.096 C 
ATOM      8  C   UNL     1       2.440  -0.013  -3.364  1.00  0.00     0.002 C 
ATOM      9  C   UNL     1       3.610  -0.382  -4.298  1.00  0.00     0.005 C 
ATOM     10  C   UNL     1       1.677   0.953  -4.270  1.00  0.00     0.009 C 
ATOM     11  C   UNL     1       2.860   1.915  -4.405  1.00  0.00     0.002 C 
ATOM     12  C   UNL     1       3.921   0.958  -4.991  1.00  0.00     0.005 C 
BRANCH   7  13
ATOM     13  C   UNL     1       2.228   0.819  -0.930  1.00  0.00     0.242 C 
ATOM     14  N   UNL     1       1.131   1.565  -0.613  1.00  0.00    -0.267 N 
ATOM     15  H   UNL     1       0.802   1.459   0.308  1.00  0.00     0.191 HD
ATOM     16  O   UNL     1       2.585  -0.009  -0.080  1.00  0.00    -0.273 OA
BRANCH  14  17
ATOM     17  N   UNL     1       0.420   2.441  -1.393  1.00  0.00    -0.264 N 
ATOM     18  C   UNL     1      -0.448   3.410  -0.999  1.00  0.00     0.279 C 
ATOM     19  O   UNL     1      -0.682   4.279  -1.856  1.00  0.00    -0.269 OA
ATOM     20  H   UNL     1       0.555   2.356  -2.364  1.00  0.00     0.191 HD
BRANCH  18  21
ATOM     21  C   UNL     1      -1.242   3.429   0.338  1.00  0.00     0.260 C 
ATOM     22  C   UNL     1      -2.640   2.828   0.138  1.00  0.00     0.064 C 
BRANCH  21  23
ATOM     23  O   UNL     1      -0.709   3.314   1.638  1.00  0.00    -0.481 OA
BRANCH  23  24
ATOM     24  C   UNL     1      -0.270   2.174   2.222  1.00  0.00     0.120 A 
ATOM     25  C   UNL     1       2.368   1.577   4.916  1.00  0.00     0.044 C 
ATOM     26  C   UNL     1       1.321   1.330   3.872  1.00  0.00    -0.047 A 
ATOM     27  C   UNL     1       0.992   0.025   3.503  1.00  0.00     0.003 A 
ATOM     28  C   UNL     1       0.677   2.395   3.231  1.00  0.00     0.049 A 
ATOM     29  C   UNL     1       0.018  -0.206   2.533  1.00  0.00     0.004 A 
ATOM     30  C   UNL     1      -0.625   0.866   1.906  1.00  0.00     0.046 A 
ENDBRANCH  23  24
ENDBRANCH  21  23
ENDBRANCH  18  21
ENDBRANCH  14  17
ENDBRANCH   7  13
ENDBRANCH   3   6
ENDBRANCH   1   2
BRANCH   1  31
ATOM     31  C   UNL     1       2.904   5.882  -1.772  1.00  0.00     0.023 C 
BRANCH  31  32
ATOM     32  C   UNL     1       3.910   6.684  -0.937  1.00  0.00     0.023 C 
BRANCH  32  33
ATOM     33  C   UNL     1       4.577   7.842  -1.669  1.00  0.00     0.116 C 
BRANCH  33  34
ATOM     34  N   UNL     1       3.848   9.101  -1.664  1.00  0.00    -0.352 N 
ATOM     35  C   UNL     1       4.085  10.267  -2.383  1.00  0.00     0.251 C 
ATOM     36  H   UNL     1       3.070   9.132  -1.061  1.00  0.00     0.163 HD
ATOM     37  O   UNL     1       3.440  11.271  -2.139  1.00  0.00    -0.269 OA
BRANCH  35  38
ATOM     38  C   UNL     1       5.022  10.254  -3.543  1.00  0.00     0.039 A 
ATOM     39  C   UNL     1       4.641  10.939  -4.707  1.00  0.00     0.014 A 
ATOM     40  C   UNL     1       6.144   9.434  -3.569  1.00  0.00     0.014 A 
ATOM     41  C   UNL     1       5.210  10.588  -5.932  1.00  0.00     0.010 A 
ATOM     42  C   UNL     1       6.624   8.998  -4.787  1.00  0.00     0.010 A 
ATOM     43  C   UNL     1       6.106   9.522  -5.975  1.00  0.00    -0.014 A 
BRANCH  43  44
ATOM     44  C   UNL     1       6.439   8.779  -7.187  1.00  0.00     0.031 A 
ATOM     45  C   UNL     1       7.806   8.798  -7.753  1.00  0.00     0.074 A 
ATOM     46  C   UNL     1       5.527   7.912  -7.684  1.00  0.00     0.049 A 
ATOM     47  N   UNL     1       8.095   8.392  -8.944  1.00  0.00    -0.248 NA
ATOM     48  C   UNL     1       8.964   9.297  -7.020  1.00  0.00     0.031 C 
ATOM     49  C   UNL     1       5.759   6.815  -8.621  1.00  0.00     0.029 A 
ATOM     50  N   UNL     1       4.128   7.971  -7.565  1.00  0.00    -0.354 N 
ATOM     51  C   UNL     1       9.462   8.339  -9.052  1.00  0.00     0.074 A 
ATOM     52  C   UNL     1       9.962   8.945  -7.838  1.00  0.00     0.031 C 
ATOM     53  C   UNL     1       4.599   6.504  -9.221  1.00  0.00     0.029 A 
ATOM     54  C   UNL     1       3.625   7.494  -8.802  1.00  0.00     0.049 A 
ATOM     55  H   UNL     1       3.607   8.278  -6.788  1.00  0.00     0.167 HD
ATOM     56  C   UNL     1      10.031   7.700 -10.112  1.00  0.00     0.037 A 
ATOM     57  C   UNL     1       2.930   8.319  -9.640  1.00  0.00     0.037 A 
ATOM     58  C   UNL     1       9.035   7.201 -11.051  1.00  0.00     0.049 A 
ATOM     59  C   UNL     1       3.563   8.524 -11.001  1.00  0.00     0.074 A 
ATOM     60  C   UNL     1       8.418   5.978 -11.251  1.00  0.00     0.029 A 
ATOM     61  N   UNL     1       8.307   8.121 -11.780  1.00  0.00    -0.354 N 
ATOM     62  N   UNL     1       4.731   8.060 -11.347  1.00  0.00    -0.248 NA
ATOM     63  C   UNL     1       2.971   9.371 -12.040  1.00  0.00     0.031 C 
ATOM     64  C   UNL     1       7.289   6.184 -12.093  1.00  0.00     0.029 A 
ATOM     65  C   UNL     1       7.229   7.529 -12.406  1.00  0.00     0.049 A 
ATOM     66  H   UNL     1       8.529   9.078 -11.844  1.00  0.00     0.167 HD
ATOM     67  C   UNL     1       5.079   8.581 -12.563  1.00  0.00     0.074 A 
ATOM     68  C   UNL     1       3.944   9.386 -12.966  1.00  0.00     0.031 C 
ATOM     69  C   UNL     1       6.296   8.365 -13.134  1.00  0.00     0.037 A 
BRANCH  56  70
ATOM     70  C   UNL     1      11.495   7.370 -10.197  1.00  0.00     0.064 A 
ATOM     71  C   UNL     1      11.931   6.166 -10.788  1.00  0.00     0.173 A 
ATOM     72  C   UNL     1      12.514   8.199  -9.696  1.00  0.00     0.173 A 
ATOM     73  F   UNL     1      11.068   5.317 -11.361  1.00  0.00    -0.203 F 
ATOM     74  C   UNL     1      13.273   5.783 -10.795  1.00  0.00     0.198 A 
ATOM     75  C   UNL     1      13.850   7.789  -9.650  1.00  0.00     0.198 A 
ATOM     76  F   UNL     1      12.248   9.441  -9.269  1.00  0.00    -0.203 F 
ATOM     77  F   UNL     1      13.632   4.629 -11.374  1.00  0.00    -0.200 F 
ATOM     78  C   UNL     1      14.228   6.578 -10.195  1.00  0.00     0.200 A 
ATOM     79  F   UNL     1      14.768   8.577  -9.073  1.00  0.00    -0.200 F 
ATOM     80  F   UNL     1      15.509   6.187 -10.158  1.00  0.00    -0.200 F 
ENDBRANCH  56  70
BRANCH  57  81
ATOM     81  C   UNL     1       2.159   9.357  -8.904  1.00  0.00     0.064 A 
ATOM     82  C   UNL     1       1.172   8.939  -7.990  1.00  0.00     0.173 A 
ATOM     83  C   UNL     1       2.631  10.670  -8.796  1.00  0.00     0.173 A 
ATOM     84  F   UNL     1       0.691   7.686  -8.049  1.00  0.00    -0.203 F 
ATOM     85  C   UNL     1       0.776   9.754  -6.933  1.00  0.00     0.198 A 
ATOM     86  C   UNL     1       2.213  11.492  -7.749  1.00  0.00     0.198 A 
ATOM     87  F   UNL     1       3.584  11.122  -9.623  1.00  0.00    -0.203 F 
ATOM     88  F   UNL     1      -0.065   9.280  -6.003  1.00  0.00    -0.200 F 
ATOM     89  C   UNL     1       1.318  11.020  -6.799  1.00  0.00     0.200 A 
ATOM     90  F   UNL     1       2.759  12.707  -7.602  1.00  0.00    -0.200 F 
ATOM     91  F   UNL     1       1.018  11.770  -5.729  1.00  0.00    -0.200 F 
ENDBRANCH  57  81
BRANCH  69  92
ATOM     92  C   UNL     1       6.692   8.945 -14.453  1.00  0.00     0.064 A 
ATOM     93  C   UNL     1       5.904   8.775 -15.600  1.00  0.00     0.173 A 
ATOM     94  C   UNL     1       7.940   9.575 -14.629  1.00  0.00     0.173 A 
ATOM     95  F   UNL     1       4.713   8.162 -15.524  1.00  0.00    -0.203 F 
ATOM     96  C   UNL     1       6.335   9.223 -16.849  1.00  0.00     0.198 A 
ATOM     97  C   UNL     1       8.388   9.977 -15.883  1.00  0.00     0.198 A 
ATOM     98  F   UNL     1       8.741   9.829 -13.583  1.00  0.00    -0.203 F 
ATOM     99  F   UNL     1       5.539   9.078 -17.918  1.00  0.00    -0.200 F 
ATOM    100  C   UNL     1       7.582   9.807 -16.993  1.00  0.00     0.200 A 
ATOM    101  F   UNL     1       9.603  10.529 -16.010  1.00  0.00    -0.200 F 
ATOM    102  F   UNL     1       8.006  10.210 -18.199  1.00  0.00    -0.200 F 
ENDBRANCH  69  92
ENDBRANCH  43  44
ENDBRANCH  35  38
ENDBRANCH  33  34
ENDBRANCH  32  33
ENDBRANCH  31  32
ENDBRANCH   1  31
TORSDOF 16
