REMARK SMILES CC[NH2+][C@]1(C(=O)NCCCCNC(=O)c2ccc(-c3c4nc(c(-c5c(F)c(F)c(F)c(F)c5F)c5ccc([nH]5)c(-c5c(F)c(F)c(F)c(F)c5F)c5nc(c(-c6c(F)c(F)c(F)c(F)c6F)c6ccc3[nH]6)C=C5)C=C4)cc2)CC[C@H](OCC)C1
REMARK SMILES IDX 9 1 8 2 7 3 5 4 6 5 4 7 78 8 84 9 79 10 80 11 3 12 2 15 1 16
REMARK SMILES IDX 81 17 82 18 83 19 10 20 11 21 12 22 13 23 14 25 15 26 16 27
REMARK SMILES IDX 77 28 17 29 76 30 18 31 19 32 20 33 70 34 21 35 75 36 69 37
REMARK SMILES IDX 71 38 22 39 74 40 68 41 67 42 23 44 55 45 35 46 54 47 36 48
REMARK SMILES IDX 39 49 53 50 72 51 37 52 38 53 52 55 73 56 40 57 24 58 25 59
REMARK SMILES IDX 33 60 26 61 27 62 31 63 34 64 28 65 29 66 32 67 30 68 56 69
REMARK SMILES IDX 57 70 65 71 58 72 59 73 63 74 66 75 60 76 61 77 64 78 62 79
REMARK SMILES IDX 41 80 42 81 50 82 43 83 44 84 48 85 51 86 45 87 46 88 49 89
REMARK SMILES IDX 47 90
REMARK H PARENT 7 6 3 13 3 14 12 24 71 43 39 54
REMARK Flexibility Score: inf
ROOT
ATOM      1  C   UNL     1       0.110  -0.296  -2.702  1.00  0.00     0.023 C 
ENDROOT
BRANCH   1   2
ATOM      2  C   UNL     1       1.067  -1.413  -2.308  1.00  0.00     0.116 C 
BRANCH   2   3
ATOM      3  N   UNL     1       1.288  -1.505  -0.878  1.00  0.00    -0.351 N 
ATOM      4  C   UNL     1       1.196  -2.589  -0.040  1.00  0.00     0.281 C 
ATOM      5  O   UNL     1       1.561  -2.424   1.125  1.00  0.00    -0.268 OA
ATOM      6  H   UNL     1       1.542  -0.661  -0.440  1.00  0.00     0.163 HD
BRANCH   4   7
ATOM      7  C   UNL     1       0.602  -3.937  -0.574  1.00  0.00     0.178 C 
ATOM      8  C   UNL     1       1.554  -4.536  -1.627  1.00  0.00     0.082 C 
ATOM      9  C   UNL     1       0.666  -5.027   0.525  1.00  0.00     0.111 C 
ATOM     10  C   UNL     1       1.368  -6.042  -1.584  1.00  0.00     0.039 C 
ATOM     11  C   UNL     1       0.866  -6.375  -0.182  1.00  0.00     0.125 C 
BRANCH   7  12
ATOM     12  N   UNL     1      -0.818  -3.674  -0.895  1.00  0.00    -0.334 N 
ATOM     13  H   UNL     1      -1.367  -3.969  -0.088  1.00  0.00     0.347 HD
ATOM     14  H   UNL     1      -0.836  -2.680  -1.122  1.00  0.00     0.347 HD
BRANCH  12  15
ATOM     15  C   UNL     1      -1.407  -4.305  -2.061  1.00  0.00     0.257 C 
ATOM     16  C   UNL     1      -2.853  -3.842  -2.190  1.00  0.00     0.071 C 
ENDBRANCH  12  15
ENDBRANCH   7  12
BRANCH  11  17
ATOM     17  O   UNL     1      -0.375  -7.076  -0.249  1.00  0.00    -0.378 OA
BRANCH  17  18
ATOM     18  C   UNL     1      -0.265  -8.498  -0.268  1.00  0.00     0.157 C 
ATOM     19  C   UNL     1       0.264  -9.040  -1.584  1.00  0.00     0.035 C 
ENDBRANCH  17  18
ENDBRANCH  11  17
ENDBRANCH   4   7
ENDBRANCH   2   3
ENDBRANCH   1   2
BRANCH   1  20
ATOM     20  C   UNL     1       0.585   1.117  -2.376  1.00  0.00     0.023 C 
BRANCH  20  21
ATOM     21  C   UNL     1       1.994   1.461  -2.844  1.00  0.00     0.116 C 
BRANCH  21  22
ATOM     22  N   UNL     1       2.188   1.291  -4.277  1.00  0.00    -0.352 N 
ATOM     23  C   UNL     1       2.704   2.171  -5.199  1.00  0.00     0.251 C 
ATOM     24  H   UNL     1       1.909   0.419  -4.638  1.00  0.00     0.163 HD
ATOM     25  O   UNL     1       2.702   1.887  -6.393  1.00  0.00    -0.269 OA
BRANCH  23  26
ATOM     26  C   UNL     1       3.225   3.480  -4.753  1.00  0.00     0.039 A 
ATOM     27  C   UNL     1       2.814   4.632  -5.428  1.00  0.00     0.014 A 
ATOM     28  C   UNL     1       4.082   3.575  -3.655  1.00  0.00     0.014 A 
ATOM     29  C   UNL     1       3.194   5.887  -4.948  1.00  0.00     0.010 A 
ATOM     30  C   UNL     1       4.393   4.826  -3.130  1.00  0.00     0.010 A 
ATOM     31  C   UNL     1       3.947   5.994  -3.767  1.00  0.00    -0.014 A 
BRANCH  31  32
ATOM     32  C   UNL     1       4.270   7.317  -3.175  1.00  0.00     0.031 A 
ATOM     33  C   UNL     1       5.700   7.760  -3.054  1.00  0.00     0.074 A 
ATOM     34  C   UNL     1       3.280   8.083  -2.673  1.00  0.00     0.049 A 
ATOM     35  N   UNL     1       6.190   8.833  -2.486  1.00  0.00    -0.248 NA
ATOM     36  C   UNL     1       6.720   6.864  -3.621  1.00  0.00     0.031 C 
ATOM     37  C   UNL     1       1.857   7.740  -2.680  1.00  0.00     0.029 A 
ATOM     38  N   UNL     1       3.323   9.303  -2.046  1.00  0.00    -0.354 N 
ATOM     39  C   UNL     1       7.569   8.730  -2.610  1.00  0.00     0.074 A 
ATOM     40  C   UNL     1       7.843   7.468  -3.262  1.00  0.00     0.031 C 
ATOM     41  C   UNL     1       1.162   8.733  -2.104  1.00  0.00     0.029 A 
ATOM     42  C   UNL     1       2.090   9.765  -1.654  1.00  0.00     0.049 A 
ATOM     43  H   UNL     1       4.159   9.801  -1.891  1.00  0.00     0.167 HD
ATOM     44  C   UNL     1       8.520   9.618  -2.235  1.00  0.00     0.037 A 
ATOM     45  C   UNL     1       1.749  10.891  -0.998  1.00  0.00     0.037 A 
ATOM     46  C   UNL     1       8.243  10.889  -1.619  1.00  0.00     0.049 A 
ATOM     47  C   UNL     1       2.825  11.865  -0.601  1.00  0.00     0.074 A 
ATOM     48  C   UNL     1       9.133  11.887  -1.264  1.00  0.00     0.029 A 
ATOM     49  N   UNL     1       6.979  11.336  -1.266  1.00  0.00    -0.354 N 
ATOM     50  N   UNL     1       4.120  11.789  -0.788  1.00  0.00    -0.248 NA
ATOM     51  C   UNL     1       2.391  13.086   0.093  1.00  0.00     0.031 C 
ATOM     52  C   UNL     1       8.412  12.922  -0.660  1.00  0.00     0.029 A 
ATOM     53  C   UNL     1       7.067  12.589  -0.681  1.00  0.00     0.049 A 
ATOM     54  H   UNL     1       6.142  10.837  -1.410  1.00  0.00     0.167 HD
ATOM     55  C   UNL     1       4.651  12.959  -0.263  1.00  0.00     0.074 A 
ATOM     56  C   UNL     1       3.537  13.736   0.237  1.00  0.00     0.031 C 
ATOM     57  C   UNL     1       5.946  13.354  -0.201  1.00  0.00     0.037 A 
BRANCH  44  58
ATOM     58  C   UNL     1       9.952   9.252  -2.492  1.00  0.00     0.064 A 
ATOM     59  C   UNL     1      10.480   9.219  -3.792  1.00  0.00     0.173 A 
ATOM     60  C   UNL     1      10.819   8.974  -1.424  1.00  0.00     0.173 A 
ATOM     61  F   UNL     1       9.690   9.465  -4.848  1.00  0.00    -0.203 F 
ATOM     62  C   UNL     1      11.815   8.894  -4.014  1.00  0.00     0.198 A 
ATOM     63  C   UNL     1      12.161   8.679  -1.649  1.00  0.00     0.198 A 
ATOM     64  F   UNL     1      10.366   8.998  -0.162  1.00  0.00    -0.203 F 
ATOM     65  F   UNL     1      12.285   8.823  -5.268  1.00  0.00    -0.200 F 
ATOM     66  C   UNL     1      12.656   8.632  -2.943  1.00  0.00     0.200 A 
ATOM     67  F   UNL     1      12.975   8.438  -0.612  1.00  0.00    -0.200 F 
ATOM     68  F   UNL     1      13.944   8.329  -3.159  1.00  0.00    -0.200 F 
ENDBRANCH  44  58
BRANCH  45  69
ATOM     69  C   UNL     1       0.322  11.173  -0.693  1.00  0.00     0.064 A 
ATOM     70  C   UNL     1      -0.360  12.209  -1.345  1.00  0.00     0.173 A 
ATOM     71  C   UNL     1      -0.384  10.427   0.262  1.00  0.00     0.173 A 
ATOM     72  F   UNL     1       0.278  12.964  -2.252  1.00  0.00    -0.203 F 
ATOM     73  C   UNL     1      -1.687  12.504  -1.038  1.00  0.00     0.198 A 
ATOM     74  C   UNL     1      -1.718  10.705   0.549  1.00  0.00     0.198 A 
ATOM     75  F   UNL     1       0.222   9.422   0.911  1.00  0.00    -0.203 F 
ATOM     76  F   UNL     1      -2.299  13.532  -1.641  1.00  0.00    -0.200 F 
ATOM     77  C   UNL     1      -2.366  11.749  -0.094  1.00  0.00     0.200 A 
ATOM     78  F   UNL     1      -2.376   9.964   1.452  1.00  0.00    -0.200 F 
ATOM     79  F   UNL     1      -3.642  12.033   0.202  1.00  0.00    -0.200 F 
ENDBRANCH  45  69
BRANCH  57  80
ATOM     80  C   UNL     1       6.226  14.703   0.395  1.00  0.00     0.064 A 
ATOM     81  C   UNL     1       6.114  14.936   1.773  1.00  0.00     0.173 A 
ATOM     82  C   UNL     1       6.652  15.763  -0.420  1.00  0.00     0.173 A 
ATOM     83  F   UNL     1       5.696  13.958   2.591  1.00  0.00    -0.203 F 
ATOM     84  C   UNL     1       6.396  16.189   2.311  1.00  0.00     0.198 A 
ATOM     85  C   UNL     1       6.960  17.006   0.125  1.00  0.00     0.198 A 
ATOM     86  F   UNL     1       6.780  15.588  -1.744  1.00  0.00    -0.203 F 
ATOM     87  F   UNL     1       6.239  16.402   3.625  1.00  0.00    -0.200 F 
ATOM     88  C   UNL     1       6.825  17.219   1.489  1.00  0.00     0.200 A 
ATOM     89  F   UNL     1       7.387  17.997  -0.669  1.00  0.00    -0.200 F 
ATOM     90  F   UNL     1       7.103  18.422   2.010  1.00  0.00    -0.200 F 
ENDBRANCH  57  80
ENDBRANCH  31  32
ENDBRANCH  23  26
ENDBRANCH  21  22
ENDBRANCH  20  21
ENDBRANCH   1  20
TORSDOF 15
