REMARK SMILES O=C(CCC(=O)O[C@@H]1N=C(c2ccccc2)c2cc(Br)ccc2NC1=O)NCCCCNC(=O)c1ccc(-c2c3nc(c(-c4c(F)c(F)c(F)c(F)c4F)c4ccc([nH]4)c(-c4c(F)c(F)c(F)c(F)c4F)c4nc(c(-c5c(F)c(F)c(F)c(F)c5F)c5ccc2[nH]5)C=C4)C=C3)cc1
REMARK SMILES IDX 1 1 2 2 27 3 3 5 4 6 5 7 6 8 7 9 8 10 9 12 10 13 11 14 12 15
REMARK SMILES IDX 16 16 13 17 15 18 14 19 17 20 18 21 23 22 19 23 22 24 20 25
REMARK SMILES IDX 21 26 24 27 25 28 26 30 28 32 29 33 30 34 31 35 32 36 33 37
REMARK SMILES IDX 34 39 35 40 36 41 97 42 37 43 96 44 38 45 39 46 40 47 90 48
REMARK SMILES IDX 41 49 95 50 89 51 91 52 42 53 94 54 88 55 87 56 43 58 75 59
REMARK SMILES IDX 55 60 74 61 56 62 59 63 73 64 92 65 57 66 58 67 72 69 93 70
REMARK SMILES IDX 60 71 44 72 45 73 53 74 46 75 47 76 51 77 54 78 48 79 49 80
REMARK SMILES IDX 52 81 50 82 76 83 77 84 85 85 78 86 79 87 83 88 86 89 80 90
REMARK SMILES IDX 81 91 84 92 82 93 61 94 62 95 70 96 63 97 64 98 68 99 71 100
REMARK SMILES IDX 65 101 66 102 69 103 67 104
REMARK H PARENT 27 4 24 29 32 38 91 57 59 68
REMARK Flexibility Score: 90.00
ROOT
ATOM      1  O   UNL     1       0.826   0.615  -0.451  1.00  0.00    -0.275 OA
ATOM      2  C   UNL     1       1.954   0.157  -0.294  1.00  0.00     0.220 C 
ATOM      3  N   UNL     1       2.219  -0.993   0.426  1.00  0.00    -0.356 N 
ATOM      4  H   UNL     1       3.138  -1.341   0.477  1.00  0.00     0.163 HD
ENDROOT
BRANCH   2   5
ATOM      5  C   UNL     1       3.166   0.849  -0.877  1.00  0.00     0.111 C 
BRANCH   5   6
ATOM      6  C   UNL     1       3.731   1.892   0.084  1.00  0.00     0.132 C 
BRANCH   6   7
ATOM      7  C   UNL     1       4.862   1.309   0.885  1.00  0.00     0.308 C 
ATOM      8  O   UNL     1       5.933   1.001   0.373  1.00  0.00    -0.252 OA
BRANCH   7   9
ATOM      9  O   UNL     1       4.508   1.051   2.177  1.00  0.00    -0.430 OA
BRANCH   9  10
ATOM     10  C   UNL     1       5.446   0.207   2.850  1.00  0.00     0.385 CG0
ATOM     11  G   UNL     1       6.621   0.882   3.625  1.00  0.00     0.000 G0
BRANCH  10  12
ATOM     12  N   UNL     1       4.836  -0.769   3.793  1.00  0.00    -0.232 NA
ATOM     13  C   UNL     1       5.486  -1.891   3.864  1.00  0.00     0.079 C 
BRANCH  13  14
ATOM     14  C   UNL     1       4.816  -3.065   4.532  1.00  0.00     0.001 A 
ATOM     15  C   UNL     1       4.712  -4.727   3.709  1.00  0.00     0.010 A 
ATOM     16  C   UNL     1       3.720  -2.710   5.950  1.00  0.00     0.010 A 
ATOM     17  C   UNL     1       3.518  -5.973   4.321  1.00  0.00     0.001 A 
ATOM     18  C   UNL     1       2.520  -3.948   6.532  1.00  0.00     0.001 A 
ATOM     19  C   UNL     1       2.416  -5.588   5.714  1.00  0.00     0.000 A 
ENDBRANCH  13  14
BRANCH  13  20
ATOM     20  C   UNL     1       6.800  -2.105   3.233  1.00  0.00     0.025 A 
ATOM     21  C   UNL     1       6.936  -3.101   2.281  1.00  0.00     0.028 A 
ATOM     22  C   UNL     1       7.879  -1.270   3.532  1.00  0.00     0.050 A 
ATOM     23  C   UNL     1       8.198  -3.501   1.894  1.00  0.00     0.018 A 
ATOM     24  C   UNL     1       9.161  -1.741   3.245  1.00  0.00     0.028 A 
ATOM     25  Br  UNL     1       8.328  -4.837   0.571  1.00  0.00    -0.051 Br
ATOM     26  C   UNL     1       9.317  -2.893   2.455  1.00  0.00     0.018 A 
BRANCH  22  27
ATOM     27  N   UNL     1       7.715   0.074   3.938  1.00  0.00    -0.320 N 
ATOM     28  C   UNL     1       6.621   0.882   3.625  1.00  0.00     0.289 CG0
ATOM     29  H   UNL     1       8.430   0.471   4.486  1.00  0.00     0.170 HD
ATOM     30  O   UNL     1       6.649   2.082   3.899  1.00  0.00    -0.268 OA
ATOM     31  G   UNL     1       5.446   0.207   2.850  1.00  0.00     0.000 G0
ENDBRANCH  22  27
ENDBRANCH  13  20
ENDBRANCH  10  12
ENDBRANCH   9  10
ENDBRANCH   7   9
ENDBRANCH   6   7
ENDBRANCH   5   6
ENDBRANCH   2   5
BRANCH   3  32
ATOM     32  C   UNL     1       1.142  -1.690   1.106  1.00  0.00     0.116 C 
BRANCH  32  33
ATOM     33  C   UNL     1       1.252  -3.223   1.126  1.00  0.00     0.023 C 
BRANCH  33  34
ATOM     34  C   UNL     1       2.415  -3.873   1.892  1.00  0.00     0.023 C 
BRANCH  34  35
ATOM     35  C   UNL     1       2.789  -3.129   3.171  1.00  0.00     0.116 C 
BRANCH  35  36
ATOM     36  N   UNL     1       3.056  -4.019   4.549  1.00  0.00    -0.352 N 
ATOM     37  C   UNL     1       4.413  -4.726   5.788  1.00  0.00     0.251 C 
ATOM     38  H   UNL     1       2.177  -4.311   4.882  1.00  0.00     0.163 HD
ATOM     39  O   UNL     1       4.274  -5.287   6.922  1.00  0.00    -0.269 OA
BRANCH  37  40
ATOM     40  C   UNL     1       6.061  -4.888   5.740  1.00  0.00     0.039 A 
ATOM     41  C   UNL     1       6.917  -3.840   6.065  1.00  0.00     0.014 A 
ATOM     42  C   UNL     1       6.678  -6.146   5.555  1.00  0.00     0.014 A 
ATOM     43  C   UNL     1       8.294  -3.950   5.824  1.00  0.00     0.010 A 
ATOM     44  C   UNL     1       8.094  -6.281   5.469  1.00  0.00     0.010 A 
ATOM     45  C   UNL     1       8.938  -5.160   5.501  1.00  0.00    -0.014 A 
BRANCH  45  46
ATOM     46  C   UNL     1      10.430  -5.166   5.154  1.00  0.00     0.031 A 
ATOM     47  C   UNL     1      10.982  -5.880   3.921  1.00  0.00     0.074 A 
ATOM     48  C   UNL     1      11.306  -4.366   5.811  1.00  0.00     0.049 A 
ATOM     49  N   UNL     1      12.216  -5.970   3.464  1.00  0.00    -0.248 NA
ATOM     50  C   UNL     1      10.006  -6.556   3.065  1.00  0.00     0.031 C 
ATOM     51  C   UNL     1      10.994  -3.552   6.983  1.00  0.00     0.029 A 
ATOM     52  N   UNL     1      12.620  -4.037   5.537  1.00  0.00    -0.354 N 
ATOM     53  C   UNL     1      12.152  -6.722   2.288  1.00  0.00     0.074 A 
ATOM     54  C   UNL     1      10.765  -7.091   2.120  1.00  0.00     0.031 C 
ATOM     55  C   UNL     1      12.001  -2.703   7.218  1.00  0.00     0.029 A 
ATOM     56  C   UNL     1      13.121  -3.043   6.347  1.00  0.00     0.049 A 
ATOM     57  H   UNL     1      13.147  -4.471   4.828  1.00  0.00     0.167 HD
ATOM     58  C   UNL     1      13.122  -7.038   1.387  1.00  0.00     0.037 A 
ATOM     59  C   UNL     1      14.350  -2.493   6.446  1.00  0.00     0.037 A 
ATOM     60  C   UNL     1      14.491  -6.598   1.461  1.00  0.00     0.049 A 
ATOM     61  C   UNL     1      15.455  -2.970   5.549  1.00  0.00     0.074 A 
ATOM     62  C   UNL     1      15.543  -6.882   0.604  1.00  0.00     0.029 A 
ATOM     63  N   UNL     1      14.987  -5.738   2.426  1.00  0.00    -0.354 N 
ATOM     64  N   UNL     1      15.392  -3.772   4.516  1.00  0.00    -0.248 NA
ATOM     65  C   UNL     1      16.812  -2.497   5.860  1.00  0.00     0.031 C 
ATOM     66  C   UNL     1      16.681  -6.213   1.066  1.00  0.00     0.029 A 
ATOM     67  C   UNL     1      16.331  -5.490   2.194  1.00  0.00     0.049 A 
ATOM     68  H   UNL     1      14.463  -5.359   3.168  1.00  0.00     0.167 HD
ATOM     69  C   UNL     1      16.695  -3.899   4.052  1.00  0.00     0.074 A 
ATOM     70  C   UNL     1      17.525  -3.070   4.899  1.00  0.00     0.031 C 
ATOM     71  C   UNL     1      17.157  -4.653   3.024  1.00  0.00     0.037 A 
BRANCH  58  72
ATOM     72  C   UNL     1      12.739  -7.891   0.201  1.00  0.00     0.064 A 
ATOM     73  C   UNL     1      11.958  -7.378  -0.847  1.00  0.00     0.173 A 
ATOM     74  C   UNL     1      13.201  -9.212   0.079  1.00  0.00     0.173 A 
ATOM     75  F   UNL     1      11.501  -6.118  -0.790  1.00  0.00    -0.203 F 
ATOM     76  C   UNL     1      11.609  -8.169  -1.940  1.00  0.00     0.198 A 
ATOM     77  C   UNL     1      12.877  -9.990  -1.032  1.00  0.00     0.198 A 
ATOM     78  F   UNL     1      13.983  -9.746   1.029  1.00  0.00    -0.203 F 
ATOM     79  F   UNL     1      10.813  -7.672  -2.897  1.00  0.00    -0.200 F 
ATOM     80  C   UNL     1      12.070  -9.473  -2.034  1.00  0.00     0.200 A 
ATOM     81  F   UNL     1      13.346 -11.242  -1.133  1.00  0.00    -0.200 F 
ATOM     82  F   UNL     1      11.732 -10.232  -3.085  1.00  0.00    -0.200 F 
ENDBRANCH  58  72
BRANCH  59  83
ATOM     83  C   UNL     1      14.601  -1.476   7.507  1.00  0.00     0.064 A 
ATOM     84  C   UNL     1      14.896  -0.143   7.195  1.00  0.00     0.173 A 
ATOM     85  C   UNL     1      14.471  -1.811   8.867  1.00  0.00     0.173 A 
ATOM     86  F   UNL     1      15.068   0.224   5.917  1.00  0.00    -0.203 F 
ATOM     87  C   UNL     1      15.016   0.820   8.198  1.00  0.00     0.198 A 
ATOM     88  C   UNL     1      14.546  -0.842   9.862  1.00  0.00     0.198 A 
ATOM     89  F   UNL     1      14.202  -3.077   9.222  1.00  0.00    -0.203 F 
ATOM     90  F   UNL     1      15.310   2.087   7.876  1.00  0.00    -0.200 F 
ATOM     91  C   UNL     1      14.818   0.474   9.527  1.00  0.00     0.200 A 
ATOM     92  F   UNL     1      14.323  -1.181  11.139  1.00  0.00    -0.200 F 
ATOM     93  F   UNL     1      14.884   1.409  10.485  1.00  0.00    -0.200 F 
ENDBRANCH  59  83
BRANCH  71  94
ATOM     94  C   UNL     1      18.629  -4.623   2.734  1.00  0.00     0.064 A 
ATOM     95  C   UNL     1      19.546  -5.267   3.576  1.00  0.00     0.173 A 
ATOM     96  C   UNL     1      19.118  -4.027   1.561  1.00  0.00     0.173 A 
ATOM     97  F   UNL     1      19.129  -5.841   4.714  1.00  0.00    -0.203 F 
ATOM     98  C   UNL     1      20.901  -5.310   3.259  1.00  0.00     0.198 A 
ATOM     99  C   UNL     1      20.469  -4.099   1.231  1.00  0.00     0.198 A 
ATOM    100  F   UNL     1      18.280  -3.407   0.717  1.00  0.00    -0.203 F 
ATOM    101  F   UNL     1      21.763  -5.907   4.093  1.00  0.00    -0.200 F 
ATOM    102  C   UNL     1      21.359  -4.737   2.082  1.00  0.00     0.200 A 
ATOM    103  F   UNL     1      20.907  -3.562   0.084  1.00  0.00    -0.200 F 
ATOM    104  F   UNL     1      22.660  -4.800   1.766  1.00  0.00    -0.200 F 
ENDBRANCH  71  94
ENDBRANCH  45  46
ENDBRANCH  37  40
ENDBRANCH  35  36
ENDBRANCH  34  35
ENDBRANCH  33  34
ENDBRANCH  32  33
ENDBRANCH   3  32
TORSDOF 16
