REMARK SMILES C[C@@H]1C[C@H](C)C[C@H]([N@H+]2[C@@H](C(=O)NCCCCNC(=O)c3ccc(-c4c5nc(c(-c6c(F)c(F)c(F)c(F)c6F)c6ccc([nH]6)c(-c6c(F)c(F)c(F)c(F)c6F)c6nc(c(-c7c(F)c(F)c(F)c(F)c7F)c7ccc4[nH]7)C=C6)C=C5)cc3)CC[C@@H]3CCCC[C@@H]32)C1
REMARK SMILES IDX 15 1 14 2 13 3 12 4 10 5 11 6 9 8 8 9 90 10 83 12 85 13
REMARK SMILES IDX 89 14 84 15 86 16 88 17 87 18 7 19 5 20 4 21 6 22 3 23 2 24
REMARK SMILES IDX 91 25 1 26 16 27 17 28 18 29 19 31 20 32 21 33 82 34 22 35
REMARK SMILES IDX 81 36 23 37 24 38 25 39 75 40 26 41 80 42 74 43 76 44 27 45
REMARK SMILES IDX 79 46 73 47 72 48 28 50 60 51 40 52 59 53 41 54 44 55 58 56
REMARK SMILES IDX 77 57 42 58 43 59 57 61 78 62 45 63 29 64 30 65 38 66 31 67
REMARK SMILES IDX 32 68 36 69 39 70 33 71 34 72 37 73 35 74 61 75 62 76 70 77
REMARK SMILES IDX 63 78 64 79 68 80 71 81 65 82 66 83 69 84 67 85 46 86 47 87
REMARK SMILES IDX 55 88 48 89 49 90 53 91 56 92 50 93 51 94 54 95 52 96
REMARK H PARENT 12 7 8 11 17 30 76 49 44 60
REMARK Flexibility Score: inf
ROOT
ATOM      1  C   UNL     1      -2.886  -6.889  -1.291  1.00  0.00     0.023 C 
ENDROOT
BRANCH   1   2
ATOM      2  C   UNL     1      -2.036  -5.985  -0.398  1.00  0.00     0.023 C 
BRANCH   2   3
ATOM      3  C   UNL     1      -0.640  -5.696  -0.942  1.00  0.00     0.116 C 
BRANCH   3   4
ATOM      4  N   UNL     1      -0.663  -4.679  -1.973  1.00  0.00    -0.351 N 
ATOM      5  C   UNL     1      -0.299  -3.358  -1.872  1.00  0.00     0.278 C 
ATOM      6  O   UNL     1      -0.402  -2.675  -2.891  1.00  0.00    -0.268 OA
ATOM      7  H   UNL     1      -0.979  -4.971  -2.858  1.00  0.00     0.163 HD
BRANCH   5   8
ATOM      8  C   UNL     1       0.240  -2.842  -0.497  1.00  0.00     0.274 C 
ATOM      9  N   UNL     1      -0.112  -1.405  -0.177  1.00  0.00    -0.320 N 
ATOM     10  C   UNL     1       0.679  -0.475  -1.030  1.00  0.00     0.188 C 
ATOM     11  H   UNL     1       0.199  -0.826   0.603  1.00  0.00     0.349 HD
ATOM     12  C   UNL     1       1.713  -3.166  -0.314  1.00  0.00     0.076 C 
ATOM     13  C   UNL     1       2.219  -0.750  -0.849  1.00  0.00     0.048 C 
ATOM     14  C   UNL     1       0.622   1.073  -1.057  1.00  0.00     0.065 C 
ATOM     15  C   UNL     1       2.612  -2.211  -1.060  1.00  0.00     0.016 C 
ATOM     16  C   UNL     1       2.745  -0.247   0.504  1.00  0.00     0.010 C 
ATOM     17  C   UNL     1       1.455   1.927  -0.088  1.00  0.00     0.006 C 
ATOM     18  C   UNL     1       2.549   1.246   0.727  1.00  0.00     0.001 C 
BRANCH   9  19
ATOM     19  C   UNL     1      -1.522  -1.424   0.316  1.00  0.00     0.185 C 
ATOM     20  C   UNL     1      -0.179   0.507   2.396  1.00  0.00     0.008 C 
ATOM     21  C   UNL     1      -1.483  -0.222   2.601  1.00  0.00    -0.008 C 
ATOM     22  C   UNL     1      -1.482  -1.559   1.862  1.00  0.00     0.068 C 
ATOM     23  C   UNL     1      -2.659   0.679   2.201  1.00  0.00     0.007 C 
ATOM     24  C   UNL     1      -3.104   0.656   0.723  1.00  0.00    -0.008 C 
ATOM     25  C   UNL     1      -2.789  -0.630  -0.040  1.00  0.00     0.068 C 
ATOM     26  C   UNL     1      -2.722   1.868  -0.116  1.00  0.00     0.008 C 
ENDBRANCH   9  19
ENDBRANCH   5   8
ENDBRANCH   3   4
ENDBRANCH   2   3
ENDBRANCH   1   2
BRANCH   1  27
ATOM     27  C   UNL     1      -2.229  -8.206  -1.691  1.00  0.00     0.116 C 
BRANCH  27  28
ATOM     28  N   UNL     1      -1.780  -8.997  -0.555  1.00  0.00    -0.352 N 
ATOM     29  C   UNL     1      -1.861 -10.360  -0.370  1.00  0.00     0.251 C 
ATOM     30  H   UNL     1      -1.361  -8.491   0.178  1.00  0.00     0.163 HD
ATOM     31  O   UNL     1      -1.541 -10.866   0.691  1.00  0.00    -0.269 OA
BRANCH  29  32
ATOM     32  C   UNL     1      -2.385 -11.195  -1.471  1.00  0.00     0.039 A 
ATOM     33  C   UNL     1      -3.405 -12.107  -1.198  1.00  0.00     0.014 A 
ATOM     34  C   UNL     1      -1.908 -11.032  -2.774  1.00  0.00     0.014 A 
ATOM     35  C   UNL     1      -4.004 -12.803  -2.249  1.00  0.00     0.010 A 
ATOM     36  C   UNL     1      -2.559 -11.663  -3.827  1.00  0.00     0.010 A 
ATOM     37  C   UNL     1      -3.616 -12.552  -3.576  1.00  0.00    -0.014 A 
BRANCH  37  38
ATOM     38  C   UNL     1      -4.306 -13.202  -4.719  1.00  0.00     0.031 A 
ATOM     39  C   UNL     1      -3.544 -14.117  -5.635  1.00  0.00     0.074 A 
ATOM     40  C   UNL     1      -5.596 -12.909  -4.975  1.00  0.00     0.049 A 
ATOM     41  N   UNL     1      -3.941 -14.710  -6.732  1.00  0.00    -0.248 NA
ATOM     42  C   UNL     1      -2.138 -14.379  -5.287  1.00  0.00     0.031 C 
ATOM     43  C   UNL     1      -6.429 -11.999  -4.187  1.00  0.00     0.029 A 
ATOM     44  N   UNL     1      -6.429 -13.334  -5.980  1.00  0.00    -0.354 N 
ATOM     45  C   UNL     1      -2.834 -15.399  -7.210  1.00  0.00     0.074 A 
ATOM     46  C   UNL     1      -1.734 -15.105  -6.318  1.00  0.00     0.031 C 
ATOM     47  C   UNL     1      -7.659 -11.952  -4.724  1.00  0.00     0.029 A 
ATOM     48  C   UNL     1      -7.689 -12.789  -5.920  1.00  0.00     0.049 A 
ATOM     49  H   UNL     1      -6.150 -13.969  -6.678  1.00  0.00     0.167 HD
ATOM     50  C   UNL     1      -2.751 -16.223  -8.281  1.00  0.00     0.037 A 
ATOM     51  C   UNL     1      -8.744 -12.937  -6.744  1.00  0.00     0.037 A 
ATOM     52  C   UNL     1      -3.854 -16.526  -9.154  1.00  0.00     0.049 A 
ATOM     53  C   UNL     1      -8.617 -13.839  -7.942  1.00  0.00     0.074 A 
ATOM     54  C   UNL     1      -3.887 -17.395 -10.231  1.00  0.00     0.029 A 
ATOM     55  N   UNL     1      -5.119 -15.964  -9.054  1.00  0.00    -0.354 N 
ATOM     56  N   UNL     1      -7.587 -14.545  -8.342  1.00  0.00    -0.248 NA
ATOM     57  C   UNL     1      -9.802 -13.970  -8.801  1.00  0.00     0.031 C 
ATOM     58  C   UNL     1      -5.153 -17.313 -10.819  1.00  0.00     0.029 A 
ATOM     59  C   UNL     1      -5.930 -16.445 -10.069  1.00  0.00     0.049 A 
ATOM     60  H   UNL     1      -5.398 -15.319  -8.364  1.00  0.00     0.167 HD
ATOM     61  C   UNL     1      -8.008 -15.226  -9.477  1.00  0.00     0.074 A 
ATOM     62  C   UNL     1      -9.392 -14.859  -9.694  1.00  0.00     0.031 C 
ATOM     63  C   UNL     1      -7.311 -16.079 -10.267  1.00  0.00     0.037 A 
BRANCH  50  64
ATOM     64  C   UNL     1      -1.418 -16.852  -8.572  1.00  0.00     0.064 A 
ATOM     65  C   UNL     1      -0.858 -17.821  -7.725  1.00  0.00     0.173 A 
ATOM     66  C   UNL     1      -0.708 -16.509  -9.733  1.00  0.00     0.173 A 
ATOM     67  F   UNL     1      -1.490 -18.178  -6.597  1.00  0.00    -0.203 F 
ATOM     68  C   UNL     1       0.376 -18.398  -8.012  1.00  0.00     0.198 A 
ATOM     69  C   UNL     1       0.510 -17.114 -10.034  1.00  0.00     0.198 A 
ATOM     70  F   UNL     1      -1.199 -15.594 -10.582  1.00  0.00    -0.203 F 
ATOM     71  F   UNL     1       0.915 -19.280  -7.159  1.00  0.00    -0.200 F 
ATOM     72  C   UNL     1       1.055 -18.050  -9.169  1.00  0.00     0.200 A 
ATOM     73  F   UNL     1       1.157 -16.788 -11.162  1.00  0.00    -0.200 F 
ATOM     74  F   UNL     1       2.239 -18.613  -9.448  1.00  0.00    -0.200 F 
ENDBRANCH  50  64
BRANCH  51  75
ATOM     75  C   UNL     1     -10.018 -12.224  -6.457  1.00  0.00     0.064 A 
ATOM     76  C   UNL     1     -11.170 -12.930  -6.084  1.00  0.00     0.173 A 
ATOM     77  C   UNL     1     -10.114 -10.829  -6.559  1.00  0.00     0.173 A 
ATOM     78  F   UNL     1     -11.135 -14.268  -5.993  1.00  0.00    -0.203 F 
ATOM     79  C   UNL     1     -12.375 -12.271  -5.848  1.00  0.00     0.198 A 
ATOM     80  C   UNL     1     -11.311 -10.167  -6.290  1.00  0.00     0.198 A 
ATOM     81  F   UNL     1      -9.040 -10.104  -6.906  1.00  0.00    -0.203 F 
ATOM     82  F   UNL     1     -13.473 -12.976  -5.543  1.00  0.00    -0.200 F 
ATOM     83  C   UNL     1     -12.443 -10.889  -5.945  1.00  0.00     0.200 A 
ATOM     84  F   UNL     1     -11.367  -8.831  -6.369  1.00  0.00    -0.200 F 
ATOM     85  F   UNL     1     -13.600 -10.255  -5.713  1.00  0.00    -0.200 F 
ENDBRANCH  51  75
BRANCH  63  86
ATOM     86  C   UNL     1      -8.040 -16.713 -11.417  1.00  0.00     0.064 A 
ATOM     87  C   UNL     1      -8.418 -15.977 -12.549  1.00  0.00     0.173 A 
ATOM     88  C   UNL     1      -8.316 -18.090 -11.406  1.00  0.00     0.173 A 
ATOM     89  F   UNL     1      -8.192 -14.656 -12.603  1.00  0.00    -0.203 F 
ATOM     90  C   UNL     1      -9.066 -16.592 -13.618  1.00  0.00     0.198 A 
ATOM     91  C   UNL     1      -8.932 -18.706 -12.491  1.00  0.00     0.198 A 
ATOM     92  F   UNL     1      -7.968 -18.841 -10.350  1.00  0.00    -0.203 F 
ATOM     93  F   UNL     1      -9.460 -15.860 -14.669  1.00  0.00    -0.200 F 
ATOM     94  C   UNL     1      -9.313 -17.956 -13.592  1.00  0.00     0.200 A 
ATOM     95  F   UNL     1      -9.153 -20.028 -12.471  1.00  0.00    -0.200 F 
ATOM     96  F   UNL     1      -9.924 -18.548 -14.628  1.00  0.00    -0.200 F 
ENDBRANCH  63  86
ENDBRANCH  37  38
ENDBRANCH  29  32
ENDBRANCH  27  28
ENDBRANCH   1  27
TORSDOF 12
