REMARK SMILES O=C(C[C@H]1S/C(=[NH+]\N=C\c2cc(Br)ccc2OCc2ccccc2)NC1=O)NCCCCNC(=O)c1ccc(-c2c3nc(c(-c4c(F)c(F)c(F)c(F)c4F)c4ccc([nH]4)c(-c4c(F)c(F)c(F)c(F)c4F)c4nc(c(-c5c(F)c(F)c(F)c(F)c5F)c5ccc2[nH]5)C=C4)C=C3)cc1
REMARK SMILES IDX 1 1 2 2 28 3 3 5 4 6 5 7 26 8 6 9 25 10 27 11 7 12 8 15 9 16
REMARK SMILES IDX 10 17 11 18 16 19 12 20 15 21 13 22 14 23 17 24 18 25 19 26
REMARK SMILES IDX 20 27 24 28 21 29 23 30 22 31 29 32 30 33 31 34 32 35 33 36
REMARK SMILES IDX 34 37 35 39 36 40 37 41 98 42 38 43 97 44 39 45 40 46 41 47
REMARK SMILES IDX 91 48 42 49 96 50 90 51 92 52 43 53 95 54 89 55 88 56 44 58
REMARK SMILES IDX 76 59 56 60 75 61 57 62 60 63 74 64 93 65 58 66 59 67 73 69
REMARK SMILES IDX 94 70 61 71 45 72 46 73 54 74 47 75 48 76 52 77 55 78 49 79
REMARK SMILES IDX 50 80 53 81 51 82 77 83 78 84 86 85 79 86 80 87 84 88 87 89
REMARK SMILES IDX 81 90 82 91 85 92 83 93 62 94 63 95 71 96 64 97 65 98 69 99
REMARK SMILES IDX 72 100 66 101 67 102 70 103 68 104
REMARK H PARENT 28 4 25 13 7 14 33 38 92 57 60 68
REMARK Flexibility Score: inf
ROOT
ATOM      1  O   UNL     1       0.728   0.126   0.001  1.00  0.00    -0.275 OA
ATOM      2  C   UNL     1       1.952   0.092   0.046  1.00  0.00     0.221 C 
ATOM      3  N   UNL     1       2.672  -0.952   0.581  1.00  0.00    -0.356 N 
ATOM      4  H   UNL     1       3.655  -0.909   0.563  1.00  0.00     0.163 HD
ENDROOT
BRANCH   2   5
ATOM      5  C   UNL     1       2.799   1.208  -0.515  1.00  0.00     0.127 C 
BRANCH   5   6
ATOM      6  C   UNL     1       3.613   1.876   0.585  1.00  0.00     0.183 C 
ATOM      7  S   UNL     1       5.309   1.184   0.643  1.00  0.00    -0.020 SA
ATOM      8  C   UNL     1       3.800   3.346   0.276  1.00  0.00     0.322 C 
ATOM      9  C   UNL     1       6.005   2.638  -0.006  1.00  0.00     0.337 C 
ATOM     10  N   UNL     1       5.085   3.624  -0.083  1.00  0.00    -0.202 N 
ATOM     11  O   UNL     1       2.914   4.184   0.298  1.00  0.00    -0.246 OA
ATOM     12  N   UNL     1       7.211   2.862  -0.396  1.00  0.00    -0.142 N 
ATOM     13  H   UNL     1       5.337   4.525  -0.392  1.00  0.00     0.316 HD
ATOM     14  H   UNL     1       7.496   3.736  -0.748  1.00  0.00     0.343 HD
BRANCH  12  15
ATOM     15  N   UNL     1       8.088   1.784  -0.286  1.00  0.00    -0.093 NA
ATOM     16  C   UNL     1       9.191   2.077  -0.904  1.00  0.00     0.170 C 
BRANCH  16  17
ATOM     17  C   UNL     1      10.336   1.166  -0.968  1.00  0.00     0.040 A 
ATOM     18  C   UNL     1      10.038  -0.111  -1.473  1.00  0.00     0.029 A 
ATOM     19  C   UNL     1      11.654   1.504  -0.626  1.00  0.00     0.128 A 
ATOM     20  C   UNL     1      11.043  -1.062  -1.613  1.00  0.00     0.018 A 
ATOM     21  C   UNL     1      12.634   0.499  -0.714  1.00  0.00     0.048 A 
ATOM     22  Br  UNL     1      10.643  -2.738  -2.384  1.00  0.00    -0.051 Br
ATOM     23  C   UNL     1      12.340  -0.772  -1.211  1.00  0.00     0.019 A 
BRANCH  19  24
ATOM     24  O   UNL     1      12.208   2.687  -0.228  1.00  0.00    -0.488 OA
BRANCH  24  25
ATOM     25  C   UNL     1      11.555   3.950  -0.349  1.00  0.00     0.265 C 
BRANCH  25  26
ATOM     26  C   UNL     1      11.215   4.405  -1.758  1.00  0.00    -0.011 A 
ATOM     27  C   UNL     1      10.301   5.461  -1.916  1.00  0.00     0.007 A 
ATOM     28  C   UNL     1      11.672   3.736  -2.902  1.00  0.00     0.007 A 
ATOM     29  C   UNL     1       9.769   5.756  -3.172  1.00  0.00     0.000 A 
ATOM     30  C   UNL     1      11.124   4.019  -4.153  1.00  0.00     0.000 A 
ATOM     31  C   UNL     1      10.158   5.014  -4.284  1.00  0.00     0.000 A 
ENDBRANCH  25  26
ENDBRANCH  24  25
ENDBRANCH  19  24
ENDBRANCH  16  17
ENDBRANCH  12  15
ENDBRANCH   5   6
ENDBRANCH   2   5
BRANCH   3  32
ATOM     32  C   UNL     1       2.032  -2.111   1.169  1.00  0.00     0.116 C 
BRANCH  32  33
ATOM     33  C   UNL     1       2.420  -3.404   0.455  1.00  0.00     0.023 C 
BRANCH  33  34
ATOM     34  C   UNL     1       3.909  -3.756   0.519  1.00  0.00     0.023 C 
BRANCH  34  35
ATOM     35  C   UNL     1       4.494  -3.881   1.922  1.00  0.00     0.116 C 
BRANCH  35  36
ATOM     36  N   UNL     1       3.889  -4.952   2.698  1.00  0.00    -0.352 N 
ATOM     37  C   UNL     1       4.485  -5.979   3.390  1.00  0.00     0.251 C 
ATOM     38  H   UNL     1       2.905  -4.940   2.732  1.00  0.00     0.163 HD
ATOM     39  O   UNL     1       3.797  -6.874   3.872  1.00  0.00    -0.269 OA
BRANCH  37  40
ATOM     40  C   UNL     1       5.958  -6.031   3.532  1.00  0.00     0.039 A 
ATOM     41  C   UNL     1       6.607  -7.255   3.346  1.00  0.00     0.014 A 
ATOM     42  C   UNL     1       6.699  -4.891   3.849  1.00  0.00     0.014 A 
ATOM     43  C   UNL     1       8.002  -7.319   3.404  1.00  0.00     0.010 A 
ATOM     44  C   UNL     1       8.092  -4.939   3.829  1.00  0.00     0.010 A 
ATOM     45  C   UNL     1       8.759  -6.153   3.603  1.00  0.00    -0.014 A 
BRANCH  45  46
ATOM     46  C   UNL     1      10.245  -6.185   3.567  1.00  0.00     0.031 A 
ATOM     47  C   UNL     1      11.046  -5.818   4.786  1.00  0.00     0.074 A 
ATOM     48  C   UNL     1      10.878  -6.484   2.415  1.00  0.00     0.049 A 
ATOM     49  N   UNL     1      12.345  -5.723   4.928  1.00  0.00    -0.248 NA
ATOM     50  C   UNL     1      10.285  -5.491   6.002  1.00  0.00     0.031 C 
ATOM     51  C   UNL     1      10.219  -6.812   1.150  1.00  0.00     0.029 A 
ATOM     52  N   UNL     1      12.217  -6.551   2.118  1.00  0.00    -0.354 N 
ATOM     53  C   UNL     1      12.553  -5.317   6.240  1.00  0.00     0.074 A 
ATOM     54  C   UNL     1      11.248  -5.126   6.835  1.00  0.00     0.031 C 
ATOM     55  C   UNL     1      11.153  -7.066   0.220  1.00  0.00     0.029 A 
ATOM     56  C   UNL     1      12.476  -6.878   0.809  1.00  0.00     0.049 A 
ATOM     57  H   UNL     1      12.925  -6.381   2.781  1.00  0.00     0.167 HD
ATOM     58  C   UNL     1      13.726  -5.142   6.896  1.00  0.00     0.037 A 
ATOM     59  C   UNL     1      13.646  -7.000   0.152  1.00  0.00     0.037 A 
ATOM     60  C   UNL     1      15.024  -5.341   6.304  1.00  0.00     0.049 A 
ATOM     61  C   UNL     1      14.934  -6.773   0.896  1.00  0.00     0.074 A 
ATOM     62  C   UNL     1      16.269  -5.237   6.899  1.00  0.00     0.029 A 
ATOM     63  N   UNL     1      15.244  -5.679   4.976  1.00  0.00    -0.354 N 
ATOM     64  N   UNL     1      15.120  -6.451   2.153  1.00  0.00    -0.248 NA
ATOM     65  C   UNL     1      16.177  -6.932   0.128  1.00  0.00     0.031 C 
ATOM     66  C   UNL     1      17.243  -5.453   5.919  1.00  0.00     0.029 A 
ATOM     67  C   UNL     1      16.606  -5.758   4.727  1.00  0.00     0.049 A 
ATOM     68  H   UNL     1      14.538  -5.838   4.309  1.00  0.00     0.167 HD
ATOM     69  C   UNL     1      16.495  -6.399   2.335  1.00  0.00     0.074 A 
ATOM     70  C   UNL     1      17.097  -6.737   1.062  1.00  0.00     0.031 C 
ATOM     71  C   UNL     1      17.195  -6.099   3.457  1.00  0.00     0.037 A 
BRANCH  58  72
ATOM     72  C   UNL     1      13.659  -4.709   8.334  1.00  0.00     0.064 A 
ATOM     73  C   UNL     1      13.164  -5.557   9.337  1.00  0.00     0.173 A 
ATOM     74  C   UNL     1      14.127  -3.443   8.720  1.00  0.00     0.173 A 
ATOM     75  F   UNL     1      12.697  -6.774   9.022  1.00  0.00    -0.203 F 
ATOM     76  C   UNL     1      13.107  -5.141  10.665  1.00  0.00     0.198 A 
ATOM     77  C   UNL     1      14.101  -3.045  10.054  1.00  0.00     0.198 A 
ATOM     78  F   UNL     1      14.619  -2.594   7.805  1.00  0.00    -0.203 F 
ATOM     79  F   UNL     1      12.578  -5.948  11.595  1.00  0.00    -0.200 F 
ATOM     80  C   UNL     1      13.582  -3.889  11.024  1.00  0.00     0.200 A 
ATOM     81  F   UNL     1      14.577  -1.841  10.402  1.00  0.00    -0.200 F 
ATOM     82  F   UNL     1      13.534  -3.493  12.303  1.00  0.00    -0.200 F 
ENDBRANCH  58  72
BRANCH  59  83
ATOM     83  C   UNL     1      13.653  -7.360  -1.290  1.00  0.00     0.064 A 
ATOM     84  C   UNL     1      14.139  -8.599  -1.727  1.00  0.00     0.173 A 
ATOM     85  C   UNL     1      13.183  -6.466  -2.263  1.00  0.00     0.173 A 
ATOM     86  F   UNL     1      14.627  -9.477  -0.839  1.00  0.00    -0.203 F 
ATOM     87  C   UNL     1      14.170  -8.923  -3.082  1.00  0.00     0.198 A 
ATOM     88  C   UNL     1      13.181  -6.803  -3.614  1.00  0.00     0.198 A 
ATOM     89  F   UNL     1      12.720  -5.263  -1.895  1.00  0.00    -0.203 F 
ATOM     90  F   UNL     1      14.690 -10.094  -3.477  1.00  0.00    -0.200 F 
ATOM     91  C   UNL     1      13.683  -8.029  -4.024  1.00  0.00     0.200 A 
ATOM     92  F   UNL     1      12.698  -5.940  -4.518  1.00  0.00    -0.200 F 
ATOM     93  F   UNL     1      13.709  -8.343  -5.326  1.00  0.00    -0.200 F 
ENDBRANCH  59  83
BRANCH  71  94
ATOM     94  C   UNL     1      18.694  -6.160   3.372  1.00  0.00     0.064 A 
ATOM     95  C   UNL     1      19.434  -5.218   2.642  1.00  0.00     0.173 A 
ATOM     96  C   UNL     1      19.402  -7.156   4.063  1.00  0.00     0.173 A 
ATOM     97  F   UNL     1      18.806  -4.254   1.951  1.00  0.00    -0.203 F 
ATOM     98  C   UNL     1      20.824  -5.287   2.585  1.00  0.00     0.198 A 
ATOM     99  C   UNL     1      20.793  -7.202   4.032  1.00  0.00     0.198 A 
ATOM    100  F   UNL     1      18.745  -8.079   4.782  1.00  0.00    -0.203 F 
ATOM    101  F   UNL     1      21.506  -4.408   1.838  1.00  0.00    -0.200 F 
ATOM    102  C   UNL     1      21.502  -6.273   3.285  1.00  0.00     0.200 A 
ATOM    103  F   UNL     1      21.447  -8.145   4.723  1.00  0.00    -0.200 F 
ATOM    104  F   UNL     1      22.840  -6.332   3.236  1.00  0.00    -0.200 F 
ENDBRANCH  71  94
ENDBRANCH  45  46
ENDBRANCH  37  40
ENDBRANCH  35  36
ENDBRANCH  34  35
ENDBRANCH  33  34
ENDBRANCH  32  33
ENDBRANCH   3  32
TORSDOF 17
