REMARK SMILES O=C(NCCCCNC(=O)c1ccccc1/N=C/c1coc2ccccc2c1=O)c1ccc(-c2c3nc(c(-c4c(F)c(F)c(F)c(F)c4F)c4ccc([nH]4)c(-c4c(F)c(F)c(F)c(F)c4F)c4nc(c(-c5c(F)c(F)c(F)c(F)c5F)c5ccc2[nH]5)C=C4)C=C3)cc1
REMARK SMILES IDX 5 1 4 2 3 3 1 4 2 5 30 7 31 8 92 9 32 10 91 11 33 12 34 13
REMARK SMILES IDX 35 14 85 15 36 16 90 17 84 18 86 19 37 20 89 21 83 22 82 23
REMARK SMILES IDX 38 25 70 26 50 27 69 28 51 29 54 30 68 31 87 32 52 33 53 34
REMARK SMILES IDX 67 36 88 37 55 38 39 39 40 40 48 41 41 42 42 43 46 44 49 45
REMARK SMILES IDX 43 46 44 47 47 48 45 49 71 50 72 51 80 52 73 53 74 54 78 55
REMARK SMILES IDX 81 56 75 57 76 58 79 59 77 60 56 61 57 62 65 63 58 64 59 65
REMARK SMILES IDX 63 66 66 67 60 68 61 69 64 70 62 71 6 72 7 73 8 74 9 75
REMARK SMILES IDX 10 77 11 78 12 79 16 80 13 81 15 82 14 83 17 84 18 85 19 86
REMARK SMILES IDX 20 87 28 88 21 89 27 90 29 91 22 92 26 93 23 94 25 95 24 96
REMARK H PARENT 3 6 86 24 54 35 8 76
REMARK Flexibility Score: inf
ROOT
ATOM      1  C   UNL     1       4.848  -3.022   1.061  1.00  0.00     0.023 C 
ENDROOT
BRANCH   1   2
ATOM      2  C   UNL     1       4.681  -1.689   0.336  1.00  0.00     0.116 C 
BRANCH   2   3
ATOM      3  N   UNL     1       3.302  -1.388  -0.006  1.00  0.00    -0.352 N 
ATOM      4  O   UNL     1       1.361  -0.229  -0.025  1.00  0.00    -0.269 OA
ATOM      5  C   UNL     1       2.558  -0.257   0.240  1.00  0.00     0.251 C 
ATOM      6  H   UNL     1       2.827  -2.102  -0.489  1.00  0.00     0.163 HD
BRANCH   5   7
ATOM      7  C   UNL     1       3.189   0.927   0.868  1.00  0.00     0.039 A 
ATOM      8  C   UNL     1       4.415   1.422   0.414  1.00  0.00     0.014 A 
ATOM      9  C   UNL     1       2.534   1.558   1.931  1.00  0.00     0.014 A 
ATOM     10  C   UNL     1       5.057   2.439   1.119  1.00  0.00     0.010 A 
ATOM     11  C   UNL     1       3.154   2.615   2.606  1.00  0.00     0.010 A 
ATOM     12  C   UNL     1       4.446   3.023   2.240  1.00  0.00    -0.014 A 
BRANCH  12  13
ATOM     13  C   UNL     1       5.199   4.011   3.053  1.00  0.00     0.031 A 
ATOM     14  C   UNL     1       5.725   3.629   4.411  1.00  0.00     0.074 A 
ATOM     15  C   UNL     1       5.462   5.232   2.555  1.00  0.00     0.049 A 
ATOM     16  N   UNL     1       6.475   4.321   5.233  1.00  0.00    -0.248 NA
ATOM     17  C   UNL     1       5.356   2.297   4.916  1.00  0.00     0.031 C 
ATOM     18  C   UNL     1       5.001   5.733   1.261  1.00  0.00     0.029 A 
ATOM     19  N   UNL     1       6.203   6.266   3.071  1.00  0.00    -0.354 N 
ATOM     20  C   UNL     1       6.649   3.521   6.354  1.00  0.00     0.074 A 
ATOM     21  C   UNL     1       5.914   2.296   6.118  1.00  0.00     0.031 C 
ATOM     22  C   UNL     1       5.502   6.963   1.065  1.00  0.00     0.029 A 
ATOM     23  C   UNL     1       6.307   7.341   2.225  1.00  0.00     0.049 A 
ATOM     24  H   UNL     1       6.620   6.238   3.963  1.00  0.00     0.167 HD
ATOM     25  C   UNL     1       7.364   3.776   7.474  1.00  0.00     0.037 A 
ATOM     26  C   UNL     1       6.989   8.493   2.361  1.00  0.00     0.037 A 
ATOM     27  C   UNL     1       8.133   4.969   7.703  1.00  0.00     0.049 A 
ATOM     28  C   UNL     1       7.808   8.735   3.597  1.00  0.00     0.074 A 
ATOM     29  C   UNL     1       8.925   5.293   8.791  1.00  0.00     0.029 A 
ATOM     30  N   UNL     1       8.210   6.035   6.821  1.00  0.00    -0.354 N 
ATOM     31  N   UNL     1       7.993   7.954   4.631  1.00  0.00    -0.248 NA
ATOM     32  C   UNL     1       8.517  10.021   3.678  1.00  0.00     0.031 C 
ATOM     33  C   UNL     1       9.471   6.564   8.574  1.00  0.00     0.029 A 
ATOM     34  C   UNL     1       9.031   7.020   7.342  1.00  0.00     0.049 A 
ATOM     35  H   UNL     1       7.749   6.083   5.952  1.00  0.00     0.167 HD
ATOM     36  C   UNL     1       8.849   8.643   5.479  1.00  0.00     0.074 A 
ATOM     37  C   UNL     1       9.155   9.903   4.835  1.00  0.00     0.031 C 
ATOM     38  C   UNL     1       9.334   8.263   6.685  1.00  0.00     0.037 A 
BRANCH  25  39
ATOM     39  C   UNL     1       7.349   2.736   8.550  1.00  0.00     0.064 A 
ATOM     40  C   UNL     1       8.146   1.586   8.465  1.00  0.00     0.173 A 
ATOM     41  C   UNL     1       6.557   2.910   9.694  1.00  0.00     0.173 A 
ATOM     42  F   UNL     1       8.908   1.372   7.382  1.00  0.00    -0.203 F 
ATOM     43  C   UNL     1       8.140   0.637   9.484  1.00  0.00     0.198 A 
ATOM     44  C   UNL     1       6.565   1.966  10.718  1.00  0.00     0.198 A 
ATOM     45  F   UNL     1       5.779   3.996   9.819  1.00  0.00    -0.203 F 
ATOM     46  F   UNL     1       8.888  -0.469   9.372  1.00  0.00    -0.200 F 
ATOM     47  C   UNL     1       7.353   0.830  10.610  1.00  0.00     0.200 A 
ATOM     48  F   UNL     1       5.807   2.155  11.807  1.00  0.00    -0.200 F 
ATOM     49  F   UNL     1       7.351  -0.083  11.591  1.00  0.00    -0.200 F 
ENDBRANCH  25  39
BRANCH  26  50
ATOM     50  C   UNL     1       6.963   9.490   1.266  1.00  0.00     0.064 A 
ATOM     51  C   UNL     1       8.054   9.625   0.398  1.00  0.00     0.173 A 
ATOM     52  C   UNL     1       5.848  10.312   1.057  1.00  0.00     0.173 A 
ATOM     53  F   UNL     1       9.149   8.871   0.577  1.00  0.00    -0.203 F 
ATOM     54  C   UNL     1       8.034  10.554  -0.639  1.00  0.00     0.198 A 
ATOM     55  C   UNL     1       5.822  11.230   0.010  1.00  0.00     0.198 A 
ATOM     56  F   UNL     1       4.783  10.216   1.866  1.00  0.00    -0.203 F 
ATOM     57  F   UNL     1       9.098  10.682  -1.442  1.00  0.00    -0.200 F 
ATOM     58  C   UNL     1       6.916  11.352  -0.835  1.00  0.00     0.200 A 
ATOM     59  F   UNL     1       4.741  11.998  -0.179  1.00  0.00    -0.200 F 
ATOM     60  F   UNL     1       6.896  12.244  -1.835  1.00  0.00    -0.200 F 
ENDBRANCH  26  50
BRANCH  38  61
ATOM     61  C   UNL     1      10.260   9.212   7.378  1.00  0.00     0.064 A 
ATOM     62  C   UNL     1       9.770  10.319   8.083  1.00  0.00     0.173 A 
ATOM     63  C   UNL     1      11.644   8.991   7.368  1.00  0.00     0.173 A 
ATOM     64  F   UNL     1       8.453  10.575   8.107  1.00  0.00    -0.203 F 
ATOM     65  C   UNL     1      10.637  11.182   8.746  1.00  0.00     0.198 A 
ATOM     66  C   UNL     1      12.508   9.849   8.043  1.00  0.00     0.198 A 
ATOM     67  F   UNL     1      12.157   7.943   6.705  1.00  0.00    -0.203 F 
ATOM     68  F   UNL     1      10.152  12.250   9.394  1.00  0.00    -0.200 F 
ATOM     69  C   UNL     1      12.004  10.944   8.729  1.00  0.00     0.200 A 
ATOM     70  F   UNL     1      13.828   9.618   8.027  1.00  0.00    -0.200 F 
ATOM     71  F   UNL     1      12.838  11.777   9.368  1.00  0.00    -0.200 F 
ENDBRANCH  38  61
ENDBRANCH  12  13
ENDBRANCH   5   7
ENDBRANCH   2   3
ENDBRANCH   1   2
BRANCH   1  72
ATOM     72  C   UNL     1       4.527  -4.284   0.256  1.00  0.00     0.023 C 
BRANCH  72  73
ATOM     73  C   UNL     1       5.210  -4.410  -1.105  1.00  0.00     0.116 C 
BRANCH  73  74
ATOM     74  N   UNL     1       6.650  -4.230  -1.051  1.00  0.00    -0.352 N 
ATOM     75  C   UNL     1       7.614  -4.794  -1.846  1.00  0.00     0.253 C 
ATOM     76  H   UNL     1       6.978  -3.621  -0.350  1.00  0.00     0.163 HD
ATOM     77  O   UNL     1       8.790  -4.461  -1.720  1.00  0.00    -0.269 OA
BRANCH  75  78
ATOM     78  C   UNL     1       7.272  -5.831  -2.833  1.00  0.00     0.065 A 
ATOM     79  C   UNL     1       7.800  -7.114  -2.621  1.00  0.00     0.016 A 
ATOM     80  C   UNL     1       6.485  -5.571  -3.959  1.00  0.00     0.076 A 
ATOM     81  C   UNL     1       7.505  -8.152  -3.507  1.00  0.00     0.001 A 
ATOM     82  C   UNL     1       6.204  -6.627  -4.840  1.00  0.00     0.029 A 
ATOM     83  C   UNL     1       6.705  -7.909  -4.619  1.00  0.00     0.002 A 
BRANCH  80  84
ATOM     84  N   UNL     1       5.795  -4.391  -4.213  1.00  0.00    -0.255 NA
ATOM     85  C   UNL     1       6.374  -3.248  -4.395  1.00  0.00     0.127 C 
BRANCH  85  86
ATOM     86  C   UNL     1       5.470  -2.156  -4.821  1.00  0.00     0.076 A 
ATOM     87  C   UNL     1       5.513  -2.001  -6.157  1.00  0.00     0.209 A 
ATOM     88  C   UNL     1       4.105  -2.115  -4.233  1.00  0.00     0.201 A 
ATOM     89  O   UNL     1       4.375  -1.952  -6.956  1.00  0.00    -0.463 OA
ATOM     90  C   UNL     1       3.108  -2.779  -5.083  1.00  0.00     0.065 A 
ATOM     91  O   UNL     1       3.870  -1.703  -3.107  1.00  0.00    -0.288 OA
ATOM     92  C   UNL     1       3.329  -2.707  -6.460  1.00  0.00     0.137 A 
ATOM     93  C   UNL     1       2.140  -3.622  -4.543  1.00  0.00     0.016 A 
ATOM     94  C   UNL     1       2.572  -3.487  -7.325  1.00  0.00     0.048 A 
ATOM     95  C   UNL     1       1.405  -4.432  -5.408  1.00  0.00     0.001 A 
ATOM     96  C   UNL     1       1.622  -4.366  -6.791  1.00  0.00     0.004 A 
ENDBRANCH  85  86
ENDBRANCH  80  84
ENDBRANCH  75  78
ENDBRANCH  73  74
ENDBRANCH  72  73
ENDBRANCH   1  72
TORSDOF 13
