REMARK SMILES Cc1cccc([C@H]([NH3+])[C@H](O)C(=O)NCCCCNC(=O)c2ccc(-c3c4nc(c(-c5c(F)c(F)c(F)c(F)c5F)c5ccc([nH]5)c(-c5c(F)c(F)c(F)c(F)c5F)c5nc(c(-c6c(F)c(F)c(F)c(F)c6F)c6ccc3[nH]6)C=C5)C=C4)cc2)c1
REMARK SMILES IDX 15 1 14 2 13 3 11 4 12 5 9 7 7 8 6 9 1 10 2 11 3 12 84 13
REMARK SMILES IDX 4 14 5 15 8 16 10 20 16 22 17 23 18 24 19 25 20 27 21 28
REMARK SMILES IDX 22 29 83 30 23 31 82 32 24 33 25 34 26 35 76 36 27 37 81 38
REMARK SMILES IDX 75 39 77 40 28 41 80 42 74 43 73 44 29 46 61 47 41 48 60 49
REMARK SMILES IDX 42 50 45 51 59 52 78 53 43 54 44 55 58 57 79 58 46 59 30 60
REMARK SMILES IDX 31 61 39 62 32 63 33 64 37 65 40 66 34 67 35 68 38 69 36 70
REMARK SMILES IDX 62 71 63 72 71 73 64 74 65 75 69 76 72 77 66 78 67 79 70 80
REMARK SMILES IDX 68 81 47 82 48 83 56 84 49 85 50 86 54 87 57 88 51 89 52 90
REMARK SMILES IDX 55 91 53 92
REMARK H PARENT 13 6 8 17 8 18 8 19 10 21 18 26 77 45 45 56
REMARK Flexibility Score: inf
ROOT
ATOM      1  C   UNL     1      -0.805   5.688  -0.065  1.00  0.00     0.023 C 
ENDROOT
BRANCH   1   2
ATOM      2  C   UNL     1      -1.346   5.476   1.353  1.00  0.00     0.116 C 
BRANCH   2   3
ATOM      3  N   UNL     1      -2.763   5.185   1.400  1.00  0.00    -0.354 N 
ATOM      4  C   UNL     1      -3.445   4.014   1.443  1.00  0.00     0.255 C 
ATOM      5  O   UNL     1      -4.676   4.112   1.544  1.00  0.00    -0.272 OA
ATOM      6  H   UNL     1      -3.337   5.984   1.401  1.00  0.00     0.163 HD
BRANCH   4   7
ATOM      7  C   UNL     1      -2.819   2.610   1.269  1.00  0.00     0.266 C 
BRANCH   7   8
ATOM      8  C   UNL     1      -1.714   2.192   2.306  1.00  0.00     0.250 C 
BRANCH   8   9
ATOM      9  C   UNL     1      -0.223   2.246   1.949  1.00  0.00     0.013 A 
ATOM     10  C   UNL     1       3.084   1.836   3.853  1.00  0.00     0.044 C 
ATOM     11  C   UNL     1       2.101   2.106   2.754  1.00  0.00    -0.051 A 
ATOM     12  C   UNL     1       2.563   2.437   1.480  1.00  0.00     0.003 A 
ATOM     13  C   UNL     1       0.718   2.031   2.981  1.00  0.00     0.013 A 
ATOM     14  C   UNL     1       1.659   2.632   0.442  1.00  0.00     0.001 A 
ATOM     15  C   UNL     1       0.285   2.511   0.671  1.00  0.00     0.010 A 
ENDBRANCH   8   9
BRANCH   8  16
ATOM     16  N   UNL     1      -1.991   0.829   2.833  1.00  0.00    -0.349 N 
ATOM     17  H   UNL     1      -1.860   0.144   2.089  1.00  0.00     0.345 HD
ATOM     18  H   UNL     1      -2.952   0.784   3.171  1.00  0.00     0.345 HD
ATOM     19  H   UNL     1      -1.350   0.625   3.600  1.00  0.00     0.345 HD
ENDBRANCH   8  16
ENDBRANCH   7   8
BRANCH   7  20
ATOM     20  O   UNL     1      -2.537   2.314  -0.094  1.00  0.00    -0.378 OA
ATOM     21  H   UNL     1      -1.834   2.901  -0.413  1.00  0.00     0.211 HD
ENDBRANCH   7  20
ENDBRANCH   4   7
ENDBRANCH   2   3
ENDBRANCH   1   2
BRANCH   1  22
ATOM     22  C   UNL     1      -1.324   6.937  -0.785  1.00  0.00     0.023 C 
BRANCH  22  23
ATOM     23  C   UNL     1      -0.935   8.257  -0.131  1.00  0.00     0.116 C 
BRANCH  23  24
ATOM     24  N   UNL     1       0.360   8.796  -0.520  1.00  0.00    -0.352 N 
ATOM     25  C   UNL     1       1.079   9.853   0.027  1.00  0.00     0.251 C 
ATOM     26  H   UNL     1       0.791   8.346  -1.282  1.00  0.00     0.163 HD
ATOM     27  O   UNL     1       2.098  10.242  -0.517  1.00  0.00    -0.269 OA
BRANCH  25  28
ATOM     28  C   UNL     1       0.690  10.409   1.353  1.00  0.00     0.039 A 
ATOM     29  C   UNL     1       1.711  10.639   2.285  1.00  0.00     0.014 A 
ATOM     30  C   UNL     1      -0.640  10.485   1.752  1.00  0.00     0.014 A 
ATOM     31  C   UNL     1       1.406  10.651   3.644  1.00  0.00     0.010 A 
ATOM     32  C   UNL     1      -0.936  10.384   3.097  1.00  0.00     0.010 A 
ATOM     33  C   UNL     1       0.099  10.378   4.037  1.00  0.00    -0.014 A 
BRANCH  33  34
ATOM     34  C   UNL     1      -0.257   9.909   5.371  1.00  0.00     0.031 A 
ATOM     35  C   UNL     1      -1.040  10.764   6.288  1.00  0.00     0.074 A 
ATOM     36  C   UNL     1       0.033   8.629   5.705  1.00  0.00     0.049 A 
ATOM     37  N   UNL     1      -1.180  10.521   7.547  1.00  0.00    -0.248 NA
ATOM     38  C   UNL     1      -1.671  12.017   5.878  1.00  0.00     0.031 C 
ATOM     39  C   UNL     1      -0.517   7.850   6.812  1.00  0.00     0.029 A 
ATOM     40  N   UNL     1       1.069   7.822   5.197  1.00  0.00    -0.354 N 
ATOM     41  C   UNL     1      -2.123  11.388   8.041  1.00  0.00     0.074 A 
ATOM     42  C   UNL     1      -2.295  12.374   7.007  1.00  0.00     0.031 C 
ATOM     43  C   UNL     1       0.327   6.848   7.101  1.00  0.00     0.029 A 
ATOM     44  C   UNL     1       1.516   7.048   6.293  1.00  0.00     0.049 A 
ATOM     45  H   UNL     1       1.411   7.802   4.273  1.00  0.00     0.167 HD
ATOM     46  C   UNL     1      -2.731  11.081   9.220  1.00  0.00     0.037 A 
ATOM     47  C   UNL     1       2.777   7.183   6.796  1.00  0.00     0.037 A 
ATOM     48  C   UNL     1      -1.989  10.034   9.924  1.00  0.00     0.049 A 
ATOM     49  C   UNL     1       2.824   7.593   8.250  1.00  0.00     0.074 A 
ATOM     50  C   UNL     1      -2.216   8.690  10.156  1.00  0.00     0.029 A 
ATOM     51  N   UNL     1      -0.669  10.283  10.293  1.00  0.00    -0.354 N 
ATOM     52  N   UNL     1       1.821   8.132   8.887  1.00  0.00    -0.248 NA
ATOM     53  C   UNL     1       4.014   7.467   9.085  1.00  0.00     0.031 C 
ATOM     54  C   UNL     1      -0.984   8.111  10.572  1.00  0.00     0.029 A 
ATOM     55  C   UNL     1      -0.029   9.112  10.641  1.00  0.00     0.049 A 
ATOM     56  H   UNL     1      -0.249  11.174  10.303  1.00  0.00     0.167 HD
ATOM     57  C   UNL     1       2.212   8.462  10.158  1.00  0.00     0.074 A 
ATOM     58  C   UNL     1       3.584   7.997  10.243  1.00  0.00     0.031 C 
ATOM     59  C   UNL     1       1.379   9.116  11.020  1.00  0.00     0.037 A 
BRANCH  46  60
ATOM     60  C   UNL     1      -4.087  11.585   9.679  1.00  0.00     0.064 A 
ATOM     61  C   UNL     1      -4.602  11.190  10.935  1.00  0.00     0.173 A 
ATOM     62  C   UNL     1      -4.989  12.334   8.891  1.00  0.00     0.173 A 
ATOM     63  F   UNL     1      -3.866  10.465  11.790  1.00  0.00    -0.203 F 
ATOM     64  C   UNL     1      -5.902  11.503  11.352  1.00  0.00     0.198 A 
ATOM     65  C   UNL     1      -6.268  12.691   9.330  1.00  0.00     0.198 A 
ATOM     66  F   UNL     1      -4.709  12.704   7.638  1.00  0.00    -0.203 F 
ATOM     67  F   UNL     1      -6.354  11.046  12.528  1.00  0.00    -0.200 F 
ATOM     68  C   UNL     1      -6.732  12.263  10.553  1.00  0.00     0.200 A 
ATOM     69  F   UNL     1      -7.058  13.427   8.534  1.00  0.00    -0.200 F 
ATOM     70  F   UNL     1      -7.976  12.564  10.948  1.00  0.00    -0.200 F 
ENDBRANCH  46  60
BRANCH  47  71
ATOM     71  C   UNL     1       3.781   7.565   5.770  1.00  0.00     0.064 A 
ATOM     72  C   UNL     1       4.059   6.649   4.736  1.00  0.00     0.173 A 
ATOM     73  C   UNL     1       4.157   8.898   5.573  1.00  0.00     0.173 A 
ATOM     74  F   UNL     1       3.721   5.358   4.879  1.00  0.00    -0.203 F 
ATOM     75  C   UNL     1       4.578   7.071   3.515  1.00  0.00     0.198 A 
ATOM     76  C   UNL     1       4.689   9.315   4.350  1.00  0.00     0.198 A 
ATOM     77  F   UNL     1       3.901   9.821   6.511  1.00  0.00    -0.203 F 
ATOM     78  F   UNL     1       4.730   6.193   2.513  1.00  0.00    -0.200 F 
ATOM     79  C   UNL     1       4.865   8.410   3.313  1.00  0.00     0.200 A 
ATOM     80  F   UNL     1       4.938  10.617   4.142  1.00  0.00    -0.200 F 
ATOM     81  F   UNL     1       5.272   8.837   2.109  1.00  0.00    -0.200 F 
ENDBRANCH  47  71
BRANCH  59  82
ATOM     82  C   UNL     1       1.790   9.763  12.325  1.00  0.00     0.064 A 
ATOM     83  C   UNL     1       3.080  10.255  12.589  1.00  0.00     0.173 A 
ATOM     84  C   UNL     1       0.821  10.043  13.319  1.00  0.00     0.173 A 
ATOM     85  F   UNL     1       4.058  10.177  11.677  1.00  0.00    -0.203 F 
ATOM     86  C   UNL     1       3.395  10.908  13.784  1.00  0.00     0.198 A 
ATOM     87  C   UNL     1       1.125  10.749  14.484  1.00  0.00     0.198 A 
ATOM     88  F   UNL     1      -0.457   9.665  13.177  1.00  0.00    -0.203 F 
ATOM     89  F   UNL     1       4.653  11.316  14.005  1.00  0.00    -0.200 F 
ATOM     90  C   UNL     1       2.417  11.165  14.726  1.00  0.00     0.200 A 
ATOM     91  F   UNL     1       0.152  11.041  15.359  1.00  0.00    -0.200 F 
ATOM     92  F   UNL     1       2.714  11.832  15.848  1.00  0.00    -0.200 F 
ENDBRANCH  59  82
ENDBRANCH  33  34
ENDBRANCH  25  28
ENDBRANCH  23  24
ENDBRANCH  22  23
ENDBRANCH   1  22
TORSDOF 15
