REMARK SMILES CO[C@@H]1C[NH2+][C@@H](O[C@@H]2C[C@@H](C(=O)NCCCCNC(=O)c3ccc(-c4c5nc(c(-c6c(F)c(F)c(F)c(F)c6F)c6ccc([nH]6)c(-c6c(F)c(F)c(F)c(F)c6F)c6nc(c(-c7c(F)c(F)c(F)c(F)c7F)c7ccc4[nH]7)C=C6)C=C5)cc3)N(C(=O)OC(C)(C)C)C2)c2cc(Cl)ccc21
REMARK SMILES IDX 15 1 14 2 13 3 11 4 12 5 10 7 8 8 9 9 92 10 84 11 7 12 6 13
REMARK SMILES IDX 3 14 4 15 99 16 5 17 93 18 98 19 94 22 97 23 95 24 96 25
REMARK SMILES IDX 2 26 1 27 85 28 86 29 87 30 88 31 89 32 90 33 91 34 16 35
REMARK SMILES IDX 17 36 18 37 19 38 20 40 21 41 22 42 83 43 23 44 82 45 24 46
REMARK SMILES IDX 25 47 26 48 76 49 27 50 81 51 75 52 77 53 28 54 80 55 74 56
REMARK SMILES IDX 73 57 29 59 61 60 41 61 60 62 42 63 45 64 59 65 78 66 43 67
REMARK SMILES IDX 44 68 58 70 79 71 46 72 30 73 31 74 39 75 32 76 33 77 37 78
REMARK SMILES IDX 40 79 34 80 35 81 38 82 36 83 62 84 63 85 71 86 64 87 65 88
REMARK SMILES IDX 69 89 72 90 66 91 67 92 70 93 68 94 47 95 48 96 56 97 49 98
REMARK SMILES IDX 50 99 54 100 57 101 51 102 52 103 55 104 53 105
REMARK H PARENT 13 6 5 20 5 21 18 39 77 58 45 69
REMARK Flexibility Score: inf
ROOT
ATOM      1  C   UNL     1      -0.185   5.906  -4.771  1.00  0.00     0.023 C 
ENDROOT
BRANCH   1   2
ATOM      2  C   UNL     1      -0.365   5.191  -3.429  1.00  0.00     0.116 C 
BRANCH   2   3
ATOM      3  N   UNL     1      -0.783   3.817  -3.640  1.00  0.00    -0.354 N 
ATOM      4  C   UNL     1       0.011   2.855  -4.221  1.00  0.00     0.243 C 
ATOM      5  O   UNL     1      -0.388   2.314  -5.251  1.00  0.00    -0.273 OA
ATOM      6  H   UNL     1      -1.688   3.558  -3.350  1.00  0.00     0.163 HD
BRANCH   4   7
ATOM      7  C   UNL     1       1.236   2.398  -3.415  1.00  0.00     0.180 C 
ATOM      8  C   UNL     1       3.579   2.584  -2.922  1.00  0.00     0.147 C 
ATOM      9  C   UNL     1       2.357   3.421  -3.269  1.00  0.00     0.069 C 
ATOM     10  C   UNL     1       3.357   1.291  -3.713  1.00  0.00     0.156 C 
ATOM     11  N   UNL     1       1.916   1.189  -3.875  1.00  0.00    -0.293 N 
BRANCH   8  12
ATOM     12  O   UNL     1       3.950   2.495  -1.550  1.00  0.00    -0.320 OA
BRANCH  12  13
ATOM     13  C   UNL     1       3.188   2.136  -0.401  1.00  0.00     0.354 C 
ATOM     14  C   UNL     1       0.683   0.550  -0.363  1.00  0.00     0.203 C 
ATOM     15  C   UNL     1       2.094  -0.030  -0.657  1.00  0.00     0.300 C 
ATOM     16  C   UNL     1       0.659   2.046  -0.082  1.00  0.00    -0.002 A 
ATOM     17  N   UNL     1       3.224   0.711  -0.108  1.00  0.00    -0.315 N 
ATOM     18  C   UNL     1       1.852   2.800  -0.119  1.00  0.00     0.046 A 
ATOM     19  C   UNL     1      -0.573   2.704   0.087  1.00  0.00     0.009 A 
ATOM     20  H   UNL     1       4.083   0.324  -0.499  1.00  0.00     0.349 HD
ATOM     21  H   UNL     1       3.179   0.615   0.906  1.00  0.00     0.349 HD
ATOM     22  C   UNL     1       1.790   4.185   0.126  1.00  0.00     0.033 A 
ATOM     23  C   UNL     1      -0.623   4.085   0.275  1.00  0.00     0.021 A 
ATOM     24  C   UNL     1       0.560   4.816   0.317  1.00  0.00     0.041 A 
ATOM     25  Cl  UNL     1       0.501   6.518   0.559  1.00  0.00    -0.084 Cl
BRANCH  14  26
ATOM     26  O   UNL     1      -0.096  -0.207   0.566  1.00  0.00    -0.371 OA
ATOM     27  C   UNL     1       0.518  -0.456   1.818  1.00  0.00     0.196 C 
ENDBRANCH  14  26
ENDBRANCH  12  13
ENDBRANCH   8  12
BRANCH  11  28
ATOM     28  C   UNL     1       1.319  -0.045  -4.053  1.00  0.00     0.411 C 
ATOM     29  O   UNL     1       1.938  -1.047  -4.362  1.00  0.00    -0.224 OA
BRANCH  28  30
ATOM     30  O   UNL     1      -0.000  -0.009  -3.739  1.00  0.00    -0.444 OA
BRANCH  30  31
ATOM     31  C   UNL     1      -0.846  -1.184  -3.829  1.00  0.00     0.106 C 
ATOM     32  C   UNL     1      -0.888  -1.729  -5.258  1.00  0.00     0.056 C 
ATOM     33  C   UNL     1      -0.431  -2.263  -2.821  1.00  0.00     0.056 C 
ATOM     34  C   UNL     1      -2.246  -0.676  -3.450  1.00  0.00     0.056 C 
ENDBRANCH  30  31
ENDBRANCH  28  30
ENDBRANCH  11  28
ENDBRANCH   4   7
ENDBRANCH   2   3
ENDBRANCH   1   2
BRANCH   1  35
ATOM     35  C   UNL     1      -1.410   5.806  -5.683  1.00  0.00     0.023 C 
BRANCH  35  36
ATOM     36  C   UNL     1      -2.703   6.283  -5.039  1.00  0.00     0.116 C 
BRANCH  36  37
ATOM     37  N   UNL     1      -2.702   7.717  -4.798  1.00  0.00    -0.352 N 
ATOM     38  C   UNL     1      -3.587   8.661  -5.264  1.00  0.00     0.251 C 
ATOM     39  H   UNL     1      -1.975   8.055  -4.228  1.00  0.00     0.163 HD
ATOM     40  O   UNL     1      -3.355   9.857  -5.136  1.00  0.00    -0.269 OA
BRANCH  38  41
ATOM     41  C   UNL     1      -4.807   8.205  -5.962  1.00  0.00     0.039 A 
ATOM     42  C   UNL     1      -5.584   7.182  -5.414  1.00  0.00     0.014 A 
ATOM     43  C   UNL     1      -5.122   8.744  -7.210  1.00  0.00     0.014 A 
ATOM     44  C   UNL     1      -6.552   6.567  -6.197  1.00  0.00     0.010 A 
ATOM     45  C   UNL     1      -6.166   8.188  -7.954  1.00  0.00     0.010 A 
ATOM     46  C   UNL     1      -6.851   7.057  -7.480  1.00  0.00    -0.014 A 
BRANCH  46  47
ATOM     47  C   UNL     1      -7.867   6.358  -8.310  1.00  0.00     0.031 A 
ATOM     48  C   UNL     1      -7.485   5.714  -9.617  1.00  0.00     0.074 A 
ATOM     49  C   UNL     1      -9.131   6.259  -7.855  1.00  0.00     0.049 A 
ATOM     50  N   UNL     1      -8.242   5.069 -10.471  1.00  0.00    -0.248 NA
ATOM     51  C   UNL     1      -6.074   5.806 -10.026  1.00  0.00     0.031 C 
ATOM     52  C   UNL     1      -9.620   6.829  -6.598  1.00  0.00     0.029 A 
ATOM     53  N   UNL     1     -10.230   5.630  -8.383  1.00  0.00    -0.354 N 
ATOM     54  C   UNL     1      -7.409   4.701 -11.520  1.00  0.00     0.074 A 
ATOM     55  C   UNL     1      -6.092   5.217 -11.214  1.00  0.00     0.031 C 
ATOM     56  C   UNL     1     -10.905   6.488  -6.431  1.00  0.00     0.029 A 
ATOM     57  C   UNL     1     -11.353   5.738  -7.599  1.00  0.00     0.049 A 
ATOM     58  H   UNL     1     -10.216   5.148  -9.242  1.00  0.00     0.167 HD
ATOM     59  C   UNL     1      -7.714   3.985 -12.628  1.00  0.00     0.037 A 
ATOM     60  C   UNL     1     -12.611   5.305  -7.806  1.00  0.00     0.037 A 
ATOM     61  C   UNL     1      -9.018   3.442 -12.910  1.00  0.00     0.049 A 
ATOM     62  C   UNL     1     -12.928   4.550  -9.066  1.00  0.00     0.074 A 
ATOM     63  C   UNL     1      -9.410   2.667 -13.989  1.00  0.00     0.029 A 
ATOM     64  N   UNL     1     -10.138   3.612 -12.112  1.00  0.00    -0.354 N 
ATOM     65  N   UNL     1     -12.125   4.191 -10.037  1.00  0.00    -0.248 NA
ATOM     66  C   UNL     1     -14.326   4.144  -9.261  1.00  0.00     0.031 C 
ATOM     67  C   UNL     1     -10.780   2.418 -13.873  1.00  0.00     0.029 A 
ATOM     68  C   UNL     1     -11.229   2.984 -12.692  1.00  0.00     0.049 A 
ATOM     69  H   UNL     1     -10.156   4.106 -11.260  1.00  0.00     0.167 HD
ATOM     70  C   UNL     1     -12.914   3.506 -10.950  1.00  0.00     0.074 A 
ATOM     71  C   UNL     1     -14.255   3.477 -10.405  1.00  0.00     0.031 C 
ATOM     72  C   UNL     1     -12.559   2.958 -12.138  1.00  0.00     0.037 A 
BRANCH  59  73
ATOM     73  C   UNL     1      -6.629   3.736 -13.637  1.00  0.00     0.064 A 
ATOM     74  C   UNL     1      -5.587   2.831 -13.392  1.00  0.00     0.173 A 
ATOM     75  C   UNL     1      -6.697   4.329 -14.909  1.00  0.00     0.173 A 
ATOM     76  F   UNL     1      -5.472   2.244 -12.191  1.00  0.00    -0.203 F 
ATOM     77  C   UNL     1      -4.651   2.532 -14.379  1.00  0.00     0.198 A 
ATOM     78  C   UNL     1      -5.777   4.007 -15.902  1.00  0.00     0.198 A 
ATOM     79  F   UNL     1      -7.680   5.196 -15.199  1.00  0.00    -0.203 F 
ATOM     80  F   UNL     1      -3.651   1.680 -14.116  1.00  0.00    -0.200 F 
ATOM     81  C   UNL     1      -4.754   3.110 -15.636  1.00  0.00     0.200 A 
ATOM     82  F   UNL     1      -5.889   4.552 -17.121  1.00  0.00    -0.200 F 
ATOM     83  F   UNL     1      -3.868   2.799 -16.593  1.00  0.00    -0.200 F 
ENDBRANCH  59  73
BRANCH  60  84
ATOM     84  C   UNL     1     -13.662   5.594  -6.795  1.00  0.00     0.064 A 
ATOM     85  C   UNL     1     -14.248   4.565  -6.047  1.00  0.00     0.173 A 
ATOM     86  C   UNL     1     -14.087   6.908  -6.543  1.00  0.00     0.173 A 
ATOM     87  F   UNL     1     -13.890   3.291  -6.264  1.00  0.00    -0.203 F 
ATOM     88  C   UNL     1     -15.227   4.838  -5.093  1.00  0.00     0.198 A 
ATOM     89  C   UNL     1     -15.040   7.182  -5.566  1.00  0.00     0.198 A 
ATOM     90  F   UNL     1     -13.555   7.930  -7.230  1.00  0.00    -0.203 F 
ATOM     91  F   UNL     1     -15.801   3.832  -4.419  1.00  0.00    -0.200 F 
ATOM     92  C   UNL     1     -15.615   6.146  -4.847  1.00  0.00     0.200 A 
ATOM     93  F   UNL     1     -15.396   8.450  -5.318  1.00  0.00    -0.200 F 
ATOM     94  F   UNL     1     -16.545   6.409  -3.919  1.00  0.00    -0.200 F 
ENDBRANCH  60  84
BRANCH  72  95
ATOM     95  C   UNL     1     -13.627   2.264 -12.931  1.00  0.00     0.064 A 
ATOM     96  C   UNL     1     -14.642   2.982 -13.579  1.00  0.00     0.173 A 
ATOM     97  C   UNL     1     -13.593   0.872 -13.107  1.00  0.00     0.173 A 
ATOM     98  F   UNL     1     -14.726   4.313 -13.432  1.00  0.00    -0.203 F 
ATOM     99  C   UNL     1     -15.591   2.332 -14.362  1.00  0.00     0.198 A 
ATOM    100  C   UNL     1     -14.524   0.228 -13.917  1.00  0.00     0.198 A 
ATOM    101  F   UNL     1     -12.638   0.138 -12.515  1.00  0.00    -0.203 F 
ATOM    102  F   UNL     1     -16.574   3.034 -14.942  1.00  0.00    -0.200 F 
ATOM    103  C   UNL     1     -15.525   0.958 -14.540  1.00  0.00     0.200 A 
ATOM    104  F   UNL     1     -14.447  -1.097 -14.101  1.00  0.00    -0.200 F 
ATOM    105  F   UNL     1     -16.428   0.336 -15.310  1.00  0.00    -0.200 F 
ENDBRANCH  72  95
ENDBRANCH  46  47
ENDBRANCH  38  41
ENDBRANCH  36  37
ENDBRANCH  35  36
ENDBRANCH   1  35
TORSDOF 17
