REMARK SMILES C/C(=N/N=c1\[nH]c(O)c(C(=O)NCCCCNC(=O)c2ccc(-c3c4nc(c(-c5c(F)c(F)c(F)c(F)c5F)c5ccc([nH]5)c(-c5c(F)c(F)c(F)c(F)c5F)c5nc(c(-c6c(F)c(F)c(F)c(F)c6F)c6ccc3[nH]6)C=C5)C=C4)cc2)s1)c1ccc2c(c1)OCO2
REMARK SMILES IDX 14 1 13 2 12 3 10 4 11 5 9 7 4 8 5 9 6 10 83 11 7 12 3 14
REMARK SMILES IDX 1 15 2 16 84 17 85 18 89 19 86 20 88 21 87 22 90 23 92 24
REMARK SMILES IDX 91 25 8 26 15 28 16 29 17 30 18 31 19 33 20 34 21 35 82 36
REMARK SMILES IDX 22 37 81 38 23 39 24 40 25 41 75 42 26 43 80 44 74 45 76 46
REMARK SMILES IDX 27 47 79 48 73 49 72 50 28 52 60 53 40 54 59 55 41 56 44 57
REMARK SMILES IDX 58 58 77 59 42 60 43 61 57 63 78 64 45 65 29 66 30 67 38 68
REMARK SMILES IDX 31 69 32 70 36 71 39 72 33 73 34 74 37 75 35 76 61 77 62 78
REMARK SMILES IDX 70 79 63 80 64 81 68 82 71 83 65 84 66 85 69 86 67 87 46 88
REMARK SMILES IDX 47 89 55 90 48 91 49 92 53 93 56 94 50 95 51 96 54 97 52 98
REMARK H PARENT 12 6 6 13 8 27 17 32 76 51 44 62
REMARK Flexibility Score: inf
ROOT
ATOM      1  C   UNL     1      -1.993  -8.575   0.024  1.00  0.00     0.023 C 
ENDROOT
BRANCH   1   2
ATOM      2  C   UNL     1      -3.241  -7.680   0.062  1.00  0.00     0.116 C 
BRANCH   2   3
ATOM      3  N   UNL     1      -3.807  -7.561   1.399  1.00  0.00    -0.351 N 
ATOM      4  C   UNL     1      -3.658  -6.631   2.394  1.00  0.00     0.266 C 
ATOM      5  O   UNL     1      -4.340  -6.800   3.407  1.00  0.00    -0.268 OA
ATOM      6  H   UNL     1      -4.418  -8.296   1.634  1.00  0.00     0.163 HD
BRANCH   4   7
ATOM      7  C   UNL     1      -2.754  -5.457   2.268  1.00  0.00     0.155 A 
ATOM      8  N   UNL     1      -0.364  -3.102   0.667  1.00  0.00    -0.121 NA
ATOM      9  C   UNL     1      -1.139  -3.717   1.481  1.00  0.00     0.211 A 
ATOM     10  N   UNL     1      -1.962  -3.320   2.499  1.00  0.00    -0.300 N 
ATOM     11  S   UNL     1      -1.325  -5.457   1.258  1.00  0.00    -0.086 S 
ATOM     12  C   UNL     1      -2.871  -4.269   2.905  1.00  0.00     0.214 A 
ATOM     13  H   UNL     1      -1.908  -2.426   2.908  1.00  0.00     0.172 HD
BRANCH   8  14
ATOM     14  N   UNL     1      -0.296  -1.729   0.837  1.00  0.00    -0.152 NA
ATOM     15  C   UNL     1       0.728   0.289  -0.053  1.00  0.00     0.069 C 
ATOM     16  C   UNL     1       0.397  -1.179  -0.119  1.00  0.00     0.067 C 
BRANCH  16  17
ATOM     17  C   UNL     1       0.938  -1.893  -1.303  1.00  0.00     0.001 A 
ATOM     18  C   UNL     1       0.078  -2.264  -2.360  1.00  0.00     0.014 A 
ATOM     19  C   UNL     1       2.317  -2.094  -1.378  1.00  0.00     0.060 A 
ATOM     20  C   UNL     1       0.610  -2.799  -3.538  1.00  0.00     0.051 A 
ATOM     21  C   UNL     1       2.807  -2.582  -2.565  1.00  0.00     0.166 A 
ATOM     22  C   UNL     1       1.982  -2.911  -3.619  1.00  0.00     0.165 A 
ATOM     23  O   UNL     1       4.124  -2.735  -2.871  1.00  0.00    -0.454 OA
ATOM     24  O   UNL     1       2.691  -3.294  -4.717  1.00  0.00    -0.454 OA
ATOM     25  C   UNL     1       4.026  -2.943  -4.294  1.00  0.00     0.468 C 
ENDBRANCH  16  17
ENDBRANCH   8  14
BRANCH  12  26
ATOM     26  O   UNL     1      -3.818  -3.938   3.824  1.00  0.00    -0.493 OA
ATOM     27  H   UNL     1      -3.817  -3.084   4.211  1.00  0.00     0.295 HD
ENDBRANCH  12  26
ENDBRANCH   4   7
ENDBRANCH   2   3
ENDBRANCH   1   2
BRANCH   1  28
ATOM     28  C   UNL     1      -2.247 -10.084   0.155  1.00  0.00     0.023 C 
BRANCH  28  29
ATOM     29  C   UNL     1      -3.001 -10.713  -1.008  1.00  0.00     0.116 C 
BRANCH  29  30
ATOM     30  N   UNL     1      -2.295 -10.623  -2.293  1.00  0.00    -0.352 N 
ATOM     31  C   UNL     1      -2.793 -10.897  -3.563  1.00  0.00     0.251 C 
ATOM     32  H   UNL     1      -1.355 -10.332  -2.251  1.00  0.00     0.163 HD
ATOM     33  O   UNL     1      -2.071 -11.171  -4.499  1.00  0.00    -0.269 OA
BRANCH  31  34
ATOM     34  C   UNL     1      -4.252 -10.799  -3.745  1.00  0.00     0.039 A 
ATOM     35  C   UNL     1      -5.008 -11.742  -4.447  1.00  0.00     0.014 A 
ATOM     36  C   UNL     1      -4.857  -9.742  -3.083  1.00  0.00     0.014 A 
ATOM     37  C   UNL     1      -6.398 -11.638  -4.403  1.00  0.00     0.010 A 
ATOM     38  C   UNL     1      -6.190  -9.809  -2.821  1.00  0.00     0.010 A 
ATOM     39  C   UNL     1      -6.977 -10.668  -3.571  1.00  0.00    -0.014 A 
BRANCH  39  40
ATOM     40  C   UNL     1      -8.415 -10.531  -3.391  1.00  0.00     0.031 A 
ATOM     41  C   UNL     1      -9.083 -11.755  -2.883  1.00  0.00     0.074 A 
ATOM     42  C   UNL     1      -9.013  -9.317  -3.430  1.00  0.00     0.049 A 
ATOM     43  N   UNL     1      -9.910 -12.519  -3.514  1.00  0.00    -0.248 NA
ATOM     44  C   UNL     1      -8.678 -12.281  -1.569  1.00  0.00     0.031 C 
ATOM     45  C   UNL     1      -8.377  -7.995  -3.576  1.00  0.00     0.029 A 
ATOM     46  N   UNL     1     -10.320  -8.988  -3.239  1.00  0.00    -0.354 N 
ATOM     47  C   UNL     1     -10.304 -13.493  -2.598  1.00  0.00     0.074 A 
ATOM     48  C   UNL     1      -9.371 -13.421  -1.506  1.00  0.00     0.031 C 
ATOM     49  C   UNL     1      -9.245  -7.022  -3.226  1.00  0.00     0.029 A 
ATOM     50  C   UNL     1     -10.545  -7.629  -3.039  1.00  0.00     0.049 A 
ATOM     51  H   UNL     1     -11.044  -9.655  -3.241  1.00  0.00     0.167 HD
ATOM     52  C   UNL     1     -11.540 -14.059  -2.686  1.00  0.00     0.037 A 
ATOM     53  C   UNL     1     -11.728  -7.041  -2.744  1.00  0.00     0.037 A 
ATOM     54  C   UNL     1     -12.156 -13.719  -3.944  1.00  0.00     0.049 A 
ATOM     55  C   UNL     1     -12.791  -7.985  -3.155  1.00  0.00     0.074 A 
ATOM     56  C   UNL     1     -12.008 -14.089  -5.261  1.00  0.00     0.029 A 
ATOM     57  N   UNL     1     -12.807 -12.513  -3.926  1.00  0.00    -0.354 N 
ATOM     58  N   UNL     1     -13.007  -8.324  -4.397  1.00  0.00    -0.248 NA
ATOM     59  C   UNL     1     -13.370  -8.872  -2.155  1.00  0.00     0.031 C 
ATOM     60  C   UNL     1     -12.392 -12.950  -6.033  1.00  0.00     0.029 A 
ATOM     61  C   UNL     1     -12.818 -11.941  -5.169  1.00  0.00     0.049 A 
ATOM     62  H   UNL     1     -13.213 -12.111  -3.125  1.00  0.00     0.167 HD
ATOM     63  C   UNL     1     -13.364  -9.658  -4.334  1.00  0.00     0.074 A 
ATOM     64  C   UNL     1     -13.738  -9.888  -2.942  1.00  0.00     0.031 C 
ATOM     65  C   UNL     1     -13.016 -10.517  -5.336  1.00  0.00     0.037 A 
BRANCH  52  66
ATOM     66  C   UNL     1     -12.397 -14.478  -1.508  1.00  0.00     0.064 A 
ATOM     67  C   UNL     1     -13.612 -15.154  -1.754  1.00  0.00     0.173 A 
ATOM     68  C   UNL     1     -12.246 -13.967  -0.201  1.00  0.00     0.173 A 
ATOM     69  F   UNL     1     -13.877 -15.661  -2.968  1.00  0.00    -0.203 F 
ATOM     70  C   UNL     1     -14.618 -15.248  -0.787  1.00  0.00     0.198 A 
ATOM     71  C   UNL     1     -13.231 -14.108   0.776  1.00  0.00     0.198 A 
ATOM     72  F   UNL     1     -11.201 -13.212   0.153  1.00  0.00    -0.203 F 
ATOM     73  F   UNL     1     -15.800 -15.794  -1.105  1.00  0.00    -0.200 F 
ATOM     74  C   UNL     1     -14.428 -14.720   0.476  1.00  0.00     0.200 A 
ATOM     75  F   UNL     1     -13.037 -13.566   1.988  1.00  0.00    -0.200 F 
ATOM     76  F   UNL     1     -15.411 -14.756   1.386  1.00  0.00    -0.200 F 
ENDBRANCH  52  66
BRANCH  53  77
ATOM     77  C   UNL     1     -11.982  -5.870  -1.877  1.00  0.00     0.064 A 
ATOM     78  C   UNL     1     -13.159  -5.115  -1.986  1.00  0.00     0.173 A 
ATOM     79  C   UNL     1     -11.197  -5.652  -0.728  1.00  0.00     0.173 A 
ATOM     80  F   UNL     1     -13.980  -5.296  -3.031  1.00  0.00    -0.203 F 
ATOM     81  C   UNL     1     -13.545  -4.213  -0.988  1.00  0.00     0.198 A 
ATOM     82  C   UNL     1     -11.583  -4.755   0.268  1.00  0.00     0.198 A 
ATOM     83  F   UNL     1     -10.093  -6.381  -0.509  1.00  0.00    -0.203 F 
ATOM     84  F   UNL     1     -14.706  -3.552  -1.095  1.00  0.00    -0.200 F 
ATOM     85  C   UNL     1     -12.764  -4.045   0.145  1.00  0.00     0.200 A 
ATOM     86  F   UNL     1     -10.841  -4.632   1.377  1.00  0.00    -0.200 F 
ATOM     87  F   UNL     1     -13.167  -3.234   1.133  1.00  0.00    -0.200 F 
ENDBRANCH  53  77
BRANCH  65  88
ATOM     88  C   UNL     1     -12.670  -9.913  -6.665  1.00  0.00     0.064 A 
ATOM     89  C   UNL     1     -11.534  -9.126  -6.917  1.00  0.00     0.173 A 
ATOM     90  C   UNL     1     -13.497 -10.216  -7.754  1.00  0.00     0.173 A 
ATOM     91  F   UNL     1     -10.651  -8.860  -5.948  1.00  0.00    -0.203 F 
ATOM     92  C   UNL     1     -11.266  -8.630  -8.192  1.00  0.00     0.198 A 
ATOM     93  C   UNL     1     -13.210  -9.750  -9.032  1.00  0.00     0.198 A 
ATOM     94  F   UNL     1     -14.572 -11.001  -7.581  1.00  0.00    -0.203 F 
ATOM     95  F   UNL     1     -10.186  -7.863  -8.402  1.00  0.00    -0.200 F 
ATOM     96  C   UNL     1     -12.102  -8.947  -9.249  1.00  0.00     0.200 A 
ATOM     97  F   UNL     1     -13.998 -10.096 -10.058  1.00  0.00    -0.200 F 
ATOM     98  F   UNL     1     -11.830  -8.496 -10.482  1.00  0.00    -0.200 F 
ENDBRANCH  65  88
ENDBRANCH  39  40
ENDBRANCH  31  34
ENDBRANCH  29  30
ENDBRANCH  28  29
ENDBRANCH   1  28
TORSDOF 14
