REMARK SMILES COc1ccc([C@@H]2[C@@H](C(=O)c3cccc4c3CCCC4)[C@H](C(=O)NCCCCNC(=O)c3ccc(-c4c5nc(c(-c6c(F)c(F)c(F)c(F)c6F)c6ccc([nH]6)c(-c6c(F)c(F)c(F)c(F)c6F)c6nc(c(-c7c(F)c(F)c(F)c(F)c7F)c7ccc4[nH]7)C=C6)C=C5)cc3)SC3=NC(=O)S[C@H]32)cc1
REMARK SMILES IDX 26 1 25 2 24 3 22 4 23 5 21 7 7 8 8 9 101 10 96 11 100 12
REMARK SMILES IDX 95 13 97 14 98 15 99 16 6 17 3 18 4 19 103 20 5 21 102 22
REMARK SMILES IDX 2 23 1 24 9 25 10 26 11 27 12 28 16 29 13 30 15 31 17 32
REMARK SMILES IDX 14 33 20 34 18 35 19 36 27 37 28 38 29 39 30 40 31 42 32 43
REMARK SMILES IDX 33 44 94 45 34 46 93 47 35 48 36 49 37 50 87 51 38 52 92 53
REMARK SMILES IDX 86 54 88 55 39 56 91 57 85 58 84 59 40 61 72 62 52 63 71 64
REMARK SMILES IDX 53 65 56 66 70 67 89 68 54 69 55 70 69 72 90 73 57 74 41 75
REMARK SMILES IDX 42 76 50 77 43 78 44 79 48 80 51 81 45 82 46 83 49 84 47 85
REMARK SMILES IDX 73 86 74 87 82 88 75 89 76 90 80 91 83 92 77 93 78 94 81 95
REMARK SMILES IDX 79 96 58 97 59 98 67 99 60 100 61 101 65 102 68 103 62 104
REMARK SMILES IDX 63 105 66 106 64 107
REMARK H PARENT 24 6 29 41 88 60 56 71
REMARK Flexibility Score: inf
ROOT
ATOM      1  C   UNL     1       6.303  -3.184  -5.139  1.00  0.00     0.023 C 
ENDROOT
BRANCH   1   2
ATOM      2  C   UNL     1       5.970  -2.924  -6.608  1.00  0.00     0.116 C 
BRANCH   2   3
ATOM      3  N   UNL     1       5.604  -4.142  -7.312  1.00  0.00    -0.355 N 
ATOM      4  C   UNL     1       4.434  -4.541  -7.893  1.00  0.00     0.234 C 
ATOM      5  O   UNL     1       4.433  -5.621  -8.491  1.00  0.00    -0.274 OA
ATOM      6  H   UNL     1       6.333  -4.800  -7.382  1.00  0.00     0.163 HD
BRANCH   4   7
ATOM      7  C   UNL     1       3.163  -3.675  -7.852  1.00  0.00     0.153 C 
ATOM      8  C   UNL     1       1.683  -2.253  -6.216  1.00  0.00     0.052 C 
ATOM      9  C   UNL     1       2.642  -3.473  -6.411  1.00  0.00     0.093 C 
ATOM     10  C   UNL     1       2.233  -0.947  -6.838  1.00  0.00     0.121 C 
ATOM     11  C   UNL     1       2.426  -1.042  -8.319  1.00  0.00     0.093 C 
ATOM     12  S   UNL     1       1.089   0.481  -6.710  1.00  0.00    -0.052 SA
ATOM     13  S   UNL     1       3.503  -2.236  -8.937  1.00  0.00    -0.095 SA
ATOM     14  N   UNL     1       1.903  -0.182  -9.122  1.00  0.00    -0.200 NA
ATOM     15  C   UNL     1       1.168   0.759  -8.447  1.00  0.00     0.306 C 
ATOM     16  O   UNL     1       0.619   1.713  -8.954  1.00  0.00    -0.259 OA
BRANCH   8  17
ATOM     17  C   UNL     1       1.412  -1.979  -4.730  1.00  0.00    -0.042 A 
ATOM     18  C   UNL     1       0.848  -1.346  -2.040  1.00  0.00     0.118 A 
ATOM     19  C   UNL     1      -0.181  -1.684  -2.911  1.00  0.00     0.047 A 
ATOM     20  C   UNL     1       2.162  -1.325  -2.501  1.00  0.00     0.047 A 
ATOM     21  C   UNL     1       0.094  -1.952  -4.253  1.00  0.00     0.008 A 
ATOM     22  C   UNL     1       2.443  -1.649  -3.833  1.00  0.00     0.008 A 
BRANCH  18  23
ATOM     23  O   UNL     1       0.482  -1.107  -0.745  1.00  0.00    -0.497 OA
ATOM     24  C   UNL     1       1.114   0.027  -0.160  1.00  0.00     0.278 C 
ENDBRANCH  18  23
ENDBRANCH   8  17
BRANCH   9  25
ATOM     25  C   UNL     1       2.138  -4.857  -5.867  1.00  0.00     0.168 C 
ATOM     26  O   UNL     1       2.873  -5.558  -5.173  1.00  0.00    -0.294 OA
BRANCH  25  27
ATOM     27  C   UNL     1       0.808  -5.417  -6.257  1.00  0.00     0.021 A 
ATOM     28  C   UNL     1      -0.324  -4.796  -5.764  1.00  0.00     0.012 A 
ATOM     29  C   UNL     1       0.688  -6.125  -7.452  1.00  0.00    -0.034 A 
ATOM     30  C   UNL     1      -1.372  -4.520  -6.642  1.00  0.00     0.001 A 
ATOM     31  C   UNL     1      -0.179  -5.622  -8.429  1.00  0.00    -0.044 A 
ATOM     32  C   UNL     1       0.495  -7.658  -7.334  1.00  0.00     0.036 C 
ATOM     33  C   UNL     1      -1.238  -4.820  -8.003  1.00  0.00     0.004 A 
ATOM     34  C   UNL     1      -0.059  -6.162  -9.830  1.00  0.00     0.036 C 
ATOM     35  C   UNL     1       0.415  -8.381  -8.688  1.00  0.00     0.005 C 
ATOM     36  C   UNL     1       0.748  -7.470  -9.868  1.00  0.00     0.005 C 
ENDBRANCH  25  27
ENDBRANCH   9  25
ENDBRANCH   4   7
ENDBRANCH   2   3
ENDBRANCH   1   2
BRANCH   1  37
ATOM     37  C   UNL     1       7.520  -4.080  -4.907  1.00  0.00     0.023 C 
BRANCH  37  38
ATOM     38  C   UNL     1       8.823  -3.576  -5.516  1.00  0.00     0.116 C 
BRANCH  38  39
ATOM     39  N   UNL     1       9.260  -2.307  -4.954  1.00  0.00    -0.352 N 
ATOM     40  C   UNL     1      10.493  -1.955  -4.457  1.00  0.00     0.251 C 
ATOM     41  H   UNL     1       8.576  -1.600  -4.925  1.00  0.00     0.163 HD
ATOM     42  O   UNL     1      10.641  -0.879  -3.887  1.00  0.00    -0.269 OA
BRANCH  40  43
ATOM     43  C   UNL     1      11.633  -2.891  -4.577  1.00  0.00     0.039 A 
ATOM     44  C   UNL     1      12.444  -3.112  -3.461  1.00  0.00     0.014 A 
ATOM     45  C   UNL     1      11.894  -3.559  -5.776  1.00  0.00     0.014 A 
ATOM     46  C   UNL     1      13.469  -4.059  -3.526  1.00  0.00     0.010 A 
ATOM     47  C   UNL     1      12.863  -4.559  -5.815  1.00  0.00     0.010 A 
ATOM     48  C   UNL     1      13.659  -4.823  -4.690  1.00  0.00    -0.014 A 
BRANCH  48  49
ATOM     49  C   UNL     1      14.674  -5.909  -4.742  1.00  0.00     0.031 A 
ATOM     50  C   UNL     1      15.821  -5.830  -5.713  1.00  0.00     0.074 A 
ATOM     51  C   UNL     1      14.524  -6.999  -3.963  1.00  0.00     0.049 A 
ATOM     52  N   UNL     1      16.760  -6.709  -5.957  1.00  0.00    -0.248 NA
ATOM     53  C   UNL     1      15.911  -4.615  -6.538  1.00  0.00     0.031 C 
ATOM     54  C   UNL     1      13.427  -7.221  -3.020  1.00  0.00     0.029 A 
ATOM     55  N   UNL     1      15.289  -8.136  -3.853  1.00  0.00    -0.354 N 
ATOM     56  C   UNL     1      17.536  -6.164  -6.972  1.00  0.00     0.074 A 
ATOM     57  C   UNL     1      16.935  -4.898  -7.331  1.00  0.00     0.031 C 
ATOM     58  C   UNL     1      13.596  -8.410  -2.418  1.00  0.00     0.029 A 
ATOM     59  C   UNL     1      14.787  -9.055  -2.961  1.00  0.00     0.049 A 
ATOM     60  H   UNL     1      16.118  -8.279  -4.364  1.00  0.00     0.167 HD
ATOM     61  C   UNL     1      18.659  -6.665  -7.538  1.00  0.00     0.037 A 
ATOM     62  C   UNL     1      15.227 -10.285  -2.632  1.00  0.00     0.037 A 
ATOM     63  C   UNL     1      19.275  -7.909  -7.155  1.00  0.00     0.049 A 
ATOM     64  C   UNL     1      16.481 -10.813  -3.279  1.00  0.00     0.074 A 
ATOM     65  C   UNL     1      20.458  -8.460  -7.614  1.00  0.00     0.029 A 
ATOM     66  N   UNL     1      18.753  -8.797  -6.227  1.00  0.00    -0.354 N 
ATOM     67  N   UNL     1      17.255 -10.246  -4.173  1.00  0.00    -0.248 NA
ATOM     68  C   UNL     1      16.928 -12.151  -2.865  1.00  0.00     0.031 C 
ATOM     69  C   UNL     1      20.622  -9.710  -7.011  1.00  0.00     0.029 A 
ATOM     70  C   UNL     1      19.576  -9.908  -6.124  1.00  0.00     0.049 A 
ATOM     71  H   UNL     1      17.923  -8.660  -5.717  1.00  0.00     0.167 HD
ATOM     72  C   UNL     1      18.293 -11.139  -4.400  1.00  0.00     0.074 A 
ATOM     73  C   UNL     1      18.062 -12.278  -3.538  1.00  0.00     0.031 C 
ATOM     74  C   UNL     1      19.344 -11.028  -5.249  1.00  0.00     0.037 A 
BRANCH  61  75
ATOM     75  C   UNL     1      19.311  -5.874  -8.635  1.00  0.00     0.064 A 
ATOM     76  C   UNL     1      19.982  -4.669  -8.378  1.00  0.00     0.173 A 
ATOM     77  C   UNL     1      19.337  -6.372  -9.947  1.00  0.00     0.173 A 
ATOM     78  F   UNL     1      19.980  -4.145  -7.143  1.00  0.00    -0.203 F 
ATOM     79  C   UNL     1      20.642  -3.985  -9.396  1.00  0.00     0.198 A 
ATOM     80  C   UNL     1      20.024  -5.702 -10.956  1.00  0.00     0.198 A 
ATOM     81  F   UNL     1      18.717  -7.524 -10.246  1.00  0.00    -0.203 F 
ATOM     82  F   UNL     1      21.248  -2.819  -9.133  1.00  0.00    -0.200 F 
ATOM     83  C   UNL     1      20.672  -4.507 -10.680  1.00  0.00     0.200 A 
ATOM     84  F   UNL     1      20.066  -6.216 -12.192  1.00  0.00    -0.200 F 
ATOM     85  F   UNL     1      21.326  -3.859 -11.654  1.00  0.00    -0.200 F 
ENDBRANCH  61  75
BRANCH  62  86
ATOM     86  C   UNL     1      14.480 -11.112  -1.645  1.00  0.00     0.064 A 
ATOM     87  C   UNL     1      15.044 -11.447  -0.405  1.00  0.00     0.173 A 
ATOM     88  C   UNL     1      13.206 -11.622  -1.938  1.00  0.00     0.173 A 
ATOM     89  F   UNL     1      16.268 -11.002  -0.085  1.00  0.00    -0.203 F 
ATOM     90  C   UNL     1      14.381 -12.290   0.485  1.00  0.00     0.198 A 
ATOM     91  C   UNL     1      12.529 -12.435  -1.032  1.00  0.00     0.198 A 
ATOM     92  F   UNL     1      12.617 -11.329  -3.107  1.00  0.00    -0.203 F 
ATOM     93  F   UNL     1      14.974 -12.648   1.631  1.00  0.00    -0.200 F 
ATOM     94  C   UNL     1      13.122 -12.780   0.172  1.00  0.00     0.200 A 
ATOM     95  F   UNL     1      11.306 -12.893  -1.331  1.00  0.00    -0.200 F 
ATOM     96  F   UNL     1      12.488 -13.595   1.026  1.00  0.00    -0.200 F 
ENDBRANCH  62  86
BRANCH  74  97
ATOM     97  C   UNL     1      20.352 -12.141  -5.255  1.00  0.00     0.064 A 
ATOM     98  C   UNL     1      20.053 -13.409  -5.776  1.00  0.00     0.173 A 
ATOM     99  C   UNL     1      21.651 -11.921  -4.770  1.00  0.00     0.173 A 
ATOM    100  F   UNL     1      18.823 -13.675  -6.239  1.00  0.00    -0.203 F 
ATOM    101  C   UNL     1      21.007 -14.423  -5.782  1.00  0.00     0.198 A 
ATOM    102  C   UNL     1      22.613 -12.926  -4.811  1.00  0.00     0.198 A 
ATOM    103  F   UNL     1      21.993 -10.724  -4.269  1.00  0.00    -0.203 F 
ATOM    104  F   UNL     1      20.683 -15.642  -6.235  1.00  0.00    -0.200 F 
ATOM    105  C   UNL     1      22.288 -14.178  -5.309  1.00  0.00     0.200 A 
ATOM    106  F   UNL     1      23.854 -12.682  -4.370  1.00  0.00    -0.200 F 
ATOM    107  F   UNL     1      23.207 -15.153  -5.326  1.00  0.00    -0.200 F 
ENDBRANCH  74  97
ENDBRANCH  48  49
ENDBRANCH  40  43
ENDBRANCH  38  39
ENDBRANCH  37  38
ENDBRANCH   1  37
TORSDOF 15
