REMARK SMILES CSc1cccc(N2C[C@@H](C(=O)NCCCCNC(=O)c3ccc(-c4c5nc(c(-c6c(F)c(F)c(F)c(F)c6F)c6ccc([nH]6)c(-c6c(F)c(F)c(F)c(F)c6F)c6nc(c(-c7c(F)c(F)c(F)c(F)c7F)c7ccc4[nH]7)C=C6)C=C5)cc3)CC2=O)c1
REMARK SMILES IDX 15 1 14 2 13 3 11 4 12 5 10 7 8 8 9 9 85 10 84 11 86 12 7 13
REMARK SMILES IDX 3 14 4 15 87 16 5 17 6 18 2 19 1 20 16 21 17 22 18 23 19 24
REMARK SMILES IDX 20 26 21 27 22 28 83 29 23 30 82 31 24 32 25 33 26 34 76 35
REMARK SMILES IDX 27 36 81 37 75 38 77 39 28 40 80 41 74 42 73 43 29 45 61 46
REMARK SMILES IDX 41 47 60 48 42 49 45 50 59 51 78 52 43 53 44 54 58 56 79 57
REMARK SMILES IDX 46 58 30 59 31 60 39 61 32 62 33 63 37 64 40 65 34 66 35 67
REMARK SMILES IDX 38 68 36 69 62 70 63 71 71 72 64 73 65 74 69 75 72 76 66 77
REMARK SMILES IDX 67 78 70 79 68 80 47 81 48 82 56 83 49 84 50 85 54 86 57 87
REMARK SMILES IDX 51 88 52 89 55 90 53 91
REMARK H PARENT 13 6 18 25 77 44 45 55
REMARK Flexibility Score: inf
ROOT
ATOM      1  C   UNL     1       5.116  -0.058   7.935  1.00  0.00     0.023 C 
ENDROOT
BRANCH   1   2
ATOM      2  C   UNL     1       5.127  -1.325   7.080  1.00  0.00     0.116 C 
BRANCH   2   3
ATOM      3  N   UNL     1       5.383  -2.514   7.872  1.00  0.00    -0.356 N 
ATOM      4  C   UNL     1       4.604  -3.587   8.165  1.00  0.00     0.225 C 
ATOM      5  O   UNL     1       5.106  -4.475   8.858  1.00  0.00    -0.275 OA
ATOM      6  H   UNL     1       6.283  -2.549   8.269  1.00  0.00     0.163 HD
BRANCH   4   7
ATOM      7  C   UNL     1       3.184  -3.741   7.658  1.00  0.00     0.107 C 
ATOM      8  N   UNL     1       2.066  -3.015   5.708  1.00  0.00    -0.312 N 
ATOM      9  C   UNL     1       3.105  -3.913   6.152  1.00  0.00     0.139 C 
ATOM     10  C   UNL     1       1.594  -2.195   6.731  1.00  0.00     0.227 C 
ATOM     11  C   UNL     1       2.251  -2.599   8.023  1.00  0.00     0.116 C 
ATOM     12  O   UNL     1       0.756  -1.306   6.669  1.00  0.00    -0.274 OA
BRANCH   8  13
ATOM     13  C   UNL     1       1.625  -2.966   4.361  1.00  0.00     0.045 A 
ATOM     14  C   UNL     1       0.743  -1.716   2.453  1.00  0.00     0.009 A 
ATOM     15  C   UNL     1       0.656  -2.901   1.722  1.00  0.00     0.015 A 
ATOM     16  C   UNL     1       1.196  -1.764   3.780  1.00  0.00     0.041 A 
ATOM     17  C   UNL     1       1.077  -4.105   2.285  1.00  0.00     0.003 A 
ATOM     18  C   UNL     1       1.585  -4.132   3.586  1.00  0.00     0.026 A 
BRANCH  14  19
ATOM     19  S   UNL     1       0.238  -0.140   1.776  1.00  0.00    -0.130 SA
ATOM     20  C   UNL     1       0.974  -0.211   0.118  1.00  0.00     0.091 C 
ENDBRANCH  14  19
ENDBRANCH   8  13
ENDBRANCH   4   7
ENDBRANCH   2   3
ENDBRANCH   1   2
BRANCH   1  21
ATOM     21  C   UNL     1       6.455   0.291   8.586  1.00  0.00     0.023 C 
BRANCH  21  22
ATOM     22  C   UNL     1       7.633   0.414   7.626  1.00  0.00     0.116 C 
BRANCH  22  23
ATOM     23  N   UNL     1       7.427   1.422   6.598  1.00  0.00    -0.352 N 
ATOM     24  C   UNL     1       8.269   2.428   6.188  1.00  0.00     0.251 C 
ATOM     25  H   UNL     1       6.563   1.378   6.130  1.00  0.00     0.163 HD
ATOM     26  O   UNL     1       7.878   3.277   5.394  1.00  0.00    -0.269 OA
BRANCH  24  27
ATOM     27  C   UNL     1       9.640   2.506   6.735  1.00  0.00     0.039 A 
ATOM     28  C   UNL     1      10.118   3.739   7.183  1.00  0.00     0.014 A 
ATOM     29  C   UNL     1      10.442   1.365   6.825  1.00  0.00     0.014 A 
ATOM     30  C   UNL     1      11.373   3.814   7.790  1.00  0.00     0.010 A 
ATOM     31  C   UNL     1      11.655   1.426   7.503  1.00  0.00     0.010 A 
ATOM     32  C   UNL     1      12.134   2.650   7.994  1.00  0.00    -0.014 A 
BRANCH  32  33
ATOM     33  C   UNL     1      13.429   2.695   8.722  1.00  0.00     0.031 A 
ATOM     34  C   UNL     1      14.702   2.307   8.022  1.00  0.00     0.074 A 
ATOM     35  C   UNL     1      13.450   3.027  10.028  1.00  0.00     0.049 A 
ATOM     36  N   UNL     1      15.917   2.214   8.504  1.00  0.00    -0.248 NA
ATOM     37  C   UNL     1      14.595   1.952   6.598  1.00  0.00     0.031 C 
ATOM     38  C   UNL     1      12.277   3.381  10.830  1.00  0.00     0.029 A 
ATOM     39  N   UNL     1      14.494   3.112  10.915  1.00  0.00    -0.354 N 
ATOM     40  C   UNL     1      16.710   1.786   7.447  1.00  0.00     0.074 A 
ATOM     41  C   UNL     1      15.833   1.577   6.316  1.00  0.00     0.031 C 
ATOM     42  C   UNL     1      12.670   3.669  12.081  1.00  0.00     0.029 A 
ATOM     43  C   UNL     1      14.113   3.477  12.184  1.00  0.00     0.049 A 
ATOM     44  H   UNL     1      15.429   2.929  10.665  1.00  0.00     0.167 HD
ATOM     45  C   UNL     1      18.053   1.609   7.416  1.00  0.00     0.037 A 
ATOM     46  C   UNL     1      14.843   3.626  13.306  1.00  0.00     0.037 A 
ATOM     47  C   UNL     1      18.925   1.834   8.539  1.00  0.00     0.049 A 
ATOM     48  C   UNL     1      16.330   3.392  13.248  1.00  0.00     0.074 A 
ATOM     49  C   UNL     1      20.303   1.726   8.595  1.00  0.00     0.029 A 
ATOM     50  N   UNL     1      18.502   2.211   9.805  1.00  0.00    -0.354 N 
ATOM     51  N   UNL     1      17.077   3.053  12.226  1.00  0.00    -0.248 NA
ATOM     52  C   UNL     1      17.076   3.568  14.502  1.00  0.00     0.031 C 
ATOM     53  C   UNL     1      20.710   1.983   9.908  1.00  0.00     0.029 A 
ATOM     54  C   UNL     1      19.591   2.315  10.655  1.00  0.00     0.049 A 
ATOM     55  H   UNL     1      17.566   2.379  10.062  1.00  0.00     0.167 HD
ATOM     56  C   UNL     1      18.381   3.011  12.703  1.00  0.00     0.074 A 
ATOM     57  C   UNL     1      18.325   3.377  14.102  1.00  0.00     0.031 C 
ATOM     58  C   UNL     1      19.522   2.698  12.042  1.00  0.00     0.037 A 
BRANCH  45  59
ATOM     59  C   UNL     1      18.668   1.157   6.123  1.00  0.00     0.064 A 
ATOM     60  C   UNL     1      18.720   1.998   5.000  1.00  0.00     0.173 A 
ATOM     61  C   UNL     1      19.262  -0.110   6.020  1.00  0.00     0.173 A 
ATOM     62  F   UNL     1      18.157   3.215   5.041  1.00  0.00    -0.203 F 
ATOM     63  C   UNL     1      19.322   1.578   3.817  1.00  0.00     0.198 A 
ATOM     64  C   UNL     1      19.893  -0.513   4.845  1.00  0.00     0.198 A 
ATOM     65  F   UNL     1      19.246  -0.952   7.064  1.00  0.00    -0.203 F 
ATOM     66  F   UNL     1      19.318   2.382   2.744  1.00  0.00    -0.200 F 
ATOM     67  C   UNL     1      19.916   0.328   3.743  1.00  0.00     0.200 A 
ATOM     68  F   UNL     1      20.480  -1.716   4.781  1.00  0.00    -0.200 F 
ATOM     69  F   UNL     1      20.508  -0.069   2.608  1.00  0.00    -0.200 F 
ENDBRANCH  45  59
BRANCH  46  70
ATOM     70  C   UNL     1      14.190   4.027  14.582  1.00  0.00     0.064 A 
ATOM     71  C   UNL     1      14.471   5.265  15.178  1.00  0.00     0.173 A 
ATOM     72  C   UNL     1      13.302   3.171  15.250  1.00  0.00     0.173 A 
ATOM     73  F   UNL     1      15.328   6.112  14.590  1.00  0.00    -0.203 F 
ATOM     74  C   UNL     1      13.920   5.614  16.410  1.00  0.00     0.198 A 
ATOM     75  C   UNL     1      12.724   3.536  16.464  1.00  0.00     0.198 A 
ATOM     76  F   UNL     1      12.993   1.977  14.722  1.00  0.00    -0.203 F 
ATOM     77  F   UNL     1      14.259   6.774  16.988  1.00  0.00    -0.200 F 
ATOM     78  C   UNL     1      13.044   4.751  17.050  1.00  0.00     0.200 A 
ATOM     79  F   UNL     1      11.865   2.705  17.071  1.00  0.00    -0.200 F 
ATOM     80  F   UNL     1      12.518   5.085  18.236  1.00  0.00    -0.200 F 
ENDBRANCH  46  70
BRANCH  58  81
ATOM     81  C   UNL     1      20.812   2.786  12.809  1.00  0.00     0.064 A 
ATOM     82  C   UNL     1      21.133   1.875  13.826  1.00  0.00     0.173 A 
ATOM     83  C   UNL     1      21.756   3.775  12.492  1.00  0.00     0.173 A 
ATOM     84  F   UNL     1      20.259   0.919  14.177  1.00  0.00    -0.203 F 
ATOM     85  C   UNL     1      22.337   1.970  14.518  1.00  0.00     0.198 A 
ATOM     86  C   UNL     1      22.974   3.845  13.162  1.00  0.00     0.198 A 
ATOM     87  F   UNL     1      21.503   4.666  11.522  1.00  0.00    -0.203 F 
ATOM     88  F   UNL     1      22.598   1.123  15.523  1.00  0.00    -0.200 F 
ATOM     89  C   UNL     1      23.260   2.949  14.180  1.00  0.00     0.200 A 
ATOM     90  F   UNL     1      23.872   4.780  12.821  1.00  0.00    -0.200 F 
ATOM     91  F   UNL     1      24.422   3.033  14.841  1.00  0.00    -0.200 F 
ENDBRANCH  58  81
ENDBRANCH  32  33
ENDBRANCH  24  27
ENDBRANCH  22  23
ENDBRANCH  21  22
ENDBRANCH   1  21
TORSDOF 13
