REMARK SMILES O=C(NCCCCNC(=O)[C@@H]1CC[C@@H](CNC(=O)c2ccno2)O1)c1ccc(-c2c3nc(c(-c4c(F)c(F)c(F)c(F)c4F)c4ccc([nH]4)c(-c4c(F)c(F)c(F)c(F)c4F)c4nc(c(-c5c(F)c(F)c(F)c(F)c5F)c5ccc2[nH]5)C=C4)C=C3)cc1
REMARK SMILES IDX 6 1 5 2 4 3 3 4 1 5 2 6 25 8 26 9 87 10 27 11 86 12 28 13
REMARK SMILES IDX 29 14 30 15 80 16 31 17 85 18 79 19 81 20 32 21 84 22 78 23
REMARK SMILES IDX 77 24 33 26 65 27 45 28 64 29 46 30 49 31 63 32 82 33 47 34
REMARK SMILES IDX 48 35 62 37 83 38 50 39 34 40 35 41 43 42 36 43 37 44 41 45
REMARK SMILES IDX 44 46 38 47 39 48 42 49 40 50 66 51 67 52 75 53 68 54 69 55
REMARK SMILES IDX 73 56 76 57 70 58 71 59 74 60 72 61 51 62 52 63 60 64 53 65
REMARK SMILES IDX 54 66 58 67 61 68 55 69 56 70 59 71 57 72 7 73 8 74 9 75
REMARK SMILES IDX 10 77 11 78 12 79 24 80 13 81 14 82 15 83 16 84 17 85 18 87
REMARK SMILES IDX 19 88 20 89 23 90 21 91 22 92
REMARK H PARENT 3 7 81 25 49 36 8 76 16 86
REMARK Flexibility Score: inf
ROOT
ATOM      1  C   UNL     1       4.243   3.401  -2.170  1.00  0.00     0.023 C 
ENDROOT
BRANCH   1   2
ATOM      2  C   UNL     1       4.773   1.964  -2.147  1.00  0.00     0.023 C 
BRANCH   2   3
ATOM      3  C   UNL     1       4.506   1.176  -0.868  1.00  0.00     0.116 C 
BRANCH   3   4
ATOM      4  N   UNL     1       3.093   1.054  -0.553  1.00  0.00    -0.352 N 
ATOM      5  O   UNL     1       1.167   0.026   0.001  1.00  0.00    -0.269 OA
ATOM      6  C   UNL     1       2.388  -0.038  -0.108  1.00  0.00     0.251 C 
ATOM      7  H   UNL     1       2.562   1.875  -0.676  1.00  0.00     0.163 HD
BRANCH   6   8
ATOM      8  C   UNL     1       3.085  -1.305   0.209  1.00  0.00     0.039 A 
ATOM      9  C   UNL     1       4.265  -1.322   0.957  1.00  0.00     0.014 A 
ATOM     10  C   UNL     1       2.519  -2.508  -0.229  1.00  0.00     0.014 A 
ATOM     11  C   UNL     1       4.936  -2.525   1.167  1.00  0.00     0.010 A 
ATOM     12  C   UNL     1       3.164  -3.720   0.029  1.00  0.00     0.010 A 
ATOM     13  C   UNL     1       4.393  -3.734   0.704  1.00  0.00    -0.014 A 
BRANCH  13  14
ATOM     14  C   UNL     1       5.109  -5.005   0.971  1.00  0.00     0.031 A 
ATOM     15  C   UNL     1       5.780  -5.762  -0.138  1.00  0.00     0.074 A 
ATOM     16  C   UNL     1       5.178  -5.459   2.236  1.00  0.00     0.049 A 
ATOM     17  N   UNL     1       6.492  -6.860  -0.074  1.00  0.00    -0.248 NA
ATOM     18  C   UNL     1       5.631  -5.222  -1.498  1.00  0.00     0.031 C 
ATOM     19  C   UNL     1       4.548  -4.822   3.393  1.00  0.00     0.029 A 
ATOM     20  N   UNL     1       5.824  -6.548   2.763  1.00  0.00    -0.354 N 
ATOM     21  C   UNL     1       6.862  -7.151  -1.380  1.00  0.00     0.074 A 
ATOM     22  C   UNL     1       6.283  -6.124  -2.221  1.00  0.00     0.031 C 
ATOM     23  C   UNL     1       4.873  -5.507   4.500  1.00  0.00     0.029 A 
ATOM     24  C   UNL     1       5.707  -6.646   4.127  1.00  0.00     0.049 A 
ATOM     25  H   UNL     1       6.323  -7.197   2.216  1.00  0.00     0.167 HD
ATOM     26  C   UNL     1       7.622  -8.176  -1.833  1.00  0.00     0.037 A 
ATOM     27  C   UNL     1       6.218  -7.550   4.982  1.00  0.00     0.037 A 
ATOM     28  C   UNL     1       8.218  -9.184  -0.996  1.00  0.00     0.049 A 
ATOM     29  C   UNL     1       7.072  -8.665   4.454  1.00  0.00     0.074 A 
ATOM     30  C   UNL     1       9.036 -10.240  -1.363  1.00  0.00     0.029 A 
ATOM     31  N   UNL     1       8.062  -9.260   0.379  1.00  0.00    -0.354 N 
ATOM     32  N   UNL     1       7.437  -8.911   3.220  1.00  0.00    -0.248 NA
ATOM     33  C   UNL     1       7.581  -9.630   5.438  1.00  0.00     0.031 C 
ATOM     34  C   UNL     1       9.355 -10.969  -0.212  1.00  0.00     0.029 A 
ATOM     35  C   UNL     1       8.756 -10.352   0.875  1.00  0.00     0.049 A 
ATOM     36  H   UNL     1       7.535  -8.631   0.924  1.00  0.00     0.167 HD
ATOM     37  C   UNL     1       8.216 -10.056   3.276  1.00  0.00     0.074 A 
ATOM     38  C   UNL     1       8.292 -10.445   4.670  1.00  0.00     0.031 C 
ATOM     39  C   UNL     1       8.810 -10.729   2.262  1.00  0.00     0.037 A 
BRANCH  26  40
ATOM     40  C   UNL     1       7.852  -8.267  -3.310  1.00  0.00     0.064 A 
ATOM     41  C   UNL     1       8.783  -7.441  -3.955  1.00  0.00     0.173 A 
ATOM     42  C   UNL     1       7.176  -9.227  -4.077  1.00  0.00     0.173 A 
ATOM     43  F   UNL     1       9.444  -6.501  -3.264  1.00  0.00    -0.203 F 
ATOM     44  C   UNL     1       9.021  -7.566  -5.322  1.00  0.00     0.198 A 
ATOM     45  C   UNL     1       7.429  -9.359  -5.440  1.00  0.00     0.198 A 
ATOM     46  F   UNL     1       6.279 -10.041  -3.503  1.00  0.00    -0.203 F 
ATOM     47  F   UNL     1       9.897  -6.750  -5.925  1.00  0.00    -0.200 F 
ATOM     48  C   UNL     1       8.349  -8.528  -6.061  1.00  0.00     0.200 A 
ATOM     49  F   UNL     1       6.783 -10.293  -6.152  1.00  0.00    -0.200 F 
ATOM     50  F   UNL     1       8.585  -8.651  -7.375  1.00  0.00    -0.200 F 
ENDBRANCH  26  40
BRANCH  27  51
ATOM     51  C   UNL     1       5.947  -7.414   6.433  1.00  0.00     0.064 A 
ATOM     52  C   UNL     1       6.941  -6.956   7.307  1.00  0.00     0.173 A 
ATOM     53  C   UNL     1       4.685  -7.710   6.966  1.00  0.00     0.173 A 
ATOM     54  F   UNL     1       8.168  -6.681   6.841  1.00  0.00    -0.203 F 
ATOM     55  C   UNL     1       6.682  -6.802   8.667  1.00  0.00     0.198 A 
ATOM     56  C   UNL     1       4.422  -7.537   8.322  1.00  0.00     0.198 A 
ATOM     57  F   UNL     1       3.704  -8.150   6.164  1.00  0.00    -0.203 F 
ATOM     58  F   UNL     1       7.655  -6.384   9.488  1.00  0.00    -0.200 F 
ATOM     59  C   UNL     1       5.422  -7.086   9.172  1.00  0.00     0.200 A 
ATOM     60  F   UNL     1       3.201  -7.804   8.805  1.00  0.00    -0.200 F 
ATOM     61  F   UNL     1       5.171  -6.928  10.479  1.00  0.00    -0.200 F 
ENDBRANCH  27  51
BRANCH  39  62
ATOM     62  C   UNL     1       9.584 -11.957   2.626  1.00  0.00     0.064 A 
ATOM     63  C   UNL     1       8.932 -13.165   2.912  1.00  0.00     0.173 A 
ATOM     64  C   UNL     1      10.985 -11.934   2.666  1.00  0.00     0.173 A 
ATOM     65  F   UNL     1       7.592 -13.227   2.901  1.00  0.00    -0.203 F 
ATOM     66  C   UNL     1       9.657 -14.305   3.243  1.00  0.00     0.198 A 
ATOM     67  C   UNL     1      11.708 -13.081   2.982  1.00  0.00     0.198 A 
ATOM     68  F   UNL     1      11.651 -10.801   2.399  1.00  0.00    -0.203 F 
ATOM     69  F   UNL     1       9.014 -15.442   3.546  1.00  0.00    -0.200 F 
ATOM     70  C   UNL     1      11.043 -14.264   3.274  1.00  0.00     0.200 A 
ATOM     71  F   UNL     1      13.047 -13.042   3.009  1.00  0.00    -0.200 F 
ATOM     72  F   UNL     1      11.740 -15.363   3.595  1.00  0.00    -0.200 F 
ENDBRANCH  39  62
ENDBRANCH  13  14
ENDBRANCH   6   8
ENDBRANCH   3   4
ENDBRANCH   2   3
ENDBRANCH   1   2
BRANCH   1  73
ATOM     73  C   UNL     1       4.656   4.272  -0.987  1.00  0.00     0.116 C 
BRANCH  73  74
ATOM     74  N   UNL     1       6.095   4.434  -0.889  1.00  0.00    -0.354 N 
ATOM     75  C   UNL     1       6.846   5.579  -0.916  1.00  0.00     0.249 C 
ATOM     76  H   UNL     1       6.606   3.599  -0.789  1.00  0.00     0.163 HD
ATOM     77  O   UNL     1       8.059   5.479  -0.725  1.00  0.00    -0.272 OA
BRANCH  75  78
ATOM     78  C   UNL     1       6.160   6.918  -1.229  1.00  0.00     0.207 C 
ATOM     79  C   UNL     1       6.119   7.136  -2.731  1.00  0.00     0.045 C 
ATOM     80  O   UNL     1       6.820   8.073  -0.703  1.00  0.00    -0.363 OA
ATOM     81  C   UNL     1       5.885   8.622  -2.834  1.00  0.00     0.037 C 
ATOM     82  C   UNL     1       6.603   9.173  -1.605  1.00  0.00     0.138 C 
BRANCH  82  83
ATOM     83  C   UNL     1       5.840  10.300  -0.882  1.00  0.00     0.148 C 
BRANCH  83  84
ATOM     84  N   UNL     1       4.534   9.869  -0.390  1.00  0.00    -0.347 N 
ATOM     85  C   UNL     1       4.185   9.415   0.862  1.00  0.00     0.289 C 
ATOM     86  H   UNL     1       3.800   9.909  -1.045  1.00  0.00     0.164 HD
ATOM     87  O   UNL     1       3.206   8.666   0.913  1.00  0.00    -0.266 OA
BRANCH  85  88
ATOM     88  C   UNL     1       4.910   9.854   2.027  1.00  0.00     0.224 A 
ATOM     89  C   UNL     1       5.584  11.009   2.360  1.00  0.00     0.079 A 
ATOM     90  O   UNL     1       4.898   9.034   3.121  1.00  0.00    -0.351 OA
ATOM     91  C   UNL     1       5.993  10.809   3.689  1.00  0.00     0.159 A 
ATOM     92  N   UNL     1       5.597   9.627   4.161  1.00  0.00    -0.088 NA
ENDBRANCH  85  88
ENDBRANCH  83  84
ENDBRANCH  82  83
ENDBRANCH  75  78
ENDBRANCH  73  74
ENDBRANCH   1  73
TORSDOF 14
