REMARK SMILES CC[C@@H](Oc1ccc(Cl)c(Cl)c1)C(=O)NCCCCNC(=O)c1ccc(-c2c3nc(c(-c4c(F)c(F)c(F)c(F)c4F)c4ccc([nH]4)c(-c4c(F)c(F)c(F)c(F)c4F)c4nc(c(-c5c(F)c(F)c(F)c(F)c5F)c5ccc2[nH]5)C=C4)C=C3)cc1
REMARK SMILES IDX 17 1 16 2 15 3 13 4 14 5 3 7 2 8 1 9 4 10 5 11 6 12 12 13
REMARK SMILES IDX 7 14 10 15 8 16 11 17 9 18 18 19 19 20 20 21 21 22 22 24
REMARK SMILES IDX 23 25 24 26 85 27 25 28 84 29 26 30 27 31 28 32 78 33 29 34
REMARK SMILES IDX 83 35 77 36 79 37 30 38 82 39 76 40 75 41 31 43 63 44 43 45
REMARK SMILES IDX 62 46 44 47 47 48 61 49 80 50 45 51 46 52 60 54 81 55 48 56
REMARK SMILES IDX 32 57 33 58 41 59 34 60 35 61 39 62 42 63 36 64 37 65 40 66
REMARK SMILES IDX 38 67 64 68 65 69 73 70 66 71 67 72 71 73 74 74 68 75 69 76
REMARK SMILES IDX 72 77 70 78 49 79 50 80 58 81 51 82 52 83 56 84 59 85 53 86
REMARK SMILES IDX 54 87 57 88 55 89
REMARK H PARENT 15 6 20 23 79 42 47 53
REMARK Flexibility Score: inf
ROOT
ATOM      1  C   UNL     1      -2.769   2.253   1.524  1.00  0.00     0.023 C 
ENDROOT
BRANCH   1   2
ATOM      2  C   UNL     1      -2.007   2.865   0.355  1.00  0.00     0.116 C 
BRANCH   2   3
ATOM      3  N   UNL     1      -0.876   3.663   0.796  1.00  0.00    -0.353 N 
ATOM      4  C   UNL     1       0.462   3.455   0.590  1.00  0.00     0.261 C 
ATOM      5  O   UNL     1       1.253   4.291   1.036  1.00  0.00    -0.271 OA
ATOM      6  H   UNL     1      -1.104   4.467   1.316  1.00  0.00     0.163 HD
BRANCH   4   7
ATOM      7  C   UNL     1       0.959   2.184  -0.121  1.00  0.00     0.261 C 
BRANCH   7   8
ATOM      8  C   UNL     1       0.697   0.976   0.799  1.00  0.00     0.052 C 
ATOM      9  C   UNL     1       1.773  -0.100   0.713  1.00  0.00     0.008 C 
ENDBRANCH   7   8
BRANCH   7  10
ATOM     10  O   UNL     1       0.246   2.141  -1.371  1.00  0.00    -0.481 OA
BRANCH  10  11
ATOM     11  C   UNL     1       0.766   1.298  -2.302  1.00  0.00     0.122 A 
ATOM     12  C   UNL     1       0.359  -0.034  -2.330  1.00  0.00     0.048 A 
ATOM     13  C   UNL     1       1.580   1.812  -3.306  1.00  0.00     0.068 A 
ATOM     14  C   UNL     1       0.855  -0.889  -3.312  1.00  0.00     0.026 A 
ATOM     15  C   UNL     1       2.055   0.964  -4.310  1.00  0.00     0.063 A 
ATOM     16  C   UNL     1       1.710  -0.394  -4.301  1.00  0.00     0.059 A 
ATOM     17  Cl  UNL     1       3.049   1.655  -5.543  1.00  0.00    -0.083 Cl
ATOM     18  Cl  UNL     1       2.291  -1.510  -5.484  1.00  0.00    -0.083 Cl
ENDBRANCH  10  11
ENDBRANCH   7  10
ENDBRANCH   4   7
ENDBRANCH   2   3
ENDBRANCH   1   2
BRANCH   1  19
ATOM     19  C   UNL     1      -3.566   3.255   2.358  1.00  0.00     0.023 C 
BRANCH  19  20
ATOM     20  C   UNL     1      -4.546   4.121   1.573  1.00  0.00     0.116 C 
BRANCH  20  21
ATOM     21  N   UNL     1      -5.495   3.346   0.789  1.00  0.00    -0.352 N 
ATOM     22  C   UNL     1      -6.845   3.522   0.626  1.00  0.00     0.251 C 
ATOM     23  H   UNL     1      -5.110   2.581   0.303  1.00  0.00     0.163 HD
ATOM     24  O   UNL     1      -7.501   2.677   0.021  1.00  0.00    -0.269 OA
BRANCH  22  25
ATOM     25  C   UNL     1      -7.524   4.702   1.205  1.00  0.00     0.039 A 
ATOM     26  C   UNL     1      -8.759   4.517   1.830  1.00  0.00     0.014 A 
ATOM     27  C   UNL     1      -6.961   5.980   1.135  1.00  0.00     0.014 A 
ATOM     28  C   UNL     1      -9.395   5.598   2.440  1.00  0.00     0.010 A 
ATOM     29  C   UNL     1      -7.557   7.042   1.813  1.00  0.00     0.010 A 
ATOM     30  C   UNL     1      -8.781   6.862   2.474  1.00  0.00    -0.014 A 
BRANCH  30  31
ATOM     31  C   UNL     1      -9.407   7.982   3.224  1.00  0.00     0.031 A 
ATOM     32  C   UNL     1      -9.876   9.221   2.514  1.00  0.00     0.074 A 
ATOM     33  C   UNL     1      -9.532   7.884   4.563  1.00  0.00     0.049 A 
ATOM     34  N   UNL     1     -10.463  10.283   3.006  1.00  0.00    -0.248 NA
ATOM     35  C   UNL     1      -9.636   9.290   1.064  1.00  0.00     0.031 C 
ATOM     36  C   UNL     1      -9.056   6.763   5.375  1.00  0.00     0.029 A 
ATOM     37  N   UNL     1     -10.100   8.737   5.476  1.00  0.00    -0.354 N 
ATOM     38  C   UNL     1     -10.670  11.137   1.931  1.00  0.00     0.074 A 
ATOM     39  C   UNL     1     -10.084  10.502   0.770  1.00  0.00     0.031 C 
ATOM     40  C   UNL     1      -9.380   6.980   6.659  1.00  0.00     0.029 A 
ATOM     41  C   UNL     1     -10.054   8.270   6.768  1.00  0.00     0.049 A 
ATOM     42  H   UNL     1     -10.501   9.601   5.230  1.00  0.00     0.167 HD
ATOM     43  C   UNL     1     -11.317  12.327   1.907  1.00  0.00     0.037 A 
ATOM     44  C   UNL     1     -10.504   8.820   7.912  1.00  0.00     0.037 A 
ATOM     45  C   UNL     1     -11.903  12.956   3.063  1.00  0.00     0.049 A 
ATOM     46  C   UNL     1     -11.213  10.146   7.854  1.00  0.00     0.074 A 
ATOM     47  C   UNL     1     -12.610  14.144   3.135  1.00  0.00     0.029 A 
ATOM     48  N   UNL     1     -11.847  12.448   4.353  1.00  0.00    -0.354 N 
ATOM     49  N   UNL     1     -11.469  10.905   6.817  1.00  0.00    -0.248 NA
ATOM     50  C   UNL     1     -11.711  10.683   9.128  1.00  0.00     0.031 C 
ATOM     51  C   UNL     1     -12.938  14.380   4.474  1.00  0.00     0.029 A 
ATOM     52  C   UNL     1     -12.489  13.310   5.230  1.00  0.00     0.049 A 
ATOM     53  H   UNL     1     -11.414  11.601   4.608  1.00  0.00     0.167 HD
ATOM     54  C   UNL     1     -12.174  11.996   7.308  1.00  0.00     0.074 A 
ATOM     55  C   UNL     1     -12.336  11.781   8.731  1.00  0.00     0.031 C 
ATOM     56  C   UNL     1     -12.638  13.084   6.645  1.00  0.00     0.037 A 
BRANCH  43  57
ATOM     57  C   UNL     1     -11.445  13.024   0.582  1.00  0.00     0.064 A 
ATOM     58  C   UNL     1     -12.272  12.518  -0.434  1.00  0.00     0.173 A 
ATOM     59  C   UNL     1     -10.787  14.240   0.344  1.00  0.00     0.173 A 
ATOM     60  F   UNL     1     -12.916  11.354  -0.263  1.00  0.00    -0.203 F 
ATOM     61  C   UNL     1     -12.418  13.192  -1.644  1.00  0.00     0.198 A 
ATOM     62  C   UNL     1     -10.960  14.927  -0.855  1.00  0.00     0.198 A 
ATOM     63  F   UNL     1      -9.989  14.772   1.282  1.00  0.00    -0.203 F 
ATOM     64  F   UNL     1     -13.180  12.668  -2.613  1.00  0.00    -0.200 F 
ATOM     65  C   UNL     1     -11.770  14.401  -1.849  1.00  0.00     0.200 A 
ATOM     66  F   UNL     1     -10.345  16.102  -1.046  1.00  0.00    -0.200 F 
ATOM     67  F   UNL     1     -11.923  15.056  -3.008  1.00  0.00    -0.200 F 
ENDBRANCH  43  57
BRANCH  44  68
ATOM     68  C   UNL     1     -10.309   8.116   9.208  1.00  0.00     0.064 A 
ATOM     69  C   UNL     1     -11.399   7.622   9.938  1.00  0.00     0.173 A 
ATOM     70  C   UNL     1      -9.029   7.950   9.758  1.00  0.00     0.173 A 
ATOM     71  F   UNL     1     -12.645   7.771   9.464  1.00  0.00    -0.203 F 
ATOM     72  C   UNL     1     -11.221   7.023  11.184  1.00  0.00     0.198 A 
ATOM     73  C   UNL     1      -8.849   7.319  10.987  1.00  0.00     0.198 A 
ATOM     74  F   UNL     1      -7.950   8.397   9.098  1.00  0.00    -0.203 F 
ATOM     75  F   UNL     1     -12.287   6.620  11.889  1.00  0.00    -0.200 F 
ATOM     76  C   UNL     1      -9.946   6.868  11.705  1.00  0.00     0.200 A 
ATOM     77  F   UNL     1      -7.613   7.154  11.478  1.00  0.00    -0.200 F 
ATOM     78  F   UNL     1      -9.775   6.294  12.903  1.00  0.00    -0.200 F 
ENDBRANCH  44  68
BRANCH  56  79
ATOM     79  C   UNL     1     -13.383  14.108   7.454  1.00  0.00     0.064 A 
ATOM     80  C   UNL     1     -12.738  14.902   8.415  1.00  0.00     0.173 A 
ATOM     81  C   UNL     1     -14.761  14.298   7.267  1.00  0.00     0.173 A 
ATOM     82  F   UNL     1     -11.424  14.751   8.642  1.00  0.00    -0.203 F 
ATOM     83  C   UNL     1     -13.452  15.810   9.192  1.00  0.00     0.198 A 
ATOM     84  C   UNL     1     -15.465  15.234   8.020  1.00  0.00     0.198 A 
ATOM     85  F   UNL     1     -15.427  13.574   6.355  1.00  0.00    -0.203 F 
ATOM     86  F   UNL     1     -12.826  16.502  10.154  1.00  0.00    -0.200 F 
ATOM     87  C   UNL     1     -14.813  15.979   8.991  1.00  0.00     0.200 A 
ATOM     88  F   UNL     1     -16.778  15.408   7.812  1.00  0.00    -0.200 F 
ATOM     89  F   UNL     1     -15.500  16.850   9.742  1.00  0.00    -0.200 F 
ENDBRANCH  56  79
ENDBRANCH  30  31
ENDBRANCH  22  25
ENDBRANCH  20  21
ENDBRANCH  19  20
ENDBRANCH   1  19
TORSDOF 14
