REMARK SMILES C[C@@H]1[NH2+]CC[C@@H]1C(=O)N1CCC[N@H+](CC(=O)NCCCCNC(=O)c2ccc(-c3c4nc(c(-c5c(F)c(F)c(F)c(F)c5F)c5ccc([nH]5)c(-c5c(F)c(F)c(F)c(F)c5F)c5nc(c(-c6c(F)c(F)c(F)c(F)c6F)c6ccc3[nH]6)C=C5)C=C4)cc2)CC1
REMARK SMILES IDX 15 1 16 2 17 3 14 5 13 6 12 8 11 9 10 10 9 11 7 12 8 13 6 14
REMARK SMILES IDX 1 15 2 16 3 17 4 18 5 21 89 22 88 24 18 26 19 27 20 28 21 29
REMARK SMILES IDX 22 30 23 31 24 33 25 34 26 35 87 36 27 37 86 38 28 39 29 40
REMARK SMILES IDX 30 41 80 42 31 43 85 44 79 45 81 46 32 47 84 48 78 49 77 50
REMARK SMILES IDX 33 52 65 53 45 54 64 55 46 56 49 57 63 58 82 59 47 60 48 61
REMARK SMILES IDX 62 63 83 64 50 65 34 66 35 67 43 68 36 69 37 70 41 71 44 72
REMARK SMILES IDX 38 73 39 74 42 75 40 76 66 77 67 78 75 79 68 80 69 81 73 82
REMARK SMILES IDX 76 83 70 84 71 85 74 86 72 87 51 88 52 89 60 90 53 91 54 92
REMARK SMILES IDX 58 93 61 94 55 95 56 96 59 97 57 98
REMARK H PARENT 17 4 13 7 3 19 3 20 22 32 81 51 49 62
REMARK Flexibility Score: 80.00
ROOT
ATOM      1  C   UNL     1       4.595   1.794  -1.697  1.00  0.00     0.275 C 
ATOM      2  O   UNL     1       4.755   0.673  -1.202  1.00  0.00    -0.269 OA
ATOM      3  N   UNL     1       4.124   2.776  -0.871  1.00  0.00    -0.351 N 
ATOM      4  H   UNL     1       3.753   2.449  -0.019  1.00  0.00     0.163 HD
ENDROOT
BRANCH   1   5
ATOM      5  C   UNL     1       4.917   2.065  -3.166  1.00  0.00     0.363 C 
BRANCH   5   6
ATOM      6  N   UNL     1       3.867   1.705  -4.122  1.00  0.00    -0.326 N 
ATOM      7  H   UNL     1       4.397   2.130  -4.883  1.00  0.00     0.348 HD
BRANCH   6   8
ATOM      8  C   UNL     1       3.760   0.334  -4.572  1.00  0.00     0.264 C 
BRANCH   8   9
ATOM      9  C   UNL     1       2.566  -0.511  -4.111  1.00  0.00     0.083 C 
BRANCH   9  10
ATOM     10  C   UNL     1       1.940  -0.154  -2.774  1.00  0.00     0.125 C 
BRANCH  10  11
ATOM     11  N   UNL     1       1.072   1.004  -2.784  1.00  0.00    -0.336 N 
BRANCH  11  12
ATOM     12  C   UNL     1      -0.144   1.038  -2.128  1.00  0.00     0.232 C 
ATOM     13  O   UNL     1      -1.073   1.653  -2.677  1.00  0.00    -0.274 OA
BRANCH  12  14
ATOM     14  C   UNL     1      -0.278   0.730  -0.611  1.00  0.00     0.142 C 
ATOM     15  C   UNL     1       1.861  -0.640   0.280  1.00  0.00     0.076 C 
ATOM     16  C   UNL     1       0.378  -0.337   0.274  1.00  0.00     0.192 C 
ATOM     17  N   UNL     1      -0.424  -1.565   0.147  1.00  0.00    -0.343 N 
ATOM     18  C   UNL     1      -1.708  -1.169  -0.439  1.00  0.00     0.261 C 
ATOM     19  H   UNL     1      -0.571  -1.986   1.064  1.00  0.00     0.346 HD
ATOM     20  H   UNL     1       0.049  -2.254  -0.438  1.00  0.00     0.346 HD
ATOM     21  C   UNL     1      -1.749   0.346  -0.357  1.00  0.00     0.081 C 
ENDBRANCH  12  14
ENDBRANCH  11  12
BRANCH  11  22
ATOM     22  C   UNL     1       1.588   2.312  -3.150  1.00  0.00     0.180 CG0
ATOM     23  G   UNL     1       2.663   2.499  -4.222  1.00  0.00     0.000 G0
ENDBRANCH  11  22
ENDBRANCH  10  11
ENDBRANCH   9  10
ENDBRANCH   8   9
ENDBRANCH   6   8
BRANCH   6  24
ATOM     24  C   UNL     1       2.663   2.499  -4.222  1.00  0.00     0.284 CG0
ATOM     25  G   UNL     1       1.588   2.312  -3.150  1.00  0.00     0.000 G0
ENDBRANCH   6  24
ENDBRANCH   5   6
ENDBRANCH   1   5
BRANCH   3  26
ATOM     26  C   UNL     1       4.077   4.221  -1.031  1.00  0.00     0.116 C 
BRANCH  26  27
ATOM     27  C   UNL     1       2.675   4.833  -1.142  1.00  0.00     0.023 C 
BRANCH  27  28
ATOM     28  C   UNL     1       1.623   4.283  -0.170  1.00  0.00     0.023 C 
BRANCH  28  29
ATOM     29  C   UNL     1       1.669   4.906   1.215  1.00  0.00     0.116 C 
BRANCH  29  30
ATOM     30  N   UNL     1       1.327   6.320   1.176  1.00  0.00    -0.352 N 
ATOM     31  C   UNL     1       0.268   6.995   1.729  1.00  0.00     0.251 C 
ATOM     32  H   UNL     1       1.957   6.883   0.671  1.00  0.00     0.163 HD
ATOM     33  O   UNL     1       0.016   8.137   1.360  1.00  0.00    -0.269 OA
BRANCH  31  34
ATOM     34  C   UNL     1      -0.566   6.359   2.771  1.00  0.00     0.039 A 
ATOM     35  C   UNL     1      -1.938   6.627   2.808  1.00  0.00     0.014 A 
ATOM     36  C   UNL     1       0.012   5.541   3.744  1.00  0.00     0.014 A 
ATOM     37  C   UNL     1      -2.735   6.035   3.790  1.00  0.00     0.010 A 
ATOM     38  C   UNL     1      -0.794   4.874   4.655  1.00  0.00     0.010 A 
ATOM     39  C   UNL     1      -2.172   5.130   4.702  1.00  0.00    -0.014 A 
BRANCH  39  40
ATOM     40  C   UNL     1      -2.981   4.461   5.750  1.00  0.00     0.031 A 
ATOM     41  C   UNL     1      -2.643   4.686   7.199  1.00  0.00     0.074 A 
ATOM     42  C   UNL     1      -3.938   3.583   5.397  1.00  0.00     0.049 A 
ATOM     43  N   UNL     1      -3.101   4.078   8.263  1.00  0.00    -0.248 NA
ATOM     44  C   UNL     1      -1.615   5.700   7.486  1.00  0.00     0.031 C 
ATOM     45  C   UNL     1      -4.319   3.252   4.024  1.00  0.00     0.029 A 
ATOM     46  N   UNL     1      -4.753   2.792   6.167  1.00  0.00    -0.354 N 
ATOM     47  C   UNL     1      -2.394   4.611   9.334  1.00  0.00     0.074 A 
ATOM     48  C   UNL     1      -1.435   5.545   8.789  1.00  0.00     0.031 C 
ATOM     49  C   UNL     1      -5.305   2.342   4.047  1.00  0.00     0.029 A 
ATOM     50  C   UNL     1      -5.593   1.990   5.434  1.00  0.00     0.049 A 
ATOM     51  H   UNL     1      -4.737   2.799   7.152  1.00  0.00     0.167 HD
ATOM     52  C   UNL     1      -2.551   4.361  10.655  1.00  0.00     0.037 A 
ATOM     53  C   UNL     1      -6.482   1.064   5.839  1.00  0.00     0.037 A 
ATOM     54  C   UNL     1      -3.546   3.468  11.185  1.00  0.00     0.049 A 
ATOM     55  C   UNL     1      -6.643   0.809   7.314  1.00  0.00     0.074 A 
ATOM     56  C   UNL     1      -3.854   3.206  12.508  1.00  0.00     0.029 A 
ATOM     57  N   UNL     1      -4.399   2.694  10.412  1.00  0.00    -0.354 N 
ATOM     58  N   UNL     1      -6.016   1.367   8.322  1.00  0.00    -0.248 NA
ATOM     59  C   UNL     1      -7.629  -0.206   7.708  1.00  0.00     0.031 C 
ATOM     60  C   UNL     1      -4.862   2.238  12.534  1.00  0.00     0.029 A 
ATOM     61  C   UNL     1      -5.215   1.931  11.229  1.00  0.00     0.049 A 
ATOM     62  H   UNL     1      -4.420   2.688   9.427  1.00  0.00     0.167 HD
ATOM     63  C   UNL     1      -6.543   0.786   9.468  1.00  0.00     0.074 A 
ATOM     64  C   UNL     1      -7.556  -0.153   9.030  1.00  0.00     0.031 C 
ATOM     65  C   UNL     1      -6.217   1.005  10.765  1.00  0.00     0.037 A 
BRANCH  52  66
ATOM     66  C   UNL     1      -1.637   5.069  11.614  1.00  0.00     0.064 A 
ATOM     67  C   UNL     1      -1.713   6.455  11.821  1.00  0.00     0.173 A 
ATOM     68  C   UNL     1      -0.688   4.349  12.357  1.00  0.00     0.173 A 
ATOM     69  F   UNL     1      -2.593   7.194  11.128  1.00  0.00    -0.203 F 
ATOM     70  C   UNL     1      -0.851   7.098  12.706  1.00  0.00     0.198 A 
ATOM     71  C   UNL     1       0.149   4.990  13.267  1.00  0.00     0.198 A 
ATOM     72  F   UNL     1      -0.574   3.021  12.203  1.00  0.00    -0.203 F 
ATOM     73  F   UNL     1      -0.905   8.430  12.842  1.00  0.00    -0.200 F 
ATOM     74  C   UNL     1       0.073   6.364  13.434  1.00  0.00     0.200 A 
ATOM     75  F   UNL     1       1.034   4.278  13.978  1.00  0.00    -0.200 F 
ATOM     76  F   UNL     1       0.898   6.984  14.289  1.00  0.00    -0.200 F 
ENDBRANCH  52  66
BRANCH  53  77
ATOM     77  C   UNL     1      -7.296   0.326   4.838  1.00  0.00     0.064 A 
ATOM     78  C   UNL     1      -8.676   0.547   4.732  1.00  0.00     0.173 A 
ATOM     79  C   UNL     1      -6.716  -0.606   3.964  1.00  0.00     0.173 A 
ATOM     80  F   UNL     1      -9.280   1.414   5.558  1.00  0.00    -0.203 F 
ATOM     81  C   UNL     1      -9.448  -0.149   3.804  1.00  0.00     0.198 A 
ATOM     82  C   UNL     1      -7.485  -1.280   3.016  1.00  0.00     0.198 A 
ATOM     83  F   UNL     1      -5.399  -0.850   4.018  1.00  0.00    -0.203 F 
ATOM     84  F   UNL     1     -10.773   0.051   3.754  1.00  0.00    -0.200 F 
ATOM     85  C   UNL     1      -8.851  -1.056   2.942  1.00  0.00     0.200 A 
ATOM     86  F   UNL     1      -6.901  -2.144   2.176  1.00  0.00    -0.200 F 
ATOM     87  F   UNL     1      -9.594  -1.721   2.046  1.00  0.00    -0.200 F 
ENDBRANCH  53  77
BRANCH  65  88
ATOM     88  C   UNL     1      -6.968   0.226  11.803  1.00  0.00     0.064 A 
ATOM     89  C   UNL     1      -6.727  -1.140  12.005  1.00  0.00     0.173 A 
ATOM     90  C   UNL     1      -7.887   0.867  12.647  1.00  0.00     0.173 A 
ATOM     91  F   UNL     1      -5.868  -1.799  11.213  1.00  0.00    -0.203 F 
ATOM     92  C   UNL     1      -7.392  -1.841  13.007  1.00  0.00     0.198 A 
ATOM     93  C   UNL     1      -8.528   0.170  13.666  1.00  0.00     0.198 A 
ATOM     94  F   UNL     1      -8.145   2.175  12.497  1.00  0.00    -0.203 F 
ATOM     95  F   UNL     1      -7.175  -3.155  13.160  1.00  0.00    -0.200 F 
ATOM     96  C   UNL     1      -8.284  -1.184  13.842  1.00  0.00     0.200 A 
ATOM     97  F   UNL     1      -9.377   0.809  14.482  1.00  0.00    -0.200 F 
ATOM     98  F   UNL     1      -8.911  -1.857  14.817  1.00  0.00    -0.200 F 
ENDBRANCH  65  88
ENDBRANCH  39  40
ENDBRANCH  31  34
ENDBRANCH  29  30
ENDBRANCH  28  29
ENDBRANCH  27  28
ENDBRANCH  26  27
ENDBRANCH   3  26
TORSDOF 14
