REMARK SMILES CC(=O)Nc1cccc(-c2cc(F)ccc2C(=O)NCCCCNC(=O)c2ccc(-c3c4nc(c(-c5c(F)c(F)c(F)c(F)c5F)c5ccc([nH]5)c(-c5c(F)c(F)c(F)c(F)c5F)c5nc(c(-c6c(F)c(F)c(F)c(F)c6F)c6ccc3[nH]6)C=C5)C=C4)cc2)c1
REMARK SMILES IDX 21 1 20 2 19 3 17 4 18 5 16 7 10 8 11 9 12 10 15 11 13 12
REMARK SMILES IDX 14 13 9 14 5 15 6 16 90 17 7 18 8 19 4 20 1 21 2 22 3 23
REMARK SMILES IDX 22 25 23 26 24 27 25 28 26 30 27 31 28 32 89 33 29 34 88 35
REMARK SMILES IDX 30 36 31 37 32 38 82 39 33 40 87 41 81 42 83 43 34 44 86 45
REMARK SMILES IDX 80 46 79 47 35 49 67 50 47 51 66 52 48 53 51 54 65 55 84 56
REMARK SMILES IDX 49 57 50 58 64 60 85 61 52 62 36 63 37 64 45 65 38 66 39 67
REMARK SMILES IDX 43 68 46 69 40 70 41 71 44 72 42 73 68 74 69 75 77 76 70 77
REMARK SMILES IDX 71 78 75 79 78 80 72 81 73 82 76 83 74 84 53 85 54 86 62 87
REMARK SMILES IDX 55 88 56 89 60 90 63 91 57 92 58 93 61 94 59 95
REMARK H PARENT 19 6 4 24 24 29 83 48 51 59
REMARK Flexibility Score: inf
ROOT
ATOM      1  C   UNL     1       3.421  -4.067   3.880  1.00  0.00     0.023 C 
ENDROOT
BRANCH   1   2
ATOM      2  C   UNL     1       3.671  -3.299   2.592  1.00  0.00     0.116 C 
BRANCH   2   3
ATOM      3  N   UNL     1       4.561  -2.172   2.658  1.00  0.00    -0.352 N 
ATOM      4  C   UNL     1       5.329  -1.581   1.681  1.00  0.00     0.251 C 
ATOM      5  O   UNL     1       5.876  -0.518   1.995  1.00  0.00    -0.269 OA
ATOM      6  H   UNL     1       4.633  -1.755   3.547  1.00  0.00     0.163 HD
BRANCH   4   7
ATOM      7  C   UNL     1       5.638  -2.141   0.315  1.00  0.00     0.047 A 
ATOM      8  C   UNL     1       4.778  -2.761  -0.629  1.00  0.00    -0.003 A 
ATOM      9  C   UNL     1       5.321  -3.122  -1.892  1.00  0.00     0.048 A 
ATOM     10  C   UNL     1       6.649  -2.885  -2.218  1.00  0.00     0.123 A 
ATOM     11  C   UNL     1       6.990  -1.909  -0.063  1.00  0.00     0.017 A 
ATOM     12  F   UNL     1       7.108  -3.244  -3.424  1.00  0.00    -0.207 F 
ATOM     13  C   UNL     1       7.493  -2.279  -1.312  1.00  0.00     0.040 A 
BRANCH   8  14
ATOM     14  C   UNL     1       3.356  -3.094  -0.438  1.00  0.00    -0.015 A 
ATOM     15  C   UNL     1       1.072  -2.490   0.162  1.00  0.00     0.041 A 
ATOM     16  C   UNL     1       0.717  -3.846   0.134  1.00  0.00     0.026 A 
ATOM     17  C   UNL     1       2.385  -2.117  -0.156  1.00  0.00     0.034 A 
ATOM     18  C   UNL     1       1.647  -4.821  -0.210  1.00  0.00     0.003 A 
ATOM     19  C   UNL     1       2.955  -4.446  -0.496  1.00  0.00     0.009 A 
BRANCH  15  20
ATOM     20  N   UNL     1       0.108  -1.613   0.686  1.00  0.00    -0.326 N 
ATOM     21  C   UNL     1       0.800   0.577  -0.268  1.00  0.00     0.114 C 
ATOM     22  C   UNL     1       0.033  -0.252   0.723  1.00  0.00     0.221 C 
ATOM     23  O   UNL     1      -0.712   0.280   1.550  1.00  0.00    -0.275 OA
ATOM     24  H   UNL     1      -0.658  -2.066   1.106  1.00  0.00     0.169 HD
ENDBRANCH  15  20
ENDBRANCH   8  14
ENDBRANCH   4   7
ENDBRANCH   2   3
ENDBRANCH   1   2
BRANCH   1  25
ATOM     25  C   UNL     1       2.586  -3.387   4.966  1.00  0.00     0.023 C 
BRANCH  25  26
ATOM     26  C   UNL     1       1.302  -2.660   4.566  1.00  0.00     0.116 C 
BRANCH  26  27
ATOM     27  N   UNL     1       0.387  -3.406   3.717  1.00  0.00    -0.352 N 
ATOM     28  C   UNL     1      -0.992  -3.392   3.693  1.00  0.00     0.251 C 
ATOM     29  H   UNL     1       0.813  -4.008   3.064  1.00  0.00     0.163 HD
ATOM     30  O   UNL     1      -1.592  -3.979   2.795  1.00  0.00    -0.269 OA
BRANCH  28  31
ATOM     31  C   UNL     1      -1.752  -2.730   4.778  1.00  0.00     0.039 A 
ATOM     32  C   UNL     1      -2.738  -3.464   5.446  1.00  0.00     0.014 A 
ATOM     33  C   UNL     1      -1.456  -1.429   5.186  1.00  0.00     0.014 A 
ATOM     34  C   UNL     1      -3.332  -2.940   6.598  1.00  0.00     0.010 A 
ATOM     35  C   UNL     1      -1.986  -0.943   6.380  1.00  0.00     0.010 A 
ATOM     36  C   UNL     1      -2.909  -1.704   7.115  1.00  0.00    -0.014 A 
BRANCH  36  37
ATOM     37  C   UNL     1      -3.383  -1.227   8.443  1.00  0.00     0.031 A 
ATOM     38  C   UNL     1      -4.178   0.043   8.565  1.00  0.00     0.074 A 
ATOM     39  C   UNL     1      -3.039  -1.912   9.554  1.00  0.00     0.049 A 
ATOM     40  N   UNL     1      -4.643   0.629   9.640  1.00  0.00    -0.248 NA
ATOM     41  C   UNL     1      -4.466   0.765   7.316  1.00  0.00     0.031 C 
ATOM     42  C   UNL     1      -2.215  -3.123   9.581  1.00  0.00     0.029 A 
ATOM     43  N   UNL     1      -3.337  -1.689  10.876  1.00  0.00    -0.354 N 
ATOM     44  C   UNL     1      -5.275   1.784   9.198  1.00  0.00     0.074 A 
ATOM     45  C   UNL     1      -5.079   1.851   7.766  1.00  0.00     0.031 C 
ATOM     46  C   UNL     1      -2.104  -3.555  10.847  1.00  0.00     0.029 A 
ATOM     47  C   UNL     1      -2.820  -2.638  11.727  1.00  0.00     0.049 A 
ATOM     48  H   UNL     1      -3.870  -0.922  11.186  1.00  0.00     0.167 HD
ATOM     49  C   UNL     1      -5.981   2.692   9.915  1.00  0.00     0.037 A 
ATOM     50  C   UNL     1      -2.919  -2.757  13.065  1.00  0.00     0.037 A 
ATOM     51  C   UNL     1      -6.186   2.622  11.339  1.00  0.00     0.049 A 
ATOM     52  C   UNL     1      -3.715  -1.738  13.835  1.00  0.00     0.074 A 
ATOM     53  C   UNL     1      -6.901   3.482  12.154  1.00  0.00     0.029 A 
ATOM     54  N   UNL     1      -5.675   1.627  12.160  1.00  0.00    -0.354 N 
ATOM     55  N   UNL     1      -4.361  -0.686  13.394  1.00  0.00    -0.248 NA
ATOM     56  C   UNL     1      -3.806  -1.932  15.289  1.00  0.00     0.031 C 
ATOM     57  C   UNL     1      -6.802   3.022  13.472  1.00  0.00     0.029 A 
ATOM     58  C   UNL     1      -6.058   1.854  13.472  1.00  0.00     0.049 A 
ATOM     59  H   UNL     1      -5.122   0.872  11.855  1.00  0.00     0.167 HD
ATOM     60  C   UNL     1      -4.960  -0.114  14.507  1.00  0.00     0.074 A 
ATOM     61  C   UNL     1      -4.617  -0.945  15.642  1.00  0.00     0.031 C 
ATOM     62  C   UNL     1      -5.723   1.004  14.585  1.00  0.00     0.037 A 
BRANCH  49  63
ATOM     63  C   UNL     1      -6.604   3.830   9.161  1.00  0.00     0.064 A 
ATOM     64  C   UNL     1      -7.695   3.621   8.301  1.00  0.00     0.173 A 
ATOM     65  C   UNL     1      -6.135   5.142   9.317  1.00  0.00     0.173 A 
ATOM     66  F   UNL     1      -8.175   2.383   8.109  1.00  0.00    -0.203 F 
ATOM     67  C   UNL     1      -8.272   4.678   7.604  1.00  0.00     0.198 A 
ATOM     68  C   UNL     1      -6.734   6.202   8.640  1.00  0.00     0.198 A 
ATOM     69  F   UNL     1      -5.101   5.399  10.132  1.00  0.00    -0.203 F 
ATOM     70  F   UNL     1      -9.282   4.446   6.754  1.00  0.00    -0.200 F 
ATOM     71  C   UNL     1      -7.796   5.969   7.779  1.00  0.00     0.200 A 
ATOM     72  F   UNL     1      -6.282   7.451   8.819  1.00  0.00    -0.200 F 
ATOM     73  F   UNL     1      -8.358   6.987   7.113  1.00  0.00    -0.200 F 
ENDBRANCH  49  63
BRANCH  50  74
ATOM     74  C   UNL     1      -2.289  -3.908  13.767  1.00  0.00     0.064 A 
ATOM     75  C   UNL     1      -3.079  -4.907  14.355  1.00  0.00     0.173 A 
ATOM     76  C   UNL     1      -0.898  -4.020  13.893  1.00  0.00     0.173 A 
ATOM     77  F   UNL     1      -4.416  -4.833  14.280  1.00  0.00    -0.203 F 
ATOM     78  C   UNL     1      -2.503  -5.956  15.069  1.00  0.00     0.198 A 
ATOM     79  C   UNL     1      -0.321  -5.085  14.583  1.00  0.00     0.198 A 
ATOM     80  F   UNL     1      -0.097  -3.095  13.345  1.00  0.00    -0.203 F 
ATOM     81  F   UNL     1      -3.284  -6.864  15.669  1.00  0.00    -0.200 F 
ATOM     82  C   UNL     1      -1.124  -6.046  15.180  1.00  0.00     0.200 A 
ATOM     83  F   UNL     1       1.013  -5.176  14.678  1.00  0.00    -0.200 F 
ATOM     84  F   UNL     1      -0.570  -7.051  15.870  1.00  0.00    -0.200 F 
ENDBRANCH  50  74
BRANCH  62  85
ATOM     85  C   UNL     1      -6.274   1.361  15.934  1.00  0.00     0.064 A 
ATOM     86  C   UNL     1      -5.454   1.860  16.956  1.00  0.00     0.173 A 
ATOM     87  C   UNL     1      -7.644   1.216  16.200  1.00  0.00     0.173 A 
ATOM     88  F   UNL     1      -4.135   2.001  16.756  1.00  0.00    -0.203 F 
ATOM     89  C   UNL     1      -5.980   2.170  18.208  1.00  0.00     0.198 A 
ATOM     90  C   UNL     1      -8.171   1.554  17.443  1.00  0.00     0.198 A 
ATOM     91  F   UNL     1      -8.471   0.747  15.254  1.00  0.00    -0.203 F 
ATOM     92  F   UNL     1      -5.169   2.592  19.187  1.00  0.00    -0.200 F 
ATOM     93  C   UNL     1      -7.338   2.021  18.448  1.00  0.00     0.200 A 
ATOM     94  F   UNL     1      -9.485   1.419  17.671  1.00  0.00    -0.200 F 
ATOM     95  F   UNL     1      -7.843   2.319  19.654  1.00  0.00    -0.200 F 
ENDBRANCH  62  85
ENDBRANCH  36  37
ENDBRANCH  28  31
ENDBRANCH  26  27
ENDBRANCH  25  26
ENDBRANCH   1  25
TORSDOF 13
