REMARK SMILES O=C(NCCCCNC(=O)c1c(C(=O)N2CCc3ccccc32)cccc1[N+](=O)[O-])c1ccc(-c2c3nc(c(-c4c(F)c(F)c(F)c(F)c4F)c4ccc([nH]4)c(-c4c(F)c(F)c(F)c(F)c4F)c4nc(c(-c5c(F)c(F)c(F)c(F)c5F)c5ccc2[nH]5)C=C4)C=C3)cc1
REMARK SMILES IDX 5 1 4 2 3 3 1 4 2 5 31 7 32 8 93 9 33 10 92 11 34 12 35 13
REMARK SMILES IDX 36 14 86 15 37 16 91 17 85 18 87 19 38 20 90 21 84 22 83 23
REMARK SMILES IDX 39 25 71 26 51 27 70 28 52 29 55 30 69 31 88 32 53 33 54 34
REMARK SMILES IDX 68 36 89 37 56 38 40 39 41 40 49 41 42 42 43 43 47 44 50 45
REMARK SMILES IDX 44 46 45 47 48 48 46 49 72 50 73 51 81 52 74 53 75 54 79 55
REMARK SMILES IDX 82 56 76 57 77 58 80 59 78 60 57 61 58 62 66 63 59 64 60 65
REMARK SMILES IDX 64 66 67 67 61 68 62 69 65 70 63 71 6 72 7 73 8 74 9 75
REMARK SMILES IDX 10 77 11 78 12 79 27 80 24 81 26 82 25 83 13 84 14 85 15 86
REMARK SMILES IDX 16 87 23 88 17 89 18 90 22 91 19 92 21 93 20 94 28 95 29 96
REMARK SMILES IDX 30 97
REMARK H PARENT 3 6 87 24 55 35 8 76
REMARK Flexibility Score: inf
ROOT
ATOM      1  C   UNL     1       5.002  -2.308   1.162  1.00  0.00     0.023 C 
ENDROOT
BRANCH   1   2
ATOM      2  C   UNL     1       4.626  -1.359   0.026  1.00  0.00     0.116 C 
BRANCH   2   3
ATOM      3  N   UNL     1       3.191  -1.157  -0.107  1.00  0.00    -0.352 N 
ATOM      4  O   UNL     1       1.207  -0.095   0.029  1.00  0.00    -0.269 OA
ATOM      5  C   UNL     1       2.432  -0.021   0.065  1.00  0.00     0.251 C 
ATOM      6  H   UNL     1       2.682  -1.960  -0.361  1.00  0.00     0.163 HD
BRANCH   5   7
ATOM      7  C   UNL     1       3.075   1.286   0.333  1.00  0.00     0.039 A 
ATOM      8  C   UNL     1       4.196   1.704  -0.386  1.00  0.00     0.014 A 
ATOM      9  C   UNL     1       2.532   2.121   1.316  1.00  0.00     0.014 A 
ATOM     10  C   UNL     1       4.874   2.860  -0.006  1.00  0.00     0.010 A 
ATOM     11  C   UNL     1       3.163   3.329   1.636  1.00  0.00     0.010 A 
ATOM     12  C   UNL     1       4.367   3.686   1.011  1.00  0.00    -0.014 A 
BRANCH  12  13
ATOM     13  C   UNL     1       5.098   4.926   1.380  1.00  0.00     0.031 A 
ATOM     14  C   UNL     1       5.712   5.091   2.743  1.00  0.00     0.074 A 
ATOM     15  C   UNL     1       5.240   5.900   0.460  1.00  0.00     0.049 A 
ATOM     16  N   UNL     1       6.414   6.090   3.220  1.00  0.00    -0.248 NA
ATOM     17  C   UNL     1       5.505   3.997   3.703  1.00  0.00     0.031 C 
ATOM     18  C   UNL     1       4.684   5.864  -0.893  1.00  0.00     0.029 A 
ATOM     19  N   UNL     1       5.909   7.097   0.514  1.00  0.00    -0.354 N 
ATOM     20  C   UNL     1       6.714   5.755   4.534  1.00  0.00     0.074 A 
ATOM     21  C   UNL     1       6.094   4.473   4.791  1.00  0.00     0.031 C 
ATOM     22  C   UNL     1       5.076   6.960  -1.558  1.00  0.00     0.029 A 
ATOM     23  C   UNL     1       5.862   7.802  -0.663  1.00  0.00     0.049 A 
ATOM     24  H   UNL     1       6.377   7.418   1.318  1.00  0.00     0.167 HD
ATOM     25  C   UNL     1       7.447   6.449   5.439  1.00  0.00     0.037 A 
ATOM     26  C   UNL     1       6.386   8.999  -0.986  1.00  0.00     0.037 A 
ATOM     27  C   UNL     1       8.080   7.717   5.175  1.00  0.00     0.049 A 
ATOM     28  C   UNL     1       7.176   9.757   0.042  1.00  0.00     0.074 A 
ATOM     29  C   UNL     1       8.880   8.475   6.012  1.00  0.00     0.029 A 
ATOM     30  N   UNL     1       7.978   8.418   3.981  1.00  0.00    -0.354 N 
ATOM     31  N   UNL     1       7.483   9.412   1.268  1.00  0.00    -0.248 NA
ATOM     32  C   UNL     1       7.687  11.074  -0.359  1.00  0.00     0.031 C 
ATOM     33  C   UNL     1       9.223   9.656   5.343  1.00  0.00     0.029 A 
ATOM     34  C   UNL     1       8.679   9.611   4.070  1.00  0.00     0.049 A 
ATOM     35  H   UNL     1       7.481   8.113   3.188  1.00  0.00     0.167 HD
ATOM     36  C   UNL     1       8.240  10.456   1.779  1.00  0.00     0.074 A 
ATOM     37  C   UNL     1       8.357  11.442   0.724  1.00  0.00     0.031 C 
ATOM     38  C   UNL     1       8.787  10.585   3.013  1.00  0.00     0.037 A 
BRANCH  25  39
ATOM     39  C   UNL     1       7.587   5.863   6.815  1.00  0.00     0.064 A 
ATOM     40  C   UNL     1       8.369   4.723   7.059  1.00  0.00     0.173 A 
ATOM     41  C   UNL     1       6.953   6.468   7.912  1.00  0.00     0.173 A 
ATOM     42  F   UNL     1       8.988   4.100   6.045  1.00  0.00    -0.203 F 
ATOM     43  C   UNL     1       8.485   4.193   8.342  1.00  0.00     0.198 A 
ATOM     44  C   UNL     1       7.094   5.952   9.198  1.00  0.00     0.198 A 
ATOM     45  F   UNL     1       6.200   7.564   7.738  1.00  0.00    -0.203 F 
ATOM     46  F   UNL     1       9.195   3.074   8.541  1.00  0.00    -0.200 F 
ATOM     47  C   UNL     1       7.852   4.810   9.411  1.00  0.00     0.200 A 
ATOM     48  F   UNL     1       6.492   6.556  10.231  1.00  0.00    -0.200 F 
ATOM     49  F   UNL     1       7.965   4.300  10.644  1.00  0.00    -0.200 F 
ENDBRANCH  25  39
BRANCH  26  50
ATOM     50  C   UNL     1       6.189   9.537  -2.355  1.00  0.00     0.064 A 
ATOM     51  C   UNL     1       7.256   9.610  -3.260  1.00  0.00     0.173 A 
ATOM     52  C   UNL     1       4.925   9.956  -2.797  1.00  0.00     0.173 A 
ATOM     53  F   UNL     1       8.486   9.239  -2.875  1.00  0.00    -0.203 F 
ATOM     54  C   UNL     1       7.068  10.086  -4.555  1.00  0.00     0.198 A 
ATOM     55  C   UNL     1       4.733  10.407  -4.101  1.00  0.00     0.198 A 
ATOM     56  F   UNL     1       3.872   9.902  -1.969  1.00  0.00    -0.203 F 
ATOM     57  F   UNL     1       8.111  10.174  -5.392  1.00  0.00    -0.200 F 
ATOM     58  C   UNL     1       5.806  10.476  -4.977  1.00  0.00     0.200 A 
ATOM     59  F   UNL     1       3.509  10.767  -4.509  1.00  0.00    -0.200 F 
ATOM     60  F   UNL     1       5.623  10.921  -6.228  1.00  0.00    -0.200 F 
ENDBRANCH  26  50
BRANCH  38  61
ATOM     61  C   UNL     1       9.588  11.826   3.278  1.00  0.00     0.064 A 
ATOM     62  C   UNL     1       8.974  13.077   3.440  1.00  0.00     0.173 A 
ATOM     63  C   UNL     1      10.984  11.758   3.395  1.00  0.00     0.173 A 
ATOM     64  F   UNL     1       7.643  13.196   3.321  1.00  0.00    -0.203 F 
ATOM     65  C   UNL     1       9.732  14.219   3.684  1.00  0.00     0.198 A 
ATOM     66  C   UNL     1      11.736  12.898   3.666  1.00  0.00     0.198 A 
ATOM     67  F   UNL     1      11.618  10.585   3.252  1.00  0.00    -0.203 F 
ATOM     68  F   UNL     1       9.129  15.411   3.788  1.00  0.00    -0.200 F 
ATOM     69  C   UNL     1      11.111  14.128   3.803  1.00  0.00     0.200 A 
ATOM     70  F   UNL     1      13.067  12.806   3.791  1.00  0.00    -0.200 F 
ATOM     71  F   UNL     1      11.838  15.228   4.040  1.00  0.00    -0.200 F 
ENDBRANCH  38  61
ENDBRANCH  12  13
ENDBRANCH   5   7
ENDBRANCH   2   3
ENDBRANCH   1   2
BRANCH   1  72
ATOM     72  C   UNL     1       4.610  -3.773   0.972  1.00  0.00     0.023 C 
BRANCH  72  73
ATOM     73  C   UNL     1       5.066  -4.426  -0.331  1.00  0.00     0.116 C 
BRANCH  73  74
ATOM     74  N   UNL     1       6.507  -4.402  -0.552  1.00  0.00    -0.352 N 
ATOM     75  C   UNL     1       7.333  -5.318  -1.171  1.00  0.00     0.259 C 
ATOM     76  H   UNL     1       6.965  -3.603  -0.204  1.00  0.00     0.163 HD
ATOM     77  O   UNL     1       8.532  -5.080  -1.268  1.00  0.00    -0.269 OA
BRANCH  75  78
ATOM     78  C   UNL     1       6.789  -6.604  -1.646  1.00  0.00     0.130 A 
ATOM     79  C   UNL     1       7.282  -7.820  -1.149  1.00  0.00     0.060 A 
ATOM     80  C   UNL     1       5.723  -6.649  -2.555  1.00  0.00     0.282 A 
ATOM     81  C   UNL     1       6.609  -9.018  -1.453  1.00  0.00     0.015 A 
ATOM     82  C   UNL     1       5.022  -7.835  -2.818  1.00  0.00     0.086 A 
ATOM     83  C   UNL     1       5.450  -9.018  -2.231  1.00  0.00     0.008 A 
BRANCH  79  84
ATOM     84  C   UNL     1       8.575  -7.926  -0.413  1.00  0.00     0.259 C 
ATOM     85  O   UNL     1       9.597  -8.147  -1.052  1.00  0.00    -0.269 OA
BRANCH  84  86
ATOM     86  N   UNL     1       8.504  -7.891   0.961  1.00  0.00    -0.308 N 
ATOM     87  C   UNL     1       8.617  -6.671   1.764  1.00  0.00     0.131 C 
ATOM     88  C   UNL     1       7.896  -8.883   1.735  1.00  0.00     0.047 A 
ATOM     89  C   UNL     1       7.718  -6.875   2.997  1.00  0.00     0.059 C 
ATOM     90  C   UNL     1       7.339  -8.319   2.876  1.00  0.00    -0.022 A 
ATOM     91  C   UNL     1       7.772 -10.229   1.444  1.00  0.00     0.026 A 
ATOM     92  C   UNL     1       6.498  -9.068   3.679  1.00  0.00     0.006 A 
ATOM     93  C   UNL     1       6.952 -11.000   2.263  1.00  0.00     0.002 A 
ATOM     94  C   UNL     1       6.289 -10.413   3.352  1.00  0.00     0.000 A 
ENDBRANCH  84  86
ENDBRANCH  79  84
BRANCH  80  95
ATOM     95  N   UNL     1       5.346  -5.469  -3.315  1.00  0.00     0.063 N 
ATOM     96  O   UNL     1       4.135  -5.228  -3.409  1.00  0.00    -0.258 OA
ATOM     97  O   UNL     1       6.251  -4.798  -3.824  1.00  0.00    -0.258 OA
ENDBRANCH  80  95
ENDBRANCH  75  78
ENDBRANCH  73  74
ENDBRANCH  72  73
ENDBRANCH   1  72
TORSDOF 14
