REMARK SMILES COc1cc2c(cc1OC)[C@H](c1cccc([N+](=O)[O-])c1)N(C(=O)CCC(=O)NCCCCNC(=O)c1ccc(-c3c4nc(c(-c5c(F)c(F)c(F)c(F)c5F)c5ccc([nH]5)c(-c5c(F)c(F)c(F)c(F)c5F)c5nc(c(-c6c(F)c(F)c(F)c(F)c6F)c6ccc3[nH]6)C=C5)C=C4)cc1)CC2
REMARK SMILES IDX 29 1 28 2 26 3 27 4 25 6 24 7 22 8 23 9 21 10 3 11 4 12 8 13
REMARK SMILES IDX 5 14 7 15 6 16 100 17 11 18 99 19 2 20 1 21 9 22 10 23 12 24
REMARK SMILES IDX 13 25 20 26 14 27 16 28 15 29 17 30 18 31 19 32 30 33 31 34
REMARK SMILES IDX 32 35 33 36 34 37 35 39 36 40 37 41 98 42 38 43 97 44 39 45
REMARK SMILES IDX 40 46 41 47 91 48 42 49 96 50 90 51 92 52 43 53 95 54 89 55
REMARK SMILES IDX 88 56 44 58 76 59 56 60 75 61 57 62 60 63 74 64 93 65 58 66
REMARK SMILES IDX 59 67 73 69 94 70 61 71 45 72 46 73 54 74 47 75 48 76 52 77
REMARK SMILES IDX 55 78 49 79 50 80 53 81 51 82 77 83 78 84 86 85 79 86 80 87
REMARK SMILES IDX 84 88 87 89 81 90 82 91 85 92 83 93 62 94 63 95 71 96 64 97
REMARK SMILES IDX 65 98 69 99 72 100 66 101 67 102 70 103 68 104
REMARK H PARENT 28 5 33 38 92 57 60 68
REMARK Flexibility Score: inf
ROOT
ATOM      1  C   UNL     1       1.250  -3.029   6.045  1.00  0.00     0.116 C 
ENDROOT
BRANCH   1   2
ATOM      2  N   UNL     1       0.795  -2.413   7.406  1.00  0.00    -0.356 N 
ATOM      3  C   UNL     1       1.081  -2.652   8.714  1.00  0.00     0.220 C 
ATOM      4  O   UNL     1       0.623  -1.862   9.542  1.00  0.00    -0.275 OA
ATOM      5  H   UNL     1       0.149  -1.678   7.290  1.00  0.00     0.163 HD
BRANCH   3   6
ATOM      6  C   UNL     1       1.901  -3.835   9.147  1.00  0.00     0.110 C 
BRANCH   6   7
ATOM      7  C   UNL     1       1.195  -5.165   8.919  1.00  0.00     0.110 C 
BRANCH   7   8
ATOM      8  C   UNL     1       1.635  -5.648   7.574  1.00  0.00     0.223 C 
ATOM      9  O   UNL     1       2.627  -6.366   7.455  1.00  0.00    -0.275 OA
BRANCH   8  10
ATOM     10  N   UNL     1       1.035  -5.035   6.481  1.00  0.00    -0.331 N 
ATOM     11  C   UNL     1       1.808  -0.513   3.060  1.00  0.00     0.161 A 
ATOM     12  C   UNL     1       0.591  -0.920   3.613  1.00  0.00     0.054 A 
ATOM     13  C   UNL     1       3.052  -1.295   3.037  1.00  0.00     0.161 A 
ATOM     14  C   UNL     1       0.621  -2.188   4.140  1.00  0.00    -0.037 A 
ATOM     15  C   UNL     1       3.200  -2.628   3.535  1.00  0.00     0.057 A 
ATOM     16  C   UNL     1       2.057  -3.216   4.066  1.00  0.00    -0.014 A 
ATOM     17  C   UNL     1      -0.761  -2.514   5.418  1.00  0.00     0.057 C 
ATOM     18  C   UNL     1       2.221  -4.874   5.053  1.00  0.00     0.146 C 
ATOM     19  C   UNL     1      -0.588  -4.114   6.572  1.00  0.00     0.125 C 
BRANCH  11  20
ATOM     20  O   UNL     1       1.861   0.796   2.606  1.00  0.00    -0.493 OA
ATOM     21  C   UNL     1       1.171   0.952   1.368  1.00  0.00     0.278 C 
ENDBRANCH  11  20
BRANCH  13  22
ATOM     22  O   UNL     1       4.088  -0.576   2.466  1.00  0.00    -0.493 OA
ATOM     23  C   UNL     1       5.273  -1.266   2.106  1.00  0.00     0.278 C 
ENDBRANCH  13  22
BRANCH  18  24
ATOM     24  C   UNL     1       2.203  -6.269   4.295  1.00  0.00    -0.014 A 
ATOM     25  C   UNL     1       3.062  -6.624   3.255  1.00  0.00     0.007 A 
ATOM     26  C   UNL     1       1.221  -7.239   4.632  1.00  0.00     0.091 A 
ATOM     27  C   UNL     1       2.726  -7.682   2.382  1.00  0.00     0.007 A 
ATOM     28  C   UNL     1       0.864  -8.273   3.761  1.00  0.00     0.269 A 
ATOM     29  C   UNL     1       1.592  -8.471   2.597  1.00  0.00     0.085 A 
BRANCH  28  30
ATOM     30  N   UNL     1      -0.363  -9.040   4.030  1.00  0.00     0.062 N 
ATOM     31  O   UNL     1      -0.720  -9.871   3.184  1.00  0.00    -0.258 OA
ATOM     32  O   UNL     1      -0.995  -8.778   5.065  1.00  0.00    -0.258 OA
ENDBRANCH  28  30
ENDBRANCH  18  24
ENDBRANCH   8  10
ENDBRANCH   7   8
ENDBRANCH   6   7
ENDBRANCH   3   6
ENDBRANCH   1   2
BRANCH   1  33
ATOM     33  C   UNL     1       0.213  -4.215   4.599  1.00  0.00     0.023 C 
BRANCH  33  34
ATOM     34  C   UNL     1       0.100  -4.410   2.835  1.00  0.00     0.023 C 
BRANCH  34  35
ATOM     35  C   UNL     1       0.863  -3.859   1.594  1.00  0.00     0.116 C 
BRANCH  35  36
ATOM     36  N   UNL     1       2.200  -4.392   1.385  1.00  0.00    -0.352 N 
ATOM     37  C   UNL     1       3.103  -4.272   0.363  1.00  0.00     0.251 C 
ATOM     38  H   UNL     1       2.520  -4.952   2.128  1.00  0.00     0.163 HD
ATOM     39  O   UNL     1       4.191  -4.834   0.399  1.00  0.00    -0.269 OA
BRANCH  37  40
ATOM     40  C   UNL     1       2.737  -3.431  -0.773  1.00  0.00     0.039 A 
ATOM     41  C   UNL     1       2.552  -3.995  -2.034  1.00  0.00     0.014 A 
ATOM     42  C   UNL     1       2.435  -2.100  -0.516  1.00  0.00     0.014 A 
ATOM     43  C   UNL     1       1.897  -3.245  -3.007  1.00  0.00     0.010 A 
ATOM     44  C   UNL     1       1.720  -1.386  -1.450  1.00  0.00     0.010 A 
ATOM     45  C   UNL     1       1.398  -1.973  -2.678  1.00  0.00    -0.014 A 
BRANCH  45  46
ATOM     46  C   UNL     1       0.360  -1.304  -3.485  1.00  0.00     0.031 A 
ATOM     47  C   UNL     1       0.583   0.074  -4.026  1.00  0.00     0.074 A 
ATOM     48  C   UNL     1      -0.866  -1.864  -3.498  1.00  0.00     0.049 A 
ATOM     49  N   UNL     1      -0.255   0.853  -4.659  1.00  0.00    -0.248 NA
ATOM     50  C   UNL     1       1.893   0.690  -3.757  1.00  0.00     0.031 C 
ATOM     51  C   UNL     1      -1.237  -3.108  -2.813  1.00  0.00     0.029 A 
ATOM     52  N   UNL     1      -2.035  -1.448  -4.075  1.00  0.00    -0.354 N 
ATOM     53  C   UNL     1       0.416   2.053  -4.841  1.00  0.00     0.074 A 
ATOM     54  C   UNL     1       1.700   1.928  -4.188  1.00  0.00     0.031 C 
ATOM     55  C   UNL     1      -2.531  -3.373  -3.044  1.00  0.00     0.029 A 
ATOM     56  C   UNL     1      -3.082  -2.315  -3.879  1.00  0.00     0.049 A 
ATOM     57  H   UNL     1      -2.118  -0.608  -4.582  1.00  0.00     0.167 HD
ATOM     58  C   UNL     1       0.001   3.144  -5.526  1.00  0.00     0.037 A 
ATOM     59  C   UNL     1      -4.341  -2.268  -4.348  1.00  0.00     0.037 A 
ATOM     60  C   UNL     1      -1.263   3.214  -6.211  1.00  0.00     0.049 A 
ATOM     61  C   UNL     1      -4.724  -1.125  -5.239  1.00  0.00     0.074 A 
ATOM     62  C   UNL     1      -1.732   4.193  -7.067  1.00  0.00     0.029 A 
ATOM     63  N   UNL     1      -2.260   2.252  -6.115  1.00  0.00    -0.354 N 
ATOM     64  N   UNL     1      -4.024  -0.064  -5.562  1.00  0.00    -0.248 NA
ATOM     65  C   UNL     1      -6.056  -1.181  -5.853  1.00  0.00     0.031 C 
ATOM     66  C   UNL     1      -3.024   3.837  -7.468  1.00  0.00     0.029 A 
ATOM     67  C   UNL     1      -3.347   2.619  -6.890  1.00  0.00     0.049 A 
ATOM     68  H   UNL     1      -2.203   1.431  -5.575  1.00  0.00     0.167 HD
ATOM     69  C   UNL     1      -4.817   0.664  -6.434  1.00  0.00     0.074 A 
ATOM     70  C   UNL     1      -6.046  -0.087  -6.603  1.00  0.00     0.031 C 
ATOM     71  C   UNL     1      -4.554   1.847  -7.039  1.00  0.00     0.037 A 
BRANCH  58  72
ATOM     72  C   UNL     1       0.933   4.318  -5.606  1.00  0.00     0.064 A 
ATOM     73  C   UNL     1       2.147   4.243  -6.309  1.00  0.00     0.173 A 
ATOM     74  C   UNL     1       0.600   5.542  -5.008  1.00  0.00     0.173 A 
ATOM     75  F   UNL     1       2.518   3.094  -6.894  1.00  0.00    -0.203 F 
ATOM     76  C   UNL     1       3.007   5.335  -6.378  1.00  0.00     0.198 A 
ATOM     77  C   UNL     1       1.448   6.644  -5.108  1.00  0.00     0.198 A 
ATOM     78  F   UNL     1      -0.549   5.674  -4.330  1.00  0.00    -0.203 F 
ATOM     79  F   UNL     1       4.184   5.219  -7.008  1.00  0.00    -0.200 F 
ATOM     80  C   UNL     1       2.654   6.537  -5.785  1.00  0.00     0.200 A 
ATOM     81  F   UNL     1       1.099   7.809  -4.545  1.00  0.00    -0.200 F 
ATOM     82  F   UNL     1       3.479   7.590  -5.859  1.00  0.00    -0.200 F 
ENDBRANCH  58  72
BRANCH  59  83
ATOM     83  C   UNL     1      -5.269  -3.392  -4.074  1.00  0.00     0.064 A 
ATOM     84  C   UNL     1      -5.564  -4.326  -5.077  1.00  0.00     0.173 A 
ATOM     85  C   UNL     1      -5.840  -3.588  -2.809  1.00  0.00     0.173 A 
ATOM     86  F   UNL     1      -5.040  -4.177  -6.303  1.00  0.00    -0.203 F 
ATOM     87  C   UNL     1      -6.412  -5.402  -4.832  1.00  0.00     0.198 A 
ATOM     88  C   UNL     1      -6.673  -4.677  -2.560  1.00  0.00     0.198 A 
ATOM     89  F   UNL     1      -5.568  -2.736  -1.810  1.00  0.00    -0.203 F 
ATOM     90  F   UNL     1      -6.700  -6.263  -5.819  1.00  0.00    -0.200 F 
ATOM     91  C   UNL     1      -6.963  -5.580  -3.573  1.00  0.00     0.200 A 
ATOM     92  F   UNL     1      -7.188  -4.858  -1.336  1.00  0.00    -0.200 F 
ATOM     93  F   UNL     1      -7.774  -6.620  -3.335  1.00  0.00    -0.200 F 
ENDBRANCH  59  83
BRANCH  71  94
ATOM     94  C   UNL     1      -5.612   2.390  -7.949  1.00  0.00     0.064 A 
ATOM     95  C   UNL     1      -6.790   2.955  -7.442  1.00  0.00     0.173 A 
ATOM     96  C   UNL     1      -5.423   2.385  -9.339  1.00  0.00     0.173 A 
ATOM     97  F   UNL     1      -7.019   2.965  -6.120  1.00  0.00    -0.203 F 
ATOM     98  C   UNL     1      -7.753   3.480  -8.297  1.00  0.00     0.198 A 
ATOM     99  C   UNL     1      -6.377   2.934 -10.189  1.00  0.00     0.198 A 
ATOM    100  F   UNL     1      -4.309   1.857  -9.868  1.00  0.00    -0.203 F 
ATOM    101  F   UNL     1      -8.890   3.980  -7.795  1.00  0.00    -0.200 F 
ATOM    102  C   UNL     1      -7.542   3.477  -9.668  1.00  0.00     0.200 A 
ATOM    103  F   UNL     1      -6.168   2.939 -11.513  1.00  0.00    -0.200 F 
ATOM    104  F   UNL     1      -8.468   3.991 -10.490  1.00  0.00    -0.200 F 
ENDBRANCH  71  94
ENDBRANCH  45  46
ENDBRANCH  37  40
ENDBRANCH  35  36
ENDBRANCH  34  35
ENDBRANCH  33  34
ENDBRANCH   1  33
TORSDOF 18
