REMARK SMILES O=C(NCCCCNC(=O)c1cc(O)ccc1NC(=O)c1ccc(Br)nc1)c1ccc(-c2c3nc(c(-c4c(F)c(F)c(F)c(F)c4F)c4ccc([nH]4)c(-c4c(F)c(F)c(F)c(F)c4F)c4nc(c(-c5c(F)c(F)c(F)c(F)c5F)c5ccc2[nH]5)C=C4)C=C3)cc1
REMARK SMILES IDX 5 1 4 2 3 3 1 4 2 5 28 7 29 8 90 9 30 10 89 11 31 12 32 13
REMARK SMILES IDX 33 14 83 15 34 16 88 17 82 18 84 19 35 20 87 21 81 22 80 23
REMARK SMILES IDX 36 25 68 26 48 27 67 28 49 29 52 30 66 31 85 32 50 33 51 34
REMARK SMILES IDX 65 36 86 37 53 38 37 39 38 40 46 41 39 42 40 43 44 44 47 45
REMARK SMILES IDX 41 46 42 47 45 48 43 49 69 50 70 51 78 52 71 53 72 54 76 55
REMARK SMILES IDX 79 56 73 57 74 58 77 59 75 60 54 61 55 62 63 63 56 64 57 65
REMARK SMILES IDX 61 66 64 67 58 68 59 69 62 70 60 71 6 72 7 73 8 74 9 75
REMARK SMILES IDX 10 77 11 78 12 79 17 80 13 81 16 82 15 83 18 84 19 85 20 87
REMARK SMILES IDX 21 88 22 89 27 90 23 91 26 92 24 93 25 94 14 95
REMARK H PARENT 3 6 84 24 52 35 8 76 18 86 14 96
REMARK Flexibility Score: inf
ROOT
ATOM      1  C   UNL     1       4.840   0.591  -2.680  1.00  0.00     0.023 C 
ENDROOT
BRANCH   1   2
ATOM      2  C   UNL     1       4.501   0.686  -1.200  1.00  0.00     0.116 C 
BRANCH   2   3
ATOM      3  N   UNL     1       3.071   0.686  -0.926  1.00  0.00    -0.352 N 
ATOM      4  O   UNL     1       1.133  -0.050  -0.023  1.00  0.00    -0.269 OA
ATOM      5  C   UNL     1       2.353  -0.111  -0.059  1.00  0.00     0.251 C 
ATOM      6  H   UNL     1       2.543   1.348  -1.429  1.00  0.00     0.163 HD
BRANCH   5   7
ATOM      7  C   UNL     1       3.075  -1.071   0.806  1.00  0.00     0.039 A 
ATOM      8  C   UNL     1       4.226  -0.674   1.486  1.00  0.00     0.014 A 
ATOM      9  C   UNL     1       2.619  -2.389   0.905  1.00  0.00     0.014 A 
ATOM     10  C   UNL     1       5.019  -1.630   2.104  1.00  0.00     0.010 A 
ATOM     11  C   UNL     1       3.364  -3.330   1.625  1.00  0.00     0.010 A 
ATOM     12  C   UNL     1       4.592  -2.967   2.197  1.00  0.00    -0.014 A 
BRANCH  12  13
ATOM     13  C   UNL     1       5.434  -3.923   2.962  1.00  0.00     0.031 A 
ATOM     14  C   UNL     1       6.091  -5.104   2.303  1.00  0.00     0.074 A 
ATOM     15  C   UNL     1       5.664  -3.660   4.264  1.00  0.00     0.049 A 
ATOM     16  N   UNL     1       6.925  -5.973   2.819  1.00  0.00    -0.248 NA
ATOM     17  C   UNL     1       5.773  -5.350   0.889  1.00  0.00     0.031 C 
ATOM     18  C   UNL     1       5.058  -2.557   5.015  1.00  0.00     0.029 A 
ATOM     19  N   UNL     1       6.491  -4.264   5.174  1.00  0.00    -0.354 N 
ATOM     20  C   UNL     1       7.221  -6.872   1.802  1.00  0.00     0.074 A 
ATOM     21  C   UNL     1       6.456  -6.461   0.644  1.00  0.00     0.031 C 
ATOM     22  C   UNL     1       5.584  -2.520   6.246  1.00  0.00     0.029 A 
ATOM     23  C   UNL     1       6.512  -3.635   6.395  1.00  0.00     0.049 A 
ATOM     24  H   UNL     1       7.018  -5.071   4.973  1.00  0.00     0.167 HD
ATOM     25  C   UNL     1       8.063  -7.934   1.834  1.00  0.00     0.037 A 
ATOM     26  C   UNL     1       7.194  -3.925   7.517  1.00  0.00     0.037 A 
ATOM     27  C   UNL     1       8.830  -8.332   2.988  1.00  0.00     0.049 A 
ATOM     28  C   UNL     1       8.123  -5.103   7.515  1.00  0.00     0.074 A 
ATOM     29  C   UNL     1       9.716  -9.389   3.116  1.00  0.00     0.029 A 
ATOM     30  N   UNL     1       8.805  -7.685   4.216  1.00  0.00    -0.354 N 
ATOM     31  N   UNL     1       8.405  -5.931   6.539  1.00  0.00    -0.248 NA
ATOM     32  C   UNL     1       8.826  -5.389   8.772  1.00  0.00     0.031 C 
ATOM     33  C   UNL     1      10.198  -9.403   4.429  1.00  0.00     0.029 A 
ATOM     34  C   UNL     1       9.649  -8.329   5.109  1.00  0.00     0.049 A 
ATOM     35  H   UNL     1       8.267  -6.887   4.423  1.00  0.00     0.167 HD
ATOM     36  C   UNL     1       9.316  -6.836   7.061  1.00  0.00     0.074 A 
ATOM     37  C   UNL     1       9.572  -6.429   8.428  1.00  0.00     0.031 C 
ATOM     38  C   UNL     1       9.880  -7.916   6.468  1.00  0.00     0.037 A 
BRANCH  25  39
ATOM     39  C   UNL     1       8.205  -8.755   0.584  1.00  0.00     0.064 A 
ATOM     40  C   UNL     1       8.909  -8.277  -0.532  1.00  0.00     0.173 A 
ATOM     41  C   UNL     1       7.696 -10.061   0.526  1.00  0.00     0.173 A 
ATOM     42  F   UNL     1       9.407  -7.031  -0.532  1.00  0.00    -0.203 F 
ATOM     43  C   UNL     1       9.088  -9.072  -1.661  1.00  0.00     0.198 A 
ATOM     44  C   UNL     1       7.898 -10.863  -0.595  1.00  0.00     0.198 A 
ATOM     45  F   UNL     1       7.020 -10.570   1.568  1.00  0.00    -0.203 F 
ATOM     46  F   UNL     1       9.740  -8.585  -2.726  1.00  0.00    -0.200 F 
ATOM     47  C   UNL     1       8.591 -10.367  -1.689  1.00  0.00     0.200 A 
ATOM     48  F   UNL     1       7.428 -12.117  -0.614  1.00  0.00    -0.200 F 
ATOM     49  F   UNL     1       8.777 -11.136  -2.771  1.00  0.00    -0.200 F 
ENDBRANCH  25  39
BRANCH  26  50
ATOM     50  C   UNL     1       7.006  -3.090   8.731  1.00  0.00     0.064 A 
ATOM     51  C   UNL     1       8.040  -2.286   9.227  1.00  0.00     0.173 A 
ATOM     52  C   UNL     1       5.781  -3.075   9.415  1.00  0.00     0.173 A 
ATOM     53  F   UNL     1       9.235  -2.278   8.618  1.00  0.00    -0.203 F 
ATOM     54  C   UNL     1       7.862  -1.513  10.373  1.00  0.00     0.198 A 
ATOM     55  C   UNL     1       5.593  -2.276  10.539  1.00  0.00     0.198 A 
ATOM     56  F   UNL     1       4.757  -3.821   8.975  1.00  0.00    -0.203 F 
ATOM     57  F   UNL     1       8.881  -0.788  10.854  1.00  0.00    -0.200 F 
ATOM     58  C   UNL     1       6.637  -1.503  11.023  1.00  0.00     0.200 A 
ATOM     59  F   UNL     1       4.401  -2.255  11.150  1.00  0.00    -0.200 F 
ATOM     60  F   UNL     1       6.463  -0.753  12.119  1.00  0.00    -0.200 F 
ENDBRANCH  26  50
BRANCH  38  61
ATOM     61  C   UNL     1      10.829  -8.723   7.305  1.00  0.00     0.064 A 
ATOM     62  C   UNL     1      10.370  -9.524   8.361  1.00  0.00     0.173 A 
ATOM     63  C   UNL     1      12.207  -8.692   7.052  1.00  0.00     0.173 A 
ATOM     64  F   UNL     1       9.061  -9.572   8.654  1.00  0.00    -0.203 F 
ATOM     65  C   UNL     1      11.262 -10.236   9.158  1.00  0.00     0.198 A 
ATOM     66  C   UNL     1      13.094  -9.428   7.832  1.00  0.00     0.198 A 
ATOM     67  F   UNL     1      12.695  -7.944   6.050  1.00  0.00    -0.203 F 
ATOM     68  F   UNL     1      10.807 -10.945  10.200  1.00  0.00    -0.200 F 
ATOM     69  C   UNL     1      12.622 -10.190   8.891  1.00  0.00     0.200 A 
ATOM     70  F   UNL     1      14.407  -9.390   7.568  1.00  0.00    -0.200 F 
ATOM     71  F   UNL     1      13.480 -10.870   9.663  1.00  0.00    -0.200 F 
ENDBRANCH  38  61
ENDBRANCH  12  13
ENDBRANCH   5   7
ENDBRANCH   2   3
ENDBRANCH   1   2
BRANCH   1  72
ATOM     72  C   UNL     1       4.374   1.766  -3.529  1.00  0.00     0.023 C 
BRANCH  72  73
ATOM     73  C   UNL     1       4.793   3.142  -3.023  1.00  0.00     0.116 C 
BRANCH  73  74
ATOM     74  N   UNL     1       6.238   3.329  -2.977  1.00  0.00    -0.352 N 
ATOM     75  C   UNL     1       6.986   4.336  -3.546  1.00  0.00     0.253 C 
ATOM     76  H   UNL     1       6.744   2.649  -2.476  1.00  0.00     0.163 HD
ATOM     77  O   UNL     1       8.210   4.301  -3.538  1.00  0.00    -0.269 OA
BRANCH  75  78
ATOM     78  C   UNL     1       6.276   5.431  -4.238  1.00  0.00     0.067 A 
ATOM     79  C   UNL     1       5.337   6.171  -3.500  1.00  0.00     0.062 A 
ATOM     80  C   UNL     1       6.449   5.624  -5.621  1.00  0.00     0.054 A 
ATOM     81  C   UNL     1       4.449   6.989  -4.175  1.00  0.00     0.116 A 
ATOM     82  C   UNL     1       5.472   6.379  -6.275  1.00  0.00     0.031 A 
ATOM     83  C   UNL     1       4.483   7.064  -5.559  1.00  0.00     0.048 A 
BRANCH  80  84
ATOM     84  N   UNL     1       7.567   5.043  -6.271  1.00  0.00    -0.321 N 
ATOM     85  C   UNL     1       8.129   5.228  -7.516  1.00  0.00     0.257 C 
ATOM     86  H   UNL     1       8.036   4.373  -5.723  1.00  0.00     0.170 HD
ATOM     87  O   UNL     1       9.031   4.495  -7.913  1.00  0.00    -0.269 OA
BRANCH  85  88
ATOM     88  C   UNL     1       7.698   6.319  -8.396  1.00  0.00     0.058 A 
ATOM     89  C   UNL     1       7.721   7.657  -7.998  1.00  0.00     0.018 A 
ATOM     90  C   UNL     1       7.196   6.003  -9.648  1.00  0.00     0.126 A 
ATOM     91  C   UNL     1       7.140   8.614  -8.829  1.00  0.00     0.037 A 
ATOM     92  N   UNL     1       6.627   6.915 -10.472  1.00  0.00    -0.249 NA
ATOM     93  C   UNL     1       6.595   8.196 -10.038  1.00  0.00     0.106 A 
ATOM     94  Br  UNL     1       5.699   9.467 -11.124  1.00  0.00    -0.029 Br
ENDBRANCH  85  88
ENDBRANCH  80  84
BRANCH  81  95
ATOM     95  O   UNL     1       3.481   7.688  -3.523  1.00  0.00    -0.508 OA
ATOM     96  H   UNL     1       3.431   7.658  -2.588  1.00  0.00     0.293 HD
ENDBRANCH  81  95
ENDBRANCH  75  78
ENDBRANCH  73  74
ENDBRANCH  72  73
ENDBRANCH   1  72
TORSDOF 14
