REMARK SMILES C[C@@H](C(=O)NCCCCNC(=O)c1ccc(-c2c3nc(c(-c4c(F)c(F)c(F)c(F)c4F)c4ccc([nH]4)c(-c4c(F)c(F)c(F)c(F)c4F)c4nc(c(-c5c(F)c(F)c(F)c(F)c5F)c5ccc2[nH]5)C=C4)C=C3)cc1)N(C)c1ccc(C(N)=O)nn1
REMARK SMILES IDX 7 1 6 2 5 3 3 4 4 5 2 7 1 8 76 9 77 10 78 11 79 12 86 13
REMARK SMILES IDX 80 14 85 15 81 16 82 17 83 18 84 19 8 22 9 23 10 24 11 25
REMARK SMILES IDX 12 27 13 28 14 29 75 30 15 31 74 32 16 33 17 34 18 35 68 36
REMARK SMILES IDX 19 37 73 38 67 39 69 40 20 41 72 42 66 43 65 44 21 46 53 47
REMARK SMILES IDX 33 48 52 49 34 50 37 51 51 52 70 53 35 54 36 55 50 57 71 58
REMARK SMILES IDX 38 59 22 60 23 61 31 62 24 63 25 64 29 65 32 66 26 67 27 68
REMARK SMILES IDX 30 69 28 70 54 71 55 72 63 73 56 74 57 75 61 76 64 77 58 78
REMARK SMILES IDX 59 79 62 80 60 81 39 82 40 83 48 84 41 85 42 86 46 87 49 88
REMARK SMILES IDX 43 89 44 90 47 91 45 92
REMARK H PARENT 5 6 83 20 83 21 10 26 69 45 37 56
REMARK Flexibility Score: inf
ROOT
ATOM      1  C   UNL     1       4.185   0.980  -0.611  1.00  0.00     0.023 C 
ENDROOT
BRANCH   1   2
ATOM      2  C   UNL     1       3.372   2.016   0.166  1.00  0.00     0.116 C 
BRANCH   2   3
ATOM      3  N   UNL     1       2.276   2.531  -0.627  1.00  0.00    -0.354 N 
ATOM      4  C   UNL     1       0.954   2.181  -0.646  1.00  0.00     0.242 C 
ATOM      5  O   UNL     1       0.252   2.783  -1.462  1.00  0.00    -0.273 OA
ATOM      6  H   UNL     1       2.522   3.249  -1.254  1.00  0.00     0.163 HD
BRANCH   4   7
ATOM      7  C   UNL     1       0.399   1.135   0.368  1.00  0.00     0.169 C 
ATOM      8  C   UNL     1       1.033  -0.251   0.255  1.00  0.00     0.042 C 
BRANCH   7   9
ATOM      9  N   UNL     1      -1.089   1.053   0.365  1.00  0.00    -0.346 N 
ATOM     10  C   UNL     1      -1.776   1.926   1.316  1.00  0.00     0.146 C 
BRANCH   9  11
ATOM     11  C   UNL     1      -1.818   0.806  -0.803  1.00  0.00     0.151 A 
ATOM     12  C   UNL     1      -1.460  -0.187  -1.711  1.00  0.00     0.051 A 
ATOM     13  N   UNL     1      -2.947   1.516  -1.058  1.00  0.00    -0.132 NA
ATOM     14  C   UNL     1      -2.208  -0.407  -2.869  1.00  0.00     0.040 A 
ATOM     15  N   UNL     1      -3.697   1.325  -2.205  1.00  0.00    -0.143 NA
ATOM     16  C   UNL     1      -3.314   0.382  -3.088  1.00  0.00     0.150 A 
BRANCH  16  17
ATOM     17  C   UNL     1      -4.143   0.213  -4.312  1.00  0.00     0.269 C 
ATOM     18  N   UNL     1      -5.181   1.092  -4.468  1.00  0.00    -0.364 N 
ATOM     19  O   UNL     1      -3.912  -0.659  -5.142  1.00  0.00    -0.268 OA
ATOM     20  H   UNL     1      -5.346   1.783  -3.787  1.00  0.00     0.160 HD
ATOM     21  H   UNL     1      -5.762   1.032  -5.260  1.00  0.00     0.160 HD
ENDBRANCH  16  17
ENDBRANCH   9  11
ENDBRANCH   7   9
ENDBRANCH   4   7
ENDBRANCH   2   3
ENDBRANCH   1   2
BRANCH   1  22
ATOM     22  C   UNL     1       4.967   1.543  -1.802  1.00  0.00     0.023 C 
BRANCH  22  23
ATOM     23  C   UNL     1       6.021   2.584  -1.448  1.00  0.00     0.116 C 
BRANCH  23  24
ATOM     24  N   UNL     1       7.055   2.075  -0.559  1.00  0.00    -0.352 N 
ATOM     25  C   UNL     1       8.395   2.385  -0.549  1.00  0.00     0.251 C 
ATOM     26  H   UNL     1       6.758   1.428   0.121  1.00  0.00     0.163 HD
ATOM     27  O   UNL     1       9.170   1.797   0.197  1.00  0.00    -0.269 OA
BRANCH  25  28
ATOM     28  C   UNL     1       8.897   3.411  -1.483  1.00  0.00     0.039 A 
ATOM     29  C   UNL     1       9.962   3.095  -2.330  1.00  0.00     0.014 A 
ATOM     30  C   UNL     1       8.272   4.658  -1.559  1.00  0.00     0.014 A 
ATOM     31  C   UNL     1      10.351   4.004  -3.316  1.00  0.00     0.010 A 
ATOM     32  C   UNL     1       8.619   5.535  -2.580  1.00  0.00     0.010 A 
ATOM     33  C   UNL     1       9.653   5.211  -3.474  1.00  0.00    -0.014 A 
BRANCH  33  34
ATOM     34  C   UNL     1       9.960   6.160  -4.572  1.00  0.00     0.031 A 
ATOM     35  C   UNL     1      10.460   7.536  -4.246  1.00  0.00     0.074 A 
ATOM     36  C   UNL     1       9.662   5.830  -5.842  1.00  0.00     0.049 A 
ATOM     37  N   UNL     1      10.599   8.576  -5.027  1.00  0.00    -0.248 NA
ATOM     38  C   UNL     1      10.813   7.784  -2.840  1.00  0.00     0.031 C 
ATOM     39  C   UNL     1       9.125   4.541  -6.278  1.00  0.00     0.029 A 
ATOM     40  N   UNL     1       9.731   6.571  -6.996  1.00  0.00    -0.354 N 
ATOM     41  C   UNL     1      11.017   9.611  -4.202  1.00  0.00     0.074 A 
ATOM     42  C   UNL     1      11.078   9.082  -2.856  1.00  0.00     0.031 C 
ATOM     43  C   UNL     1       8.905   4.583  -7.602  1.00  0.00     0.029 A 
ATOM     44  C   UNL     1       9.247   5.913  -8.099  1.00  0.00     0.049 A 
ATOM     45  H   UNL     1      10.094   7.486  -7.029  1.00  0.00     0.167 HD
ATOM     46  C   UNL     1      11.330  10.884  -4.542  1.00  0.00     0.037 A 
ATOM     47  C   UNL     1       9.072   6.341  -9.364  1.00  0.00     0.037 A 
ATOM     48  C   UNL     1      11.305  11.391  -5.888  1.00  0.00     0.049 A 
ATOM     49  C   UNL     1       9.457   7.748  -9.726  1.00  0.00     0.074 A 
ATOM     50  C   UNL     1      11.687  12.638  -6.348  1.00  0.00     0.029 A 
ATOM     51  N   UNL     1      10.870  10.672  -6.992  1.00  0.00    -0.354 N 
ATOM     52  N   UNL     1       9.912   8.703  -8.952  1.00  0.00    -0.248 NA
ATOM     53  C   UNL     1       9.308   8.137 -11.135  1.00  0.00     0.031 C 
ATOM     54  C   UNL     1      11.448  12.688  -7.726  1.00  0.00     0.029 A 
ATOM     55  C   UNL     1      10.957  11.456  -8.131  1.00  0.00     0.049 A 
ATOM     56  H   UNL     1      10.547   9.742  -6.970  1.00  0.00     0.167 HD
ATOM     57  C   UNL     1      10.127   9.796  -9.780  1.00  0.00     0.074 A 
ATOM     58  C   UNL     1       9.757   9.385 -11.119  1.00  0.00     0.031 C 
ATOM     59  C   UNL     1      10.592  11.028  -9.458  1.00  0.00     0.037 A 
BRANCH  46  60
ATOM     60  C   UNL     1      11.714  11.816  -3.431  1.00  0.00     0.064 A 
ATOM     61  C   UNL     1      12.924  11.676  -2.733  1.00  0.00     0.173 A 
ATOM     62  C   UNL     1      10.860  12.865  -3.059  1.00  0.00     0.173 A 
ATOM     63  F   UNL     1      13.769  10.681  -3.041  1.00  0.00    -0.203 F 
ATOM     64  C   UNL     1      13.244  12.526  -1.678  1.00  0.00     0.198 A 
ATOM     65  C   UNL     1      11.199  13.733  -2.024  1.00  0.00     0.198 A 
ATOM     66  F   UNL     1       9.694  13.047  -3.697  1.00  0.00    -0.203 F 
ATOM     67  F   UNL     1      14.376  12.334  -0.986  1.00  0.00    -0.200 F 
ATOM     68  C   UNL     1      12.384  13.556  -1.327  1.00  0.00     0.200 A 
ATOM     69  F   UNL     1      10.371  14.733  -1.693  1.00  0.00    -0.200 F 
ATOM     70  F   UNL     1      12.693  14.370  -0.309  1.00  0.00    -0.200 F 
ENDBRANCH  46  60
BRANCH  47  71
ATOM     71  C   UNL     1       8.516   5.410 -10.378  1.00  0.00     0.064 A 
ATOM     72  C   UNL     1       9.338   4.845 -11.361  1.00  0.00     0.173 A 
ATOM     73  C   UNL     1       7.165   5.035 -10.358  1.00  0.00     0.173 A 
ATOM     74  F   UNL     1      10.633   5.189 -11.428  1.00  0.00    -0.203 F 
ATOM     75  C   UNL     1       8.829   3.942 -12.291  1.00  0.00     0.198 A 
ATOM     76  C   UNL     1       6.661   4.115 -11.276  1.00  0.00     0.198 A 
ATOM     77  F   UNL     1       6.340   5.544  -9.431  1.00  0.00    -0.203 F 
ATOM     78  F   UNL     1       9.631   3.434 -13.236  1.00  0.00    -0.200 F 
ATOM     79  C   UNL     1       7.493   3.572 -12.243  1.00  0.00     0.200 A 
ATOM     80  F   UNL     1       5.374   3.749 -11.216  1.00  0.00    -0.200 F 
ATOM     81  F   UNL     1       7.008   2.692 -13.129  1.00  0.00    -0.200 F 
ENDBRANCH  47  71
BRANCH  59  82
ATOM     82  C   UNL     1      10.764  12.015 -10.573  1.00  0.00     0.064 A 
ATOM     83  C   UNL     1       9.666  12.662 -11.157  1.00  0.00     0.173 A 
ATOM     84  C   UNL     1      12.049  12.364 -11.017  1.00  0.00     0.173 A 
ATOM     85  F   UNL     1       8.418  12.351 -10.777  1.00  0.00    -0.203 F 
ATOM     86  C   UNL     1       9.849  13.618 -12.153  1.00  0.00     0.198 A 
ATOM     87  C   UNL     1      12.228  13.336 -11.996  1.00  0.00     0.198 A 
ATOM     88  F   UNL     1      13.130  11.774 -10.485  1.00  0.00    -0.203 F 
ATOM     89  F   UNL     1       8.785  14.205 -12.719  1.00  0.00    -0.200 F 
ATOM     90  C   UNL     1      11.129  13.961 -12.565  1.00  0.00     0.200 A 
ATOM     91  F   UNL     1      13.466  13.674 -12.384  1.00  0.00    -0.200 F 
ATOM     92  F   UNL     1      11.302  14.891 -13.514  1.00  0.00    -0.200 F 
ENDBRANCH  59  82
ENDBRANCH  33  34
ENDBRANCH  25  28
ENDBRANCH  23  24
ENDBRANCH  22  23
ENDBRANCH   1  22
TORSDOF 14
