REMARK SMILES CCN(C(=O)C[NH2+][C@@](C)(C(=O)NCCCCNC(=O)c1ccc(-c2c3nc(c(-c4c(F)c(F)c(F)c(F)c4F)c4ccc([nH]4)c(-c4c(F)c(F)c(F)c(F)c4F)c4nc(c(-c5c(F)c(F)c(F)c(F)c5F)c5ccc2[nH]5)C=C4)C=C3)cc1)C(F)(F)F)C1CC1
REMARK SMILES IDX 13 1 12 2 10 3 11 4 8 6 9 7 7 8 6 11 4 12 5 13 3 14 2 15
REMARK SMILES IDX 1 16 87 17 88 18 89 19 83 20 84 21 85 22 86 23 14 24 15 25
REMARK SMILES IDX 16 26 17 27 18 28 19 30 20 31 21 32 82 33 22 34 81 35 23 36
REMARK SMILES IDX 24 37 25 38 75 39 26 40 80 41 74 42 76 43 27 44 79 45 73 46
REMARK SMILES IDX 72 47 28 49 60 50 40 51 59 52 41 53 44 54 58 55 77 56 42 57
REMARK SMILES IDX 43 58 57 60 78 61 45 62 29 63 30 64 38 65 31 66 32 67 36 68
REMARK SMILES IDX 39 69 33 70 34 71 37 72 35 73 61 74 62 75 70 76 63 77 64 78
REMARK SMILES IDX 68 79 71 80 65 81 66 82 69 83 67 84 46 85 47 86 55 87 48 88
REMARK SMILES IDX 49 89 53 90 56 91 50 92 51 93 54 94 52 95
REMARK H PARENT 12 5 7 9 7 10 17 29 76 48 44 59
REMARK Flexibility Score: inf
ROOT
ATOM      1  C   UNL     1      -2.864   0.036   4.160  1.00  0.00     0.116 C 
ENDROOT
BRANCH   1   2
ATOM      2  N   UNL     1      -3.493   0.567   2.964  1.00  0.00    -0.350 N 
ATOM      3  C   UNL     1      -3.739   0.041   1.724  1.00  0.00     0.290 C 
ATOM      4  O   UNL     1      -4.250   0.826   0.920  1.00  0.00    -0.267 OA
ATOM      5  H   UNL     1      -3.807   1.494   3.065  1.00  0.00     0.163 HD
BRANCH   3   6
ATOM      6  C   UNL     1      -3.410  -1.434   1.366  1.00  0.00     0.268 C 
ATOM      7  C   UNL     1      -4.262  -2.373   2.242  1.00  0.00     0.101 C 
BRANCH   6   8
ATOM      8  N   UNL     1      -1.932  -1.622   1.567  1.00  0.00    -0.318 N 
ATOM      9  H   UNL     1      -1.447  -0.928   0.998  1.00  0.00     0.347 HD
ATOM     10  H   UNL     1      -1.772  -1.519   2.569  1.00  0.00     0.347 HD
BRANCH   8  11
ATOM     11  C   UNL     1      -1.408  -2.946   1.210  1.00  0.00     0.363 C 
BRANCH  11  12
ATOM     12  C   UNL     1       0.099  -2.992   1.515  1.00  0.00     0.277 C 
ATOM     13  O   UNL     1       0.490  -3.638   2.494  1.00  0.00    -0.268 OA
BRANCH  12  14
ATOM     14  N   UNL     1       0.974  -2.290   0.679  1.00  0.00    -0.335 N 
BRANCH  14  15
ATOM     15  C   UNL     1       0.537  -1.360  -0.370  1.00  0.00     0.116 C 
ATOM     16  C   UNL     1       0.643   0.094   0.068  1.00  0.00     0.027 C 
ENDBRANCH  14  15
BRANCH  14  17
ATOM     17  C   UNL     1       2.400  -2.428   0.929  1.00  0.00     0.085 C 
ATOM     18  C   UNL     1       3.220  -3.306   0.016  1.00  0.00     0.027 C 
ATOM     19  C   UNL     1       3.510  -1.838   0.099  1.00  0.00     0.027 C 
ENDBRANCH  14  17
ENDBRANCH  12  14
ENDBRANCH  11  12
ENDBRANCH   8  11
ENDBRANCH   6   8
BRANCH   6  20
ATOM     20  C   UNL     1      -3.897  -1.627  -0.106  1.00  0.00     0.453 C 
ATOM     21  F   UNL     1      -3.194  -0.888  -0.995  1.00  0.00    -0.164 F 
ATOM     22  F   UNL     1      -3.739  -2.927  -0.484  1.00  0.00    -0.164 F 
ATOM     23  F   UNL     1      -5.213  -1.359  -0.266  1.00  0.00    -0.164 F 
ENDBRANCH   6  20
ENDBRANCH   3   6
ENDBRANCH   1   2
BRANCH   1  24
ATOM     24  C   UNL     1      -1.504   0.684   4.417  1.00  0.00     0.023 C 
BRANCH  24  25
ATOM     25  C   UNL     1      -1.567   2.155   4.830  1.00  0.00     0.023 C 
BRANCH  25  26
ATOM     26  C   UNL     1      -2.455   2.457   6.033  1.00  0.00     0.116 C 
BRANCH  26  27
ATOM     27  N   UNL     1      -2.097   1.695   7.218  1.00  0.00    -0.352 N 
ATOM     28  C   UNL     1      -2.026   2.112   8.526  1.00  0.00     0.251 C 
ATOM     29  H   UNL     1      -1.874   0.749   7.063  1.00  0.00     0.163 HD
ATOM     30  O   UNL     1      -1.597   1.358   9.394  1.00  0.00    -0.269 OA
BRANCH  28  31
ATOM     31  C   UNL     1      -2.430   3.488   8.877  1.00  0.00     0.039 A 
ATOM     32  C   UNL     1      -1.580   4.254   9.678  1.00  0.00     0.014 A 
ATOM     33  C   UNL     1      -3.625   4.031   8.396  1.00  0.00     0.014 A 
ATOM     34  C   UNL     1      -1.891   5.590   9.935  1.00  0.00     0.010 A 
ATOM     35  C   UNL     1      -3.897   5.381   8.591  1.00  0.00     0.010 A 
ATOM     36  C   UNL     1      -3.030   6.176   9.358  1.00  0.00    -0.014 A 
BRANCH  36  37
ATOM     37  C   UNL     1      -3.317   7.622   9.529  1.00  0.00     0.031 A 
ATOM     38  C   UNL     1      -4.552   8.071  10.256  1.00  0.00     0.074 A 
ATOM     39  C   UNL     1      -2.496   8.531   8.966  1.00  0.00     0.049 A 
ATOM     40  N   UNL     1      -4.999   9.285  10.457  1.00  0.00    -0.248 NA
ATOM     41  C   UNL     1      -5.415   7.014  10.807  1.00  0.00     0.031 C 
ATOM     42  C   UNL     1      -1.298   8.218   8.186  1.00  0.00     0.029 A 
ATOM     43  N   UNL     1      -2.552   9.902   8.955  1.00  0.00    -0.354 N 
ATOM     44  C   UNL     1      -6.197   9.137  11.143  1.00  0.00     0.074 A 
ATOM     45  C   UNL     1      -6.436   7.716  11.277  1.00  0.00     0.031 C 
ATOM     46  C   UNL     1      -0.718   9.364   7.793  1.00  0.00     0.029 A 
ATOM     47  C   UNL     1      -1.522  10.489   8.260  1.00  0.00     0.049 A 
ATOM     48  H   UNL     1      -3.262  10.417   9.402  1.00  0.00     0.167 HD
ATOM     49  C   UNL     1      -7.011  10.100  11.638  1.00  0.00     0.037 A 
ATOM     50  C   UNL     1      -1.259  11.788   8.022  1.00  0.00     0.037 A 
ATOM     51  C   UNL     1      -6.758  11.513  11.524  1.00  0.00     0.049 A 
ATOM     52  C   UNL     1      -2.178  12.837   8.585  1.00  0.00     0.074 A 
ATOM     53  C   UNL     1      -7.486  12.566  12.049  1.00  0.00     0.029 A 
ATOM     54  N   UNL     1      -5.693  12.070  10.830  1.00  0.00    -0.354 N 
ATOM     55  N   UNL     1      -3.266  12.687   9.300  1.00  0.00    -0.248 NA
ATOM     56  C   UNL     1      -1.828  14.238   8.313  1.00  0.00     0.031 C 
ATOM     57  C   UNL     1      -6.889  13.761  11.633  1.00  0.00     0.029 A 
ATOM     58  C   UNL     1      -5.759  13.453  10.893  1.00  0.00     0.049 A 
ATOM     59  H   UNL     1      -4.994  11.559  10.362  1.00  0.00     0.167 HD
ATOM     60  C   UNL     1      -3.715  13.969   9.587  1.00  0.00     0.074 A 
ATOM     61  C   UNL     1      -2.771  14.886   8.981  1.00  0.00     0.031 C 
ATOM     62  C   UNL     1      -4.810  14.352  10.288  1.00  0.00     0.037 A 
BRANCH  49  63
ATOM     63  C   UNL     1      -8.254   9.657  12.354  1.00  0.00     0.064 A 
ATOM     64  C   UNL     1      -8.197   9.019  13.603  1.00  0.00     0.173 A 
ATOM     65  C   UNL     1      -9.520   9.902  11.802  1.00  0.00     0.173 A 
ATOM     66  F   UNL     1      -7.011   8.750  14.170  1.00  0.00    -0.203 F 
ATOM     67  C   UNL     1      -9.358   8.616  14.257  1.00  0.00     0.198 A 
ATOM     68  C   UNL     1     -10.681   9.526  12.474  1.00  0.00     0.198 A 
ATOM     69  F   UNL     1      -9.634  10.513  10.614  1.00  0.00    -0.203 F 
ATOM     70  F   UNL     1      -9.275   7.962  15.424  1.00  0.00    -0.200 F 
ATOM     71  C   UNL     1     -10.599   8.876  13.696  1.00  0.00     0.200 A 
ATOM     72  F   UNL     1     -11.880   9.790  11.936  1.00  0.00    -0.200 F 
ATOM     73  F   UNL     1     -11.716   8.493  14.330  1.00  0.00    -0.200 F 
ENDBRANCH  49  63
BRANCH  50  74
ATOM     74  C   UNL     1      -0.057  12.169   7.237  1.00  0.00     0.064 A 
ATOM     75  C   UNL     1       1.032  12.803   7.851  1.00  0.00     0.173 A 
ATOM     76  C   UNL     1       0.031  11.908   5.862  1.00  0.00     0.173 A 
ATOM     77  F   UNL     1       0.987  13.091   9.160  1.00  0.00    -0.203 F 
ATOM     78  C   UNL     1       2.155  13.179   7.117  1.00  0.00     0.198 A 
ATOM     79  C   UNL     1       1.166  12.259   5.134  1.00  0.00     0.198 A 
ATOM     80  F   UNL     1      -0.981  11.298   5.228  1.00  0.00    -0.203 F 
ATOM     81  F   UNL     1       3.162  13.824   7.721  1.00  0.00    -0.200 F 
ATOM     82  C   UNL     1       2.223  12.902   5.760  1.00  0.00     0.200 A 
ATOM     83  F   UNL     1       1.234  11.976   3.826  1.00  0.00    -0.200 F 
ATOM     84  F   UNL     1       3.305  13.260   5.055  1.00  0.00    -0.200 F 
ENDBRANCH  50  74
BRANCH  62  85
ATOM     85  C   UNL     1      -5.031  15.827  10.466  1.00  0.00     0.064 A 
ATOM     86  C   UNL     1      -5.433  16.645   9.400  1.00  0.00     0.173 A 
ATOM     87  C   UNL     1      -4.873  16.421  11.727  1.00  0.00     0.173 A 
ATOM     88  F   UNL     1      -5.582  16.128   8.171  1.00  0.00    -0.203 F 
ATOM     89  C   UNL     1      -5.642  18.009   9.585  1.00  0.00     0.198 A 
ATOM     90  C   UNL     1      -5.113  17.779  11.915  1.00  0.00     0.198 A 
ATOM     91  F   UNL     1      -4.497  15.681  12.781  1.00  0.00    -0.203 F 
ATOM     92  F   UNL     1      -5.977  18.781   8.541  1.00  0.00    -0.200 F 
ATOM     93  C   UNL     1      -5.490  18.573  10.843  1.00  0.00     0.200 A 
ATOM     94  F   UNL     1      -4.979  18.319  13.134  1.00  0.00    -0.200 F 
ATOM     95  F   UNL     1      -5.698  19.885  11.020  1.00  0.00    -0.200 F 
ENDBRANCH  62  85
ENDBRANCH  36  37
ENDBRANCH  28  31
ENDBRANCH  26  27
ENDBRANCH  25  26
ENDBRANCH  24  25
ENDBRANCH   1  24
TORSDOF 18
