REMARK SMILES Cc1ccc(-c2cc(C(=O)NCCCCNC(=O)c3ccc(-c4c5nc(c(-c6c(F)c(F)c(F)c(F)c6F)c6ccc([nH]6)c(-c6c(F)c(F)c(F)c(F)c6F)c6nc(c(-c7c(F)c(F)c(F)c(F)c7F)c7ccc4[nH]7)C=C6)C=C5)cc3)c3cc(C)ccc3n2)c(C)c1
REMARK SMILES IDX 14 1 13 2 12 3 11 4 9 5 10 6 8 8 6 9 7 10 89 11 88 12 82 13
REMARK SMILES IDX 87 14 83 15 86 16 84 17 85 18 5 19 1 20 2 21 3 22 92 23 4 24
REMARK SMILES IDX 90 25 91 26 15 27 16 28 17 29 18 31 19 32 20 33 81 34 21 35
REMARK SMILES IDX 80 36 22 37 23 38 24 39 74 40 25 41 79 42 73 43 75 44 26 45
REMARK SMILES IDX 78 46 72 47 71 48 27 50 59 51 39 52 58 53 40 54 43 55 57 56
REMARK SMILES IDX 76 57 41 58 42 59 56 61 77 62 44 63 28 64 29 65 37 66 30 67
REMARK SMILES IDX 31 68 35 69 38 70 32 71 33 72 36 73 34 74 60 75 61 76 69 77
REMARK SMILES IDX 62 78 63 79 67 80 70 81 64 82 65 83 68 84 66 85 45 86 46 87
REMARK SMILES IDX 54 88 47 89 48 90 52 91 55 92 49 93 50 94 53 95 51 96
REMARK H PARENT 11 7 16 30 75 49 43 60
REMARK Flexibility Score: inf
ROOT
ATOM      1  C   UNL     1      -7.067  -7.823   1.532  1.00  0.00     0.023 C 
ENDROOT
BRANCH   1   2
ATOM      2  C   UNL     1      -6.209  -7.140   0.471  1.00  0.00     0.023 C 
BRANCH   2   3
ATOM      3  C   UNL     1      -5.981  -5.646   0.632  1.00  0.00     0.116 C 
BRANCH   3   4
ATOM      4  N   UNL     1      -5.296  -5.197   1.831  1.00  0.00    -0.352 N 
ATOM      5  C   UNL     1      -4.597  -4.024   2.067  1.00  0.00     0.252 C 
ATOM      6  O   UNL     1      -4.173  -3.822   3.205  1.00  0.00    -0.269 OA
ATOM      7  H   UNL     1      -5.335  -5.820   2.592  1.00  0.00     0.163 HD
BRANCH   5   8
ATOM      8  C   UNL     1      -4.241  -3.051   0.986  1.00  0.00     0.051 A 
ATOM      9  C   UNL     1      -2.484  -1.791  -0.044  1.00  0.00     0.072 A 
ATOM     10  C   UNL     1      -2.927  -2.567   1.015  1.00  0.00     0.043 A 
ATOM     11  N   UNL     1      -3.231  -1.606  -1.157  1.00  0.00    -0.248 NA
ATOM     12  C   UNL     1      -4.497  -2.041  -1.171  1.00  0.00     0.072 A 
ATOM     13  C   UNL     1      -5.100  -2.653  -0.061  1.00  0.00     0.013 A 
ATOM     14  C   UNL     1      -5.239  -1.898  -2.335  1.00  0.00     0.029 A 
ATOM     15  C   UNL     1      -6.497  -2.851  -0.087  1.00  0.00     0.014 A 
ATOM     16  C   UNL     1      -6.568  -2.322  -2.419  1.00  0.00     0.005 A 
ATOM     17  C   UNL     1      -7.219  -2.782  -1.280  1.00  0.00    -0.050 A 
ATOM     18  C   UNL     1      -8.603  -3.356  -1.353  1.00  0.00     0.044 C 
BRANCH   9  19
ATOM     19  C   UNL     1      -1.209  -1.058  -0.015  1.00  0.00     0.003 A 
ATOM     20  C   UNL     1       2.577   1.061   0.013  1.00  0.00     0.044 C 
ATOM     21  C   UNL     1       1.277   0.313   0.009  1.00  0.00    -0.051 A 
ATOM     22  C   UNL     1       1.238  -1.082  -0.011  1.00  0.00     0.004 A 
ATOM     23  C   UNL     1       0.072   1.022   0.022  1.00  0.00     0.007 A 
ATOM     24  C   UNL     1       0.012  -1.757  -0.024  1.00  0.00     0.011 A 
ATOM     25  C   UNL     1      -1.168   0.357   0.021  1.00  0.00    -0.041 A 
ATOM     26  C   UNL     1      -2.410   1.213   0.024  1.00  0.00     0.045 C 
ENDBRANCH   9  19
ENDBRANCH   5   8
ENDBRANCH   3   4
ENDBRANCH   2   3
ENDBRANCH   1   2
BRANCH   1  27
ATOM     27  C   UNL     1      -8.328  -7.101   1.997  1.00  0.00     0.116 C 
BRANCH  27  28
ATOM     28  N   UNL     1      -9.307  -6.844   0.949  1.00  0.00    -0.352 N 
ATOM     29  C   UNL     1     -10.630  -7.213   0.850  1.00  0.00     0.251 C 
ATOM     30  H   UNL     1      -8.967  -6.321   0.188  1.00  0.00     0.163 HD
ATOM     31  O   UNL     1     -11.269  -6.912  -0.157  1.00  0.00    -0.269 OA
BRANCH  29  32
ATOM     32  C   UNL     1     -11.281  -8.007   1.917  1.00  0.00     0.039 A 
ATOM     33  C   UNL     1     -12.105  -9.077   1.553  1.00  0.00     0.014 A 
ATOM     34  C   UNL     1     -11.086  -7.716   3.267  1.00  0.00     0.014 A 
ATOM     35  C   UNL     1     -12.662  -9.897   2.540  1.00  0.00     0.010 A 
ATOM     36  C   UNL     1     -11.548  -8.596   4.243  1.00  0.00     0.010 A 
ATOM     37  C   UNL     1     -12.354  -9.689   3.894  1.00  0.00    -0.014 A 
BRANCH  37  38
ATOM     38  C   UNL     1     -12.898 -10.579   4.955  1.00  0.00     0.031 A 
ATOM     39  C   UNL     1     -13.803 -10.021   6.022  1.00  0.00     0.074 A 
ATOM     40  C   UNL     1     -12.551 -11.882   4.987  1.00  0.00     0.049 A 
ATOM     41  N   UNL     1     -14.373 -10.631   7.032  1.00  0.00    -0.248 NA
ATOM     42  C   UNL     1     -14.077  -8.577   5.967  1.00  0.00     0.031 C 
ATOM     43  C   UNL     1     -11.640 -12.538   4.049  1.00  0.00     0.029 A 
ATOM     44  N   UNL     1     -12.930 -12.889   5.840  1.00  0.00    -0.354 N 
ATOM     45  C   UNL     1     -15.061  -9.645   7.729  1.00  0.00     0.074 A 
ATOM     46  C   UNL     1     -14.768  -8.387   7.079  1.00  0.00     0.031 C 
ATOM     47  C   UNL     1     -11.569 -13.846   4.347  1.00  0.00     0.029 A 
ATOM     48  C   UNL     1     -12.402 -14.115   5.515  1.00  0.00     0.049 A 
ATOM     49  H   UNL     1     -13.524 -12.746   6.612  1.00  0.00     0.167 HD
ATOM     50  C   UNL     1     -15.895  -9.776   8.789  1.00  0.00     0.037 A 
ATOM     51  C   UNL     1     -12.583 -15.321   6.087  1.00  0.00     0.037 A 
ATOM     52  C   UNL     1     -16.197 -11.029   9.428  1.00  0.00     0.049 A 
ATOM     53  C   UNL     1     -13.503 -15.441   7.272  1.00  0.00     0.074 A 
ATOM     54  C   UNL     1     -17.052 -11.278  10.487  1.00  0.00     0.029 A 
ATOM     55  N   UNL     1     -15.648 -12.251   9.063  1.00  0.00    -0.354 N 
ATOM     56  N   UNL     1     -14.205 -14.514   7.878  1.00  0.00    -0.248 NA
ATOM     57  C   UNL     1     -13.667 -16.785   7.844  1.00  0.00     0.031 C 
ATOM     58  C   UNL     1     -16.985 -12.642  10.793  1.00  0.00     0.029 A 
ATOM     59  C   UNL     1     -16.136 -13.254   9.885  1.00  0.00     0.049 A 
ATOM     60  H   UNL     1     -15.007 -12.384   8.329  1.00  0.00     0.167 HD
ATOM     61  C   UNL     1     -14.927 -15.167   8.868  1.00  0.00     0.074 A 
ATOM     62  C   UNL     1     -14.584 -16.571   8.776  1.00  0.00     0.031 C 
ATOM     63  C   UNL     1     -15.799 -14.651   9.770  1.00  0.00     0.037 A 
BRANCH  50  64
ATOM     64  C   UNL     1     -16.538  -8.521   9.313  1.00  0.00     0.064 A 
ATOM     65  C   UNL     1     -17.476  -7.802   8.553  1.00  0.00     0.173 A 
ATOM     66  C   UNL     1     -16.213  -8.026  10.585  1.00  0.00     0.173 A 
ATOM     67  F   UNL     1     -17.815  -8.224   7.325  1.00  0.00    -0.203 F 
ATOM     68  C   UNL     1     -18.023  -6.612   9.024  1.00  0.00     0.198 A 
ATOM     69  C   UNL     1     -16.792  -6.854  11.068  1.00  0.00     0.198 A 
ATOM     70  F   UNL     1     -15.329  -8.674  11.359  1.00  0.00    -0.203 F 
ATOM     71  F   UNL     1     -18.856  -5.906   8.247  1.00  0.00    -0.200 F 
ATOM     72  C   UNL     1     -17.684  -6.141  10.283  1.00  0.00     0.200 A 
ATOM     73  F   UNL     1     -16.475  -6.408  12.292  1.00  0.00    -0.200 F 
ATOM     74  F   UNL     1     -18.209  -4.994  10.734  1.00  0.00    -0.200 F 
ENDBRANCH  50  64
BRANCH  51  75
ATOM     75  C   UNL     1     -11.933 -16.527   5.506  1.00  0.00     0.064 A 
ATOM     76  C   UNL     1     -12.699 -17.517   4.873  1.00  0.00     0.173 A 
ATOM     77  C   UNL     1     -10.547 -16.724   5.579  1.00  0.00     0.173 A 
ATOM     78  F   UNL     1     -14.032 -17.384   4.797  1.00  0.00    -0.203 F 
ATOM     79  C   UNL     1     -12.108 -18.668   4.357  1.00  0.00     0.198 A 
ATOM     80  C   UNL     1      -9.953 -17.861   5.035  1.00  0.00     0.198 A 
ATOM     81  F   UNL     1      -9.768 -15.806   6.168  1.00  0.00    -0.203 F 
ATOM     82  F   UNL     1     -12.871 -19.619   3.802  1.00  0.00    -0.200 F 
ATOM     83  C   UNL     1     -10.734 -18.836   4.433  1.00  0.00     0.200 A 
ATOM     84  F   UNL     1      -8.623 -18.015   5.098  1.00  0.00    -0.200 F 
ATOM     85  F   UNL     1     -10.164 -19.942   3.934  1.00  0.00    -0.200 F 
ENDBRANCH  51  75
BRANCH  63  86
ATOM     86  C   UNL     1     -16.495 -15.619  10.685  1.00  0.00     0.064 A 
ATOM     87  C   UNL     1     -15.813 -16.308  11.699  1.00  0.00     0.173 A 
ATOM     88  C   UNL     1     -17.874 -15.847  10.551  1.00  0.00     0.173 A 
ATOM     89  F   UNL     1     -14.493 -16.136  11.862  1.00  0.00    -0.203 F 
ATOM     90  C   UNL     1     -16.477 -17.220  12.516  1.00  0.00     0.198 A 
ATOM     91  C   UNL     1     -18.541 -16.732  11.394  1.00  0.00     0.198 A 
ATOM     92  F   UNL     1     -18.577 -15.207   9.605  1.00  0.00    -0.203 F 
ATOM     93  F   UNL     1     -15.792 -17.916  13.434  1.00  0.00    -0.200 F 
ATOM     94  C   UNL     1     -17.840 -17.427  12.367  1.00  0.00     0.200 A 
ATOM     95  F   UNL     1     -19.861 -16.917  11.258  1.00  0.00    -0.200 F 
ATOM     96  F   UNL     1     -18.477 -18.305  13.155  1.00  0.00    -0.200 F 
ENDBRANCH  63  86
ENDBRANCH  37  38
ENDBRANCH  29  32
ENDBRANCH  27  28
ENDBRANCH   1  27
TORSDOF 12
