REMARK SMILES Cc1cc(C(=O)NCCCCNC(=O)c2ccc(-c3c4nc(c(-c5c(F)c(F)c(F)c(F)c5F)c5ccc([nH]5)c(-c5c(F)c(F)c(F)c(F)c5F)c5nc(c(-c6c(F)c(F)c(F)c(F)c6F)c6ccc3[nH]6)C=C5)C=C4)cc2)c([N+](=O)[O-])cc1[N+](=O)[O-]
REMARK SMILES IDX 10 1 9 2 8 3 7 4 5 5 6 6 4 8 1 9 2 10 3 11 83 12 82 13 78 14
REMARK SMILES IDX 84 15 85 16 86 17 79 18 80 19 81 20 11 21 12 22 13 23 14 25
REMARK SMILES IDX 15 26 16 27 77 28 17 29 76 30 18 31 19 32 20 33 70 34 21 35
REMARK SMILES IDX 75 36 69 37 71 38 22 39 74 40 68 41 67 42 23 44 55 45 35 46
REMARK SMILES IDX 54 47 36 48 39 49 53 50 72 51 37 52 38 53 52 55 73 56 40 57
REMARK SMILES IDX 24 58 25 59 33 60 26 61 27 62 31 63 34 64 28 65 29 66 32 67
REMARK SMILES IDX 30 68 56 69 57 70 65 71 58 72 59 73 63 74 66 75 60 76 61 77
REMARK SMILES IDX 64 78 62 79 41 80 42 81 50 82 43 83 44 84 48 85 51 86 45 87
REMARK SMILES IDX 46 88 49 89 47 90
REMARK H PARENT 7 7 12 24 71 43 39 54
REMARK Flexibility Score: inf
ROOT
ATOM      1  C   UNL     1      -5.690  -2.289  -1.997  1.00  0.00     0.023 C 
ENDROOT
BRANCH   1   2
ATOM      2  C   UNL     1      -4.930  -1.179  -1.271  1.00  0.00     0.023 C 
BRANCH   2   3
ATOM      3  C   UNL     1      -4.233  -1.611   0.029  1.00  0.00     0.116 C 
BRANCH   3   4
ATOM      4  N   UNL     1      -3.007  -2.326  -0.266  1.00  0.00    -0.352 N 
ATOM      5  C   UNL     1      -1.688  -2.027  -0.434  1.00  0.00     0.258 C 
ATOM      6  O   UNL     1      -0.996  -2.997  -0.769  1.00  0.00    -0.269 OA
ATOM      7  H   UNL     1      -3.172  -3.290  -0.374  1.00  0.00     0.163 HD
BRANCH   5   8
ATOM      8  C   UNL     1      -0.972  -0.730  -0.201  1.00  0.00     0.118 A 
ATOM      9  C   UNL     1       2.801  -0.175   0.182  1.00  0.00     0.052 C 
ATOM     10  C   UNL     1       1.340   0.184   0.143  1.00  0.00     0.028 A 
ATOM     11  C   UNL     1       0.425  -0.890   0.008  1.00  0.00     0.031 A 
ATOM     12  C   UNL     1       0.820   1.483   0.192  1.00  0.00     0.279 A 
ATOM     13  C   UNL     1      -0.550   1.688   0.004  1.00  0.00     0.172 A 
ATOM     14  C   UNL     1      -1.409   0.592  -0.234  1.00  0.00     0.289 A 
BRANCH  12  15
ATOM     15  N   UNL     1       1.655   2.676   0.382  1.00  0.00     0.063 N 
ATOM     16  O   UNL     1       1.266   3.725  -0.151  1.00  0.00    -0.258 OA
ATOM     17  O   UNL     1       2.663   2.575   1.090  1.00  0.00    -0.258 OA
ENDBRANCH  12  15
BRANCH  14  18
ATOM     18  N   UNL     1      -2.687   0.992  -0.743  1.00  0.00     0.063 N 
ATOM     19  O   UNL     1      -2.807   1.003  -1.973  1.00  0.00    -0.258 OA
ATOM     20  O   UNL     1      -3.508   1.422   0.076  1.00  0.00    -0.258 OA
ENDBRANCH  14  18
ENDBRANCH   5   8
ENDBRANCH   3   4
ENDBRANCH   2   3
ENDBRANCH   1   2
BRANCH   1  21
ATOM     21  C   UNL     1      -7.050  -2.575  -1.385  1.00  0.00     0.116 C 
BRANCH  21  22
ATOM     22  N   UNL     1      -8.134  -1.733  -1.877  1.00  0.00    -0.352 N 
ATOM     23  C   UNL     1      -9.438  -1.607  -1.411  1.00  0.00     0.251 C 
ATOM     24  H   UNL     1      -7.910  -1.171  -2.653  1.00  0.00     0.163 HD
ATOM     25  O   UNL     1     -10.239  -0.913  -2.004  1.00  0.00    -0.269 OA
BRANCH  23  26
ATOM     26  C   UNL     1      -9.797  -2.202  -0.095  1.00  0.00     0.039 A 
ATOM     27  C   UNL     1     -10.477  -1.387   0.819  1.00  0.00     0.014 A 
ATOM     28  C   UNL     1      -9.234  -3.400   0.325  1.00  0.00     0.014 A 
ATOM     29  C   UNL     1     -10.319  -1.620   2.182  1.00  0.00     0.010 A 
ATOM     30  C   UNL     1      -8.958  -3.553   1.667  1.00  0.00     0.010 A 
ATOM     31  C   UNL     1      -9.432  -2.614   2.588  1.00  0.00    -0.014 A 
BRANCH  31  32
ATOM     32  C   UNL     1      -8.809  -2.640   3.908  1.00  0.00     0.031 A 
ATOM     33  C   UNL     1      -9.071  -3.753   4.843  1.00  0.00     0.074 A 
ATOM     34  C   UNL     1      -7.867  -1.713   4.199  1.00  0.00     0.049 A 
ATOM     35  N   UNL     1      -8.824  -3.718   6.109  1.00  0.00    -0.248 NA
ATOM     36  C   UNL     1      -9.696  -4.998   4.421  1.00  0.00     0.031 C 
ATOM     37  C   UNL     1      -6.888  -1.753   5.282  1.00  0.00     0.029 A 
ATOM     38  N   UNL     1      -7.732  -0.423   3.656  1.00  0.00    -0.354 N 
ATOM     39  C   UNL     1      -8.974  -4.994   6.608  1.00  0.00     0.074 A 
ATOM     40  C   UNL     1      -9.607  -5.725   5.538  1.00  0.00     0.031 C 
ATOM     41  C   UNL     1      -6.462  -0.504   5.527  1.00  0.00     0.029 A 
ATOM     42  C   UNL     1      -7.268   0.390   4.716  1.00  0.00     0.049 A 
ATOM     43  H   UNL     1      -7.920  -0.144   2.731  1.00  0.00     0.167 HD
ATOM     44  C   UNL     1      -8.410  -5.295   7.816  1.00  0.00     0.037 A 
ATOM     45  C   UNL     1      -8.026   1.413   5.209  1.00  0.00     0.037 A 
ATOM     46  C   UNL     1      -7.905  -4.081   8.467  1.00  0.00     0.049 A 
ATOM     47  C   UNL     1      -8.378   1.270   6.672  1.00  0.00     0.074 A 
ATOM     48  C   UNL     1      -6.636  -3.542   8.604  1.00  0.00     0.029 A 
ATOM     49  N   UNL     1      -8.799  -3.078   8.833  1.00  0.00    -0.354 N 
ATOM     50  N   UNL     1      -8.297   0.148   7.332  1.00  0.00    -0.248 NA
ATOM     51  C   UNL     1      -8.888   2.365   7.493  1.00  0.00     0.031 C 
ATOM     52  C   UNL     1      -6.774  -2.186   8.995  1.00  0.00     0.029 A 
ATOM     53  C   UNL     1      -8.124  -1.905   9.116  1.00  0.00     0.049 A 
ATOM     54  H   UNL     1      -9.776  -3.188   8.884  1.00  0.00     0.167 HD
ATOM     55  C   UNL     1      -8.759   0.334   8.608  1.00  0.00     0.074 A 
ATOM     56  C   UNL     1      -9.094   1.744   8.668  1.00  0.00     0.031 C 
ATOM     57  C   UNL     1      -8.844  -0.699   9.498  1.00  0.00     0.037 A 
BRANCH  44  58
ATOM     58  C   UNL     1      -8.037  -6.699   8.281  1.00  0.00     0.064 A 
ATOM     59  C   UNL     1      -7.038  -6.886   9.266  1.00  0.00     0.173 A 
ATOM     60  C   UNL     1      -8.538  -7.902   7.747  1.00  0.00     0.173 A 
ATOM     61  F   UNL     1      -6.543  -5.857   9.967  1.00  0.00    -0.203 F 
ATOM     62  C   UNL     1      -6.502  -8.141   9.578  1.00  0.00     0.198 A 
ATOM     63  C   UNL     1      -7.979  -9.154   8.029  1.00  0.00     0.198 A 
ATOM     64  F   UNL     1      -9.629  -7.935   6.981  1.00  0.00    -0.203 F 
ATOM     65  F   UNL     1      -5.537  -8.242  10.503  1.00  0.00    -0.200 F 
ATOM     66  C   UNL     1      -6.948  -9.273   8.932  1.00  0.00     0.200 A 
ATOM     67  F   UNL     1      -8.459 -10.245   7.414  1.00  0.00    -0.200 F 
ATOM     68  F   UNL     1      -6.412 -10.471   9.198  1.00  0.00    -0.200 F 
ENDBRANCH  44  58
BRANCH  45  69
ATOM     69  C   UNL     1      -8.892   2.048   4.183  1.00  0.00     0.064 A 
ATOM     70  C   UNL     1      -8.273   2.721   3.112  1.00  0.00     0.173 A 
ATOM     71  C   UNL     1     -10.236   1.688   4.031  1.00  0.00     0.173 A 
ATOM     72  F   UNL     1      -6.984   3.086   3.207  1.00  0.00    -0.203 F 
ATOM     73  C   UNL     1      -8.934   2.921   1.902  1.00  0.00     0.198 A 
ATOM     74  C   UNL     1     -10.898   1.900   2.820  1.00  0.00     0.198 A 
ATOM     75  F   UNL     1     -10.873   1.022   5.005  1.00  0.00    -0.203 F 
ATOM     76  F   UNL     1      -8.282   3.467   0.866  1.00  0.00    -0.200 F 
ATOM     77  C   UNL     1     -10.238   2.483   1.748  1.00  0.00     0.200 A 
ATOM     78  F   UNL     1     -12.149   1.444   2.658  1.00  0.00    -0.200 F 
ATOM     79  F   UNL     1     -10.845   2.583   0.557  1.00  0.00    -0.200 F 
ENDBRANCH  45  69
BRANCH  57  80
ATOM     80  C   UNL     1      -9.538  -0.657  10.836  1.00  0.00     0.064 A 
ATOM     81  C   UNL     1     -10.655   0.148  11.116  1.00  0.00     0.173 A 
ATOM     82  C   UNL     1      -9.173  -1.569  11.856  1.00  0.00     0.173 A 
ATOM     83  F   UNL     1     -11.168   0.971  10.192  1.00  0.00    -0.203 F 
ATOM     84  C   UNL     1     -11.321   0.086  12.343  1.00  0.00     0.198 A 
ATOM     85  C   UNL     1      -9.875  -1.669  13.056  1.00  0.00     0.198 A 
ATOM     86  F   UNL     1      -8.138  -2.409  11.705  1.00  0.00    -0.203 F 
ATOM     87  F   UNL     1     -12.359   0.902  12.576  1.00  0.00    -0.200 F 
ATOM     88  C   UNL     1     -10.941  -0.830  13.306  1.00  0.00     0.200 A 
ATOM     89  F   UNL     1      -9.525  -2.597  13.958  1.00  0.00    -0.200 F 
ATOM     90  F   UNL     1     -11.613  -0.919  14.462  1.00  0.00    -0.200 F 
ENDBRANCH  57  80
ENDBRANCH  31  32
ENDBRANCH  23  26
ENDBRANCH  21  22
ENDBRANCH   1  21
TORSDOF 13
