REMARK SMILES Cc1ccc(-c2ncccc2C(=O)NCCCCNC(=O)c2ccc(-c3c4nc(c(-c5c(F)c(F)c(F)c(F)c5F)c5ccc([nH]5)c(-c5c(F)c(F)c(F)c(F)c5F)c5nc(c(-c6c(F)c(F)c(F)c(F)c6F)c6ccc3[nH]6)C=C5)C=C4)cc2)c(C)c1
REMARK SMILES IDX 17 1 16 2 15 3 14 4 12 5 13 6 11 8 6 9 7 10 8 11 10 12 9 13
REMARK SMILES IDX 5 14 1 15 2 16 3 17 87 18 4 19 85 20 86 21 18 22 19 23 20 24
REMARK SMILES IDX 21 26 22 27 23 28 84 29 24 30 83 31 25 32 26 33 27 34 77 35
REMARK SMILES IDX 28 36 82 37 76 38 78 39 29 40 81 41 75 42 74 43 30 45 62 46
REMARK SMILES IDX 42 47 61 48 43 49 46 50 60 51 79 52 44 53 45 54 59 56 80 57
REMARK SMILES IDX 47 58 31 59 32 60 40 61 33 62 34 63 38 64 41 65 35 66 36 67
REMARK SMILES IDX 39 68 37 69 63 70 64 71 72 72 65 73 66 74 70 75 73 76 67 77
REMARK SMILES IDX 68 78 71 79 69 80 48 81 49 82 57 83 50 84 51 85 55 86 58 87
REMARK SMILES IDX 52 88 53 89 56 90 54 91
REMARK H PARENT 14 7 19 25 78 44 46 55
REMARK Flexibility Score: inf
ROOT
ATOM      1  C   UNL     1      -2.267  -6.518   4.226  1.00  0.00     0.023 C 
ENDROOT
BRANCH   1   2
ATOM      2  C   UNL     1      -3.241  -5.879   3.224  1.00  0.00     0.023 C 
BRANCH   2   3
ATOM      3  C   UNL     1      -3.583  -4.420   3.527  1.00  0.00     0.116 C 
BRANCH   3   4
ATOM      4  N   UNL     1      -2.472  -3.554   3.200  1.00  0.00    -0.352 N 
ATOM      5  C   UNL     1      -2.076  -2.826   2.107  1.00  0.00     0.253 C 
ATOM      6  O   UNL     1      -1.018  -2.226   2.293  1.00  0.00    -0.269 OA
ATOM      7  H   UNL     1      -1.841  -3.466   3.950  1.00  0.00     0.163 HD
BRANCH   5   8
ATOM      8  C   UNL     1      -2.829  -2.701   0.810  1.00  0.00     0.066 A 
ATOM      9  C   UNL     1      -2.439  -1.758  -0.168  1.00  0.00     0.083 A 
ATOM     10  N   UNL     1      -3.167  -1.525  -1.306  1.00  0.00    -0.255 NA
ATOM     11  C   UNL     1      -4.282  -2.245  -1.515  1.00  0.00     0.112 A 
ATOM     12  C   UNL     1      -3.952  -3.477   0.494  1.00  0.00     0.018 A 
ATOM     13  C   UNL     1      -4.699  -3.238  -0.661  1.00  0.00     0.021 A 
BRANCH   9  14
ATOM     14  C   UNL     1      -1.192  -0.967  -0.151  1.00  0.00     0.004 A 
ATOM     15  C   UNL     1       2.571   1.183  -0.061  1.00  0.00     0.044 C 
ATOM     16  C   UNL     1       1.274   0.432  -0.114  1.00  0.00    -0.051 A 
ATOM     17  C   UNL     1       1.255  -0.950  -0.291  1.00  0.00     0.004 A 
ATOM     18  C   UNL     1       0.059   1.118   0.002  1.00  0.00     0.007 A 
ATOM     19  C   UNL     1       0.039  -1.635  -0.323  1.00  0.00     0.011 A 
ATOM     20  C   UNL     1      -1.174   0.437  -0.006  1.00  0.00    -0.041 A 
ATOM     21  C   UNL     1      -2.432   1.259   0.088  1.00  0.00     0.045 C 
ENDBRANCH   9  14
ENDBRANCH   5   8
ENDBRANCH   3   4
ENDBRANCH   2   3
ENDBRANCH   1   2
BRANCH   1  22
ATOM     22  C   UNL     1      -2.711  -6.480   5.686  1.00  0.00     0.116 C 
BRANCH  22  23
ATOM     23  N   UNL     1      -4.043  -7.024   5.900  1.00  0.00    -0.352 N 
ATOM     24  C   UNL     1      -4.546  -7.660   7.009  1.00  0.00     0.251 C 
ATOM     25  H   UNL     1      -4.669  -6.923   5.147  1.00  0.00     0.163 HD
ATOM     26  O   UNL     1      -5.669  -8.143   6.992  1.00  0.00    -0.269 OA
BRANCH  24  27
ATOM     27  C   UNL     1      -3.699  -7.792   8.212  1.00  0.00     0.039 A 
ATOM     28  C   UNL     1      -3.563  -9.052   8.799  1.00  0.00     0.014 A 
ATOM     29  C   UNL     1      -3.026  -6.687   8.739  1.00  0.00     0.014 A 
ATOM     30  C   UNL     1      -2.696  -9.218   9.879  1.00  0.00     0.010 A 
ATOM     31  C   UNL     1      -2.113  -6.866   9.773  1.00  0.00     0.010 A 
ATOM     32  C   UNL     1      -1.938  -8.134  10.350  1.00  0.00    -0.014 A 
BRANCH  32  33
ATOM     33  C   UNL     1      -0.951  -8.307  11.443  1.00  0.00     0.031 A 
ATOM     34  C   UNL     1      -1.163  -7.629  12.765  1.00  0.00     0.074 A 
ATOM     35  C   UNL     1       0.167  -9.023  11.219  1.00  0.00     0.049 A 
ATOM     36  N   UNL     1      -0.390  -7.613  13.821  1.00  0.00    -0.248 NA
ATOM     37  C   UNL     1      -2.396  -6.842  12.910  1.00  0.00     0.031 C 
ATOM     38  C   UNL     1       0.505  -9.691   9.961  1.00  0.00     0.029 A 
ATOM     39  N   UNL     1       1.230  -9.302  12.040  1.00  0.00    -0.354 N 
ATOM     40  C   UNL     1      -1.037  -6.808  14.748  1.00  0.00     0.074 A 
ATOM     41  C   UNL     1      -2.235  -6.307  14.111  1.00  0.00     0.031 C 
ATOM     42  C   UNL     1       1.677 -10.328  10.104  1.00  0.00     0.029 A 
ATOM     43  C   UNL     1       2.190 -10.085  11.449  1.00  0.00     0.049 A 
ATOM     44  H   UNL     1       1.297  -8.973  12.965  1.00  0.00     0.167 HD
ATOM     45  C   UNL     1      -0.677  -6.533  16.025  1.00  0.00     0.037 A 
ATOM     46  C   UNL     1       3.352 -10.554  11.940  1.00  0.00     0.037 A 
ATOM     47  C   UNL     1       0.508  -7.046  16.660  1.00  0.00     0.049 A 
ATOM     48  C   UNL     1       3.739 -10.220  13.354  1.00  0.00     0.074 A 
ATOM     49  C   UNL     1       0.938  -6.870  17.963  1.00  0.00     0.029 A 
ATOM     50  N   UNL     1       1.458  -7.839  16.030  1.00  0.00    -0.354 N 
ATOM     51  N   UNL     1       3.089  -9.511  14.245  1.00  0.00    -0.248 NA
ATOM     52  C   UNL     1       5.021 -10.756  13.832  1.00  0.00     0.031 C 
ATOM     53  C   UNL     1       2.168  -7.521  18.110  1.00  0.00     0.029 A 
ATOM     54  C   UNL     1       2.482  -8.143  16.913  1.00  0.00     0.049 A 
ATOM     55  H   UNL     1       1.411  -8.141  15.094  1.00  0.00     0.167 HD
ATOM     56  C   UNL     1       3.865  -9.539  15.395  1.00  0.00     0.074 A 
ATOM     57  C   UNL     1       5.030 -10.345  15.092  1.00  0.00     0.031 C 
ATOM     58  C   UNL     1       3.632  -8.952  16.595  1.00  0.00     0.037 A 
BRANCH  45  59
ATOM     59  C   UNL     1      -1.584  -5.633  16.814  1.00  0.00     0.064 A 
ATOM     60  C   UNL     1      -2.864  -6.049  17.214  1.00  0.00     0.173 A 
ATOM     61  C   UNL     1      -1.173  -4.342  17.176  1.00  0.00     0.173 A 
ATOM     62  F   UNL     1      -3.312  -7.270  16.881  1.00  0.00    -0.203 F 
ATOM     63  C   UNL     1      -3.712  -5.192  17.910  1.00  0.00     0.198 A 
ATOM     64  C   UNL     1      -2.012  -3.499  17.901  1.00  0.00     0.198 A 
ATOM     65  F   UNL     1       0.043  -3.896  16.825  1.00  0.00    -0.203 F 
ATOM     66  F   UNL     1      -4.953  -5.590  18.224  1.00  0.00    -0.200 F 
ATOM     67  C   UNL     1      -3.284  -3.920  18.257  1.00  0.00     0.200 A 
ATOM     68  F   UNL     1      -1.593  -2.274  18.246  1.00  0.00    -0.200 F 
ATOM     69  F   UNL     1      -4.103  -3.095  18.924  1.00  0.00    -0.200 F 
ENDBRANCH  45  59
BRANCH  46  70
ATOM     70  C   UNL     1       4.208 -11.431  11.102  1.00  0.00     0.064 A 
ATOM     71  C   UNL     1       4.325 -12.798  11.388  1.00  0.00     0.173 A 
ATOM     72  C   UNL     1       4.913 -10.932   9.997  1.00  0.00     0.173 A 
ATOM     73  F   UNL     1       3.684 -13.316  12.446  1.00  0.00    -0.203 F 
ATOM     74  C   UNL     1       5.125 -13.631  10.610  1.00  0.00     0.198 A 
ATOM     75  C   UNL     1       5.694 -11.771   9.205  1.00  0.00     0.198 A 
ATOM     76  F   UNL     1       4.830  -9.632   9.679  1.00  0.00    -0.203 F 
ATOM     77  F   UNL     1       5.246 -14.928  10.927  1.00  0.00    -0.200 F 
ATOM     78  C   UNL     1       5.804 -13.119   9.515  1.00  0.00     0.200 A 
ATOM     79  F   UNL     1       6.338 -11.275   8.140  1.00  0.00    -0.200 F 
ATOM     80  F   UNL     1       6.567 -13.922   8.762  1.00  0.00    -0.200 F 
ENDBRANCH  46  70
BRANCH  58  81
ATOM     81  C   UNL     1       4.641  -9.189  17.681  1.00  0.00     0.064 A 
ATOM     82  C   UNL     1       5.905  -8.584  17.655  1.00  0.00     0.173 A 
ATOM     83  C   UNL     1       4.322 -10.004  18.778  1.00  0.00     0.173 A 
ATOM     84  F   UNL     1       6.263  -7.809  16.620  1.00  0.00    -0.203 F 
ATOM     85  C   UNL     1       6.824  -8.805  18.678  1.00  0.00     0.198 A 
ATOM     86  C   UNL     1       5.233 -10.200  19.812  1.00  0.00     0.198 A 
ATOM     87  F   UNL     1       3.124 -10.601  18.851  1.00  0.00    -0.203 F 
ATOM     88  F   UNL     1       8.044  -8.254  18.611  1.00  0.00    -0.200 F 
ATOM     89  C   UNL     1       6.485  -9.606  19.758  1.00  0.00     0.200 A 
ATOM     90  F   UNL     1       4.899 -10.965  20.861  1.00  0.00    -0.200 F 
ATOM     91  F   UNL     1       7.369  -9.813  20.744  1.00  0.00    -0.200 F 
ENDBRANCH  58  81
ENDBRANCH  32  33
ENDBRANCH  24  27
ENDBRANCH  22  23
ENDBRANCH   1  22
TORSDOF 12
