REMARK SMILES O=C(NCCCCNC(=O)[C@H](c1c[nH]c2cc(F)ccc12)[NH+]1CCN(c2ccccc2)CC1)c1ccc(-c2c3nc(c(-c4c(F)c(F)c(F)c(F)c4F)c4ccc([nH]4)c(-c4c(F)c(F)c(F)c(F)c4F)c4nc(c(-c5c(F)c(F)c(F)c(F)c5F)c5ccc2[nH]5)C=C4)C=C3)cc1
REMARK SMILES IDX 5 1 4 2 3 3 1 4 2 5 34 7 35 8 96 9 36 10 95 11 37 12 38 13
REMARK SMILES IDX 39 14 89 15 40 16 94 17 88 18 90 19 41 20 93 21 87 22 86 23
REMARK SMILES IDX 42 25 74 26 54 27 73 28 55 29 58 30 72 31 91 32 56 33 57 34
REMARK SMILES IDX 71 36 92 37 59 38 43 39 44 40 52 41 45 42 46 43 50 44 53 45
REMARK SMILES IDX 47 46 48 47 51 48 49 49 75 50 76 51 84 52 77 53 78 54 82 55
REMARK SMILES IDX 85 56 79 57 80 58 83 59 81 60 60 61 61 62 69 63 62 64 63 65
REMARK SMILES IDX 67 66 70 67 64 68 65 69 68 70 66 71 6 72 7 73 8 74 9 75
REMARK SMILES IDX 10 77 11 78 22 79 23 80 33 81 24 83 32 84 25 85 26 86 27 87
REMARK SMILES IDX 31 88 28 89 30 90 29 91 12 92 13 93 21 94 14 95 15 96 20 97
REMARK SMILES IDX 16 99 19 100 17 101 18 102
REMARK H PARENT 3 6 90 24 58 35 8 76 22 82 14 98
REMARK Flexibility Score: inf
ROOT
ATOM      1  C   UNL     1       4.810  -4.387  -2.041  1.00  0.00     0.023 C 
ENDROOT
BRANCH   1   2
ATOM      2  C   UNL     1       5.158  -5.715  -1.409  1.00  0.00     0.116 C 
BRANCH   2   3
ATOM      3  N   UNL     1       5.913  -5.559  -0.169  1.00  0.00    -0.352 N 
ATOM      4  O   UNL     1       6.243  -5.393   2.059  1.00  0.00    -0.269 OA
ATOM      5  C   UNL     1       5.532  -5.778   1.134  1.00  0.00     0.251 C 
ATOM      6  H   UNL     1       6.840  -5.249  -0.284  1.00  0.00     0.163 HD
BRANCH   5   7
ATOM      7  C   UNL     1       4.251  -6.458   1.419  1.00  0.00     0.039 A 
ATOM      8  C   UNL     1       3.818  -7.490   0.592  1.00  0.00     0.014 A 
ATOM      9  C   UNL     1       3.463  -6.061   2.503  1.00  0.00     0.014 A 
ATOM     10  C   UNL     1       2.515  -7.939   0.679  1.00  0.00     0.010 A 
ATOM     11  C   UNL     1       2.214  -6.658   2.705  1.00  0.00     0.010 A 
ATOM     12  C   UNL     1       1.714  -7.578   1.771  1.00  0.00    -0.014 A 
BRANCH  12  13
ATOM     13  C   UNL     1       0.411  -8.272   1.937  1.00  0.00     0.031 A 
ATOM     14  C   UNL     1      -0.885  -7.517   1.984  1.00  0.00     0.074 A 
ATOM     15  C   UNL     1       0.420  -9.620   1.981  1.00  0.00     0.049 A 
ATOM     16  N   UNL     1      -2.103  -7.985   2.099  1.00  0.00    -0.248 NA
ATOM     17  C   UNL     1      -0.813  -6.051   1.908  1.00  0.00     0.031 C 
ATOM     18  C   UNL     1       1.626 -10.456   1.946  1.00  0.00     0.029 A 
ATOM     19  N   UNL     1      -0.604 -10.530   2.019  1.00  0.00    -0.354 N 
ATOM     20  C   UNL     1      -2.937  -6.876   2.142  1.00  0.00     0.074 A 
ATOM     21  C   UNL     1      -2.085  -5.708   2.064  1.00  0.00     0.031 C 
ATOM     22  C   UNL     1       1.273 -11.743   1.867  1.00  0.00     0.029 A 
ATOM     23  C   UNL     1      -0.176 -11.835   1.965  1.00  0.00     0.049 A 
ATOM     24  H   UNL     1      -1.552 -10.274   2.079  1.00  0.00     0.167 HD
ATOM     25  C   UNL     1      -4.288  -6.843   2.238  1.00  0.00     0.037 A 
ATOM     26  C   UNL     1      -0.868 -12.985   2.019  1.00  0.00     0.037 A 
ATOM     27  C   UNL     1      -5.121  -8.019   2.298  1.00  0.00     0.049 A 
ATOM     28  C   UNL     1      -2.358 -12.912   2.163  1.00  0.00     0.074 A 
ATOM     29  C   UNL     1      -6.501  -8.098   2.368  1.00  0.00     0.029 A 
ATOM     30  N   UNL     1      -4.649  -9.325   2.301  1.00  0.00    -0.354 N 
ATOM     31  N   UNL     1      -3.135 -11.857   2.189  1.00  0.00    -0.248 NA
ATOM     32  C   UNL     1      -3.066 -14.190   2.299  1.00  0.00     0.031 C 
ATOM     33  C   UNL     1      -6.859  -9.446   2.474  1.00  0.00     0.029 A 
ATOM     34  C   UNL     1      -5.709 -10.214   2.401  1.00  0.00     0.049 A 
ATOM     35  H   UNL     1      -3.700  -9.582   2.240  1.00  0.00     0.167 HD
ATOM     36  C   UNL     1      -4.427 -12.341   2.323  1.00  0.00     0.074 A 
ATOM     37  C   UNL     1      -4.327 -13.788   2.348  1.00  0.00     0.031 C 
ATOM     38  C   UNL     1      -5.589 -11.652   2.422  1.00  0.00     0.037 A 
BRANCH  25  39
ATOM     39  C   UNL     1      -4.951  -5.495   2.323  1.00  0.00     0.064 A 
ATOM     40  C   UNL     1      -4.981  -4.608   1.236  1.00  0.00     0.173 A 
ATOM     41  C   UNL     1      -5.593  -5.096   3.507  1.00  0.00     0.173 A 
ATOM     42  F   UNL     1      -4.375  -4.931   0.084  1.00  0.00    -0.203 F 
ATOM     43  C   UNL     1      -5.599  -3.363   1.341  1.00  0.00     0.198 A 
ATOM     44  C   UNL     1      -6.239  -3.866   3.598  1.00  0.00     0.198 A 
ATOM     45  F   UNL     1      -5.603  -5.906   4.577  1.00  0.00    -0.203 F 
ATOM     46  F   UNL     1      -5.566  -2.511   0.307  1.00  0.00    -0.200 F 
ATOM     47  C   UNL     1      -6.232  -2.996   2.519  1.00  0.00     0.200 A 
ATOM     48  F   UNL     1      -6.863  -3.520   4.732  1.00  0.00    -0.200 F 
ATOM     49  F   UNL     1      -6.830  -1.800   2.616  1.00  0.00    -0.200 F 
ENDBRANCH  25  39
BRANCH  26  50
ATOM     50  C   UNL     1      -0.153 -14.287   1.960  1.00  0.00     0.064 A 
ATOM     51  C   UNL     1      -0.327 -15.156   0.876  1.00  0.00     0.173 A 
ATOM     52  C   UNL     1       0.730 -14.681   2.977  1.00  0.00     0.173 A 
ATOM     53  F   UNL     1      -1.171 -14.831  -0.115  1.00  0.00    -0.203 F 
ATOM     54  C   UNL     1       0.340 -16.378   0.820  1.00  0.00     0.198 A 
ATOM     55  C   UNL     1       1.425 -15.885   2.902  1.00  0.00     0.198 A 
ATOM     56  F   UNL     1       0.941 -13.882   4.033  1.00  0.00    -0.203 F 
ATOM     57  F   UNL     1       0.120 -17.212  -0.206  1.00  0.00    -0.200 F 
ATOM     58  C   UNL     1       1.221 -16.738   1.829  1.00  0.00     0.200 A 
ATOM     59  F   UNL     1       2.294 -16.216   3.867  1.00  0.00    -0.200 F 
ATOM     60  F   UNL     1       1.870 -17.909   1.769  1.00  0.00    -0.200 F 
ENDBRANCH  26  50
BRANCH  38  61
ATOM     61  C   UNL     1      -6.849 -12.463   2.520  1.00  0.00     0.064 A 
ATOM     62  C   UNL     1      -7.160 -13.211   3.665  1.00  0.00     0.173 A 
ATOM     63  C   UNL     1      -7.759 -12.484   1.452  1.00  0.00     0.173 A 
ATOM     64  F   UNL     1      -6.312 -13.240   4.704  1.00  0.00    -0.203 F 
ATOM     65  C   UNL     1      -8.318 -13.981   3.722  1.00  0.00     0.198 A 
ATOM     66  C   UNL     1      -8.934 -13.226   1.528  1.00  0.00     0.198 A 
ATOM     67  F   UNL     1      -7.511 -11.783   0.336  1.00  0.00    -0.203 F 
ATOM     68  F   UNL     1      -8.562 -14.741   4.799  1.00  0.00    -0.200 F 
ATOM     69  C   UNL     1      -9.207 -13.982   2.658  1.00  0.00     0.200 A 
ATOM     70  F   UNL     1      -9.799 -13.213   0.505  1.00  0.00    -0.200 F 
ATOM     71  F   UNL     1     -10.323 -14.722   2.716  1.00  0.00    -0.200 F 
ENDBRANCH  38  61
ENDBRANCH  12  13
ENDBRANCH   5   7
ENDBRANCH   2   3
ENDBRANCH   1   2
BRANCH   1  72
ATOM     72  C   UNL     1       6.009  -3.585  -2.511  1.00  0.00     0.023 C 
BRANCH  72  73
ATOM     73  C   UNL     1       6.877  -4.254  -3.572  1.00  0.00     0.116 C 
BRANCH  73  74
ATOM     74  N   UNL     1       6.238  -4.389  -4.864  1.00  0.00    -0.351 N 
ATOM     75  C   UNL     1       6.361  -3.652  -6.006  1.00  0.00     0.283 C 
ATOM     76  H   UNL     1       5.607  -5.141  -4.931  1.00  0.00     0.163 HD
ATOM     77  O   UNL     1       6.065  -4.282  -7.036  1.00  0.00    -0.268 OA
BRANCH  75  78
ATOM     78  C   UNL     1       6.714  -2.124  -6.094  1.00  0.00     0.307 C 
BRANCH  78  79
ATOM     79  N   UNL     1       5.581  -1.273  -6.572  1.00  0.00    -0.318 N 
ATOM     80  C   UNL     1       4.239  -1.857  -6.613  1.00  0.00     0.284 C 
ATOM     81  C   UNL     1       5.472   0.125  -6.146  1.00  0.00     0.284 C 
ATOM     82  H   UNL     1       5.960  -1.251  -7.518  1.00  0.00     0.349 HD
ATOM     83  C   UNL     1       3.595  -1.917  -5.232  1.00  0.00     0.178 C 
ATOM     84  C   UNL     1       4.475   0.477  -4.992  1.00  0.00     0.178 C 
ATOM     85  N   UNL     1       3.550  -0.600  -4.593  1.00  0.00    -0.360 N 
BRANCH  85  86
ATOM     86  C   UNL     1       2.660  -0.434  -3.541  1.00  0.00     0.037 A 
ATOM     87  C   UNL     1       2.494  -1.433  -2.569  1.00  0.00     0.026 A 
ATOM     88  C   UNL     1       1.836   0.690  -3.442  1.00  0.00     0.026 A 
ATOM     89  C   UNL     1       1.535  -1.340  -1.558  1.00  0.00     0.002 A 
ATOM     90  C   UNL     1       0.852   0.783  -2.449  1.00  0.00     0.002 A 
ATOM     91  C   UNL     1       0.699  -0.234  -1.509  1.00  0.00     0.000 A 
ENDBRANCH  85  86
ENDBRANCH  78  79
BRANCH  78  92
ATOM     92  C   UNL     1       7.582  -1.557  -4.987  1.00  0.00     0.044 A 
ATOM     93  C   UNL     1       7.210  -0.974  -3.788  1.00  0.00     0.094 A 
ATOM     94  C   UNL     1       9.028  -1.530  -4.987  1.00  0.00     0.009 A 
ATOM     95  N   UNL     1       8.321  -0.681  -3.052  1.00  0.00    -0.361 N 
ATOM     96  C   UNL     1       9.447  -1.001  -3.763  1.00  0.00     0.049 A 
ATOM     97  C   UNL     1      10.022  -1.924  -5.913  1.00  0.00     0.014 A 
ATOM     98  H   UNL     1       8.314  -0.298  -2.145  1.00  0.00     0.166 HD
ATOM     99  C   UNL     1      10.793  -0.859  -3.409  1.00  0.00     0.065 A 
ATOM    100  C   UNL     1      11.375  -1.766  -5.585  1.00  0.00     0.040 A 
ATOM    101  C   UNL     1      11.740  -1.246  -4.351  1.00  0.00     0.125 A 
ATOM    102  F   UNL     1      13.040  -1.109  -4.057  1.00  0.00    -0.207 F 
ENDBRANCH  78  92
ENDBRANCH  75  78
ENDBRANCH  73  74
ENDBRANCH  72  73
ENDBRANCH   1  72
TORSDOF 14
