REMARK SMILES Cc1cccc(C(=O)Nc2cc(C(=O)NCCCCNC(=O)c3ccc(-c4c5nc(c(-c6c(F)c(F)c(F)c(F)c6F)c6ccc([nH]6)c(-c6c(F)c(F)c(F)c(F)c6F)c6nc(c(-c7c(F)c(F)c(F)c(F)c7F)c7ccc4[nH]7)C=C6)C=C5)cc3)ccc2N2CC[NH+](CC(=O)NC(C)(C)C)CC2)c1
REMARK SMILES IDX 16 1 15 2 13 3 14 4 12 6 10 7 11 8 88 9 87 10 86 11 9 12
REMARK SMILES IDX 7 13 8 14 6 16 1 17 2 18 3 19 103 20 4 21 5 22 89 23 90 24
REMARK SMILES IDX 102 25 91 26 101 27 92 28 93 30 94 31 95 32 96 33 97 35
REMARK SMILES IDX 98 36 99 37 100 38 17 39 18 40 19 41 20 42 21 43 22 45 23 46
REMARK SMILES IDX 24 47 85 48 25 49 84 50 26 51 27 52 28 53 78 54 29 55 83 56
REMARK SMILES IDX 77 57 79 58 30 59 82 60 76 61 75 62 31 64 63 65 43 66 62 67
REMARK SMILES IDX 44 68 47 69 61 70 80 71 45 72 46 73 60 75 81 76 48 77 32 78
REMARK SMILES IDX 33 79 41 80 34 81 35 82 39 83 42 84 36 85 37 86 40 87 38 88
REMARK SMILES IDX 64 89 65 90 73 91 66 92 67 93 71 94 74 95 68 96 69 97 72 98
REMARK SMILES IDX 70 99 49 100 50 101 58 102 51 103 52 104 56 105 59 106
REMARK SMILES IDX 53 107 54 108 57 109 55 110
REMARK H PARENT 15 5 9 15 92 29 96 34 20 44 79 63 47 74
REMARK Flexibility Score: inf
ROOT
ATOM      1  C   UNL     1       1.514   0.936  -3.201  1.00  0.00     0.116 C 
ENDROOT
BRANCH   1   2
ATOM      2  N   UNL     1       2.871   1.444  -3.039  1.00  0.00    -0.352 N 
ATOM      3  C   UNL     1       3.428   2.489  -2.334  1.00  0.00     0.251 C 
ATOM      4  O   UNL     1       4.660   2.543  -2.306  1.00  0.00    -0.269 OA
ATOM      5  H   UNL     1       3.537   0.925  -3.546  1.00  0.00     0.163 HD
BRANCH   3   6
ATOM      6  C   UNL     1       2.654   3.526  -1.587  1.00  0.00     0.042 A 
ATOM      7  C   UNL     1       0.586   4.463  -0.767  1.00  0.00     0.065 A 
ATOM      8  C   UNL     1       1.276   3.608  -1.617  1.00  0.00     0.042 A 
ATOM      9  C   UNL     1       1.239   5.413   0.047  1.00  0.00     0.061 A 
ATOM     10  C   UNL     1       2.634   5.399   0.012  1.00  0.00     0.029 A 
ATOM     11  C   UNL     1       3.331   4.444  -0.764  1.00  0.00     0.016 A 
BRANCH   7  12
ATOM     12  N   UNL     1      -0.804   4.295  -0.654  1.00  0.00    -0.320 N 
ATOM     13  C   UNL     1      -1.476   3.158  -0.233  1.00  0.00     0.255 C 
ATOM     14  O   UNL     1      -2.683   3.233  -0.002  1.00  0.00    -0.269 OA
ATOM     15  H   UNL     1      -1.361   5.068  -0.900  1.00  0.00     0.170 HD
BRANCH  13  16
ATOM     16  C   UNL     1      -0.788   1.852   0.007  1.00  0.00     0.040 A 
ATOM     17  C   UNL     1       2.576   0.295   0.965  1.00  0.00     0.044 C 
ATOM     18  C   UNL     1       1.131   0.443   0.582  1.00  0.00    -0.050 A 
ATOM     19  C   UNL     1       0.419  -0.677   0.153  1.00  0.00     0.003 A 
ATOM     20  C   UNL     1       0.493   1.695   0.572  1.00  0.00     0.017 A 
ATOM     21  C   UNL     1      -0.893  -0.537  -0.289  1.00  0.00     0.001 A 
ATOM     22  C   UNL     1      -1.492   0.714  -0.379  1.00  0.00     0.014 A 
ENDBRANCH  13  16
ENDBRANCH   7  12
BRANCH   9  23
ATOM     23  N   UNL     1       0.507   6.194   0.923  1.00  0.00    -0.359 N 
ATOM     24  C   UNL     1       0.867   7.543   1.384  1.00  0.00     0.178 C 
ATOM     25  C   UNL     1      -0.310   5.485   1.907  1.00  0.00     0.178 C 
ATOM     26  C   UNL     1      -0.416   8.312   1.870  1.00  0.00     0.284 C 
ATOM     27  C   UNL     1      -1.649   6.230   2.037  1.00  0.00     0.284 C 
ATOM     28  N   UNL     1      -1.493   7.578   2.583  1.00  0.00    -0.324 N 
ATOM     29  H   UNL     1      -2.335   8.119   2.388  1.00  0.00     0.348 HD
BRANCH  28  30
ATOM     30  C   UNL     1      -1.472   7.609   4.057  1.00  0.00     0.363 C 
BRANCH  30  31
ATOM     31  C   UNL     1      -0.363   6.801   4.721  1.00  0.00     0.275 C 
ATOM     32  O   UNL     1       0.782   7.271   4.781  1.00  0.00    -0.268 OA
ATOM     33  N   UNL     1      -0.524   5.560   5.259  1.00  0.00    -0.347 N 
ATOM     34  H   UNL     1       0.295   5.290   5.733  1.00  0.00     0.164 HD
BRANCH  33  35
ATOM     35  C   UNL     1      -1.550   4.481   5.356  1.00  0.00     0.032 C 
ATOM     36  C   UNL     1      -1.396   3.446   4.222  1.00  0.00     0.034 C 
ATOM     37  C   UNL     1      -1.249   3.720   6.667  1.00  0.00     0.034 C 
ATOM     38  C   UNL     1      -3.000   4.965   5.429  1.00  0.00     0.034 C 
ENDBRANCH  33  35
ENDBRANCH  30  31
ENDBRANCH  28  30
ENDBRANCH   9  23
ENDBRANCH   3   6
ENDBRANCH   1   2
BRANCH   1  39
ATOM     39  C   UNL     1       0.715   1.642  -4.310  1.00  0.00     0.023 C 
BRANCH  39  40
ATOM     40  C   UNL     1       1.122   1.243  -5.724  1.00  0.00     0.023 C 
BRANCH  40  41
ATOM     41  C   UNL     1       0.645  -0.147  -6.112  1.00  0.00     0.116 C 
BRANCH  41  42
ATOM     42  N   UNL     1      -0.652  -0.190  -6.772  1.00  0.00    -0.352 N 
ATOM     43  C   UNL     1      -1.420  -1.286  -7.141  1.00  0.00     0.251 C 
ATOM     44  H   UNL     1      -1.042   0.688  -6.989  1.00  0.00     0.163 HD
ATOM     45  O   UNL     1      -2.443  -1.126  -7.782  1.00  0.00    -0.269 OA
BRANCH  43  46
ATOM     46  C   UNL     1      -1.071  -2.638  -6.627  1.00  0.00     0.039 A 
ATOM     47  C   UNL     1      -2.113  -3.440  -6.140  1.00  0.00     0.014 A 
ATOM     48  C   UNL     1       0.250  -3.020  -6.423  1.00  0.00     0.014 A 
ATOM     49  C   UNL     1      -1.828  -4.457  -5.231  1.00  0.00     0.010 A 
ATOM     50  C   UNL     1       0.528  -3.940  -5.435  1.00  0.00     0.010 A 
ATOM     51  C   UNL     1      -0.517  -4.606  -4.790  1.00  0.00    -0.014 A 
BRANCH  51  52
ATOM     52  C   UNL     1      -0.152  -5.294  -3.559  1.00  0.00     0.031 A 
ATOM     53  C   UNL     1       0.630  -6.542  -3.585  1.00  0.00     0.074 A 
ATOM     54  C   UNL     1      -0.373  -4.655  -2.390  1.00  0.00     0.049 A 
ATOM     55  N   UNL     1       0.765  -7.334  -2.576  1.00  0.00    -0.248 NA
ATOM     56  C   UNL     1       1.305  -7.018  -4.782  1.00  0.00     0.031 C 
ATOM     57  C   UNL     1       0.242  -4.922  -1.094  1.00  0.00     0.029 A 
ATOM     58  N   UNL     1      -1.371  -3.708  -2.119  1.00  0.00    -0.354 N 
ATOM     59  C   UNL     1       1.742  -8.251  -2.886  1.00  0.00     0.074 A 
ATOM     60  C   UNL     1       1.999  -8.050  -4.294  1.00  0.00     0.031 C 
ATOM     61  C   UNL     1      -0.531  -4.396  -0.132  1.00  0.00     0.029 A 
ATOM     62  C   UNL     1      -1.741  -3.918  -0.775  1.00  0.00     0.049 A 
ATOM     63  H   UNL     1      -1.737  -3.037  -2.738  1.00  0.00     0.167 HD
ATOM     64  C   UNL     1       2.308  -8.976  -1.876  1.00  0.00     0.037 A 
ATOM     65  C   UNL     1      -3.008  -4.276  -0.422  1.00  0.00     0.037 A 
ATOM     66  C   UNL     1       1.643  -8.700  -0.598  1.00  0.00     0.049 A 
ATOM     67  C   UNL     1      -3.043  -5.586   0.317  1.00  0.00     0.074 A 
ATOM     68  C   UNL     1       1.974  -7.885   0.473  1.00  0.00     0.029 A 
ATOM     69  N   UNL     1       0.304  -9.047  -0.424  1.00  0.00    -0.354 N 
ATOM     70  N   UNL     1      -2.109  -6.491   0.213  1.00  0.00    -0.248 NA
ATOM     71  C   UNL     1      -4.108  -5.974   1.233  1.00  0.00     0.031 C 
ATOM     72  C   UNL     1       0.814  -7.704   1.267  1.00  0.00     0.029 A 
ATOM     73  C   UNL     1      -0.220  -8.426   0.695  1.00  0.00     0.049 A 
ATOM     74  H   UNL     1      -0.199  -9.652  -1.016  1.00  0.00     0.167 HD
ATOM     75  C   UNL     1      -2.413  -7.549   1.024  1.00  0.00     0.074 A 
ATOM     76  C   UNL     1      -3.672  -7.178   1.644  1.00  0.00     0.031 C 
ATOM     77  C   UNL     1      -1.599  -8.642   1.115  1.00  0.00     0.037 A 
BRANCH  64  78
ATOM     78  C   UNL     1       3.645  -9.690  -1.990  1.00  0.00     0.064 A 
ATOM     79  C   UNL     1       4.473  -9.870  -0.859  1.00  0.00     0.173 A 
ATOM     80  C   UNL     1       4.204 -10.162  -3.193  1.00  0.00     0.173 A 
ATOM     81  F   UNL     1       4.042  -9.591   0.378  1.00  0.00    -0.203 F 
ATOM     82  C   UNL     1       5.785 -10.349  -0.950  1.00  0.00     0.198 A 
ATOM     83  C   UNL     1       5.535 -10.584  -3.296  1.00  0.00     0.198 A 
ATOM     84  F   UNL     1       3.464 -10.300  -4.298  1.00  0.00    -0.203 F 
ATOM     85  F   UNL     1       6.522 -10.487   0.162  1.00  0.00    -0.200 F 
ATOM     86  C   UNL     1       6.331 -10.665  -2.175  1.00  0.00     0.200 A 
ATOM     87  F   UNL     1       6.034 -10.918  -4.495  1.00  0.00    -0.200 F 
ATOM     88  F   UNL     1       7.602 -11.079  -2.270  1.00  0.00    -0.200 F 
ENDBRANCH  64  78
BRANCH  65  89
ATOM     89  C   UNL     1      -4.045  -3.761  -1.355  1.00  0.00     0.064 A 
ATOM     90  C   UNL     1      -4.237  -2.367  -1.409  1.00  0.00     0.173 A 
ATOM     91  C   UNL     1      -4.491  -4.516  -2.445  1.00  0.00     0.173 A 
ATOM     92  F   UNL     1      -3.852  -1.602  -0.376  1.00  0.00    -0.203 F 
ATOM     93  C   UNL     1      -4.697  -1.741  -2.565  1.00  0.00     0.198 A 
ATOM     94  C   UNL     1      -4.982  -3.886  -3.593  1.00  0.00     0.198 A 
ATOM     95  F   UNL     1      -4.331  -5.846  -2.458  1.00  0.00    -0.203 F 
ATOM     96  F   UNL     1      -4.716  -0.402  -2.635  1.00  0.00    -0.200 F 
ATOM     97  C   UNL     1      -5.041  -2.501  -3.668  1.00  0.00     0.200 A 
ATOM     98  F   UNL     1      -5.296  -4.619  -4.671  1.00  0.00    -0.200 F 
ATOM     99  F   UNL     1      -5.383  -1.901  -4.817  1.00  0.00    -0.200 F 
ENDBRANCH  65  89
BRANCH  77 100
ATOM    100  C   UNL     1      -1.989  -9.972   1.711  1.00  0.00     0.064 A 
ATOM    101  C   UNL     1      -3.313 -10.439   1.772  1.00  0.00     0.173 A 
ATOM    102  C   UNL     1      -0.998 -10.905   2.100  1.00  0.00     0.173 A 
ATOM    103  F   UNL     1      -4.336  -9.705   1.315  1.00  0.00    -0.203 F 
ATOM    104  C   UNL     1      -3.628 -11.714   2.249  1.00  0.00     0.198 A 
ATOM    105  C   UNL     1      -1.311 -12.197   2.517  1.00  0.00     0.198 A 
ATOM    106  F   UNL     1       0.308 -10.602   2.057  1.00  0.00    -0.203 F 
ATOM    107  F   UNL     1      -4.911 -12.092   2.327  1.00  0.00    -0.200 F 
ATOM    108  C   UNL     1      -2.628 -12.597   2.608  1.00  0.00     0.200 A 
ATOM    109  F   UNL     1      -0.327 -13.060   2.806  1.00  0.00    -0.200 F 
ATOM    110  F   UNL     1      -2.932 -13.836   3.015  1.00  0.00    -0.200 F 
ENDBRANCH  77 100
ENDBRANCH  51  52
ENDBRANCH  43  46
ENDBRANCH  41  42
ENDBRANCH  40  41
ENDBRANCH  39  40
ENDBRANCH   1  39
TORSDOF 17
