REMARK SMILES COc1cc(Cl)ccc1NC(=O)COc1ccccc1C(=O)NCCCCNC(=O)c1ccc(-c2c3nc(c(-c4c(F)c(F)c(F)c(F)c4F)c4ccc([nH]4)c(-c4c(F)c(F)c(F)c(F)c4F)c4nc(c(-c5c(F)c(F)c(F)c(F)c5F)c5ccc2[nH]5)C=C4)C=C3)cc1
REMARK SMILES IDX 24 1 23 2 21 3 22 4 20 6 15 7 16 8 17 9 19 10 18 11 14 12
REMARK SMILES IDX 13 13 11 14 10 15 12 17 9 18 3 19 4 20 5 21 8 22 6 23 7 24
REMARK SMILES IDX 2 25 1 26 25 27 26 28 27 29 28 30 29 31 30 33 31 34 32 35
REMARK SMILES IDX 93 36 33 37 92 38 34 39 35 40 36 41 86 42 37 43 91 44 85 45
REMARK SMILES IDX 87 46 38 47 90 48 84 49 83 50 39 52 71 53 51 54 70 55 52 56
REMARK SMILES IDX 55 57 69 58 88 59 53 60 54 61 68 63 89 64 56 65 40 66 41 67
REMARK SMILES IDX 49 68 42 69 43 70 47 71 50 72 44 73 45 74 48 75 46 76 72 77
REMARK SMILES IDX 73 78 81 79 74 80 75 81 79 82 82 83 76 84 77 85 80 86 78 87
REMARK SMILES IDX 57 88 58 89 66 90 59 91 60 92 64 93 67 94 61 95 62 96 65 97
REMARK SMILES IDX 63 98
REMARK H PARENT 23 5 10 16 28 32 87 51 55 62
REMARK Flexibility Score: inf
ROOT
ATOM      1  C   UNL     1      -1.204   3.868   4.604  1.00  0.00     0.116 C 
ENDROOT
BRANCH   1   2
ATOM      2  N   UNL     1      -1.351   2.644   3.802  1.00  0.00    -0.352 N 
ATOM      3  C   UNL     1      -2.007   1.410   3.826  1.00  0.00     0.255 C 
ATOM      4  O   UNL     1      -1.775   0.478   3.071  1.00  0.00    -0.269 OA
ATOM      5  H   UNL     1      -0.812   2.717   2.981  1.00  0.00     0.163 HD
BRANCH   3   6
ATOM      6  C   UNL     1      -3.171   1.264   4.642  1.00  0.00     0.081 A 
ATOM      7  C   UNL     1      -3.928   2.400   4.764  1.00  0.00     0.132 A 
ATOM      8  C   UNL     1      -4.543   2.545   6.000  1.00  0.00     0.047 A 
ATOM      9  C   UNL     1      -4.571   1.460   6.912  1.00  0.00     0.004 A 
ATOM     10  C   UNL     1      -3.338   0.102   5.392  1.00  0.00     0.018 A 
ATOM     11  C   UNL     1      -4.062   0.206   6.559  1.00  0.00     0.001 A 
BRANCH   7  12
ATOM     12  O   UNL     1      -3.881   3.396   3.815  1.00  0.00    -0.483 OA
BRANCH  12  13
ATOM     13  C   UNL     1      -3.604   3.097   2.428  1.00  0.00     0.329 C 
BRANCH  13  14
ATOM     14  C   UNL     1      -2.549   2.609   1.156  1.00  0.00     0.262 C 
ATOM     15  N   UNL     1      -1.239   2.264   0.909  1.00  0.00    -0.320 N 
ATOM     16  H   UNL     1      -1.225   2.186  -0.072  1.00  0.00     0.170 HD
ATOM     17  O   UNL     1      -3.145   2.697   0.046  1.00  0.00    -0.271 OA
BRANCH  15  18
ATOM     18  C   UNL     1       0.147   1.945   1.267  1.00  0.00     0.084 A 
ATOM     19  C   UNL     1       1.049   1.911   0.190  1.00  0.00     0.143 A 
ATOM     20  C   UNL     1       2.448   1.999   0.333  1.00  0.00     0.069 A 
ATOM     21  C   UNL     1       3.007   1.954   1.597  1.00  0.00     0.044 A 
ATOM     22  C   UNL     1       0.791   1.658   2.481  1.00  0.00     0.031 A 
ATOM     23  Cl  UNL     1       4.701   2.068   1.831  1.00  0.00    -0.084 Cl
ATOM     24  C   UNL     1       2.182   1.710   2.671  1.00  0.00     0.023 A 
BRANCH  19  25
ATOM     25  O   UNL     1       0.557   1.595  -1.061  1.00  0.00    -0.495 OA
ATOM     26  C   UNL     1       0.580   0.153  -1.144  1.00  0.00     0.278 C 
ENDBRANCH  19  25
ENDBRANCH  15  18
ENDBRANCH  13  14
ENDBRANCH  12  13
ENDBRANCH   7  12
ENDBRANCH   3   6
ENDBRANCH   1   2
BRANCH   1  27
ATOM     27  C   UNL     1      -0.109   4.789   4.004  1.00  0.00     0.023 C 
BRANCH  27  28
ATOM     28  C   UNL     1      -0.304   5.333   2.565  1.00  0.00     0.023 C 
BRANCH  28  29
ATOM     29  C   UNL     1      -1.330   6.449   2.361  1.00  0.00     0.116 C 
BRANCH  29  30
ATOM     30  N   UNL     1      -0.905   7.682   2.998  1.00  0.00    -0.352 N 
ATOM     31  C   UNL     1      -0.264   8.788   2.496  1.00  0.00     0.251 C 
ATOM     32  H   UNL     1      -1.115   7.735   3.959  1.00  0.00     0.163 HD
ATOM     33  O   UNL     1       0.289   9.550   3.288  1.00  0.00    -0.269 OA
BRANCH  31  34
ATOM     34  C   UNL     1      -0.224   9.115   1.047  1.00  0.00     0.039 A 
ATOM     35  C   UNL     1       0.923   9.741   0.538  1.00  0.00     0.014 A 
ATOM     36  C   UNL     1      -1.338   8.969   0.216  1.00  0.00     0.014 A 
ATOM     37  C   UNL     1       0.965  10.193  -0.788  1.00  0.00     0.010 A 
ATOM     38  C   UNL     1      -1.279   9.375  -1.125  1.00  0.00     0.010 A 
ATOM     39  C   UNL     1      -0.133  10.004  -1.641  1.00  0.00    -0.014 A 
BRANCH  39  40
ATOM     40  C   UNL     1      -0.106  10.473  -3.057  1.00  0.00     0.031 A 
ATOM     41  C   UNL     1      -1.045  11.556  -3.526  1.00  0.00     0.074 A 
ATOM     42  C   UNL     1       0.726   9.893  -3.945  1.00  0.00     0.049 A 
ATOM     43  N   UNL     1      -1.242  12.023  -4.735  1.00  0.00    -0.248 NA
ATOM     44  C   UNL     1      -1.892  12.181  -2.499  1.00  0.00     0.031 C 
ATOM     45  C   UNL     1       1.670   8.819  -3.638  1.00  0.00     0.029 A 
ATOM     46  N   UNL     1       0.900  10.112  -5.291  1.00  0.00    -0.354 N 
ATOM     47  C   UNL     1      -2.251  12.972  -4.619  1.00  0.00     0.074 A 
ATOM     48  C   UNL     1      -2.651  12.988  -3.227  1.00  0.00     0.031 C 
ATOM     49  C   UNL     1       2.331   8.481  -4.757  1.00  0.00     0.029 A 
ATOM     50  C   UNL     1       1.833   9.285  -5.869  1.00  0.00     0.049 A 
ATOM     51  H   UNL     1       0.403  10.798  -5.794  1.00  0.00     0.167 HD
ATOM     52  C   UNL     1      -2.784  13.769  -5.578  1.00  0.00     0.037 A 
ATOM     53  C   UNL     1       2.232   9.175  -7.151  1.00  0.00     0.037 A 
ATOM     54  C   UNL     1      -2.364  13.781  -6.956  1.00  0.00     0.049 A 
ATOM     55  C   UNL     1       1.622  10.068  -8.198  1.00  0.00     0.074 A 
ATOM     56  C   UNL     1      -2.802  14.596  -7.987  1.00  0.00     0.029 A 
ATOM     57  N   UNL     1      -1.403  12.939  -7.496  1.00  0.00    -0.354 N 
ATOM     58  N   UNL     1       0.704  10.993  -8.064  1.00  0.00    -0.248 NA
ATOM     59  C   UNL     1       2.108   9.901  -9.576  1.00  0.00     0.031 C 
ATOM     60  C   UNL     1      -2.135  14.220  -9.158  1.00  0.00     0.029 A 
ATOM     61  C   UNL     1      -1.249  13.201  -8.848  1.00  0.00     0.049 A 
ATOM     62  H   UNL     1      -0.905  12.255  -6.993  1.00  0.00     0.167 HD
ATOM     63  C   UNL     1       0.520  11.535  -9.329  1.00  0.00     0.074 A 
ATOM     64  C   UNL     1       1.433  10.845 -10.217  1.00  0.00     0.031 C 
ATOM     65  C   UNL     1      -0.331  12.514  -9.720  1.00  0.00     0.037 A 
BRANCH  52  66
ATOM     66  C   UNL     1      -3.890  14.702  -5.171  1.00  0.00     0.064 A 
ATOM     67  C   UNL     1      -3.649  15.819  -4.356  1.00  0.00     0.173 A 
ATOM     68  C   UNL     1      -5.201  14.499  -5.630  1.00  0.00     0.173 A 
ATOM     69  F   UNL     1      -2.415  16.057  -3.886  1.00  0.00    -0.203 F 
ATOM     70  C   UNL     1      -4.683  16.676  -3.988  1.00  0.00     0.198 A 
ATOM     71  C   UNL     1      -6.227  15.376  -5.285  1.00  0.00     0.198 A 
ATOM     72  F   UNL     1      -5.487  13.455  -6.422  1.00  0.00    -0.203 F 
ATOM     73  F   UNL     1      -4.437  17.707  -3.167  1.00  0.00    -0.200 F 
ATOM     74  C   UNL     1      -5.970  16.457  -4.457  1.00  0.00     0.200 A 
ATOM     75  F   UNL     1      -7.467  15.172  -5.751  1.00  0.00    -0.200 F 
ATOM     76  F   UNL     1      -6.963  17.285  -4.104  1.00  0.00    -0.200 F 
ENDBRANCH  52  66
BRANCH  53  77
ATOM     77  C   UNL     1       3.283   8.189  -7.517  1.00  0.00     0.064 A 
ATOM     78  C   UNL     1       4.563   8.615  -7.900  1.00  0.00     0.173 A 
ATOM     79  C   UNL     1       3.033   6.809  -7.497  1.00  0.00     0.173 A 
ATOM     80  F   UNL     1       4.842   9.925  -7.959  1.00  0.00    -0.203 F 
ATOM     81  C   UNL     1       5.547   7.699  -8.264  1.00  0.00     0.198 A 
ATOM     82  C   UNL     1       4.027   5.893  -7.835  1.00  0.00     0.198 A 
ATOM     83  F   UNL     1       1.825   6.351  -7.138  1.00  0.00    -0.203 F 
ATOM     84  F   UNL     1       6.748   8.135  -8.668  1.00  0.00    -0.200 F 
ATOM     85  C   UNL     1       5.281   6.339  -8.225  1.00  0.00     0.200 A 
ATOM     86  F   UNL     1       3.770   4.579  -7.785  1.00  0.00    -0.200 F 
ATOM     87  F   UNL     1       6.230   5.458  -8.571  1.00  0.00    -0.200 F 
ENDBRANCH  53  77
BRANCH  65  88
ATOM     88  C   UNL     1      -0.294  12.924 -11.164  1.00  0.00     0.064 A 
ATOM     89  C   UNL     1      -0.818  12.105 -12.174  1.00  0.00     0.173 A 
ATOM     90  C   UNL     1       0.237  14.169 -11.536  1.00  0.00     0.173 A 
ATOM     91  F   UNL     1      -1.321  10.899 -11.872  1.00  0.00    -0.203 F 
ATOM     92  C   UNL     1      -0.793  12.508 -13.507  1.00  0.00     0.198 A 
ATOM     93  C   UNL     1       0.235  14.580 -12.866  1.00  0.00     0.198 A 
ATOM     94  F   UNL     1       0.746  14.992 -10.607  1.00  0.00    -0.203 F 
ATOM     95  F   UNL     1      -1.260  11.691 -14.461  1.00  0.00    -0.200 F 
ATOM     96  C   UNL     1      -0.274  13.747 -13.851  1.00  0.00     0.200 A 
ATOM     97  F   UNL     1       0.727  15.783 -13.194  1.00  0.00    -0.200 F 
ATOM     98  F   UNL     1      -0.257  14.136 -15.133  1.00  0.00    -0.200 F 
ENDBRANCH  65  88
ENDBRANCH  39  40
ENDBRANCH  31  34
ENDBRANCH  29  30
ENDBRANCH  28  29
ENDBRANCH  27  28
ENDBRANCH   1  27
TORSDOF 16
