REMARK SMILES Cc1cc(N(C)C[C@H]2C[C@@H]2C)cc(C(=O)NCCCCNC(=O)c2ccc(-c3c4nc(c(-c5c(F)c(F)c(F)c(F)c5F)c5ccc([nH]5)c(-c5c(F)c(F)c(F)c(F)c5F)c5nc(c(-c6c(F)c(F)c(F)c(F)c6F)c6ccc3[nH]6)C=C5)C=C4)cc2)c1N
REMARK SMILES IDX 18 1 17 2 16 3 14 4 15 5 13 7 1 8 2 9 3 10 87 11 4 12 12 13
REMARK SMILES IDX 88 14 5 17 6 18 7 19 8 20 9 21 10 22 11 23 19 24 20 25 21 26
REMARK SMILES IDX 22 27 23 29 24 30 25 31 86 32 26 33 85 34 27 35 28 36 29 37
REMARK SMILES IDX 79 38 30 39 84 40 78 41 80 42 31 43 83 44 77 45 76 46 32 48
REMARK SMILES IDX 64 49 44 50 63 51 45 52 48 53 62 54 81 55 46 56 47 57 61 59
REMARK SMILES IDX 82 60 49 61 33 62 34 63 42 64 35 65 36 66 40 67 43 68 37 69
REMARK SMILES IDX 38 70 41 71 39 72 65 73 66 74 74 75 67 76 68 77 72 78 75 79
REMARK SMILES IDX 69 80 70 81 73 82 71 83 50 84 51 85 59 86 52 87 53 88 57 89
REMARK SMILES IDX 60 90 54 91 55 92 58 93 56 94
REMARK H PARENT 16 6 88 15 88 16 21 28 80 47 48 58
REMARK Flexibility Score: inf
ROOT
ATOM      1  C   UNL     1      -4.085  -3.403   2.162  1.00  0.00     0.023 C 
ENDROOT
BRANCH   1   2
ATOM      2  C   UNL     1      -3.007  -3.256   1.084  1.00  0.00     0.116 C 
BRANCH   2   3
ATOM      3  N   UNL     1      -3.589  -3.385  -0.234  1.00  0.00    -0.352 N 
ATOM      4  C   UNL     1      -4.123  -2.491  -1.131  1.00  0.00     0.253 C 
ATOM      5  O   UNL     1      -4.580  -3.005  -2.158  1.00  0.00    -0.269 OA
ATOM      6  H   UNL     1      -3.607  -4.314  -0.559  1.00  0.00     0.163 HD
BRANCH   4   7
ATOM      7  C   UNL     1      -4.160  -0.993  -0.960  1.00  0.00     0.065 A 
ATOM      8  C   UNL     1      -4.657   2.131  -3.118  1.00  0.00     0.046 C 
ATOM      9  C   UNL     1      -4.444   1.208  -1.948  1.00  0.00    -0.025 A 
ATOM     10  C   UNL     1      -4.284   1.777  -0.672  1.00  0.00     0.031 A 
ATOM     11  C   UNL     1      -4.373  -0.186  -2.106  1.00  0.00     0.047 A 
ATOM     12  C   UNL     1      -3.972   1.030   0.468  1.00  0.00     0.038 A 
ATOM     13  C   UNL     1      -4.030  -0.362   0.295  1.00  0.00     0.042 A 
BRANCH  11  14
ATOM     14  N   UNL     1      -4.363  -0.724  -3.398  1.00  0.00    -0.398 N 
ATOM     15  H   UNL     1      -4.514  -0.139  -4.175  1.00  0.00     0.156 HD
ATOM     16  H   UNL     1      -4.205  -1.686  -3.529  1.00  0.00     0.156 HD
ENDBRANCH  11  14
BRANCH  12  17
ATOM     17  N   UNL     1      -3.589   1.627   1.665  1.00  0.00    -0.374 N 
ATOM     18  C   UNL     1      -3.204   0.852   2.843  1.00  0.00     0.143 C 
BRANCH  17  19
ATOM     19  C   UNL     1      -3.504   3.088   1.832  1.00  0.00     0.120 C 
BRANCH  19  20
ATOM     20  C   UNL     1      -2.377   3.689   1.032  1.00  0.00     0.011 C 
ATOM     21  C   UNL     1      -1.491   4.766   1.614  1.00  0.00     0.009 C 
ATOM     22  C   UNL     1      -0.927   3.397   1.335  1.00  0.00    -0.009 C 
ATOM     23  C   UNL     1       0.015   3.178   0.198  1.00  0.00     0.008 C 
ENDBRANCH  19  20
ENDBRANCH  17  19
ENDBRANCH  12  17
ENDBRANCH   4   7
ENDBRANCH   2   3
ENDBRANCH   1   2
BRANCH   1  24
ATOM     24  C   UNL     1      -4.520  -4.848   2.426  1.00  0.00     0.023 C 
BRANCH  24  25
ATOM     25  C   UNL     1      -3.426  -5.760   2.971  1.00  0.00     0.116 C 
BRANCH  25  26
ATOM     26  N   UNL     1      -2.831  -5.274   4.207  1.00  0.00    -0.352 N 
ATOM     27  C   UNL     1      -2.276  -6.005   5.232  1.00  0.00     0.251 C 
ATOM     28  H   UNL     1      -2.824  -4.297   4.324  1.00  0.00     0.163 HD
ATOM     29  O   UNL     1      -1.891  -5.461   6.254  1.00  0.00    -0.269 OA
BRANCH  27  30
ATOM     30  C   UNL     1      -2.203  -7.474   5.095  1.00  0.00     0.039 A 
ATOM     31  C   UNL     1      -2.760  -8.268   6.098  1.00  0.00     0.014 A 
ATOM     32  C   UNL     1      -1.647  -8.054   3.952  1.00  0.00     0.014 A 
ATOM     33  C   UNL     1      -2.836  -9.650   5.917  1.00  0.00     0.010 A 
ATOM     34  C   UNL     1      -1.778  -9.423   3.745  1.00  0.00     0.010 A 
ATOM     35  C   UNL     1      -2.386 -10.230   4.720  1.00  0.00    -0.014 A 
BRANCH  35  36
ATOM     36  C   UNL     1      -2.574 -11.676   4.452  1.00  0.00     0.031 A 
ATOM     37  C   UNL     1      -1.384 -12.581   4.320  1.00  0.00     0.074 A 
ATOM     38  C   UNL     1      -3.816 -12.152   4.243  1.00  0.00     0.049 A 
ATOM     39  N   UNL     1      -1.342 -13.852   4.013  1.00  0.00    -0.248 NA
ATOM     40  C   UNL     1      -0.064 -11.969   4.535  1.00  0.00     0.031 C 
ATOM     41  C   UNL     1      -5.045 -11.357   4.285  1.00  0.00     0.029 A 
ATOM     42  N   UNL     1      -4.249 -13.418   3.938  1.00  0.00    -0.354 N 
ATOM     43  C   UNL     1       0.004 -14.187   3.981  1.00  0.00     0.074 A 
ATOM     44  C   UNL     1       0.749 -12.976   4.253  1.00  0.00     0.031 C 
ATOM     45  C   UNL     1      -6.094 -12.156   4.035  1.00  0.00     0.029 A 
ATOM     46  C   UNL     1      -5.611 -13.511   3.783  1.00  0.00     0.049 A 
ATOM     47  H   UNL     1      -3.642 -14.187   3.840  1.00  0.00     0.167 HD
ATOM     48  C   UNL     1       0.566 -15.400   3.765  1.00  0.00     0.037 A 
ATOM     49  C   UNL     1      -6.381 -14.569   3.468  1.00  0.00     0.037 A 
ATOM     50  C   UNL     1      -0.180 -16.606   3.521  1.00  0.00     0.049 A 
ATOM     51  C   UNL     1      -5.733 -15.908   3.248  1.00  0.00     0.074 A 
ATOM     52  C   UNL     1       0.293 -17.896   3.357  1.00  0.00     0.029 A 
ATOM     53  N   UNL     1      -1.561 -16.668   3.404  1.00  0.00    -0.354 N 
ATOM     54  N   UNL     1      -4.463 -16.230   3.294  1.00  0.00    -0.248 NA
ATOM     55  C   UNL     1      -6.627 -17.033   2.939  1.00  0.00     0.031 C 
ATOM     56  C   UNL     1      -0.799 -18.733   3.103  1.00  0.00     0.029 A 
ATOM     57  C   UNL     1      -1.956 -17.973   3.152  1.00  0.00     0.049 A 
ATOM     58  H   UNL     1      -2.170 -15.899   3.487  1.00  0.00     0.167 HD
ATOM     59  C   UNL     1      -4.406 -17.594   3.048  1.00  0.00     0.074 A 
ATOM     60  C   UNL     1      -5.771 -18.043   2.864  1.00  0.00     0.031 C 
ATOM     61  C   UNL     1      -3.320 -18.402   2.981  1.00  0.00     0.037 A 
BRANCH  48  62
ATOM     62  C   UNL     1       2.064 -15.481   3.789  1.00  0.00     0.064 A 
ATOM     63  C   UNL     1       2.786 -15.343   4.984  1.00  0.00     0.173 A 
ATOM     64  C   UNL     1       2.784 -15.723   2.611  1.00  0.00     0.173 A 
ATOM     65  F   UNL     1       2.144 -15.097   6.137  1.00  0.00    -0.203 F 
ATOM     66  C   UNL     1       4.176 -15.416   4.994  1.00  0.00     0.198 A 
ATOM     67  C   UNL     1       4.173 -15.824   2.628  1.00  0.00     0.198 A 
ATOM     68  F   UNL     1       2.141 -15.867   1.442  1.00  0.00    -0.203 F 
ATOM     69  F   UNL     1       4.848 -15.231   6.139  1.00  0.00    -0.200 F 
ATOM     70  C   UNL     1       4.868 -15.662   3.817  1.00  0.00     0.200 A 
ATOM     71  F   UNL     1       4.840 -16.072   1.492  1.00  0.00    -0.200 F 
ATOM     72  F   UNL     1       6.206 -15.735   3.828  1.00  0.00    -0.200 F 
ENDBRANCH  48  62
BRANCH  49  73
ATOM     73  C   UNL     1      -7.854 -14.410   3.378  1.00  0.00     0.064 A 
ATOM     74  C   UNL     1      -8.694 -14.954   4.359  1.00  0.00     0.173 A 
ATOM     75  C   UNL     1      -8.451 -13.708   2.322  1.00  0.00     0.173 A 
ATOM     76  F   UNL     1      -8.169 -15.650   5.379  1.00  0.00    -0.203 F 
ATOM     77  C   UNL     1     -10.078 -14.817   4.279  1.00  0.00     0.198 A 
ATOM     78  C   UNL     1      -9.834 -13.550   2.255  1.00  0.00     0.198 A 
ATOM     79  F   UNL     1      -7.690 -13.164   1.362  1.00  0.00    -0.203 F 
ATOM     80  F   UNL     1     -10.860 -15.380   5.210  1.00  0.00    -0.200 F 
ATOM     81  C   UNL     1     -10.647 -14.110   3.230  1.00  0.00     0.200 A 
ATOM     82  F   UNL     1     -10.379 -12.856   1.247  1.00  0.00    -0.200 F 
ATOM     83  F   UNL     1     -11.977 -13.974   3.155  1.00  0.00    -0.200 F 
ENDBRANCH  49  73
BRANCH  61  84
ATOM     84  C   UNL     1      -3.565 -19.860   2.730  1.00  0.00     0.064 A 
ATOM     85  C   UNL     1      -3.946 -20.334   1.466  1.00  0.00     0.173 A 
ATOM     86  C   UNL     1      -3.374 -20.798   3.756  1.00  0.00     0.173 A 
ATOM     87  F   UNL     1      -4.157 -19.475   0.458  1.00  0.00    -0.203 F 
ATOM     88  C   UNL     1      -4.147 -21.694   1.245  1.00  0.00     0.198 A 
ATOM     89  C   UNL     1      -3.550 -22.158   3.524  1.00  0.00     0.198 A 
ATOM     90  F   UNL     1      -3.004 -20.393   4.981  1.00  0.00    -0.203 F 
ATOM     91  F   UNL     1      -4.551 -22.122   0.041  1.00  0.00    -0.200 F 
ATOM     92  C   UNL     1      -3.942 -22.605   2.271  1.00  0.00     0.200 A 
ATOM     93  F   UNL     1      -3.341 -23.038   4.513  1.00  0.00    -0.200 F 
ATOM     94  F   UNL     1      -4.129 -23.914   2.054  1.00  0.00    -0.200 F 
ENDBRANCH  61  84
ENDBRANCH  35  36
ENDBRANCH  27  30
ENDBRANCH  25  26
ENDBRANCH  24  25
ENDBRANCH   1  24
TORSDOF 15
