REMARK SMILES CC(C)(C)c1noc(C[N@@H+]2CCO[C@@H](CC(=O)NCCCCNC(=O)c3ccc(-c4c5nc(c(-c6c(F)c(F)c(F)c(F)c6F)c6ccc([nH]6)c(-c6c(F)c(F)c(F)c(F)c6F)c6nc(c(-c7c(F)c(F)c(F)c(F)c7F)c7ccc4[nH]7)C=C6)C=C5)cc3)C2)n1
REMARK SMILES IDX 19 1 18 2 16 3 17 4 15 6 14 7 10 8 11 9 89 10 12 12 13 13
REMARK SMILES IDX 9 14 8 15 5 16 6 17 90 18 7 19 2 20 1 21 3 22 4 23 20 24
REMARK SMILES IDX 21 25 22 26 23 27 24 28 25 30 26 31 27 32 88 33 28 34 87 35
REMARK SMILES IDX 29 36 30 37 31 38 81 39 32 40 86 41 80 42 82 43 33 44 85 45
REMARK SMILES IDX 79 46 78 47 34 49 66 50 46 51 65 52 47 53 50 54 64 55 83 56
REMARK SMILES IDX 48 57 49 58 63 60 84 61 51 62 35 63 36 64 44 65 37 66 38 67
REMARK SMILES IDX 42 68 45 69 39 70 40 71 43 72 41 73 67 74 68 75 76 76 69 77
REMARK SMILES IDX 70 78 74 79 77 80 71 81 72 82 75 83 73 84 52 85 53 86 61 87
REMARK SMILES IDX 54 88 55 89 59 90 62 91 56 92 57 93 60 94 58 95
REMARK H PARENT 18 5 10 11 23 29 82 48 50 59
REMARK Flexibility Score: inf
ROOT
ATOM      1  C   UNL     1       5.972   1.173  -4.029  1.00  0.00     0.116 C 
ENDROOT
BRANCH   1   2
ATOM      2  N   UNL     1       5.411   1.046  -2.694  1.00  0.00    -0.356 N 
ATOM      3  C   UNL     1       5.192  -0.057  -1.917  1.00  0.00     0.222 C 
ATOM      4  O   UNL     1       4.685   0.113  -0.807  1.00  0.00    -0.275 OA
ATOM      5  H   UNL     1       5.144   1.899  -2.279  1.00  0.00     0.163 HD
BRANCH   3   6
ATOM      6  C   UNL     1       5.542  -1.451  -2.407  1.00  0.00     0.138 C 
BRANCH   6   7
ATOM      7  C   UNL     1       4.357  -2.159  -3.077  1.00  0.00     0.182 C 
ATOM      8  N   UNL     1       3.035  -2.052  -5.306  1.00  0.00    -0.323 N 
ATOM      9  C   UNL     1       3.280  -3.492  -5.392  1.00  0.00     0.291 C 
ATOM     10  C   UNL     1       3.936  -1.408  -4.350  1.00  0.00     0.295 C 
ATOM     11  H   UNL     1       3.269  -1.704  -6.236  1.00  0.00     0.348 HD
ATOM     12  C   UNL     1       3.647  -4.173  -4.063  1.00  0.00     0.222 C 
ATOM     13  O   UNL     1       4.739  -3.502  -3.414  1.00  0.00    -0.366 OA
BRANCH   8  14
ATOM     14  C   UNL     1       1.635  -1.624  -5.188  1.00  0.00     0.364 C 
BRANCH  14  15
ATOM     15  C   UNL     1       1.016  -1.805  -3.851  1.00  0.00     0.281 A 
ATOM     16  C   UNL     1       0.403  -1.770  -1.853  1.00  0.00     0.177 A 
ATOM     17  N   UNL     1      -0.080  -2.937  -2.312  1.00  0.00    -0.062 NA
ATOM     18  N   UNL     1       1.082  -1.032  -2.789  1.00  0.00    -0.190 NA
ATOM     19  O   UNL     1       0.326  -2.958  -3.643  1.00  0.00    -0.333 OA
BRANCH  16  20
ATOM     20  C   UNL     1       0.214  -1.326  -0.426  1.00  0.00     0.025 C 
ATOM     21  C   UNL     1       0.867   0.046  -0.165  1.00  0.00     0.019 C 
ATOM     22  C   UNL     1       0.855  -2.348   0.532  1.00  0.00     0.019 C 
ATOM     23  C   UNL     1      -1.291  -1.207  -0.117  1.00  0.00     0.019 C 
ENDBRANCH  16  20
ENDBRANCH  14  15
ENDBRANCH   8  14
ENDBRANCH   6   7
ENDBRANCH   3   6
ENDBRANCH   1   2
BRANCH   1  24
ATOM     24  C   UNL     1       4.905   1.532  -5.072  1.00  0.00     0.023 C 
BRANCH  24  25
ATOM     25  C   UNL     1       4.627   3.011  -5.252  1.00  0.00     0.023 C 
BRANCH  25  26
ATOM     26  C   UNL     1       5.763   3.774  -5.896  1.00  0.00     0.116 C 
BRANCH  26  27
ATOM     27  N   UNL     1       6.124   3.279  -7.219  1.00  0.00    -0.352 N 
ATOM     28  C   UNL     1       6.410   4.001  -8.356  1.00  0.00     0.251 C 
ATOM     29  H   UNL     1       6.170   2.300  -7.311  1.00  0.00     0.163 HD
ATOM     30  O   UNL     1       6.609   3.445  -9.422  1.00  0.00    -0.269 OA
BRANCH  28  31
ATOM     31  C   UNL     1       6.419   5.475  -8.263  1.00  0.00     0.039 A 
ATOM     32  C   UNL     1       5.701   6.217  -9.201  1.00  0.00     0.014 A 
ATOM     33  C   UNL     1       7.050   6.104  -7.188  1.00  0.00     0.014 A 
ATOM     34  C   UNL     1       5.547   7.590  -9.010  1.00  0.00     0.010 A 
ATOM     35  C   UNL     1       6.790   7.440  -6.933  1.00  0.00     0.010 A 
ATOM     36  C   UNL     1       6.051   8.201  -7.850  1.00  0.00    -0.014 A 
BRANCH  36  37
ATOM     37  C   UNL     1       5.851   9.646  -7.586  1.00  0.00     0.031 A 
ATOM     38  C   UNL     1       7.048  10.546  -7.457  1.00  0.00     0.074 A 
ATOM     39  C   UNL     1       4.608  10.127  -7.390  1.00  0.00     0.049 A 
ATOM     40  N   UNL     1       7.100  11.818  -7.157  1.00  0.00    -0.248 NA
ATOM     41  C   UNL     1       8.370   9.923  -7.645  1.00  0.00     0.031 C 
ATOM     42  C   UNL     1       3.377   9.335  -7.414  1.00  0.00     0.029 A 
ATOM     43  N   UNL     1       4.177  11.402  -7.126  1.00  0.00    -0.354 N 
ATOM     44  C   UNL     1       8.450  12.134  -7.096  1.00  0.00     0.074 A 
ATOM     45  C   UNL     1       9.186  10.910  -7.316  1.00  0.00     0.031 C 
ATOM     46  C   UNL     1       2.327  10.148  -7.212  1.00  0.00     0.029 A 
ATOM     47  C   UNL     1       2.812  11.510  -7.013  1.00  0.00     0.049 A 
ATOM     48  H   UNL     1       4.787  12.168  -7.026  1.00  0.00     0.167 HD
ATOM     49  C   UNL     1       9.027  13.344  -6.913  1.00  0.00     0.037 A 
ATOM     50  C   UNL     1       2.044  12.591  -6.782  1.00  0.00     0.037 A 
ATOM     51  C   UNL     1       8.288  14.565  -6.750  1.00  0.00     0.049 A 
ATOM     52  C   UNL     1       2.707  13.933  -6.622  1.00  0.00     0.074 A 
ATOM     53  C   UNL     1       8.768  15.857  -6.635  1.00  0.00     0.029 A 
ATOM     54  N   UNL     1       6.904  14.642  -6.687  1.00  0.00    -0.354 N 
ATOM     55  N   UNL     1       3.982  14.234  -6.648  1.00  0.00    -0.248 NA
ATOM     56  C   UNL     1       1.822  15.086  -6.412  1.00  0.00     0.031 C 
ATOM     57  C   UNL     1       7.675  16.713  -6.466  1.00  0.00     0.029 A 
ATOM     58  C   UNL     1       6.512  15.960  -6.521  1.00  0.00     0.049 A 
ATOM     59  H   UNL     1       6.291  13.874  -6.751  1.00  0.00     0.167 HD
ATOM     60  C   UNL     1       4.053  15.610  -6.486  1.00  0.00     0.074 A 
ATOM     61  C   UNL     1       2.690  16.088  -6.379  1.00  0.00     0.031 C 
ATOM     62  C   UNL     1       5.147  16.409  -6.429  1.00  0.00     0.037 A 
BRANCH  49  63
ATOM     63  C   UNL     1      10.526  13.401  -6.901  1.00  0.00     0.064 A 
ATOM     64  C   UNL     1      11.280  13.168  -8.063  1.00  0.00     0.173 A 
ATOM     65  C   UNL     1      11.219  13.706  -5.721  1.00  0.00     0.173 A 
ATOM     66  F   UNL     1      10.667  12.855  -9.214  1.00  0.00    -0.203 F 
ATOM     67  C   UNL     1      12.671  13.205  -8.034  1.00  0.00     0.198 A 
ATOM     68  C   UNL     1      12.610  13.774  -5.703  1.00  0.00     0.198 A 
ATOM     69  F   UNL     1      10.548  13.938  -4.583  1.00  0.00    -0.203 F 
ATOM     70  F   UNL     1      13.370  12.921  -9.142  1.00  0.00    -0.200 F 
ATOM     71  C   UNL     1      13.335  13.514  -6.857  1.00  0.00     0.200 A 
ATOM     72  F   UNL     1      13.250  14.083  -4.567  1.00  0.00    -0.200 F 
ATOM     73  F   UNL     1      14.674  13.553  -6.832  1.00  0.00    -0.200 F 
ENDBRANCH  49  63
BRANCH  50  74
ATOM     74  C   UNL     1       0.565  12.458  -6.738  1.00  0.00     0.064 A 
ATOM     75  C   UNL     1      -0.233  12.983  -7.764  1.00  0.00     0.173 A 
ATOM     76  C   UNL     1      -0.082  11.808  -5.677  1.00  0.00     0.173 A 
ATOM     77  F   UNL     1       0.338  13.629  -8.792  1.00  0.00    -0.203 F 
ATOM     78  C   UNL     1      -1.622  12.882  -7.721  1.00  0.00     0.198 A 
ATOM     79  C   UNL     1      -1.470  11.684  -5.648  1.00  0.00     0.198 A 
ATOM     80  F   UNL     1       0.636  11.281  -4.674  1.00  0.00    -0.203 F 
ATOM     81  F   UNL     1      -2.362  13.432  -8.694  1.00  0.00    -0.200 F 
ATOM     82  C   UNL     1      -2.239  12.229  -6.665  1.00  0.00     0.200 A 
ATOM     83  F   UNL     1      -2.062  11.040  -4.633  1.00  0.00    -0.200 F 
ATOM     84  F   UNL     1      -3.575  12.130  -6.625  1.00  0.00    -0.200 F 
ENDBRANCH  50  74
BRANCH  62  85
ATOM     85  C   UNL     1       4.913  17.882  -6.278  1.00  0.00     0.064 A 
ATOM     86  C   UNL     1       4.478  18.436  -5.065  1.00  0.00     0.173 A 
ATOM     87  C   UNL     1       5.174  18.754  -7.346  1.00  0.00     0.173 A 
ATOM     88  F   UNL     1       4.203  17.640  -4.021  1.00  0.00    -0.203 F 
ATOM     89  C   UNL     1       4.290  19.808  -4.935  1.00  0.00     0.198 A 
ATOM     90  C   UNL     1       5.013  20.128  -7.202  1.00  0.00     0.198 A 
ATOM     91  F   UNL     1       5.600  18.273  -8.523  1.00  0.00    -0.203 F 
ATOM     92  F   UNL     1       3.831  20.312  -3.781  1.00  0.00    -0.200 F 
ATOM     93  C   UNL     1       4.565  20.654  -6.000  1.00  0.00     0.200 A 
ATOM     94  F   UNL     1       5.293  20.945  -8.227  1.00  0.00    -0.200 F 
ATOM     95  F   UNL     1       4.391  21.976  -5.869  1.00  0.00    -0.200 F 
ENDBRANCH  62  85
ENDBRANCH  36  37
ENDBRANCH  28  31
ENDBRANCH  26  27
ENDBRANCH  25  26
ENDBRANCH  24  25
ENDBRANCH   1  24
TORSDOF 15
