REMARK SMILES COc1cc(C[N@H+]2CCC[C@@](O)(CO)C2)cc(Cl)c1OCC(=O)NCCCCNC(=O)c1ccc(-c2c3nc(c(-c4c(F)c(F)c(F)c(F)c4F)c4ccc([nH]4)c(-c4c(F)c(F)c(F)c(F)c4F)c4nc(c(-c5c(F)c(F)c(F)c(F)c5F)c5ccc2[nH]5)C=C4)C=C3)cc1
REMARK SMILES IDX 22 1 23 2 24 3 21 5 20 6 19 7 3 8 4 9 5 10 17 11 16 12 18 13
REMARK SMILES IDX 2 14 1 15 6 16 7 17 8 18 15 19 9 21 11 22 10 23 13 24 14 25
REMARK SMILES IDX 12 27 25 29 26 30 27 31 28 32 29 33 30 34 31 36 32 37 33 38
REMARK SMILES IDX 94 39 34 40 93 41 35 42 36 43 37 44 87 45 38 46 92 47 86 48
REMARK SMILES IDX 88 49 39 50 91 51 85 52 84 53 40 55 72 56 52 57 71 58 53 59
REMARK SMILES IDX 56 60 70 61 89 62 54 63 55 64 69 66 90 67 57 68 41 69 42 70
REMARK SMILES IDX 50 71 43 72 44 73 48 74 51 75 45 76 46 77 49 78 47 79 73 80
REMARK SMILES IDX 74 81 82 82 75 83 76 84 80 85 83 86 77 87 78 88 81 89 79 90
REMARK SMILES IDX 58 91 59 92 67 93 60 94 61 95 65 96 68 97 62 98 63 99 66 100
REMARK SMILES IDX 64 101
REMARK H PARENT 24 4 7 20 14 26 12 28 29 35 88 54 56 65
REMARK Flexibility Score: inf
ROOT
ATOM      1  C   UNL     1      -3.168   1.042   4.656  1.00  0.00     0.257 C 
ATOM      2  O   UNL     1      -3.415   1.062   5.864  1.00  0.00    -0.271 OA
ATOM      3  N   UNL     1      -3.284  -0.158   4.021  1.00  0.00    -0.353 N 
ATOM      4  H   UNL     1      -3.401  -0.938   4.609  1.00  0.00     0.163 HD
ENDROOT
BRANCH   1   5
ATOM      5  C   UNL     1      -2.833   2.320   3.868  1.00  0.00     0.329 C 
BRANCH   5   6
ATOM      6  O   UNL     1      -1.701   2.372   3.026  1.00  0.00    -0.478 OA
BRANCH   6   7
ATOM      7  C   UNL     1      -0.421   2.239   3.482  1.00  0.00     0.180 A 
ATOM      8  C   UNL     1       0.521   2.089   2.443  1.00  0.00     0.162 A 
ATOM      9  C   UNL     1       1.880   1.877   2.701  1.00  0.00     0.060 A 
ATOM     10  C   UNL     1       2.325   1.658   4.001  1.00  0.00     0.012 A 
ATOM     11  C   UNL     1       0.075   2.239   4.790  1.00  0.00     0.087 A 
ATOM     12  C   UNL     1       1.419   1.903   5.040  1.00  0.00     0.034 A 
ATOM     13  Cl  UNL     1      -0.808   2.717   6.191  1.00  0.00    -0.080 Cl
BRANCH   8  14
ATOM     14  O   UNL     1       0.110   2.234   1.136  1.00  0.00    -0.493 OA
ATOM     15  C   UNL     1       0.103   0.990   0.438  1.00  0.00     0.278 C 
ENDBRANCH   8  14
BRANCH  10  16
ATOM     16  C   UNL     1       3.712   1.135   4.304  1.00  0.00     0.299 C 
BRANCH  16  17
ATOM     17  N   UNL     1       3.885  -0.317   4.315  1.00  0.00    -0.329 N 
ATOM     18  C   UNL     1       2.808  -1.177   4.773  1.00  0.00     0.262 C 
ATOM     19  C   UNL     1       4.652  -0.954   3.255  1.00  0.00     0.300 C 
ATOM     20  H   UNL     1       4.515  -0.246   5.113  1.00  0.00     0.348 HD
ATOM     21  C   UNL     1       1.821  -1.525   3.662  1.00  0.00     0.065 C 
ATOM     22  C   UNL     1       3.870  -1.423   2.001  1.00  0.00     0.136 C 
ATOM     23  C   UNL     1       2.453  -1.958   2.331  1.00  0.00     0.049 C 
BRANCH  22  24
ATOM     24  C   UNL     1       3.835  -0.400   0.843  1.00  0.00     0.197 C 
BRANCH  24  25
ATOM     25  O   UNL     1       5.009   0.405   0.775  1.00  0.00    -0.393 OA
ATOM     26  H   UNL     1       5.095   0.921   1.591  1.00  0.00     0.210 HD
ENDBRANCH  24  25
ENDBRANCH  22  24
BRANCH  22  27
ATOM     27  O   UNL     1       4.594  -2.563   1.466  1.00  0.00    -0.382 OA
ATOM     28  H   UNL     1       4.656  -3.254   2.145  1.00  0.00     0.211 HD
ENDBRANCH  22  27
ENDBRANCH  16  17
ENDBRANCH  10  16
ENDBRANCH   6   7
ENDBRANCH   5   6
ENDBRANCH   1   5
BRANCH   3  29
ATOM     29  C   UNL     1      -3.260  -0.448   2.604  1.00  0.00     0.116 C 
BRANCH  29  30
ATOM     30  C   UNL     1      -2.209  -1.497   2.252  1.00  0.00     0.023 C 
BRANCH  30  31
ATOM     31  C   UNL     1      -2.334  -2.844   2.968  1.00  0.00     0.023 C 
BRANCH  31  32
ATOM     32  C   UNL     1      -3.707  -3.502   2.926  1.00  0.00     0.116 C 
BRANCH  32  33
ATOM     33  N   UNL     1      -4.169  -3.780   1.577  1.00  0.00    -0.352 N 
ATOM     34  C   UNL     1      -4.687  -4.936   1.050  1.00  0.00     0.251 C 
ATOM     35  H   UNL     1      -4.101  -3.026   0.948  1.00  0.00     0.163 HD
ATOM     36  O   UNL     1      -4.912  -5.003  -0.160  1.00  0.00    -0.269 OA
BRANCH  34  37
ATOM     37  C   UNL     1      -4.946  -6.115   1.907  1.00  0.00     0.039 A 
ATOM     38  C   UNL     1      -4.610  -7.381   1.419  1.00  0.00     0.014 A 
ATOM     39  C   UNL     1      -5.527  -5.991   3.172  1.00  0.00     0.014 A 
ATOM     40  C   UNL     1      -4.803  -8.510   2.219  1.00  0.00     0.010 A 
ATOM     41  C   UNL     1      -5.641  -7.106   4.000  1.00  0.00     0.010 A 
ATOM     42  C   UNL     1      -5.289  -8.380   3.531  1.00  0.00    -0.014 A 
BRANCH  42  43
ATOM     43  C   UNL     1      -5.438  -9.572   4.407  1.00  0.00     0.031 A 
ATOM     44  C   UNL     1      -6.797 -10.000   4.892  1.00  0.00     0.074 A 
ATOM     45  C   UNL     1      -4.343 -10.254   4.795  1.00  0.00     0.049 A 
ATOM     46  N   UNL     1      -7.123 -11.013   5.657  1.00  0.00    -0.248 NA
ATOM     47  C   UNL     1      -7.939  -9.167   4.486  1.00  0.00     0.031 C 
ATOM     48  C   UNL     1      -2.964  -9.909   4.444  1.00  0.00     0.029 A 
ATOM     49  N   UNL     1      -4.215 -11.380   5.570  1.00  0.00    -0.354 N 
ATOM     50  C   UNL     1      -8.499 -10.932   5.827  1.00  0.00     0.074 A 
ATOM     51  C   UNL     1      -8.939  -9.738   5.139  1.00  0.00     0.031 C 
ATOM     52  C   UNL     1      -2.134 -10.823   4.971  1.00  0.00     0.029 A 
ATOM     53  C   UNL     1      -2.915 -11.798   5.725  1.00  0.00     0.049 A 
ATOM     54  H   UNL     1      -4.982 -11.845   5.976  1.00  0.00     0.167 HD
ATOM     55  C   UNL     1      -9.326 -11.791   6.472  1.00  0.00     0.037 A 
ATOM     56  C   UNL     1      -2.411 -12.850   6.397  1.00  0.00     0.037 A 
ATOM     57  C   UNL     1      -8.889 -12.989   7.141  1.00  0.00     0.049 A 
ATOM     58  C   UNL     1      -3.351 -13.789   7.104  1.00  0.00     0.074 A 
ATOM     59  C   UNL     1      -9.654 -13.953   7.774  1.00  0.00     0.029 A 
ATOM     60  N   UNL     1      -7.565 -13.385   7.268  1.00  0.00    -0.354 N 
ATOM     61  N   UNL     1      -4.659 -13.747   7.188  1.00  0.00    -0.248 NA
ATOM     62  C   UNL     1      -2.743 -14.931   7.801  1.00  0.00     0.031 C 
ATOM     63  C   UNL     1      -8.791 -14.904   8.329  1.00  0.00     0.029 A 
ATOM     64  C   UNL     1      -7.491 -14.566   7.991  1.00  0.00     0.049 A 
ATOM     65  H   UNL     1      -6.792 -12.898   6.900  1.00  0.00     0.167 HD
ATOM     66  C   UNL     1      -5.031 -14.867   7.920  1.00  0.00     0.074 A 
ATOM     67  C   UNL     1      -3.812 -15.582   8.234  1.00  0.00     0.031 C 
ATOM     68  C   UNL     1      -6.270 -15.267   8.300  1.00  0.00     0.037 A 
BRANCH  55  69
ATOM     69  C   UNL     1     -10.793 -11.466   6.481  1.00  0.00     0.064 A 
ATOM     70  C   UNL     1     -11.569 -11.527   5.312  1.00  0.00     0.173 A 
ATOM     71  C   UNL     1     -11.440 -11.121   7.677  1.00  0.00     0.173 A 
ATOM     72  F   UNL     1     -10.998 -11.841   4.139  1.00  0.00    -0.203 F 
ATOM     73  C   UNL     1     -12.928 -11.223   5.335  1.00  0.00     0.198 A 
ATOM     74  C   UNL     1     -12.806 -10.851   7.702  1.00  0.00     0.198 A 
ATOM     75  F   UNL     1     -10.749 -11.053   8.825  1.00  0.00    -0.203 F 
ATOM     76  F   UNL     1     -13.634 -11.235   4.197  1.00  0.00    -0.200 F 
ATOM     77  C   UNL     1     -13.547 -10.893   6.531  1.00  0.00     0.200 A 
ATOM     78  F   UNL     1     -13.406 -10.546   8.862  1.00  0.00    -0.200 F 
ATOM     79  F   UNL     1     -14.856 -10.608   6.553  1.00  0.00    -0.200 F 
ENDBRANCH  55  69
BRANCH  56  80
ATOM     80  C   UNL     1      -0.944 -13.094   6.408  1.00  0.00     0.064 A 
ATOM     81  C   UNL     1      -0.392 -14.201   5.749  1.00  0.00     0.173 A 
ATOM     82  C   UNL     1      -0.067 -12.237   7.089  1.00  0.00     0.173 A 
ATOM     83  F   UNL     1      -1.191 -15.062   5.101  1.00  0.00    -0.203 F 
ATOM     84  C   UNL     1       0.978 -14.457   5.792  1.00  0.00     0.198 A 
ATOM     85  C   UNL     1       1.306 -12.476   7.105  1.00  0.00     0.198 A 
ATOM     86  F   UNL     1      -0.543 -11.160   7.731  1.00  0.00    -0.203 F 
ATOM     87  F   UNL     1       1.471 -15.552   5.199  1.00  0.00    -0.200 F 
ATOM     88  C   UNL     1       1.826 -13.591   6.466  1.00  0.00     0.200 A 
ATOM     89  F   UNL     1       2.123 -11.629   7.744  1.00  0.00    -0.200 F 
ATOM     90  F   UNL     1       3.142 -13.836   6.506  1.00  0.00    -0.200 F 
ENDBRANCH  56  80
BRANCH  68  91
ATOM     91  C   UNL     1      -6.368 -16.553   9.072  1.00  0.00     0.064 A 
ATOM     92  C   UNL     1      -5.887 -16.664  10.385  1.00  0.00     0.173 A 
ATOM     93  C   UNL     1      -6.959 -17.686   8.492  1.00  0.00     0.173 A 
ATOM     94  F   UNL     1      -5.300 -15.615  10.981  1.00  0.00    -0.203 F 
ATOM     95  C   UNL     1      -5.956 -17.873  11.073  1.00  0.00     0.198 A 
ATOM     96  C   UNL     1      -7.059 -18.883   9.197  1.00  0.00     0.198 A 
ATOM     97  F   UNL     1      -7.444 -17.633   7.243  1.00  0.00    -0.203 F 
ATOM     98  F   UNL     1      -5.429 -17.973  12.302  1.00  0.00    -0.200 F 
ATOM     99  C   UNL     1      -6.546 -18.979  10.481  1.00  0.00     0.200 A 
ATOM    100  F   UNL     1      -7.644 -19.946   8.628  1.00  0.00    -0.200 F 
ATOM    101  F   UNL     1      -6.611 -20.142  11.144  1.00  0.00    -0.200 F 
ENDBRANCH  68  91
ENDBRANCH  42  43
ENDBRANCH  34  37
ENDBRANCH  32  33
ENDBRANCH  31  32
ENDBRANCH  30  31
ENDBRANCH  29  30
ENDBRANCH   3  29
TORSDOF 19
