REMARK SMILES COc1cc([C@@H]2CC(=O)Nc3c(C(=O)NCCCCNC(=O)c4ccc(-c5c6nc(c(-c7c(F)c(F)c(F)c(F)c7F)c7ccc([nH]7)c(-c7c(F)c(F)c(F)c(F)c7F)c7nc(c(-c8c(F)c(F)c(F)c(F)c8F)c8ccc5[nH]8)C=C7)C=C6)cc4)cn(-c4ccccc4)c32)ccc1O
REMARK SMILES IDX 17 1 16 2 15 3 13 4 14 5 12 7 6 8 7 9 94 10 8 11 11 12 87 13
REMARK SMILES IDX 9 14 10 15 86 16 5 18 3 19 4 20 97 21 96 22 95 23 2 24 1 25
REMARK SMILES IDX 98 26 88 28 89 29 93 30 90 31 92 32 91 33 18 34 19 35 20 36
REMARK SMILES IDX 21 37 22 39 23 40 24 41 85 42 25 43 84 44 26 45 27 46 28 47
REMARK SMILES IDX 78 48 29 49 83 50 77 51 79 52 30 53 82 54 76 55 75 56 31 58
REMARK SMILES IDX 63 59 43 60 62 61 44 62 47 63 61 64 80 65 45 66 46 67 60 69
REMARK SMILES IDX 81 70 48 71 32 72 33 73 41 74 34 75 35 76 39 77 42 78 36 79
REMARK SMILES IDX 37 80 40 81 38 82 64 83 65 84 73 85 66 86 67 87 71 88 74 89
REMARK SMILES IDX 68 90 69 91 72 92 70 93 49 94 50 95 58 96 51 97 52 98 56 99
REMARK SMILES IDX 59 100 53 101 54 102 57 103 55 104
REMARK H PARENT 15 6 10 17 98 27 20 38 79 57 47 68
REMARK Flexibility Score: inf
ROOT
ATOM      1  C   UNL     1      -3.850   3.001 -10.017  1.00  0.00     0.023 C 
ENDROOT
BRANCH   1   2
ATOM      2  C   UNL     1      -2.917   1.784 -10.044  1.00  0.00     0.116 C 
BRANCH   2   3
ATOM      3  N   UNL     1      -1.571   2.161 -10.396  1.00  0.00    -0.352 N 
ATOM      4  C   UNL     1      -0.475   2.561  -9.682  1.00  0.00     0.254 C 
ATOM      5  O   UNL     1       0.532   2.749 -10.375  1.00  0.00    -0.269 OA
ATOM      6  H   UNL     1      -1.404   2.123 -11.366  1.00  0.00     0.163 HD
BRANCH   4   7
ATOM      7  C   UNL     1      -0.410   2.741  -8.222  1.00  0.00     0.081 A 
ATOM      8  C   UNL     1      -1.159   3.058  -4.562  1.00  0.00     0.078 C 
ATOM      9  C   UNL     1      -2.611   3.538  -4.661  1.00  0.00     0.115 C 
ATOM     10  C   UNL     1      -0.574   2.938  -5.945  1.00  0.00     0.055 A 
ATOM     11  C   UNL     1      -3.365   2.934  -5.825  1.00  0.00     0.225 C 
ATOM     12  C   UNL     1      -1.308   2.796  -7.109  1.00  0.00     0.076 A 
ATOM     13  N   UNL     1       0.755   3.052  -6.278  1.00  0.00    -0.317 N 
ATOM     14  O   UNL     1      -4.580   2.746  -5.795  1.00  0.00    -0.275 OA
ATOM     15  N   UNL     1      -2.676   2.729  -6.991  1.00  0.00    -0.324 N 
ATOM     16  C   UNL     1       0.841   2.989  -7.646  1.00  0.00     0.107 A 
ATOM     17  H   UNL     1      -3.196   2.518  -7.800  1.00  0.00     0.170 HD
BRANCH   8  18
ATOM     18  C   UNL     1      -1.060   1.777  -3.741  1.00  0.00    -0.034 A 
ATOM     19  C   UNL     1      -0.458   0.684  -1.641  1.00  0.00     0.160 A 
ATOM     20  C   UNL     1      -0.624   1.845  -2.401  1.00  0.00     0.054 A 
ATOM     21  C   UNL     1      -0.792  -0.548  -2.202  1.00  0.00     0.157 A 
ATOM     22  C   UNL     1      -1.221  -0.638  -3.521  1.00  0.00     0.050 A 
ATOM     23  C   UNL     1      -1.366   0.519  -4.286  1.00  0.00     0.008 A 
BRANCH  19  24
ATOM     24  O   UNL     1      -0.101   0.836  -0.328  1.00  0.00    -0.493 OA
ATOM     25  C   UNL     1       1.106   0.169   0.046  1.00  0.00     0.278 C 
ENDBRANCH  19  24
BRANCH  21  26
ATOM     26  O   UNL     1      -0.786  -1.702  -1.471  1.00  0.00    -0.504 OA
ATOM     27  H   UNL     1      -0.504  -1.688  -0.577  1.00  0.00     0.293 HD
ENDBRANCH  21  26
ENDBRANCH   8  18
BRANCH  13  28
ATOM     28  C   UNL     1       1.835   3.288  -5.400  1.00  0.00     0.045 A 
ATOM     29  C   UNL     1       2.052   2.433  -4.318  1.00  0.00     0.026 A 
ATOM     30  C   UNL     1       2.631   4.422  -5.576  1.00  0.00     0.026 A 
ATOM     31  C   UNL     1       2.996   2.760  -3.349  1.00  0.00     0.002 A 
ATOM     32  C   UNL     1       3.577   4.745  -4.601  1.00  0.00     0.002 A 
ATOM     33  C   UNL     1       3.744   3.928  -3.480  1.00  0.00     0.000 A 
ENDBRANCH  13  28
ENDBRANCH   4   7
ENDBRANCH   2   3
ENDBRANCH   1   2
BRANCH   1  34
ATOM     34  C   UNL     1      -4.479   3.361 -11.369  1.00  0.00     0.023 C 
BRANCH  34  35
ATOM     35  C   UNL     1      -5.521   2.357 -11.858  1.00  0.00     0.116 C 
BRANCH  35  36
ATOM     36  N   UNL     1      -6.675   2.261 -10.970  1.00  0.00    -0.352 N 
ATOM     37  C   UNL     1      -7.647   1.281 -10.955  1.00  0.00     0.251 C 
ATOM     38  H   UNL     1      -6.771   2.979 -10.303  1.00  0.00     0.163 HD
ATOM     39  O   UNL     1      -8.767   1.508 -10.526  1.00  0.00    -0.269 OA
BRANCH  37  40
ATOM     40  C   UNL     1      -7.304  -0.062 -11.457  1.00  0.00     0.039 A 
ATOM     41  C   UNL     1      -8.192  -0.761 -12.276  1.00  0.00     0.014 A 
ATOM     42  C   UNL     1      -6.070  -0.611 -11.100  1.00  0.00     0.014 A 
ATOM     43  C   UNL     1      -7.793  -1.986 -12.803  1.00  0.00     0.010 A 
ATOM     44  C   UNL     1      -5.639  -1.779 -11.691  1.00  0.00     0.010 A 
ATOM     45  C   UNL     1      -6.504  -2.479 -12.526  1.00  0.00    -0.014 A 
BRANCH  45  46
ATOM     46  C   UNL     1      -5.995  -3.630 -13.270  1.00  0.00     0.031 A 
ATOM     47  C   UNL     1      -6.009  -3.425 -14.745  1.00  0.00     0.074 A 
ATOM     48  C   UNL     1      -5.386  -4.695 -12.705  1.00  0.00     0.049 A 
ATOM     49  N   UNL     1      -6.767  -4.013 -15.609  1.00  0.00    -0.248 NA
ATOM     50  C   UNL     1      -5.210  -2.326 -15.313  1.00  0.00     0.031 C 
ATOM     51  C   UNL     1      -5.014  -4.879 -11.300  1.00  0.00     0.029 A 
ATOM     52  N   UNL     1      -4.888  -5.821 -13.294  1.00  0.00    -0.354 N 
ATOM     53  C   UNL     1      -6.396  -3.514 -16.855  1.00  0.00     0.074 A 
ATOM     54  C   UNL     1      -5.587  -2.355 -16.594  1.00  0.00     0.031 C 
ATOM     55  C   UNL     1      -4.166  -5.928 -11.187  1.00  0.00     0.029 A 
ATOM     56  C   UNL     1      -4.059  -6.587 -12.476  1.00  0.00     0.049 A 
ATOM     57  H   UNL     1      -5.097  -6.072 -14.223  1.00  0.00     0.167 HD
ATOM     58  C   UNL     1      -6.574  -4.269 -17.976  1.00  0.00     0.037 A 
ATOM     59  C   UNL     1      -3.328  -7.673 -12.839  1.00  0.00     0.037 A 
ATOM     60  C   UNL     1      -7.488  -5.354 -17.705  1.00  0.00     0.049 A 
ATOM     61  C   UNL     1      -3.907  -8.186 -14.102  1.00  0.00     0.074 A 
ATOM     62  C   UNL     1      -8.808  -5.456 -17.314  1.00  0.00     0.029 A 
ATOM     63  N   UNL     1      -6.923  -6.579 -17.456  1.00  0.00    -0.354 N 
ATOM     64  N   UNL     1      -5.077  -8.751 -14.188  1.00  0.00    -0.248 NA
ATOM     65  C   UNL     1      -3.358  -7.687 -15.351  1.00  0.00     0.031 C 
ATOM     66  C   UNL     1      -8.852  -6.586 -16.444  1.00  0.00     0.029 A 
ATOM     67  C   UNL     1      -7.583  -7.166 -16.413  1.00  0.00     0.049 A 
ATOM     68  H   UNL     1      -6.166  -6.971 -17.947  1.00  0.00     0.167 HD
ATOM     69  C   UNL     1      -5.606  -8.266 -15.373  1.00  0.00     0.074 A 
ATOM     70  C   UNL     1      -4.463  -7.718 -16.100  1.00  0.00     0.031 C 
ATOM     71  C   UNL     1      -6.953  -8.094 -15.504  1.00  0.00     0.037 A 
BRANCH  58  72
ATOM     72  C   UNL     1      -5.609  -4.330 -19.148  1.00  0.00     0.064 A 
ATOM     73  C   UNL     1      -5.906  -5.206 -20.218  1.00  0.00     0.173 A 
ATOM     74  C   UNL     1      -4.284  -3.846 -19.125  1.00  0.00     0.173 A 
ATOM     75  F   UNL     1      -7.133  -5.732 -20.353  1.00  0.00    -0.203 F 
ATOM     76  C   UNL     1      -4.926  -5.654 -21.108  1.00  0.00     0.198 A 
ATOM     77  C   UNL     1      -3.320  -4.257 -20.047  1.00  0.00     0.198 A 
ATOM     78  F   UNL     1      -3.825  -3.044 -18.160  1.00  0.00    -0.203 F 
ATOM     79  F   UNL     1      -5.227  -6.601 -22.007  1.00  0.00    -0.200 F 
ATOM     80  C   UNL     1      -3.630  -5.189 -21.013  1.00  0.00     0.200 A 
ATOM     81  F   UNL     1      -2.064  -3.803 -19.930  1.00  0.00    -0.200 F 
ATOM     82  F   UNL     1      -2.671  -5.669 -21.816  1.00  0.00    -0.200 F 
ENDBRANCH  58  72
BRANCH  59  83
ATOM     83  C   UNL     1      -2.018  -8.163 -12.342  1.00  0.00     0.064 A 
ATOM     84  C   UNL     1      -1.561  -9.457 -12.658  1.00  0.00     0.173 A 
ATOM     85  C   UNL     1      -1.058  -7.275 -11.823  1.00  0.00     0.173 A 
ATOM     86  F   UNL     1      -2.397 -10.356 -13.197  1.00  0.00    -0.203 F 
ATOM     87  C   UNL     1      -0.219  -9.824 -12.506  1.00  0.00     0.198 A 
ATOM     88  C   UNL     1       0.281  -7.644 -11.666  1.00  0.00     0.198 A 
ATOM     89  F   UNL     1      -1.378  -6.001 -11.556  1.00  0.00    -0.203 F 
ATOM     90  F   UNL     1       0.191 -11.041 -12.890  1.00  0.00    -0.200 F 
ATOM     91  C   UNL     1       0.704  -8.912 -12.024  1.00  0.00     0.200 A 
ATOM     92  F   UNL     1       1.172  -6.740 -11.236  1.00  0.00    -0.200 F 
ATOM     93  F   UNL     1       2.002  -9.236 -11.946  1.00  0.00    -0.200 F 
ENDBRANCH  59  83
BRANCH  71  94
ATOM     94  C   UNL     1      -7.847  -8.773 -14.504  1.00  0.00     0.064 A 
ATOM     95  C   UNL     1      -7.856  -8.512 -13.123  1.00  0.00     0.173 A 
ATOM     96  C   UNL     1      -8.829  -9.642 -15.002  1.00  0.00     0.173 A 
ATOM     97  F   UNL     1      -7.012  -7.625 -12.579  1.00  0.00    -0.203 F 
ATOM     98  C   UNL     1      -8.780  -9.128 -12.279  1.00  0.00     0.198 A 
ATOM     99  C   UNL     1      -9.776 -10.221 -14.165  1.00  0.00     0.198 A 
ATOM    100  F   UNL     1      -8.897  -9.893 -16.319  1.00  0.00    -0.203 F 
ATOM    101  F   UNL     1      -8.759  -8.879 -10.961  1.00  0.00    -0.200 F 
ATOM    102  C   UNL     1      -9.745  -9.973 -12.803  1.00  0.00     0.200 A 
ATOM    103  F   UNL     1     -10.735 -10.998 -14.685  1.00  0.00    -0.200 F 
ATOM    104  F   UNL     1     -10.661 -10.532 -11.999  1.00  0.00    -0.200 F 
ENDBRANCH  71  94
ENDBRANCH  45  46
ENDBRANCH  37  40
ENDBRANCH  35  36
ENDBRANCH  34  35
ENDBRANCH   1  34
TORSDOF 15
