REMARK SMILES COc1ccc(CCN2C(=O)C[C@@H](C(=O)NCCCCNC(=O)c3ccc(-c4c5nc(c(-c6c(F)c(F)c(F)c(F)c6F)c6ccc([nH]6)c(-c6c(F)c(F)c(F)c(F)c6F)c6nc(c(-c7c(F)c(F)c(F)c(F)c7F)c7ccc4[nH]7)C=C6)C=C5)cc3)S/C2=[NH+]\c2ccc(F)cc2)cc1OC
REMARK SMILES IDX 17 1 16 2 14 3 15 4 13 6 9 7 10 8 88 9 11 10 12 11 87 12
REMARK SMILES IDX 89 13 8 15 7 16 6 17 3 18 4 19 98 20 5 21 97 22 2 23 1 24
REMARK SMILES IDX 99 25 100 26 90 27 91 28 96 29 92 30 95 31 93 32 94 33 18 34
REMARK SMILES IDX 19 35 20 36 21 37 22 38 23 40 24 41 25 42 86 43 26 44 85 45
REMARK SMILES IDX 27 46 28 47 29 48 79 49 30 50 84 51 78 52 80 53 31 54 83 55
REMARK SMILES IDX 77 56 76 57 32 59 64 60 44 61 63 62 45 63 48 64 62 65 81 66
REMARK SMILES IDX 46 67 47 68 61 70 82 71 49 72 33 73 34 74 42 75 35 76 36 77
REMARK SMILES IDX 40 78 43 79 37 80 38 81 41 82 39 83 65 84 66 85 74 86 67 87
REMARK SMILES IDX 68 88 72 89 75 90 69 91 70 92 73 93 71 94 50 95 51 96 59 97
REMARK SMILES IDX 52 98 53 99 57 100 60 101 54 102 55 103 58 104 56 105
REMARK H PARENT 16 5 89 14 21 39 80 58 48 69
REMARK Flexibility Score: inf
ROOT
ATOM      1  C   UNL     1      -2.003  -6.668  -0.662  1.00  0.00     0.116 C 
ENDROOT
BRANCH   1   2
ATOM      2  N   UNL     1      -3.318  -6.391  -0.113  1.00  0.00    -0.355 N 
ATOM      3  C   UNL     1      -3.777  -6.386   1.174  1.00  0.00     0.234 C 
ATOM      4  O   UNL     1      -4.959  -6.067   1.341  1.00  0.00    -0.274 OA
ATOM      5  H   UNL     1      -3.999  -6.166  -0.787  1.00  0.00     0.163 HD
BRANCH   3   6
ATOM      6  C   UNL     1      -2.883  -6.685   2.383  1.00  0.00     0.160 C 
ATOM      7  N   UNL     1       0.068  -6.967   2.570  1.00  0.00    -0.191 N 
ATOM      8  C   UNL     1      -0.532  -5.822   3.053  1.00  0.00     0.311 C 
ATOM      9  C   UNL     1      -0.563  -8.176   2.808  1.00  0.00     0.319 C 
ATOM     10  O   UNL     1       0.076  -4.992   3.733  1.00  0.00    -0.247 OA
ATOM     11  C   UNL     1      -1.960  -5.534   2.676  1.00  0.00     0.153 C 
ATOM     12  S   UNL     1      -2.201  -8.321   2.220  1.00  0.00    -0.024 SA
ATOM     13  N   UNL     1       0.061  -9.169   3.372  1.00  0.00    -0.235 N 
ATOM     14  H   UNL     1       1.024  -9.112   3.571  1.00  0.00     0.313 HD
BRANCH   7  15
ATOM     15  C   UNL     1       1.540  -6.918   2.427  1.00  0.00     0.251 C 
BRANCH  15  16
ATOM     16  C   UNL     1       2.017  -6.303   1.077  1.00  0.00     0.082 C 
BRANCH  16  17
ATOM     17  C   UNL     1       1.843  -4.806   0.891  1.00  0.00    -0.040 A 
ATOM     18  C   UNL     1       1.437  -2.005   0.717  1.00  0.00     0.160 A 
ATOM     19  C   UNL     1       0.375  -2.888   0.542  1.00  0.00     0.051 A 
ATOM     20  C   UNL     1       2.728  -2.521   0.900  1.00  0.00     0.160 A 
ATOM     21  C   UNL     1       0.596  -4.266   0.575  1.00  0.00     0.008 A 
ATOM     22  C   UNL     1       2.915  -3.912   1.021  1.00  0.00     0.054 A 
BRANCH  18  23
ATOM     23  O   UNL     1       1.234  -0.655   0.814  1.00  0.00    -0.493 OA
ATOM     24  C   UNL     1       0.309  -0.102  -0.115  1.00  0.00     0.278 C 
ENDBRANCH  18  23
BRANCH  20  25
ATOM     25  O   UNL     1       3.888  -1.789   0.992  1.00  0.00    -0.493 OA
ATOM     26  C   UNL     1       3.883  -0.517   0.347  1.00  0.00     0.278 C 
ENDBRANCH  20  25
ENDBRANCH  16  17
ENDBRANCH  15  16
ENDBRANCH   7  15
BRANCH  13  27
ATOM     27  C   UNL     1      -0.675 -10.331   3.694  1.00  0.00     0.125 A 
ATOM     28  C   UNL     1      -1.314 -10.420   4.940  1.00  0.00     0.055 A 
ATOM     29  C   UNL     1      -0.884 -11.340   2.745  1.00  0.00     0.055 A 
ATOM     30  C   UNL     1      -2.217 -11.453   5.200  1.00  0.00     0.043 A 
ATOM     31  C   UNL     1      -1.796 -12.367   3.000  1.00  0.00     0.043 A 
ATOM     32  C   UNL     1      -2.465 -12.405   4.219  1.00  0.00     0.123 A 
ATOM     33  F   UNL     1      -3.373 -13.364   4.444  1.00  0.00    -0.207 F 
ENDBRANCH  13  27
ENDBRANCH   3   6
ENDBRANCH   1   2
BRANCH   1  34
ATOM     34  C   UNL     1      -1.936  -7.959  -1.475  1.00  0.00     0.023 C 
BRANCH  34  35
ATOM     35  C   UNL     1      -2.817  -7.987  -2.723  1.00  0.00     0.023 C 
BRANCH  35  36
ATOM     36  C   UNL     1      -2.602  -6.843  -3.705  1.00  0.00     0.116 C 
BRANCH  36  37
ATOM     37  N   UNL     1      -1.262  -6.806  -4.269  1.00  0.00    -0.352 N 
ATOM     38  C   UNL     1      -0.878  -6.653  -5.582  1.00  0.00     0.251 C 
ATOM     39  H   UNL     1      -0.527  -6.906  -3.622  1.00  0.00     0.163 HD
ATOM     40  O   UNL     1       0.303  -6.762  -5.896  1.00  0.00    -0.269 OA
BRANCH  38  41
ATOM     41  C   UNL     1      -1.898  -6.396  -6.622  1.00  0.00     0.039 A 
ATOM     42  C   UNL     1      -1.860  -7.140  -7.804  1.00  0.00     0.014 A 
ATOM     43  C   UNL     1      -2.904  -5.446  -6.424  1.00  0.00     0.014 A 
ATOM     44  C   UNL     1      -2.877  -6.991  -8.750  1.00  0.00     0.010 A 
ATOM     45  C   UNL     1      -3.957  -5.356  -7.330  1.00  0.00     0.010 A 
ATOM     46  C   UNL     1      -3.958  -6.130  -8.501  1.00  0.00    -0.014 A 
BRANCH  46  47
ATOM     47  C   UNL     1      -5.104  -6.034  -9.443  1.00  0.00     0.031 A 
ATOM     48  C   UNL     1      -5.409  -4.734 -10.134  1.00  0.00     0.074 A 
ATOM     49  C   UNL     1      -5.916  -7.095  -9.615  1.00  0.00     0.049 A 
ATOM     50  N   UNL     1      -6.409  -4.429 -10.922  1.00  0.00    -0.248 NA
ATOM     51  C   UNL     1      -4.483  -3.619  -9.883  1.00  0.00     0.031 C 
ATOM     52  C   UNL     1      -5.761  -8.396  -8.961  1.00  0.00     0.029 A 
ATOM     53  N   UNL     1      -7.046  -7.244 -10.382  1.00  0.00    -0.354 N 
ATOM     54  C   UNL     1      -6.243  -3.089 -11.243  1.00  0.00     0.074 A 
ATOM     55  C   UNL     1      -5.076  -2.624 -10.525  1.00  0.00     0.031 C 
ATOM     56  C   UNL     1      -6.745  -9.214  -9.367  1.00  0.00     0.029 A 
ATOM     57  C   UNL     1      -7.624  -8.486 -10.278  1.00  0.00     0.049 A 
ATOM     58  H   UNL     1      -7.409  -6.528 -10.951  1.00  0.00     0.167 HD
ATOM     59  C   UNL     1      -6.984  -2.321 -12.078  1.00  0.00     0.037 A 
ATOM     60  C   UNL     1      -8.742  -8.980 -10.844  1.00  0.00     0.037 A 
ATOM     61  C   UNL     1      -8.125  -2.796 -12.815  1.00  0.00     0.049 A 
ATOM     62  C   UNL     1      -9.546  -8.106 -11.769  1.00  0.00     0.074 A 
ATOM     63  C   UNL     1      -8.894  -2.116 -13.744  1.00  0.00     0.029 A 
ATOM     64  N   UNL     1      -8.665  -4.069 -12.704  1.00  0.00    -0.354 N 
ATOM     65  N   UNL     1      -9.332  -6.863 -12.128  1.00  0.00    -0.248 NA
ATOM     66  C   UNL     1     -10.744  -8.705 -12.373  1.00  0.00     0.031 C 
ATOM     67  C   UNL     1      -9.930  -2.961 -14.156  1.00  0.00     0.029 A 
ATOM     68  C   UNL     1      -9.774  -4.185 -13.527  1.00  0.00     0.049 A 
ATOM     69  H   UNL     1      -8.312  -4.783 -12.126  1.00  0.00     0.167 HD
ATOM     70  C   UNL     1     -10.346  -6.543 -13.020  1.00  0.00     0.074 A 
ATOM     71  C   UNL     1     -11.168  -7.727 -13.160  1.00  0.00     0.031 C 
ATOM     72  C   UNL     1     -10.577  -5.373 -13.665  1.00  0.00     0.037 A 
BRANCH  59  73
ATOM     73  C   UNL     1      -6.583  -0.883 -12.243  1.00  0.00     0.064 A 
ATOM     74  C   UNL     1      -5.406  -0.518 -12.914  1.00  0.00     0.173 A 
ATOM     75  C   UNL     1      -7.410   0.144 -11.764  1.00  0.00     0.173 A 
ATOM     76  F   UNL     1      -4.575  -1.461 -13.382  1.00  0.00    -0.203 F 
ATOM     77  C   UNL     1      -5.058   0.821 -13.073  1.00  0.00     0.198 A 
ATOM     78  C   UNL     1      -7.074   1.482 -11.953  1.00  0.00     0.198 A 
ATOM     79  F   UNL     1      -8.549  -0.149 -11.120  1.00  0.00    -0.203 F 
ATOM     80  F   UNL     1      -3.904   1.144 -13.674  1.00  0.00    -0.200 F 
ATOM     81  C   UNL     1      -5.895   1.819 -12.600  1.00  0.00     0.200 A 
ATOM     82  F   UNL     1      -7.891   2.446 -11.507  1.00  0.00    -0.200 F 
ATOM     83  F   UNL     1      -5.563   3.107 -12.763  1.00  0.00    -0.200 F 
ENDBRANCH  59  73
BRANCH  60  84
ATOM     84  C   UNL     1      -9.163 -10.379 -10.567  1.00  0.00     0.064 A 
ATOM     85  C   UNL     1      -9.114 -11.358 -11.569  1.00  0.00     0.173 A 
ATOM     86  C   UNL     1      -9.635 -10.764  -9.303  1.00  0.00     0.173 A 
ATOM     87  F   UNL     1      -8.690 -11.034 -12.800  1.00  0.00    -0.203 F 
ATOM     88  C   UNL     1      -9.543 -12.661 -11.327  1.00  0.00     0.198 A 
ATOM     89  C   UNL     1     -10.036 -12.075  -9.053  1.00  0.00     0.198 A 
ATOM     90  F   UNL     1      -9.697  -9.868  -8.308  1.00  0.00    -0.203 F 
ATOM     91  F   UNL     1      -9.534 -13.563 -12.318  1.00  0.00    -0.200 F 
ATOM     92  C   UNL     1      -9.999 -13.020 -10.067  1.00  0.00     0.200 A 
ATOM     93  F   UNL     1     -10.461 -12.421  -7.830  1.00  0.00    -0.200 F 
ATOM     94  F   UNL     1     -10.411 -14.273  -9.833  1.00  0.00    -0.200 F 
ENDBRANCH  60  84
BRANCH  72  95
ATOM     95  C   UNL     1     -11.742  -5.324 -14.611  1.00  0.00     0.064 A 
ATOM     96  C   UNL     1     -13.066  -5.324 -14.151  1.00  0.00     0.173 A 
ATOM     97  C   UNL     1     -11.527  -5.234 -15.995  1.00  0.00     0.173 A 
ATOM     98  F   UNL     1     -13.325  -5.425 -12.838  1.00  0.00    -0.203 F 
ATOM     99  C   UNL     1     -14.133  -5.261 -15.043  1.00  0.00     0.198 A 
ATOM    100  C   UNL     1     -12.595  -5.139 -16.882  1.00  0.00     0.198 A 
ATOM    101  F   UNL     1     -10.278  -5.223 -16.486  1.00  0.00    -0.203 F 
ATOM    102  F   UNL     1     -15.392  -5.312 -14.584  1.00  0.00    -0.200 F 
ATOM    103  C   UNL     1     -13.897  -5.160 -16.406  1.00  0.00     0.200 A 
ATOM    104  F   UNL     1     -12.364  -5.026 -18.197  1.00  0.00    -0.200 F 
ATOM    105  F   UNL     1     -14.926  -5.091 -17.262  1.00  0.00    -0.200 F 
ENDBRANCH  72  95
ENDBRANCH  46  47
ENDBRANCH  38  41
ENDBRANCH  36  37
ENDBRANCH  35  36
ENDBRANCH  34  35
ENDBRANCH   1  34
TORSDOF 17
