REMARK SMILES O=C(NCCCCNC(=O)[C@H](CO)NC(=O)[C@H](CS)NC(=O)[C@H](Cc1ccccc1)NC(=O)c1ccc(F)cc1)c1ccc(-c2c3nc(c(-c4c(F)c(F)c(F)c(F)c4F)c4ccc([nH]4)c(-c4c(F)c(F)c(F)c(F)c4F)c4nc(c(-c5c(F)c(F)c(F)c(F)c5F)c5ccc2[nH]5)C=C4)C=C3)cc1
REMARK SMILES IDX 8 1 9 2 10 3 7 5 6 6 5 7 4 8 3 9 1 10 2 11 41 13 42 14
REMARK SMILES IDX 103 15 43 16 102 17 44 18 45 19 46 20 96 21 47 22 101 23
REMARK SMILES IDX 95 24 97 25 48 26 100 27 94 28 93 29 49 31 81 32 61 33 80 34
REMARK SMILES IDX 62 35 65 36 79 37 98 38 63 39 64 40 78 42 99 43 66 44 50 45
REMARK SMILES IDX 51 46 59 47 52 48 53 49 57 50 60 51 54 52 55 53 58 54 56 55
REMARK SMILES IDX 82 56 83 57 91 58 84 59 85 60 89 61 92 62 86 63 87 64 90 65
REMARK SMILES IDX 88 66 67 67 68 68 76 69 69 70 70 71 74 72 77 73 71 74 72 75
REMARK SMILES IDX 75 76 73 77 11 78 14 79 15 80 16 82 17 83 20 84 21 85 22 87
REMARK SMILES IDX 23 88 31 89 32 90 33 92 34 93 35 94 40 95 36 96 39 97 37 98
REMARK SMILES IDX 38 99 24 100 25 101 26 102 30 103 27 104 29 105 28 106
REMARK SMILES IDX 18 107 19 108 12 110 13 111
REMARK H PARENT 8 4 3 12 97 30 65 41 14 81 20 86 31 91 19 109 13 112
REMARK Flexibility Score: inf
ROOT
ATOM      1  N   UNL     1       7.131  -1.140  -8.588  1.00  0.00    -0.354 N 
ATOM      2  C   UNL     1       7.250  -0.780  -7.273  1.00  0.00     0.244 C 
ATOM      3  O   UNL     1       7.474  -1.712  -6.494  1.00  0.00    -0.273 OA
ATOM      4  H   UNL     1       7.264  -2.086  -8.826  1.00  0.00     0.163 HD
ENDROOT
BRANCH   1   5
ATOM      5  C   UNL     1       6.828  -0.222  -9.626  1.00  0.00     0.116 C 
BRANCH   5   6
ATOM      6  C   UNL     1       6.965  -0.650 -11.072  1.00  0.00     0.023 C 
BRANCH   6   7
ATOM      7  C   UNL     1       5.998  -1.719 -11.538  1.00  0.00     0.023 C 
BRANCH   7   8
ATOM      8  C   UNL     1       4.546  -1.519 -11.125  1.00  0.00     0.116 C 
BRANCH   8   9
ATOM      9  N   UNL     1       3.835  -0.463 -11.846  1.00  0.00    -0.352 N 
ATOM     10  O   UNL     1       2.370   0.437 -13.329  1.00  0.00    -0.269 OA
ATOM     11  C   UNL     1       2.838  -0.562 -12.797  1.00  0.00     0.251 C 
ATOM     12  H   UNL     1       4.108   0.456 -11.619  1.00  0.00     0.163 HD
BRANCH  11  13
ATOM     13  C   UNL     1       2.390  -1.906 -13.208  1.00  0.00     0.039 A 
ATOM     14  C   UNL     1       2.106  -2.849 -12.228  1.00  0.00     0.014 A 
ATOM     15  C   UNL     1       2.422  -2.267 -14.556  1.00  0.00     0.014 A 
ATOM     16  C   UNL     1       2.179  -4.190 -12.558  1.00  0.00     0.010 A 
ATOM     17  C   UNL     1       2.294  -3.615 -14.904  1.00  0.00     0.010 A 
ATOM     18  C   UNL     1       2.235  -4.595 -13.902  1.00  0.00    -0.014 A 
BRANCH  18  19
ATOM     19  C   UNL     1       2.150  -6.046 -14.208  1.00  0.00     0.031 A 
ATOM     20  C   UNL     1       3.219  -6.761 -14.987  1.00  0.00     0.074 A 
ATOM     21  C   UNL     1       1.093  -6.726 -13.720  1.00  0.00     0.049 A 
ATOM     22  N   UNL     1       3.270  -8.022 -15.344  1.00  0.00    -0.248 NA
ATOM     23  C   UNL     1       4.373  -5.969 -15.436  1.00  0.00     0.031 C 
ATOM     24  C   UNL     1      -0.006  -6.134 -12.948  1.00  0.00     0.029 A 
ATOM     25  N   UNL     1       0.772  -8.056 -13.774  1.00  0.00    -0.354 N 
ATOM     26  C   UNL     1       4.445  -8.169 -16.070  1.00  0.00     0.074 A 
ATOM     27  C   UNL     1       5.063  -6.861 -16.135  1.00  0.00     0.031 C 
ATOM     28  C   UNL     1      -0.836  -7.100 -12.543  1.00  0.00     0.029 A 
ATOM     29  C   UNL     1      -0.400  -8.359 -13.126  1.00  0.00     0.049 A 
ATOM     30  H   UNL     1       1.327  -8.729 -14.232  1.00  0.00     0.167 HD
ATOM     31  C   UNL     1       4.960  -9.296 -16.623  1.00  0.00     0.037 A 
ATOM     32  C   UNL     1      -1.083  -9.513 -13.046  1.00  0.00     0.037 A 
ATOM     33  C   UNL     1       4.327 -10.591 -16.552  1.00  0.00     0.049 A 
ATOM     34  C   UNL     1      -0.524 -10.722 -13.733  1.00  0.00     0.074 A 
ATOM     35  C   UNL     1       4.767 -11.797 -17.071  1.00  0.00     0.029 A 
ATOM     36  N   UNL     1       3.113 -10.848 -15.928  1.00  0.00    -0.354 N 
ATOM     37  N   UNL     1       0.596 -10.851 -14.401  1.00  0.00    -0.248 NA
ATOM     38  C   UNL     1      -1.327 -11.947 -13.658  1.00  0.00     0.031 C 
ATOM     39  C   UNL     1       3.791 -12.766 -16.820  1.00  0.00     0.029 A 
ATOM     40  C   UNL     1       2.777 -12.186 -16.075  1.00  0.00     0.049 A 
ATOM     41  H   UNL     1       2.570 -10.179 -15.452  1.00  0.00     0.167 HD
ATOM     42  C   UNL     1       0.648 -12.178 -14.801  1.00  0.00     0.074 A 
ATOM     43  C   UNL     1      -0.542 -12.816 -14.276  1.00  0.00     0.031 C 
ATOM     44  C   UNL     1       1.593 -12.809 -15.539  1.00  0.00     0.037 A 
BRANCH  31  45
ATOM     45  C   UNL     1       6.259  -9.183 -17.374  1.00  0.00     0.064 A 
ATOM     46  C   UNL     1       7.470  -8.905 -16.721  1.00  0.00     0.173 A 
ATOM     47  C   UNL     1       6.305  -9.409 -18.759  1.00  0.00     0.173 A 
ATOM     48  F   UNL     1       7.488  -8.675 -15.399  1.00  0.00    -0.203 F 
ATOM     49  C   UNL     1       8.668  -8.827 -17.429  1.00  0.00     0.198 A 
ATOM     50  C   UNL     1       7.509  -9.367 -19.458  1.00  0.00     0.198 A 
ATOM     51  F   UNL     1       5.181  -9.691 -19.436  1.00  0.00    -0.203 F 
ATOM     52  F   UNL     1       9.803  -8.509 -16.789  1.00  0.00    -0.200 F 
ATOM     53  C   UNL     1       8.688  -9.066 -18.794  1.00  0.00     0.200 A 
ATOM     54  F   UNL     1       7.528  -9.618 -20.774  1.00  0.00    -0.200 F 
ATOM     55  F   UNL     1       9.843  -9.001 -19.471  1.00  0.00    -0.200 F 
ENDBRANCH  31  45
BRANCH  32  56
ATOM     56  C   UNL     1      -2.382  -9.560 -12.326  1.00  0.00     0.064 A 
ATOM     57  C   UNL     1      -2.545 -10.349 -11.180  1.00  0.00     0.173 A 
ATOM     58  C   UNL     1      -3.492  -8.827 -12.776  1.00  0.00     0.173 A 
ATOM     59  F   UNL     1      -1.517 -11.074 -10.714  1.00  0.00    -0.203 F 
ATOM     60  C   UNL     1      -3.777 -10.435 -10.536  1.00  0.00     0.198 A 
ATOM     61  C   UNL     1      -4.710  -8.878 -12.105  1.00  0.00     0.198 A 
ATOM     62  F   UNL     1      -3.387  -8.043 -13.859  1.00  0.00    -0.203 F 
ATOM     63  F   UNL     1      -3.923 -11.250  -9.483  1.00  0.00    -0.200 F 
ATOM     64  C   UNL     1      -4.857  -9.695 -10.996  1.00  0.00     0.200 A 
ATOM     65  F   UNL     1      -5.741  -8.139 -12.537  1.00  0.00    -0.200 F 
ATOM     66  F   UNL     1      -6.041  -9.778 -10.375  1.00  0.00    -0.200 F 
ENDBRANCH  32  56
BRANCH  44  67
ATOM     67  C   UNL     1       1.401 -14.281 -15.773  1.00  0.00     0.064 A 
ATOM     68  C   UNL     1       0.364 -14.777 -16.578  1.00  0.00     0.173 A 
ATOM     69  C   UNL     1       2.277 -15.208 -15.187  1.00  0.00     0.173 A 
ATOM     70  F   UNL     1      -0.513 -13.935 -17.146  1.00  0.00    -0.203 F 
ATOM     71  C   UNL     1       0.188 -16.147 -16.755  1.00  0.00     0.198 A 
ATOM     72  C   UNL     1       2.123 -16.575 -15.401  1.00  0.00     0.198 A 
ATOM     73  F   UNL     1       3.288 -14.789 -14.412  1.00  0.00    -0.203 F 
ATOM     74  F   UNL     1      -0.852 -16.599 -17.469  1.00  0.00    -0.200 F 
ATOM     75  C   UNL     1       1.072 -17.043 -16.174  1.00  0.00     0.200 A 
ATOM     76  F   UNL     1       2.990 -17.438 -14.854  1.00  0.00    -0.200 F 
ATOM     77  F   UNL     1       0.905 -18.361 -16.350  1.00  0.00    -0.200 F 
ENDBRANCH  44  67
ENDBRANCH  18  19
ENDBRANCH  11  13
ENDBRANCH   8   9
ENDBRANCH   7   8
ENDBRANCH   6   7
ENDBRANCH   5   6
ENDBRANCH   1   5
BRANCH   2  78
ATOM     78  C   UNL     1       7.318   0.750  -6.828  1.00  0.00     0.197 C 
BRANCH  78  79
ATOM     79  N   UNL     1       5.945   1.754  -7.309  1.00  0.00    -0.340 N 
ATOM     80  C   UNL     1       5.347   3.609  -7.567  1.00  0.00     0.244 C 
ATOM     81  H   UNL     1       5.195   1.157  -7.532  1.00  0.00     0.164 HD
ATOM     82  O   UNL     1       4.193   4.148  -7.394  1.00  0.00    -0.273 OA
BRANCH  80  83
ATOM     83  C   UNL     1       6.255   4.994  -8.275  1.00  0.00     0.181 C 
BRANCH  83  84
ATOM     84  N   UNL     1       5.348   5.515  -9.324  1.00  0.00    -0.342 N 
ATOM     85  C   UNL     1       5.283   5.131 -10.632  1.00  0.00     0.243 C 
ATOM     86  H   UNL     1       4.721   6.221  -9.046  1.00  0.00     0.164 HD
ATOM     87  O   UNL     1       4.367   5.569 -11.331  1.00  0.00    -0.273 OA
BRANCH  85  88
ATOM     88  C   UNL     1       6.341   4.182 -11.238  1.00  0.00     0.176 C 
BRANCH  88  89
ATOM     89  N   UNL     1       7.680   4.788 -11.309  1.00  0.00    -0.340 N 
ATOM     90  C   UNL     1       8.517   4.974 -12.379  1.00  0.00     0.251 C 
ATOM     91  H   UNL     1       8.032   5.114 -10.449  1.00  0.00     0.164 HD
ATOM     92  O   UNL     1       9.697   5.240 -12.161  1.00  0.00    -0.269 OA
BRANCH  90  93
ATOM     93  C   UNL     1       8.053   4.827 -13.778  1.00  0.00     0.040 A 
ATOM     94  C   UNL     1       8.914   4.212 -14.700  1.00  0.00     0.017 A 
ATOM     95  C   UNL     1       6.831   5.354 -14.215  1.00  0.00     0.017 A 
ATOM     96  C   UNL     1       8.524   4.066 -16.033  1.00  0.00     0.040 A 
ATOM     97  C   UNL     1       6.435   5.186 -15.544  1.00  0.00     0.040 A 
ATOM     98  C   UNL     1       7.282   4.540 -16.438  1.00  0.00     0.123 A 
ATOM     99  F   UNL     1       6.901   4.384 -17.712  1.00  0.00    -0.207 F 
ENDBRANCH  90  93
ENDBRANCH  88  89
BRANCH  88 100
ATOM    100  C   UNL     1       6.383   2.757 -10.651  1.00  0.00     0.070 C 
BRANCH 100 101
ATOM    101  C   UNL     1       6.124   2.550  -9.174  1.00  0.00    -0.045 A 
ATOM    102  C   UNL     1       7.341   3.038  -7.885  1.00  0.00     0.004 A 
ATOM    103  C   UNL     1       4.435   2.058  -8.696  1.00  0.00     0.004 A 
ATOM    104  C   UNL     1       6.764   3.199  -6.146  1.00  0.00     0.000 A 
ATOM    105  C   UNL     1       3.915   2.072  -6.953  1.00  0.00     0.000 A 
ATOM    106  C   UNL     1       5.078   2.671  -5.690  1.00  0.00     0.000 A 
ENDBRANCH 100 101
ENDBRANCH  88 100
ENDBRANCH  85  88
ENDBRANCH  83  84
BRANCH  83 107
ATOM    107  C   UNL     1       6.583   6.097  -7.250  1.00  0.00     0.101 C 
BRANCH 107 108
ATOM    108  S   UNL     1       8.396   6.276  -6.968  1.00  0.00    -0.177 SA
ATOM    109  H   UNL     1       8.894   5.112  -6.469  1.00  0.00     0.102 HD
ENDBRANCH 107 108
ENDBRANCH  83 107
ENDBRANCH  80  83
ENDBRANCH  78  79
BRANCH  78 110
ATOM    110  C   UNL     1       7.556   0.767  -5.254  1.00  0.00     0.191 C 
BRANCH 110 111
ATOM    111  O   UNL     1       8.323  -0.282  -4.670  1.00  0.00    -0.394 OA
ATOM    112  H   UNL     1       7.854  -1.124  -4.779  1.00  0.00     0.210 HD
ENDBRANCH 110 111
ENDBRANCH  78 110
ENDBRANCH   2  78
TORSDOF 23
