REMARK SMILES COc1ccc(NC(=O)[C@H](CC(=O)NCCCCNC(=O)c2ccc(-c3c4nc(c(-c5c(F)c(F)c(F)c(F)c5F)c5ccc([nH]5)c(-c5c(F)c(F)c(F)c(F)c5F)c5nc(c(-c6c(F)c(F)c(F)c(F)c6F)c6ccc3[nH]6)C=C5)C=C4)cc2)Cc2ccccc2)cc1
REMARK SMILES IDX 15 1 14 2 12 3 13 4 11 6 10 7 8 8 7 9 9 11 6 12 3 13 4 14
REMARK SMILES IDX 93 15 5 16 92 17 2 18 1 19 85 20 86 21 87 22 91 23 88 24
REMARK SMILES IDX 90 25 89 26 16 27 17 28 18 29 19 30 20 31 21 33 22 34 23 35
REMARK SMILES IDX 84 36 24 37 83 38 25 39 26 40 27 41 77 42 28 43 82 44 76 45
REMARK SMILES IDX 78 46 29 47 81 48 75 49 74 50 30 52 62 53 42 54 61 55 43 56
REMARK SMILES IDX 46 57 60 58 79 59 44 60 45 61 59 63 80 64 47 65 31 66 32 67
REMARK SMILES IDX 40 68 33 69 34 70 38 71 41 72 35 73 36 74 39 75 37 76 63 77
REMARK SMILES IDX 64 78 72 79 65 80 66 81 70 82 73 83 67 84 68 85 71 86 69 87
REMARK SMILES IDX 48 88 49 89 57 90 50 91 51 92 55 93 58 94 52 95 53 96 56 97
REMARK SMILES IDX 54 98
REMARK H PARENT 14 5 7 10 19 32 78 51 46 62
REMARK Flexibility Score: inf
ROOT
ATOM      1  C   UNL     1      -0.300   9.791  -3.426  1.00  0.00     0.116 C 
ENDROOT
BRANCH   1   2
ATOM      2  N   UNL     1       0.347   9.975  -2.149  1.00  0.00    -0.356 N 
ATOM      3  C   UNL     1       0.812   9.061  -1.267  1.00  0.00     0.220 C 
ATOM      4  O   UNL     1       1.238   9.478  -0.189  1.00  0.00    -0.275 OA
ATOM      5  H   UNL     1       0.470  10.914  -1.877  1.00  0.00     0.163 HD
BRANCH   3   6
ATOM      6  C   UNL     1       0.972   7.614  -1.672  1.00  0.00     0.113 C 
BRANCH   6   7
ATOM      7  C   UNL     1      -0.264   6.754  -1.976  1.00  0.00     0.092 C 
BRANCH   7   8
ATOM      8  C   UNL     1      -0.094   5.759  -3.133  1.00  0.00     0.228 C 
ATOM      9  N   UNL     1       1.062   5.115  -3.473  1.00  0.00    -0.326 N 
ATOM     10  H   UNL     1       0.969   4.523  -4.254  1.00  0.00     0.169 HD
ATOM     11  O   UNL     1      -1.076   5.530  -3.854  1.00  0.00    -0.274 OA
BRANCH   9  12
ATOM     12  C   UNL     1       2.353   5.131  -2.927  1.00  0.00     0.041 A 
ATOM     13  C   UNL     1       4.934   5.726  -2.010  1.00  0.00     0.119 A 
ATOM     14  C   UNL     1       3.899   5.494  -1.107  1.00  0.00     0.048 A 
ATOM     15  C   UNL     1       4.710   5.505  -3.367  1.00  0.00     0.048 A 
ATOM     16  C   UNL     1       2.620   5.161  -1.564  1.00  0.00     0.030 A 
ATOM     17  C   UNL     1       3.424   5.193  -3.824  1.00  0.00     0.030 A 
BRANCH  13  18
ATOM     18  O   UNL     1       6.106   6.155  -1.454  1.00  0.00    -0.497 OA
ATOM     19  C   UNL     1       7.019   6.800  -2.338  1.00  0.00     0.278 C 
ENDBRANCH  13  18
ENDBRANCH   9  12
ENDBRANCH   7   8
BRANCH   7  20
ATOM     20  C   UNL     1      -0.909   6.010  -0.793  1.00  0.00     0.049 C 
BRANCH  20  21
ATOM     21  C   UNL     1      -1.103   6.892   0.411  1.00  0.00    -0.047 A 
ATOM     22  C   UNL     1      -2.119   7.857   0.440  1.00  0.00     0.004 A 
ATOM     23  C   UNL     1      -0.191   6.824   1.473  1.00  0.00     0.004 A 
ATOM     24  C   UNL     1      -2.188   8.770   1.492  1.00  0.00     0.000 A 
ATOM     25  C   UNL     1      -0.260   7.742   2.518  1.00  0.00     0.000 A 
ATOM     26  C   UNL     1      -1.251   8.721   2.522  1.00  0.00     0.000 A 
ENDBRANCH  20  21
ENDBRANCH   7  20
ENDBRANCH   6   7
ENDBRANCH   3   6
ENDBRANCH   1   2
BRANCH   1  27
ATOM     27  C   UNL     1      -1.797  10.068  -3.295  1.00  0.00     0.023 C 
BRANCH  27  28
ATOM     28  C   UNL     1      -2.128  11.464  -2.752  1.00  0.00     0.023 C 
BRANCH  28  29
ATOM     29  C   UNL     1      -1.420  12.610  -3.463  1.00  0.00     0.116 C 
BRANCH  29  30
ATOM     30  N   UNL     1      -1.683  12.625  -4.892  1.00  0.00    -0.352 N 
ATOM     31  C   UNL     1      -1.964  13.697  -5.699  1.00  0.00     0.251 C 
ATOM     32  H   UNL     1      -1.656  11.749  -5.340  1.00  0.00     0.163 HD
ATOM     33  O   UNL     1      -2.302  13.530  -6.866  1.00  0.00    -0.269 OA
BRANCH  31  34
ATOM     34  C   UNL     1      -1.890  15.057  -5.134  1.00  0.00     0.039 A 
ATOM     35  C   UNL     1      -2.975  15.917  -5.316  1.00  0.00     0.014 A 
ATOM     36  C   UNL     1      -0.773  15.464  -4.398  1.00  0.00     0.014 A 
ATOM     37  C   UNL     1      -2.964  17.170  -4.706  1.00  0.00     0.010 A 
ATOM     38  C   UNL     1      -0.796  16.686  -3.733  1.00  0.00     0.010 A 
ATOM     39  C   UNL     1      -1.892  17.550  -3.882  1.00  0.00    -0.014 A 
BRANCH  39  40
ATOM     40  C   UNL     1      -1.912  18.846  -3.160  1.00  0.00     0.031 A 
ATOM     41  C   UNL     1      -0.900  19.908  -3.482  1.00  0.00     0.074 A 
ATOM     42  C   UNL     1      -2.814  19.043  -2.180  1.00  0.00     0.049 A 
ATOM     43  N   UNL     1      -0.741  21.090  -2.942  1.00  0.00    -0.248 NA
ATOM     44  C   UNL     1       0.082  19.591  -4.532  1.00  0.00     0.031 C 
ATOM     45  C   UNL     1      -3.811  18.064  -1.741  1.00  0.00     0.029 A 
ATOM     46  N   UNL     1      -3.037  20.129  -1.372  1.00  0.00    -0.354 N 
ATOM     47  C   UNL     1       0.358  21.651  -3.579  1.00  0.00     0.074 A 
ATOM     48  C   UNL     1       0.864  20.659  -4.503  1.00  0.00     0.031 C 
ATOM     49  C   UNL     1      -4.556  18.604  -0.763  1.00  0.00     0.029 A 
ATOM     50  C   UNL     1      -4.067  19.950  -0.482  1.00  0.00     0.049 A 
ATOM     51  H   UNL     1      -2.508  20.958  -1.426  1.00  0.00     0.167 HD
ATOM     52  C   UNL     1       0.880  22.891  -3.425  1.00  0.00     0.037 A 
ATOM     53  C   UNL     1      -4.559  20.779   0.458  1.00  0.00     0.037 A 
ATOM     54  C   UNL     1       0.361  23.879  -2.516  1.00  0.00     0.049 A 
ATOM     55  C   UNL     1      -3.955  22.149   0.613  1.00  0.00     0.074 A 
ATOM     56  C   UNL     1       0.779  25.184  -2.329  1.00  0.00     0.029 A 
ATOM     57  N   UNL     1      -0.690  23.666  -1.635  1.00  0.00    -0.354 N 
ATOM     58  N   UNL     1      -2.968  22.699  -0.051  1.00  0.00    -0.248 NA
ATOM     59  C   UNL     1      -4.541  23.016   1.645  1.00  0.00     0.031 C 
ATOM     60  C   UNL     1       0.017  25.745  -1.299  1.00  0.00     0.029 A 
ATOM     61  C   UNL     1      -0.916  24.808  -0.883  1.00  0.00     0.049 A 
ATOM     62  H   UNL     1      -1.200  22.828  -1.556  1.00  0.00     0.167 HD
ATOM     63  C   UNL     1      -2.829  23.981   0.463  1.00  0.00     0.074 A 
ATOM     64  C   UNL     1      -3.849  24.134   1.479  1.00  0.00     0.031 C 
ATOM     65  C   UNL     1      -1.936  24.944   0.126  1.00  0.00     0.037 A 
BRANCH  52  66
ATOM     66  C   UNL     1       2.076  23.249  -4.261  1.00  0.00     0.064 A 
ATOM     67  C   UNL     1       1.977  23.423  -5.650  1.00  0.00     0.173 A 
ATOM     68  C   UNL     1       3.328  23.457  -3.662  1.00  0.00     0.173 A 
ATOM     69  F   UNL     1       0.806  23.226  -6.274  1.00  0.00    -0.203 F 
ATOM     70  C   UNL     1       3.093  23.762  -6.412  1.00  0.00     0.198 A 
ATOM     71  C   UNL     1       4.434  23.827  -4.423  1.00  0.00     0.198 A 
ATOM     72  F   UNL     1       3.478  23.309  -2.337  1.00  0.00    -0.203 F 
ATOM     73  F   UNL     1       2.984  23.871  -7.743  1.00  0.00    -0.200 F 
ATOM     74  C   UNL     1       4.318  23.971  -5.797  1.00  0.00     0.200 A 
ATOM     75  F   UNL     1       5.614  24.041  -3.826  1.00  0.00    -0.200 F 
ATOM     76  F   UNL     1       5.388  24.304  -6.530  1.00  0.00    -0.200 F 
ENDBRANCH  52  66
BRANCH  53  77
ATOM     77  C   UNL     1      -5.700  20.348   1.307  1.00  0.00     0.064 A 
ATOM     78  C   UNL     1      -6.962  20.944   1.176  1.00  0.00     0.173 A 
ATOM     79  C   UNL     1      -5.554  19.337   2.269  1.00  0.00     0.173 A 
ATOM     80  F   UNL     1      -7.148  21.929   0.284  1.00  0.00    -0.203 F 
ATOM     81  C   UNL     1      -8.027  20.564   1.990  1.00  0.00     0.198 A 
ATOM     82  C   UNL     1      -6.627  18.936   3.061  1.00  0.00     0.198 A 
ATOM     83  F   UNL     1      -4.369  18.730   2.430  1.00  0.00    -0.203 F 
ATOM     84  F   UNL     1      -9.209  21.185   1.877  1.00  0.00    -0.200 F 
ATOM     85  C   UNL     1      -7.860  19.556   2.928  1.00  0.00     0.200 A 
ATOM     86  F   UNL     1      -6.466  17.951   3.955  1.00  0.00    -0.200 F 
ATOM     87  F   UNL     1      -8.885  19.188   3.708  1.00  0.00    -0.200 F 
ENDBRANCH  53  77
BRANCH  65  88
ATOM     88  C   UNL     1      -2.042  26.258   0.844  1.00  0.00     0.064 A 
ATOM     89  C   UNL     1      -1.693  26.389   2.197  1.00  0.00     0.173 A 
ATOM     90  C   UNL     1      -2.471  27.408   0.163  1.00  0.00     0.173 A 
ATOM     91  F   UNL     1      -1.291  25.317   2.897  1.00  0.00    -0.203 F 
ATOM     92  C   UNL     1      -1.800  27.615   2.848  1.00  0.00     0.198 A 
ATOM     93  C   UNL     1      -2.545  28.639   0.809  1.00  0.00     0.198 A 
ATOM     94  F   UNL     1      -2.810  27.340  -1.133  1.00  0.00    -0.203 F 
ATOM     95  F   UNL     1      -1.514  27.703   4.155  1.00  0.00    -0.200 F 
ATOM     96  C   UNL     1      -2.219  28.739   2.153  1.00  0.00     0.200 A 
ATOM     97  F   UNL     1      -2.935  29.727   0.132  1.00  0.00    -0.200 F 
ATOM     98  F   UNL     1      -2.316  29.919   2.781  1.00  0.00    -0.200 F 
ENDBRANCH  65  88
ENDBRANCH  39  40
ENDBRANCH  31  34
ENDBRANCH  29  30
ENDBRANCH  28  29
ENDBRANCH  27  28
ENDBRANCH   1  27
TORSDOF 17
