REMARK SMILES CC(C)(C)c1cc(-n2cnc(C(=O)NCCCCNC(=O)c3ccc(-c4c5nc(c(-c6c(F)c(F)c(F)c(F)c6F)c6ccc([nH]6)c(-c6c(F)c(F)c(F)c(F)c6F)c6nc(c(-c7c(F)c(F)c(F)c(F)c7F)c7ccc4[nH]7)C=C6)C=C5)cc3)c2)nc(Cl)n1
REMARK SMILES IDX 16 1 15 2 14 3 12 4 13 5 11 7 8 8 9 9 85 10 10 11 7 12 5 13
REMARK SMILES IDX 6 14 89 15 87 16 86 17 88 18 2 19 1 20 3 21 4 22 17 23 18 24
REMARK SMILES IDX 19 25 20 26 21 28 22 29 23 30 84 31 24 32 83 33 25 34 26 35
REMARK SMILES IDX 27 36 77 37 28 38 82 39 76 40 78 41 29 42 81 43 75 44 74 45
REMARK SMILES IDX 30 47 62 48 42 49 61 50 43 51 46 52 60 53 79 54 44 55 45 56
REMARK SMILES IDX 59 58 80 59 47 60 31 61 32 62 40 63 33 64 34 65 38 66 41 67
REMARK SMILES IDX 35 68 36 69 39 70 37 71 63 72 64 73 72 74 65 75 66 76 70 77
REMARK SMILES IDX 73 78 67 79 68 80 71 81 69 82 48 83 49 84 57 85 50 86 51 87
REMARK SMILES IDX 55 88 58 89 52 90 53 91 56 92 54 93
REMARK H PARENT 14 6 19 27 78 46 46 57
REMARK Flexibility Score: inf
ROOT
ATOM      1  C   UNL     1      -1.969  -6.127  -3.366  1.00  0.00     0.023 C 
ENDROOT
BRANCH   1   2
ATOM      2  C   UNL     1      -2.953  -5.851  -2.227  1.00  0.00     0.116 C 
BRANCH   2   3
ATOM      3  N   UNL     1      -3.287  -7.041  -1.469  1.00  0.00    -0.351 N 
ATOM      4  C   UNL     1      -2.818  -7.588  -0.294  1.00  0.00     0.271 C 
ATOM      5  O   UNL     1      -3.387  -8.623   0.071  1.00  0.00    -0.267 OA
ATOM      6  H   UNL     1      -4.003  -7.574  -1.884  1.00  0.00     0.163 HD
BRANCH   4   7
ATOM      7  C   UNL     1      -1.727  -6.991   0.491  1.00  0.00     0.146 A 
ATOM      8  N   UNL     1      -0.129  -5.704   1.328  1.00  0.00    -0.290 N 
ATOM      9  C   UNL     1      -0.233  -6.842   2.074  1.00  0.00     0.206 A 
ATOM     10  C   UNL     1      -1.015  -5.831   0.283  1.00  0.00     0.128 A 
ATOM     11  N   UNL     1      -1.219  -7.601   1.640  1.00  0.00    -0.231 NA
BRANCH   8  12
ATOM     12  C   UNL     1       0.718  -4.596   1.522  1.00  0.00     0.143 A 
ATOM     13  C   UNL     1       1.021  -2.256   1.362  1.00  0.00     0.053 A 
ATOM     14  C   UNL     1       0.171  -3.339   1.295  1.00  0.00     0.072 A 
ATOM     15  N   UNL     1       2.345  -2.445   1.551  1.00  0.00    -0.222 NA
ATOM     16  C   UNL     1       2.761  -3.705   1.768  1.00  0.00     0.224 A 
ATOM     17  N   UNL     1       2.009  -4.810   1.815  1.00  0.00    -0.200 NA
ATOM     18  Cl  UNL     1       4.448  -3.931   1.887  1.00  0.00    -0.041 Cl
BRANCH  13  19
ATOM     19  C   UNL     1       0.524  -0.810   1.246  1.00  0.00     0.004 C 
ATOM     20  C   UNL     1       1.085  -0.179  -0.040  1.00  0.00     0.017 C 
ATOM     21  C   UNL     1       1.030  -0.023   2.471  1.00  0.00     0.017 C 
ATOM     22  C   UNL     1      -1.015  -0.671   1.211  1.00  0.00     0.017 C 
ENDBRANCH  13  19
ENDBRANCH   8  12
ENDBRANCH   4   7
ENDBRANCH   2   3
ENDBRANCH   1   2
BRANCH   1  23
ATOM     23  C   UNL     1      -2.602  -6.746  -4.624  1.00  0.00     0.023 C 
BRANCH  23  24
ATOM     24  C   UNL     1      -3.645  -5.876  -5.324  1.00  0.00     0.116 C 
BRANCH  24  25
ATOM     25  N   UNL     1      -3.107  -4.608  -5.817  1.00  0.00    -0.352 N 
ATOM     26  C   UNL     1      -3.815  -3.525  -6.288  1.00  0.00     0.251 C 
ATOM     27  H   UNL     1      -2.126  -4.519  -5.811  1.00  0.00     0.163 HD
ATOM     28  O   UNL     1      -3.293  -2.704  -7.050  1.00  0.00    -0.269 OA
BRANCH  26  29
ATOM     29  C   UNL     1      -5.206  -3.338  -5.854  1.00  0.00     0.039 A 
ATOM     30  C   UNL     1      -6.215  -2.998  -6.759  1.00  0.00     0.014 A 
ATOM     31  C   UNL     1      -5.494  -3.552  -4.507  1.00  0.00     0.014 A 
ATOM     32  C   UNL     1      -7.532  -2.967  -6.311  1.00  0.00     0.010 A 
ATOM     33  C   UNL     1      -6.800  -3.644  -4.095  1.00  0.00     0.010 A 
ATOM     34  C   UNL     1      -7.823  -3.321  -4.981  1.00  0.00    -0.014 A 
BRANCH  34  35
ATOM     35  C   UNL     1      -9.207  -3.536  -4.563  1.00  0.00     0.031 A 
ATOM     36  C   UNL     1      -9.934  -4.518  -5.415  1.00  0.00     0.074 A 
ATOM     37  C   UNL     1      -9.710  -3.077  -3.394  1.00  0.00     0.049 A 
ATOM     38  N   UNL     1     -10.929  -4.284  -6.203  1.00  0.00    -0.248 NA
ATOM     39  C   UNL     1      -9.398  -5.886  -5.534  1.00  0.00     0.031 C 
ATOM     40  C   UNL     1      -8.983  -2.368  -2.334  1.00  0.00     0.029 A 
ATOM     41  N   UNL     1     -10.950  -3.239  -2.845  1.00  0.00    -0.354 N 
ATOM     42  C   UNL     1     -11.296  -5.521  -6.732  1.00  0.00     0.074 A 
ATOM     43  C   UNL     1     -10.207  -6.415  -6.457  1.00  0.00     0.031 C 
ATOM     44  C   UNL     1      -9.708  -2.384  -1.194  1.00  0.00     0.029 A 
ATOM     45  C   UNL     1     -11.014  -2.943  -1.485  1.00  0.00     0.049 A 
ATOM     46  H   UNL     1     -11.731  -3.540  -3.364  1.00  0.00     0.167 HD
ATOM     47  C   UNL     1     -12.600  -5.762  -7.047  1.00  0.00     0.037 A 
ATOM     48  C   UNL     1     -12.061  -3.148  -0.648  1.00  0.00     0.037 A 
ATOM     49  C   UNL     1     -13.333  -4.520  -7.098  1.00  0.00     0.049 A 
ATOM     50  C   UNL     1     -13.276  -3.250  -1.484  1.00  0.00     0.074 A 
ATOM     51  C   UNL     1     -13.381  -3.414  -7.917  1.00  0.00     0.029 A 
ATOM     52  N   UNL     1     -13.876  -4.162  -5.894  1.00  0.00    -0.354 N 
ATOM     53  N   UNL     1     -13.767  -2.250  -2.161  1.00  0.00    -0.248 NA
ATOM     54  C   UNL     1     -13.764  -4.567  -1.870  1.00  0.00     0.031 C 
ATOM     55  C   UNL     1     -13.779  -2.326  -7.082  1.00  0.00     0.029 A 
ATOM     56  C   UNL     1     -14.020  -2.808  -5.795  1.00  0.00     0.049 A 
ATOM     57  H   UNL     1     -14.131  -4.799  -5.189  1.00  0.00     0.167 HD
ATOM     58  C   UNL     1     -14.247  -2.829  -3.318  1.00  0.00     0.074 A 
ATOM     59  C   UNL     1     -14.393  -4.245  -3.003  1.00  0.00     0.031 C 
ATOM     60  C   UNL     1     -14.156  -2.166  -4.507  1.00  0.00     0.037 A 
BRANCH  47  61
ATOM     61  C   UNL     1     -13.336  -7.063  -6.754  1.00  0.00     0.064 A 
ATOM     62  C   UNL     1     -14.702  -7.158  -7.109  1.00  0.00     0.173 A 
ATOM     63  C   UNL     1     -12.886  -8.049  -5.849  1.00  0.00     0.173 A 
ATOM     64  F   UNL     1     -15.251  -6.270  -7.952  1.00  0.00    -0.203 F 
ATOM     65  C   UNL     1     -15.560  -8.097  -6.526  1.00  0.00     0.198 A 
ATOM     66  C   UNL     1     -13.736  -9.014  -5.306  1.00  0.00     0.198 A 
ATOM     67  F   UNL     1     -11.644  -8.060  -5.356  1.00  0.00    -0.203 F 
ATOM     68  F   UNL     1     -16.873  -8.056  -6.792  1.00  0.00    -0.200 F 
ATOM     69  C   UNL     1     -15.078  -9.018  -5.616  1.00  0.00     0.200 A 
ATOM     70  F   UNL     1     -13.251  -9.882  -4.406  1.00  0.00    -0.200 F 
ATOM     71  F   UNL     1     -15.906  -9.872  -5.003  1.00  0.00    -0.200 F 
ENDBRANCH  47  61
BRANCH  48  72
ATOM     72  C   UNL     1     -12.065  -3.481   0.797  1.00  0.00     0.064 A 
ATOM     73  C   UNL     1     -13.229  -3.348   1.574  1.00  0.00     0.173 A 
ATOM     74  C   UNL     1     -11.011  -4.214   1.375  1.00  0.00     0.173 A 
ATOM     75  F   UNL     1     -14.295  -2.696   1.087  1.00  0.00    -0.203 F 
ATOM     76  C   UNL     1     -13.347  -3.947   2.834  1.00  0.00     0.198 A 
ATOM     77  C   UNL     1     -11.127  -4.808   2.634  1.00  0.00     0.198 A 
ATOM     78  F   UNL     1      -9.884  -4.451   0.688  1.00  0.00    -0.203 F 
ATOM     79  F   UNL     1     -14.499  -3.856   3.513  1.00  0.00    -0.200 F 
ATOM     80  C   UNL     1     -12.300  -4.689   3.356  1.00  0.00     0.200 A 
ATOM     81  F   UNL     1     -10.120  -5.552   3.112  1.00  0.00    -0.200 F 
ATOM     82  F   UNL     1     -12.437  -5.322   4.529  1.00  0.00    -0.200 F 
ENDBRANCH  48  72
BRANCH  60  83
ATOM     83  C   UNL     1     -14.034  -0.674  -4.455  1.00  0.00     0.064 A 
ATOM     84  C   UNL     1     -12.937   0.025  -3.926  1.00  0.00     0.173 A 
ATOM     85  C   UNL     1     -15.056   0.078  -5.050  1.00  0.00     0.173 A 
ATOM     86  F   UNL     1     -11.884  -0.623  -3.414  1.00  0.00    -0.203 F 
ATOM     87  C   UNL     1     -12.893   1.419  -3.955  1.00  0.00     0.198 A 
ATOM     88  C   UNL     1     -14.990   1.464  -5.113  1.00  0.00     0.198 A 
ATOM     89  F   UNL     1     -16.109  -0.542  -5.607  1.00  0.00    -0.203 F 
ATOM     90  F   UNL     1     -11.846   2.068  -3.424  1.00  0.00    -0.200 F 
ATOM     91  C   UNL     1     -13.915   2.135  -4.555  1.00  0.00     0.200 A 
ATOM     92  F   UNL     1     -15.961   2.148  -5.734  1.00  0.00    -0.200 F 
ATOM     93  F   UNL     1     -13.856   3.473  -4.614  1.00  0.00    -0.200 F 
ENDBRANCH  60  83
ENDBRANCH  34  35
ENDBRANCH  26  29
ENDBRANCH  24  25
ENDBRANCH  23  24
ENDBRANCH   1  23
TORSDOF 13
