REMARK SMILES CC(C)Cc1ccc([C@@H](C)C(=O)NCCCCNC(=O)c2ccc(-c3c4nc(c(-c5c(F)c(F)c(F)c(F)c5F)c5ccc([nH]5)c(-c5c(F)c(F)c(F)c(F)c5F)c5nc(c(-c6c(F)c(F)c(F)c(F)c6F)c6ccc3[nH]6)C=C5)C=C4)cc2)cc1
REMARK SMILES IDX 15 1 14 2 13 3 11 4 12 5 9 7 10 8 8 9 5 10 6 11 85 12 7 13
REMARK SMILES IDX 84 14 4 15 2 16 1 17 3 18 16 19 17 20 18 21 19 22 20 24
REMARK SMILES IDX 21 25 22 26 83 27 23 28 82 29 24 30 25 31 26 32 76 33 27 34
REMARK SMILES IDX 81 35 75 36 77 37 28 38 80 39 74 40 73 41 29 43 61 44 41 45
REMARK SMILES IDX 60 46 42 47 45 48 59 49 78 50 43 51 44 52 58 54 79 55 46 56
REMARK SMILES IDX 30 57 31 58 39 59 32 60 33 61 37 62 40 63 34 64 35 65 38 66
REMARK SMILES IDX 36 67 62 68 63 69 71 70 64 71 65 72 69 73 72 74 66 75 67 76
REMARK SMILES IDX 70 77 68 78 47 79 48 80 56 81 49 82 50 83 54 84 57 85 51 86
REMARK SMILES IDX 52 87 55 88 53 89
REMARK H PARENT 13 6 18 23 77 42 45 53
REMARK Flexibility Score: inf
ROOT
ATOM      1  C   UNL     1      -2.321   5.548  -1.790  1.00  0.00     0.023 C 
ENDROOT
BRANCH   1   2
ATOM      2  C   UNL     1      -2.219   6.446  -0.555  1.00  0.00     0.116 C 
BRANCH   2   3
ATOM      3  N   UNL     1      -3.294   6.211   0.384  1.00  0.00    -0.356 N 
ATOM      4  C   UNL     1      -3.378   5.407   1.481  1.00  0.00     0.227 C 
ATOM      5  O   UNL     1      -4.474   5.381   2.055  1.00  0.00    -0.274 OA
ATOM      6  H   UNL     1      -4.113   6.724   0.197  1.00  0.00     0.163 HD
BRANCH   4   7
ATOM      7  C   UNL     1      -2.207   4.579   2.031  1.00  0.00     0.105 C 
ATOM      8  C   UNL     1      -1.022   5.420   2.511  1.00  0.00     0.023 C 
BRANCH   7   9
ATOM      9  C   UNL     1      -1.849   3.378   1.172  1.00  0.00    -0.036 A 
ATOM     10  C   UNL     1      -1.272   1.124  -0.446  1.00  0.00    -0.048 A 
ATOM     11  C   UNL     1      -0.638   2.349  -0.667  1.00  0.00     0.004 A 
ATOM     12  C   UNL     1      -2.223   1.040   0.576  1.00  0.00     0.004 A 
ATOM     13  C   UNL     1      -0.881   3.439   0.166  1.00  0.00     0.005 A 
ATOM     14  C   UNL     1      -2.519   2.159   1.364  1.00  0.00     0.005 A 
BRANCH  10  15
ATOM     15  C   UNL     1      -0.922  -0.084  -1.285  1.00  0.00     0.038 C 
BRANCH  15  16
ATOM     16  C   UNL     1       0.600  -0.303  -1.452  1.00  0.00    -0.013 C 
ATOM     17  C   UNL     1       1.294  -0.528  -0.105  1.00  0.00     0.008 C 
ATOM     18  C   UNL     1       0.875  -1.479  -2.387  1.00  0.00     0.008 C 
ENDBRANCH  15  16
ENDBRANCH  10  15
ENDBRANCH   7   9
ENDBRANCH   4   7
ENDBRANCH   2   3
ENDBRANCH   1   2
BRANCH   1  19
ATOM     19  C   UNL     1      -3.174   6.102  -2.926  1.00  0.00     0.023 C 
BRANCH  19  20
ATOM     20  C   UNL     1      -2.678   7.408  -3.535  1.00  0.00     0.116 C 
BRANCH  20  21
ATOM     21  N   UNL     1      -1.320   7.349  -4.057  1.00  0.00    -0.352 N 
ATOM     22  C   UNL     1      -0.793   8.021  -5.138  1.00  0.00     0.251 C 
ATOM     23  H   UNL     1      -0.700   6.754  -3.576  1.00  0.00     0.163 HD
ATOM     24  O   UNL     1       0.357   7.825  -5.502  1.00  0.00    -0.269 OA
BRANCH  22  25
ATOM     25  C   UNL     1      -1.667   8.947  -5.891  1.00  0.00     0.039 A 
ATOM     26  C   UNL     1      -1.795   8.777  -7.271  1.00  0.00     0.014 A 
ATOM     27  C   UNL     1      -2.423   9.910  -5.220  1.00  0.00     0.014 A 
ATOM     28  C   UNL     1      -2.759   9.508  -7.966  1.00  0.00     0.010 A 
ATOM     29  C   UNL     1      -3.434  10.580  -5.898  1.00  0.00     0.010 A 
ATOM     30  C   UNL     1      -3.622  10.374  -7.274  1.00  0.00    -0.014 A 
BRANCH  30  31
ATOM     31  C   UNL     1      -4.751  11.050  -7.959  1.00  0.00     0.031 A 
ATOM     32  C   UNL     1      -4.794  12.548  -8.041  1.00  0.00     0.074 A 
ATOM     33  C   UNL     1      -5.784  10.316  -8.419  1.00  0.00     0.049 A 
ATOM     34  N   UNL     1      -5.739  13.325  -8.507  1.00  0.00    -0.248 NA
ATOM     35  C   UNL     1      -3.636  13.272  -7.494  1.00  0.00     0.031 C 
ATOM     36  C   UNL     1      -5.889   8.858  -8.336  1.00  0.00     0.029 A 
ATOM     37  N   UNL     1      -6.952  10.698  -9.030  1.00  0.00    -0.354 N 
ATOM     38  C   UNL     1      -5.298  14.623  -8.291  1.00  0.00     0.074 A 
ATOM     39  C   UNL     1      -4.026  14.532  -7.608  1.00  0.00     0.031 C 
ATOM     40  C   UNL     1      -7.048   8.468  -8.893  1.00  0.00     0.029 A 
ATOM     41  C   UNL     1      -7.782   9.648  -9.339  1.00  0.00     0.049 A 
ATOM     42  H   UNL     1      -7.173  11.637  -9.229  1.00  0.00     0.167 HD
ATOM     43  C   UNL     1      -5.892  15.786  -8.651  1.00  0.00     0.037 A 
ATOM     44  C   UNL     1      -9.001   9.640  -9.909  1.00  0.00     0.037 A 
ATOM     45  C   UNL     1      -7.138  15.870  -9.364  1.00  0.00     0.049 A 
ATOM     46  C   UNL     1      -9.629  10.944 -10.319  1.00  0.00     0.074 A 
ATOM     47  C   UNL     1      -7.779  16.996  -9.852  1.00  0.00     0.029 A 
ATOM     48  N   UNL     1      -7.936  14.783  -9.690  1.00  0.00    -0.354 N 
ATOM     49  N   UNL     1      -9.165  12.162 -10.183  1.00  0.00    -0.248 NA
ATOM     50  C   UNL     1     -10.947  10.871 -10.963  1.00  0.00     0.031 C 
ATOM     51  C   UNL     1      -8.983  16.593 -10.439  1.00  0.00     0.029 A 
ATOM     52  C   UNL     1      -9.073  15.213 -10.353  1.00  0.00     0.049 A 
ATOM     53  H   UNL     1      -7.724  13.844  -9.481  1.00  0.00     0.167 HD
ATOM     54  C   UNL     1     -10.122  12.998 -10.741  1.00  0.00     0.074 A 
ATOM     55  C   UNL     1     -11.186  12.147 -11.233  1.00  0.00     0.031 C 
ATOM     56  C   UNL     1     -10.121  14.350 -10.835  1.00  0.00     0.037 A 
BRANCH  43  57
ATOM     57  C   UNL     1      -5.192  17.061  -8.288  1.00  0.00     0.064 A 
ATOM     58  C   UNL     1      -4.004  17.454  -8.924  1.00  0.00     0.173 A 
ATOM     59  C   UNL     1      -5.729  17.916  -7.313  1.00  0.00     0.173 A 
ATOM     60  F   UNL     1      -3.443  16.666  -9.853  1.00  0.00    -0.203 F 
ATOM     61  C   UNL     1      -3.365  18.641  -8.576  1.00  0.00     0.198 A 
ATOM     62  C   UNL     1      -5.102  19.116  -6.989  1.00  0.00     0.198 A 
ATOM     63  F   UNL     1      -6.864  17.588  -6.678  1.00  0.00    -0.203 F 
ATOM     64  F   UNL     1      -2.205  18.972  -9.162  1.00  0.00    -0.200 F 
ATOM     65  C   UNL     1      -3.917  19.474  -7.615  1.00  0.00     0.200 A 
ATOM     66  F   UNL     1      -5.642  19.924  -6.067  1.00  0.00    -0.200 F 
ATOM     67  F   UNL     1      -3.303  20.618  -7.285  1.00  0.00    -0.200 F 
ENDBRANCH  43  57
BRANCH  44  68
ATOM     68  C   UNL     1      -9.698   8.350 -10.150  1.00  0.00     0.064 A 
ATOM     69  C   UNL     1      -9.847   7.846 -11.449  1.00  0.00     0.173 A 
ATOM     70  C   UNL     1     -10.223   7.595  -9.092  1.00  0.00     0.173 A 
ATOM     71  F   UNL     1      -9.379   8.544 -12.495  1.00  0.00    -0.203 F 
ATOM     72  C   UNL     1     -10.511   6.644 -11.684  1.00  0.00     0.198 A 
ATOM     73  C   UNL     1     -10.865   6.380  -9.325  1.00  0.00     0.198 A 
ATOM     74  F   UNL     1     -10.102   8.031  -7.830  1.00  0.00    -0.203 F 
ATOM     75  F   UNL     1     -10.674   6.205 -12.939  1.00  0.00    -0.200 F 
ATOM     76  C   UNL     1     -11.014   5.909 -10.621  1.00  0.00     0.200 A 
ATOM     77  F   UNL     1     -11.339   5.666  -8.295  1.00  0.00    -0.200 F 
ATOM     78  F   UNL     1     -11.648   4.750 -10.847  1.00  0.00    -0.200 F 
ENDBRANCH  44  68
BRANCH  56  79
ATOM     79  C   UNL     1     -11.297  14.991 -11.510  1.00  0.00     0.064 A 
ATOM     80  C   UNL     1     -12.546  15.074 -10.880  1.00  0.00     0.173 A 
ATOM     81  C   UNL     1     -11.160  15.569 -12.781  1.00  0.00     0.173 A 
ATOM     82  F   UNL     1     -12.730  14.522  -9.671  1.00  0.00    -0.203 F 
ATOM     83  C   UNL     1     -13.623  15.695 -11.507  1.00  0.00     0.198 A 
ATOM     84  C   UNL     1     -12.231  16.212 -13.394  1.00  0.00     0.198 A 
ATOM     85  F   UNL     1      -9.982  15.520 -13.423  1.00  0.00    -0.203 F 
ATOM     86  F   UNL     1     -14.819  15.728 -10.903  1.00  0.00    -0.200 F 
ATOM     87  C   UNL     1     -13.462  16.270 -12.759  1.00  0.00     0.200 A 
ATOM     88  F   UNL     1     -12.071  16.777 -14.598  1.00  0.00    -0.200 F 
ATOM     89  F   UNL     1     -14.498  16.875 -13.357  1.00  0.00    -0.200 F 
ENDBRANCH  56  79
ENDBRANCH  30  31
ENDBRANCH  22  25
ENDBRANCH  20  21
ENDBRANCH  19  20
ENDBRANCH   1  19
TORSDOF 14
