REMARK SMILES C#CC[C@@H](C(=O)NCCCCNC(=O)c1ccc(-c2c3nc(c(-c4c(F)c(F)c(F)c(F)c4F)c4ccc([nH]4)c(-c4c(F)c(F)c(F)c(F)c4F)c4nc(c(-c5c(F)c(F)c(F)c(F)c5F)c5ccc2[nH]5)C=C4)C=C3)cc1)[C@H]1CCS(=O)(=O)C1
REMARK SMILES IDX 9 1 8 2 7 3 5 4 6 5 4 7 3 8 2 9 1 10 78 11 79 12 84 13 80 14
REMARK SMILES IDX 81 15 82 16 83 17 10 18 11 19 12 20 13 21 14 23 15 24 16 25
REMARK SMILES IDX 77 26 17 27 76 28 18 29 19 30 20 31 70 32 21 33 75 34 69 35
REMARK SMILES IDX 71 36 22 37 74 38 68 39 67 40 23 42 55 43 35 44 54 45 36 46
REMARK SMILES IDX 39 47 53 48 72 49 37 50 38 51 52 53 73 54 40 55 24 56 25 57
REMARK SMILES IDX 33 58 26 59 27 60 31 61 34 62 28 63 29 64 32 65 30 66 56 67
REMARK SMILES IDX 57 68 65 69 58 70 59 71 63 72 66 73 60 74 61 75 64 76 62 77
REMARK SMILES IDX 41 78 42 79 50 80 43 81 44 82 48 83 51 84 45 85 46 86 49 87
REMARK SMILES IDX 47 88
REMARK H PARENT 7 6 12 22 71 41 39 52
REMARK Flexibility Score: inf
ROOT
ATOM      1  C   UNL     1      -4.762  -3.149   3.663  1.00  0.00     0.023 C 
ENDROOT
BRANCH   1   2
ATOM      2  C   UNL     1      -5.753  -2.833   2.525  1.00  0.00     0.116 C 
BRANCH   2   3
ATOM      3  N   UNL     1      -5.515  -1.479   2.047  1.00  0.00    -0.356 N 
ATOM      4  C   UNL     1      -4.507  -1.035   1.234  1.00  0.00     0.224 C 
ATOM      5  O   UNL     1      -3.935  -0.006   1.598  1.00  0.00    -0.275 OA
ATOM      6  H   UNL     1      -6.159  -0.798   2.347  1.00  0.00     0.163 HD
BRANCH   4   7
ATOM      7  C   UNL     1      -4.181  -1.704  -0.121  1.00  0.00     0.094 C 
BRANCH   7   8
ATOM      8  C   UNL     1      -2.950  -2.653  -0.058  1.00  0.00     0.103 C 
BRANCH   8   9
ATOM      9  C   UNL     1      -3.200  -3.802   0.905  1.00  0.00    -0.106 C 
ATOM     10  C   UNL     1      -3.416  -4.788   1.731  1.00  0.00     0.004 C 
ENDBRANCH   8   9
ENDBRANCH   7   8
BRANCH   7  11
ATOM     11  C   UNL     1      -3.858  -0.628  -1.222  1.00  0.00     0.018 C 
ATOM     12  C   UNL     1      -4.411  -1.016  -2.610  1.00  0.00     0.021 C 
ATOM     13  C   UNL     1      -4.385   0.802  -1.012  1.00  0.00     0.141 C 
ATOM     14  C   UNL     1      -4.088   0.136  -3.564  1.00  0.00     0.137 C 
ATOM     15  S   UNL     1      -4.130   1.621  -2.578  1.00  0.00     0.150 S 
ATOM     16  O   UNL     1      -2.808   2.207  -2.587  1.00  0.00    -0.229 OA
ATOM     17  O   UNL     1      -5.319   2.381  -2.910  1.00  0.00    -0.229 OA
ENDBRANCH   7  11
ENDBRANCH   4   7
ENDBRANCH   2   3
ENDBRANCH   1   2
BRANCH   1  18
ATOM     18  C   UNL     1      -5.304  -3.204   5.070  1.00  0.00     0.023 C 
BRANCH  18  19
ATOM     19  C   UNL     1      -6.301  -4.331   5.292  1.00  0.00     0.116 C 
BRANCH  19  20
ATOM     20  N   UNL     1      -5.873  -5.682   4.904  1.00  0.00    -0.352 N 
ATOM     21  C   UNL     1      -6.144  -6.879   5.543  1.00  0.00     0.251 C 
ATOM     22  H   UNL     1      -5.324  -5.743   4.089  1.00  0.00     0.163 HD
ATOM     23  O   UNL     1      -5.718  -7.946   5.120  1.00  0.00    -0.269 OA
BRANCH  21  24
ATOM     24  C   UNL     1      -6.920  -6.816   6.795  1.00  0.00     0.039 A 
ATOM     25  C   UNL     1      -6.353  -7.299   7.974  1.00  0.00     0.014 A 
ATOM     26  C   UNL     1      -8.077  -6.042   6.816  1.00  0.00     0.014 A 
ATOM     27  C   UNL     1      -6.875  -6.875   9.195  1.00  0.00     0.010 A 
ATOM     28  C   UNL     1      -8.477  -5.489   8.019  1.00  0.00     0.010 A 
ATOM     29  C   UNL     1      -7.887  -5.900   9.225  1.00  0.00    -0.014 A 
BRANCH  29  30
ATOM     30  C   UNL     1      -8.361  -5.292  10.495  1.00  0.00     0.031 A 
ATOM     31  C   UNL     1      -9.828  -5.344  10.831  1.00  0.00     0.074 A 
ATOM     32  C   UNL     1      -7.505  -4.620  11.292  1.00  0.00     0.049 A 
ATOM     33  N   UNL     1     -10.472  -4.787  11.824  1.00  0.00    -0.248 NA
ATOM     34  C   UNL     1     -10.698  -6.074   9.892  1.00  0.00     0.031 C 
ATOM     35  C   UNL     1      -6.075  -4.427  11.040  1.00  0.00     0.029 A 
ATOM     36  N   UNL     1      -7.717  -3.964  12.480  1.00  0.00    -0.354 N 
ATOM     37  C   UNL     1     -11.812  -5.079  11.608  1.00  0.00     0.074 A 
ATOM     38  C   UNL     1     -11.902  -5.774  10.346  1.00  0.00     0.031 C 
ATOM     39  C   UNL     1      -5.532  -3.746  12.062  1.00  0.00     0.029 A 
ATOM     40  C   UNL     1      -6.580  -3.411  13.020  1.00  0.00     0.049 A 
ATOM     41  H   UNL     1      -8.602  -3.897  12.907  1.00  0.00     0.167 HD
ATOM     42  C   UNL     1     -12.871  -4.834  12.412  1.00  0.00     0.037 A 
ATOM     43  C   UNL     1      -6.407  -2.712  14.159  1.00  0.00     0.037 A 
ATOM     44  C   UNL     1     -12.769  -4.185  13.689  1.00  0.00     0.049 A 
ATOM     45  C   UNL     1      -7.601  -2.457  15.043  1.00  0.00     0.074 A 
ATOM     46  C   UNL     1     -13.765  -3.950  14.618  1.00  0.00     0.029 A 
ATOM     47  N   UNL     1     -11.594  -3.669  14.217  1.00  0.00    -0.354 N 
ATOM     48  N   UNL     1      -8.851  -2.814  14.871  1.00  0.00    -0.248 NA
ATOM     49  C   UNL     1      -7.358  -1.709  16.285  1.00  0.00     0.031 C 
ATOM     50  C   UNL     1     -13.204  -3.242  15.685  1.00  0.00     0.029 A 
ATOM     51  C   UNL     1     -11.846  -3.094  15.450  1.00  0.00     0.049 A 
ATOM     52  H   UNL     1     -10.713  -3.707  13.780  1.00  0.00     0.167 HD
ATOM     53  C   UNL     1      -9.535  -2.366  15.993  1.00  0.00     0.074 A 
ATOM     54  C   UNL     1      -8.557  -1.725  16.848  1.00  0.00     0.031 C 
ATOM     55  C   UNL     1     -10.853  -2.475  16.291  1.00  0.00     0.037 A 
BRANCH  42  56
ATOM     56  C   UNL     1     -14.222  -5.286  11.936  1.00  0.00     0.064 A 
ATOM     57  C   UNL     1     -14.540  -6.647  11.800  1.00  0.00     0.173 A 
ATOM     58  C   UNL     1     -15.216  -4.348  11.623  1.00  0.00     0.173 A 
ATOM     59  F   UNL     1     -13.621  -7.587  12.068  1.00  0.00    -0.203 F 
ATOM     60  C   UNL     1     -15.788  -7.049  11.333  1.00  0.00     0.198 A 
ATOM     61  C   UNL     1     -16.477  -4.755  11.194  1.00  0.00     0.198 A 
ATOM     62  F   UNL     1     -14.967  -3.034  11.734  1.00  0.00    -0.203 F 
ATOM     63  F   UNL     1     -16.044  -8.352  11.148  1.00  0.00    -0.200 F 
ATOM     64  C   UNL     1     -16.758  -6.104  11.039  1.00  0.00     0.200 A 
ATOM     65  F   UNL     1     -17.417  -3.840  10.922  1.00  0.00    -0.200 F 
ATOM     66  F   UNL     1     -17.962  -6.492  10.596  1.00  0.00    -0.200 F 
ENDBRANCH  42  56
BRANCH  43  67
ATOM     67  C   UNL     1      -5.053  -2.230  14.549  1.00  0.00     0.064 A 
ATOM     68  C   UNL     1      -4.396  -2.759  15.670  1.00  0.00     0.173 A 
ATOM     69  C   UNL     1      -4.395  -1.224  13.826  1.00  0.00     0.173 A 
ATOM     70  F   UNL     1      -4.989  -3.709  16.407  1.00  0.00    -0.203 F 
ATOM     71  C   UNL     1      -3.148  -2.281  16.069  1.00  0.00     0.198 A 
ATOM     72  C   UNL     1      -3.133  -0.770  14.207  1.00  0.00     0.198 A 
ATOM     73  F   UNL     1      -4.974  -0.688  12.743  1.00  0.00    -0.203 F 
ATOM     74  F   UNL     1      -2.570  -2.767  17.176  1.00  0.00    -0.200 F 
ATOM     75  C   UNL     1      -2.516  -1.291  15.334  1.00  0.00     0.200 A 
ATOM     76  F   UNL     1      -2.518   0.176  13.484  1.00  0.00    -0.200 F 
ATOM     77  F   UNL     1      -1.316  -0.833  15.716  1.00  0.00    -0.200 F 
ENDBRANCH  43  67
BRANCH  55  78
ATOM     78  C   UNL     1     -11.311  -1.933  17.614  1.00  0.00     0.064 A 
ATOM     79  C   UNL     1     -11.361  -0.555  17.873  1.00  0.00     0.173 A 
ATOM     80  C   UNL     1     -11.758  -2.807  18.618  1.00  0.00     0.173 A 
ATOM     81  F   UNL     1     -10.935   0.321  16.950  1.00  0.00    -0.203 F 
ATOM     82  C   UNL     1     -11.816  -0.074  19.097  1.00  0.00     0.198 A 
ATOM     83  C   UNL     1     -12.246  -2.321  19.827  1.00  0.00     0.198 A 
ATOM     84  F   UNL     1     -11.740  -4.133  18.417  1.00  0.00    -0.203 F 
ATOM     85  F   UNL     1     -11.807   1.243  19.341  1.00  0.00    -0.200 F 
ATOM     86  C   UNL     1     -12.266  -0.956  20.069  1.00  0.00     0.200 A 
ATOM     87  F   UNL     1     -12.699  -3.174  20.755  1.00  0.00    -0.200 F 
ATOM     88  F   UNL     1     -12.716  -0.490  21.242  1.00  0.00    -0.200 F 
ENDBRANCH  55  78
ENDBRANCH  29  30
ENDBRANCH  21  24
ENDBRANCH  19  20
ENDBRANCH  18  19
ENDBRANCH   1  18
TORSDOF 14
