REMARK SMILES Nc1ccc(-c2cc3ccccc3s2)c(C(=O)NCCCCNC(=O)c2ccc(-c3c4nc(c(-c5c(F)c(F)c(F)c(F)c5F)c5ccc([nH]5)c(-c5c(F)c(F)c(F)c(F)c5F)c5nc(c(-c6c(F)c(F)c(F)c(F)c6F)c6ccc3[nH]6)C=C5)C=C4)cc2)n1
REMARK SMILES IDX 21 1 20 2 19 3 18 4 16 5 17 6 15 8 2 9 3 10 89 11 4 12 5 13
REMARK SMILES IDX 1 14 6 17 7 18 14 19 8 20 13 21 9 22 12 23 10 24 11 25 22 26
REMARK SMILES IDX 23 27 24 28 25 30 26 31 27 32 88 33 28 34 87 35 29 36 30 37
REMARK SMILES IDX 31 38 81 39 32 40 86 41 80 42 82 43 33 44 85 45 79 46 78 47
REMARK SMILES IDX 34 49 66 50 46 51 65 52 47 53 50 54 64 55 83 56 48 57 49 58
REMARK SMILES IDX 63 60 84 61 51 62 35 63 36 64 44 65 37 66 38 67 42 68 45 69
REMARK SMILES IDX 39 70 40 71 43 72 41 73 67 74 68 75 76 76 69 77 70 78 74 79
REMARK SMILES IDX 77 80 71 81 72 82 75 83 73 84 52 85 53 86 61 87 54 88 55 89
REMARK SMILES IDX 59 90 62 91 56 92 57 93 60 94 58 95
REMARK H PARENT 18 7 1 15 1 16 23 29 82 48 50 59
REMARK Flexibility Score: inf
ROOT
ATOM      1  C   UNL     1      -5.573   3.400   2.114  1.00  0.00     0.023 C 
ENDROOT
BRANCH   1   2
ATOM      2  C   UNL     1      -4.618   2.255   2.455  1.00  0.00     0.023 C 
BRANCH   2   3
ATOM      3  C   UNL     1      -3.852   1.633   1.296  1.00  0.00     0.116 C 
BRANCH   3   4
ATOM      4  N   UNL     1      -2.975   2.526   0.574  1.00  0.00    -0.351 N 
ATOM      5  C   UNL     1      -1.849   2.236  -0.174  1.00  0.00     0.270 C 
ATOM      6  O   UNL     1      -1.364   3.151  -0.845  1.00  0.00    -0.267 OA
ATOM      7  H   UNL     1      -3.214   3.480   0.621  1.00  0.00     0.163 HD
BRANCH   5   8
ATOM      8  C   UNL     1      -1.165   0.894  -0.161  1.00  0.00     0.139 A 
ATOM      9  C   UNL     1       0.920  -0.103   0.138  1.00  0.00     0.124 A 
ATOM     10  C   UNL     1       0.398  -1.351  -0.140  1.00  0.00     0.047 A 
ATOM     11  N   UNL     1       0.162   1.001   0.163  1.00  0.00    -0.225 NA
ATOM     12  C   UNL     1      -0.948  -1.458  -0.479  1.00  0.00     0.016 A 
ATOM     13  C   UNL     1      -1.766  -0.319  -0.523  1.00  0.00     0.023 A 
BRANCH   9  14
ATOM     14  N   UNL     1       2.256   0.047   0.450  1.00  0.00    -0.384 N 
ATOM     15  H   UNL     1       2.854  -0.735   0.445  1.00  0.00     0.158 HD
ATOM     16  H   UNL     1       2.612   0.937   0.677  1.00  0.00     0.158 HD
ENDBRANCH   9  14
BRANCH  13  17
ATOM     17  C   UNL     1      -3.158  -0.460  -0.960  1.00  0.00     0.038 A 
ATOM     18  C   UNL     1      -3.848   0.238  -1.930  1.00  0.00     0.029 A 
ATOM     19  S   UNL     1      -4.175  -1.608  -0.189  1.00  0.00    -0.135 S 
ATOM     20  C   UNL     1      -5.259  -0.033  -1.919  1.00  0.00    -0.007 A 
ATOM     21  C   UNL     1      -5.581  -1.006  -0.971  1.00  0.00     0.035 A 
ATOM     22  C   UNL     1      -6.312   0.555  -2.658  1.00  0.00     0.009 A 
ATOM     23  C   UNL     1      -6.912  -1.389  -0.726  1.00  0.00     0.019 A 
ATOM     24  C   UNL     1      -7.638   0.184  -2.413  1.00  0.00     0.001 A 
ATOM     25  C   UNL     1      -7.931  -0.774  -1.453  1.00  0.00     0.001 A 
ENDBRANCH  13  17
ENDBRANCH   5   8
ENDBRANCH   3   4
ENDBRANCH   2   3
ENDBRANCH   1   2
BRANCH   1  26
ATOM     26  C   UNL     1      -6.527   3.213   0.933  1.00  0.00     0.116 C 
BRANCH  26  27
ATOM     27  N   UNL     1      -7.388   2.043   1.016  1.00  0.00    -0.352 N 
ATOM     28  C   UNL     1      -8.745   1.904   0.808  1.00  0.00     0.251 C 
ATOM     29  H   UNL     1      -6.925   1.210   1.261  1.00  0.00     0.163 HD
ATOM     30  O   UNL     1      -9.277   0.813   0.985  1.00  0.00    -0.269 OA
BRANCH  28  31
ATOM     31  C   UNL     1      -9.594   3.067   0.449  1.00  0.00     0.039 A 
ATOM     32  C   UNL     1     -10.846   3.178   1.066  1.00  0.00     0.014 A 
ATOM     33  C   UNL     1      -9.173   4.061  -0.436  1.00  0.00     0.014 A 
ATOM     34  C   UNL     1     -11.595   4.347   0.922  1.00  0.00     0.010 A 
ATOM     35  C   UNL     1      -9.877   5.263  -0.513  1.00  0.00     0.010 A 
ATOM     36  C   UNL     1     -11.070   5.434   0.205  1.00  0.00    -0.014 A 
BRANCH  36  37
ATOM     37  C   UNL     1     -11.689   6.780   0.310  1.00  0.00     0.031 A 
ATOM     38  C   UNL     1     -12.261   7.471  -0.891  1.00  0.00     0.074 A 
ATOM     39  C   UNL     1     -11.648   7.415   1.500  1.00  0.00     0.049 A 
ATOM     40  N   UNL     1     -12.791   8.665  -0.983  1.00  0.00    -0.248 NA
ATOM     41  C   UNL     1     -12.207   6.737  -2.164  1.00  0.00     0.031 C 
ATOM     42  C   UNL     1     -11.047   6.876   2.723  1.00  0.00     0.029 A 
ATOM     43  N   UNL     1     -12.107   8.652   1.879  1.00  0.00    -0.354 N 
ATOM     44  C   UNL     1     -13.122   8.830  -2.320  1.00  0.00     0.074 A 
ATOM     45  C   UNL     1     -12.692   7.633  -3.012  1.00  0.00     0.031 C 
ATOM     46  C   UNL     1     -11.204   7.760   3.720  1.00  0.00     0.029 A 
ATOM     47  C   UNL     1     -11.880   8.943   3.203  1.00  0.00     0.049 A 
ATOM     48  H   UNL     1     -12.557   9.272   1.260  1.00  0.00     0.167 HD
ATOM     49  C   UNL     1     -13.744   9.879  -2.911  1.00  0.00     0.037 A 
ATOM     50  C   UNL     1     -12.183  10.041   3.921  1.00  0.00     0.037 A 
ATOM     51  C   UNL     1     -14.181  11.061  -2.213  1.00  0.00     0.049 A 
ATOM     52  C   UNL     1     -12.896  11.178   3.246  1.00  0.00     0.074 A 
ATOM     53  C   UNL     1     -14.869  12.155  -2.710  1.00  0.00     0.029 A 
ATOM     54  N   UNL     1     -13.970  11.303  -0.863  1.00  0.00    -0.354 N 
ATOM     55  N   UNL     1     -13.274  11.288   1.996  1.00  0.00    -0.248 NA
ATOM     56  C   UNL     1     -13.232  12.339   4.081  1.00  0.00     0.031 C 
ATOM     57  C   UNL     1     -15.042  13.074  -1.669  1.00  0.00     0.029 A 
ATOM     58  C   UNL     1     -14.499  12.535  -0.513  1.00  0.00     0.049 A 
ATOM     59  H   UNL     1     -13.510  10.690  -0.245  1.00  0.00     0.167 HD
ATOM     60  C   UNL     1     -13.911  12.516   1.898  1.00  0.00     0.074 A 
ATOM     61  C   UNL     1     -13.883  13.108   3.220  1.00  0.00     0.031 C 
ATOM     62  C   UNL     1     -14.468  13.102   0.810  1.00  0.00     0.037 A 
BRANCH  49  63
ATOM     63  C   UNL     1     -13.992   9.792  -4.389  1.00  0.00     0.064 A 
ATOM     64  C   UNL     1     -14.944   8.908  -4.921  1.00  0.00     0.173 A 
ATOM     65  C   UNL     1     -13.293  10.618  -5.282  1.00  0.00     0.173 A 
ATOM     66  F   UNL     1     -15.632   8.090  -4.111  1.00  0.00    -0.203 F 
ATOM     67  C   UNL     1     -15.163   8.832  -6.294  1.00  0.00     0.198 A 
ATOM     68  C   UNL     1     -13.535  10.558  -6.653  1.00  0.00     0.198 A 
ATOM     69  F   UNL     1     -12.377  11.486  -4.826  1.00  0.00    -0.203 F 
ATOM     70  F   UNL     1     -16.041   7.945  -6.782  1.00  0.00    -0.200 F 
ATOM     71  C   UNL     1     -14.463   9.660  -7.158  1.00  0.00     0.200 A 
ATOM     72  F   UNL     1     -12.866  11.367  -7.486  1.00  0.00    -0.200 F 
ATOM     73  F   UNL     1     -14.677   9.587  -8.479  1.00  0.00    -0.200 F 
ENDBRANCH  49  63
BRANCH  50  74
ATOM     74  C   UNL     1     -11.846  10.097   5.367  1.00  0.00     0.064 A 
ATOM     75  C   UNL     1     -12.853  10.029   6.340  1.00  0.00     0.173 A 
ATOM     76  C   UNL     1     -10.519  10.204   5.807  1.00  0.00     0.173 A 
ATOM     77  F   UNL     1     -14.138   9.944   5.968  1.00  0.00    -0.203 F 
ATOM     78  C   UNL     1     -12.547  10.084   7.698  1.00  0.00     0.198 A 
ATOM     79  C   UNL     1     -10.212  10.232   7.166  1.00  0.00     0.198 A 
ATOM     80  F   UNL     1      -9.519  10.263   4.916  1.00  0.00    -0.203 F 
ATOM     81  F   UNL     1     -13.532  10.057   8.606  1.00  0.00    -0.200 F 
ATOM     82  C   UNL     1     -11.226  10.180   8.110  1.00  0.00     0.200 A 
ATOM     83  F   UNL     1      -8.934  10.310   7.561  1.00  0.00    -0.200 F 
ATOM     84  F   UNL     1     -10.932  10.226   9.417  1.00  0.00    -0.200 F 
ENDBRANCH  50  74
BRANCH  62  85
ATOM     85  C   UNL     1     -15.116  14.439   1.012  1.00  0.00     0.064 A 
ATOM     86  C   UNL     1     -14.355  15.602   1.202  1.00  0.00     0.173 A 
ATOM     87  C   UNL     1     -16.513  14.562   0.979  1.00  0.00     0.173 A 
ATOM     88  F   UNL     1     -13.017  15.531   1.260  1.00  0.00    -0.203 F 
ATOM     89  C   UNL     1     -14.972  16.838   1.372  1.00  0.00     0.198 A 
ATOM     90  C   UNL     1     -17.125  15.803   1.123  1.00  0.00     0.198 A 
ATOM     91  F   UNL     1     -17.283  13.478   0.797  1.00  0.00    -0.203 F 
ATOM     92  F   UNL     1     -14.229  17.931   1.593  1.00  0.00    -0.200 F 
ATOM     93  C   UNL     1     -16.355  16.939   1.325  1.00  0.00     0.200 A 
ATOM     94  F   UNL     1     -18.460  15.900   1.068  1.00  0.00    -0.200 F 
ATOM     95  F   UNL     1     -16.947  18.131   1.482  1.00  0.00    -0.200 F 
ENDBRANCH  62  85
ENDBRANCH  36  37
ENDBRANCH  28  31
ENDBRANCH  26  27
ENDBRANCH   1  26
TORSDOF 13
