REMARK SMILES NS(=O)(=O)c1ccc(-n2nc(C(F)F)cc2-c2ccc(C(=O)NCCCCNC(=O)c3ccc(-c4c5nc(c(-c6c(F)c(F)c(F)c(F)c6F)c6ccc([nH]6)c(-c6c(F)c(F)c(F)c(F)c6F)c6nc(c(-c7c(F)c(F)c(F)c(F)c7F)c7ccc4[nH]7)C=C6)C=C5)cc3)cc2)cc1
REMARK SMILES IDX 24 1 23 2 21 3 22 4 20 6 17 7 18 8 95 9 19 10 94 11 16 12
REMARK SMILES IDX 9 13 10 14 11 15 15 16 8 17 5 18 6 19 97 20 7 21 96 22 2 23
REMARK SMILES IDX 3 24 4 25 1 26 12 29 13 30 14 31 25 32 26 33 27 34 28 35
REMARK SMILES IDX 29 36 30 38 31 39 32 40 93 41 33 42 92 43 34 44 35 45 36 46
REMARK SMILES IDX 86 47 37 48 91 49 85 50 87 51 38 52 90 53 84 54 83 55 39 57
REMARK SMILES IDX 71 58 51 59 70 60 52 61 55 62 69 63 88 64 53 65 54 66 68 68
REMARK SMILES IDX 89 69 56 70 40 71 41 72 49 73 42 74 43 75 47 76 50 77 44 78
REMARK SMILES IDX 45 79 48 80 46 81 72 82 73 83 81 84 74 85 75 86 79 87 82 88
REMARK SMILES IDX 76 89 77 90 80 91 78 92 57 93 58 94 66 95 59 96 60 97 64 98
REMARK SMILES IDX 67 99 61 100 62 101 65 102 63 103
REMARK H PARENT 23 5 1 27 1 28 28 37 87 56 55 67
REMARK Flexibility Score: inf
ROOT
ATOM      1  C   UNL     1       7.895   3.063   5.530  1.00  0.00     0.116 C 
ENDROOT
BRANCH   1   2
ATOM      2  N   UNL     1       8.093   2.791   4.120  1.00  0.00    -0.352 N 
ATOM      3  C   UNL     1       7.422   3.192   2.992  1.00  0.00     0.251 C 
ATOM      4  O   UNL     1       7.869   2.819   1.907  1.00  0.00    -0.269 OA
ATOM      5  H   UNL     1       8.860   2.202   3.934  1.00  0.00     0.163 HD
BRANCH   3   6
ATOM      6  C   UNL     1       6.224   4.081   3.015  1.00  0.00     0.039 A 
ATOM      7  C   UNL     1       4.018   5.832   2.916  1.00  0.00     0.000 A 
ATOM      8  C   UNL     1       4.838   5.674   1.795  1.00  0.00     0.011 A 
ATOM      9  C   UNL     1       4.292   5.106   4.074  1.00  0.00     0.011 A 
ATOM     10  C   UNL     1       5.938   4.810   1.849  1.00  0.00     0.014 A 
ATOM     11  C   UNL     1       5.356   4.206   4.102  1.00  0.00     0.014 A 
BRANCH   7  12
ATOM     12  C   UNL     1       2.839   6.683   2.878  1.00  0.00     0.075 A 
ATOM     13  N   UNL     1       1.696   6.428   2.130  1.00  0.00    -0.233 N 
ATOM     14  N   UNL     1       0.842   7.482   2.148  1.00  0.00    -0.166 NA
ATOM     15  C   UNL     1       1.327   8.300   3.101  1.00  0.00     0.129 A 
ATOM     16  C   UNL     1       2.599   7.867   3.540  1.00  0.00     0.060 A 
BRANCH  13  17
ATOM     17  C   UNL     1       1.358   5.234   1.438  1.00  0.00     0.065 A 
ATOM     18  C   UNL     1       0.830   2.894   0.019  1.00  0.00     0.082 A 
ATOM     19  C   UNL     1       1.404   2.812   1.287  1.00  0.00     0.024 A 
ATOM     20  C   UNL     1       0.485   4.137  -0.529  1.00  0.00     0.024 A 
ATOM     21  C   UNL     1       1.672   3.984   1.992  1.00  0.00     0.030 A 
ATOM     22  C   UNL     1       0.724   5.310   0.194  1.00  0.00     0.030 A 
BRANCH  18  23
ATOM     23  S   UNL     1       0.541   1.440  -0.943  1.00  0.00     0.238 S 
ATOM     24  O   UNL     1       1.300   1.556  -2.175  1.00  0.00    -0.207 OA
ATOM     25  O   UNL     1      -0.862   1.142  -0.913  1.00  0.00    -0.207 OA
BRANCH  23  26
ATOM     26  N   UNL     1       1.292   0.200  -0.086  1.00  0.00    -0.225 NA
ATOM     27  H   UNL     1       1.167  -0.681  -0.584  1.00  0.00     0.137 HD
ATOM     28  H   UNL     1       0.875   0.128   0.842  1.00  0.00     0.137 HD
ENDBRANCH  23  26
ENDBRANCH  18  23
ENDBRANCH  13  17
BRANCH  15  29
ATOM     29  C   UNL     1       0.577   9.497   3.607  1.00  0.00     0.393 C 
ATOM     30  F   UNL     1       0.128  10.298   2.604  1.00  0.00    -0.203 F 
ATOM     31  F   UNL     1      -0.514   9.129   4.335  1.00  0.00    -0.203 F 
ENDBRANCH  15  29
ENDBRANCH   7  12
ENDBRANCH   3   6
ENDBRANCH   1   2
BRANCH   1  32
ATOM     32  C   UNL     1       7.114   1.936   6.215  1.00  0.00     0.023 C 
BRANCH  32  33
ATOM     33  C   UNL     1       7.919   0.656   6.477  1.00  0.00     0.023 C 
BRANCH  33  34
ATOM     34  C   UNL     1       9.025   0.799   7.517  1.00  0.00     0.116 C 
BRANCH  34  35
ATOM     35  N   UNL     1       8.517   1.176   8.836  1.00  0.00    -0.352 N 
ATOM     36  C   UNL     1       9.214   1.713   9.899  1.00  0.00     0.251 C 
ATOM     37  H   UNL     1       7.554   1.028   8.984  1.00  0.00     0.163 HD
ATOM     38  O   UNL     1       8.791   1.630  11.045  1.00  0.00    -0.269 OA
BRANCH  36  39
ATOM     39  C   UNL     1      10.482   2.406   9.627  1.00  0.00     0.039 A 
ATOM     40  C   UNL     1      11.620   2.169  10.400  1.00  0.00     0.014 A 
ATOM     41  C   UNL     1      10.522   3.276   8.541  1.00  0.00     0.014 A 
ATOM     42  C   UNL     1      12.827   2.744  10.011  1.00  0.00     0.010 A 
ATOM     43  C   UNL     1      11.733   3.732   8.081  1.00  0.00     0.010 A 
ATOM     44  C   UNL     1      12.883   3.505   8.833  1.00  0.00    -0.014 A 
BRANCH  44  45
ATOM     45  C   UNL     1      14.166   3.975   8.316  1.00  0.00     0.031 A 
ATOM     46  C   UNL     1      15.200   2.921   8.105  1.00  0.00     0.074 A 
ATOM     47  C   UNL     1      14.345   5.225   7.838  1.00  0.00     0.049 A 
ATOM     48  N   UNL     1      16.367   2.837   8.655  1.00  0.00    -0.248 NA
ATOM     49  C   UNL     1      14.868   1.773   7.246  1.00  0.00     0.031 C 
ATOM     50  C   UNL     1      13.351   6.292   7.678  1.00  0.00     0.029 A 
ATOM     51  N   UNL     1      15.456   5.768   7.271  1.00  0.00    -0.354 N 
ATOM     52  C   UNL     1      16.988   1.722   8.095  1.00  0.00     0.074 A 
ATOM     53  C   UNL     1      15.971   1.028   7.349  1.00  0.00     0.031 C 
ATOM     54  C   UNL     1      13.835   7.238   6.844  1.00  0.00     0.029 A 
ATOM     55  C   UNL     1      15.222   6.930   6.549  1.00  0.00     0.049 A 
ATOM     56  H   UNL     1      16.352   5.371   7.366  1.00  0.00     0.167 HD
ATOM     57  C   UNL     1      18.345   1.584   8.120  1.00  0.00     0.037 A 
ATOM     58  C   UNL     1      16.095   7.572   5.735  1.00  0.00     0.037 A 
ATOM     59  C   UNL     1      18.936   2.454   9.106  1.00  0.00     0.049 A 
ATOM     60  C   UNL     1      17.460   7.126   6.114  1.00  0.00     0.074 A 
ATOM     61  C   UNL     1      18.785   2.611  10.471  1.00  0.00     0.029 A 
ATOM     62  N   UNL     1      19.562   3.599   8.677  1.00  0.00    -0.354 N 
ATOM     63  N   UNL     1      18.030   7.427   7.248  1.00  0.00    -0.248 NA
ATOM     64  C   UNL     1      18.002   5.960   5.432  1.00  0.00     0.031 C 
ATOM     65  C   UNL     1      18.830   4.021  10.683  1.00  0.00     0.029 A 
ATOM     66  C   UNL     1      19.083   4.625   9.451  1.00  0.00     0.049 A 
ATOM     67  H   UNL     1      20.226   3.670   7.954  1.00  0.00     0.167 HD
ATOM     68  C   UNL     1      18.674   6.262   7.635  1.00  0.00     0.074 A 
ATOM     69  C   UNL     1      18.701   5.424   6.437  1.00  0.00     0.031 C 
ATOM     70  C   UNL     1      18.862   5.961   8.954  1.00  0.00     0.037 A 
BRANCH  57  71
ATOM     71  C   UNL     1      19.170   0.942   7.028  1.00  0.00     0.064 A 
ATOM     72  C   UNL     1      20.559   0.781   7.222  1.00  0.00     0.173 A 
ATOM     73  C   UNL     1      18.723   0.774   5.700  1.00  0.00     0.173 A 
ATOM     74  F   UNL     1      21.100   0.921   8.442  1.00  0.00    -0.203 F 
ATOM     75  C   UNL     1      21.438   0.575   6.155  1.00  0.00     0.198 A 
ATOM     76  C   UNL     1      19.598   0.514   4.645  1.00  0.00     0.198 A 
ATOM     77  F   UNL     1      17.448   0.966   5.346  1.00  0.00    -0.203 F 
ATOM     78  F   UNL     1      22.760   0.573   6.374  1.00  0.00    -0.200 F 
ATOM     79  C   UNL     1      20.957   0.453   4.866  1.00  0.00     0.200 A 
ATOM     80  F   UNL     1      19.114   0.412   3.399  1.00  0.00    -0.200 F 
ATOM     81  F   UNL     1      21.801   0.329   3.833  1.00  0.00    -0.200 F 
ENDBRANCH  57  71
BRANCH  58  82
ATOM     82  C   UNL     1      15.807   8.332   4.495  1.00  0.00     0.064 A 
ATOM     83  C   UNL     1      16.766   9.186   3.927  1.00  0.00     0.173 A 
ATOM     84  C   UNL     1      14.684   8.037   3.697  1.00  0.00     0.173 A 
ATOM     85  F   UNL     1      17.887   9.484   4.600  1.00  0.00    -0.203 F 
ATOM     86  C   UNL     1      16.620   9.695   2.632  1.00  0.00     0.198 A 
ATOM     87  C   UNL     1      14.534   8.553   2.409  1.00  0.00     0.198 A 
ATOM     88  F   UNL     1      13.751   7.169   4.113  1.00  0.00    -0.203 F 
ATOM     89  F   UNL     1      17.586  10.458   2.101  1.00  0.00    -0.200 F 
ATOM     90  C   UNL     1      15.509   9.371   1.871  1.00  0.00     0.200 A 
ATOM     91  F   UNL     1      13.470   8.204   1.673  1.00  0.00    -0.200 F 
ATOM     92  F   UNL     1      15.398   9.810   0.610  1.00  0.00    -0.200 F 
ENDBRANCH  58  82
BRANCH  70  93
ATOM     93  C   UNL     1      18.579   7.028   9.976  1.00  0.00     0.064 A 
ATOM     94  C   UNL     1      17.321   7.629  10.161  1.00  0.00     0.173 A 
ATOM     95  C   UNL     1      19.581   7.344  10.903  1.00  0.00     0.173 A 
ATOM     96  F   UNL     1      16.277   7.301   9.392  1.00  0.00    -0.203 F 
ATOM     97  C   UNL     1      17.096   8.540  11.192  1.00  0.00     0.198 A 
ATOM     98  C   UNL     1      19.343   8.224  11.955  1.00  0.00     0.198 A 
ATOM     99  F   UNL     1      20.786   6.758  10.816  1.00  0.00    -0.203 F 
ATOM    100  F   UNL     1      15.889   9.108  11.334  1.00  0.00    -0.200 F 
ATOM    101  C   UNL     1      18.105   8.831  12.092  1.00  0.00     0.200 A 
ATOM    102  F   UNL     1      20.307   8.462  12.855  1.00  0.00    -0.200 F 
ATOM    103  F   UNL     1      17.878   9.675  13.108  1.00  0.00    -0.200 F 
ENDBRANCH  70  93
ENDBRANCH  44  45
ENDBRANCH  36  39
ENDBRANCH  34  35
ENDBRANCH  33  34
ENDBRANCH  32  33
ENDBRANCH   1  32
TORSDOF 16
