REMARK SMILES C[C@H]([NH2+]CC1CCCC1)[C@H](C)C(=O)NCCCCNC(=O)c1ccc(-c2c3nc(c(-c4c(F)c(F)c(F)c(F)c4F)c4ccc([nH]4)c(-c4c(F)c(F)c(F)c(F)c4F)c4nc(c(-c5c(F)c(F)c(F)c(F)c5F)c5ccc2[nH]5)C=C4)C=C3)cc1
REMARK SMILES IDX 15 1 14 2 12 3 13 4 10 6 11 7 2 8 1 9 3 10 4 13 5 14 6 15
REMARK SMILES IDX 9 16 7 17 8 18 16 19 17 20 18 21 19 22 20 23 21 25 22 26
REMARK SMILES IDX 23 27 84 28 24 29 83 30 25 31 26 32 27 33 77 34 28 35 82 36
REMARK SMILES IDX 76 37 78 38 29 39 81 40 75 41 74 42 30 44 62 45 42 46 61 47
REMARK SMILES IDX 43 48 46 49 60 50 79 51 44 52 45 53 59 55 80 56 47 57 31 58
REMARK SMILES IDX 32 59 40 60 33 61 34 62 38 63 41 64 35 65 36 66 39 67 37 68
REMARK SMILES IDX 63 69 64 70 72 71 65 72 66 73 70 74 73 75 67 76 68 77 71 78
REMARK SMILES IDX 69 79 48 80 49 81 57 82 50 83 51 84 55 85 58 86 52 87 53 88
REMARK SMILES IDX 56 89 54 90
REMARK H PARENT 14 5 3 11 3 12 19 24 78 43 46 54
REMARK Flexibility Score: inf
ROOT
ATOM      1  C   UNL     1       0.011  -1.815   3.690  1.00  0.00     0.116 C 
ENDROOT
BRANCH   1   2
ATOM      2  N   UNL     1      -0.993  -0.793   3.902  1.00  0.00    -0.356 N 
ATOM      3  C   UNL     1      -1.640  -0.005   3.000  1.00  0.00     0.228 C 
ATOM      4  O   UNL     1      -2.591   0.665   3.412  1.00  0.00    -0.275 OA
ATOM      5  H   UNL     1      -1.246  -0.646   4.842  1.00  0.00     0.163 HD
BRANCH   3   6
ATOM      6  C   UNL     1      -1.201   0.083   1.541  1.00  0.00     0.133 C 
ATOM      7  C   UNL     1       0.209   0.676   1.445  1.00  0.00     0.024 C 
BRANCH   6   8
ATOM      8  C   UNL     1      -1.589  -1.138   0.641  1.00  0.00     0.191 C 
ATOM      9  C   UNL     1      -2.095  -2.419   1.317  1.00  0.00     0.076 C 
BRANCH   8  10
ATOM     10  N   UNL     1      -0.715  -1.435  -0.510  1.00  0.00    -0.343 N 
ATOM     11  H   UNL     1      -0.494  -0.550  -0.966  1.00  0.00     0.346 HD
ATOM     12  H   UNL     1      -1.244  -2.091  -1.084  1.00  0.00     0.346 HD
BRANCH  10  13
ATOM     13  C   UNL     1       0.547  -2.111  -0.221  1.00  0.00     0.264 C 
BRANCH  13  14
ATOM     14  C   UNL     1       1.384  -2.427  -1.468  1.00  0.00     0.044 C 
ATOM     15  C   UNL     1       0.776  -3.479  -2.391  1.00  0.00     0.009 C 
ATOM     16  C   UNL     1       1.655  -1.256  -2.417  1.00  0.00     0.009 C 
ATOM     17  C   UNL     1       1.646  -3.379  -3.636  1.00  0.00     0.001 C 
ATOM     18  C   UNL     1       2.028  -1.904  -3.751  1.00  0.00     0.001 C 
ENDBRANCH  13  14
ENDBRANCH  10  13
ENDBRANCH   8  10
ENDBRANCH   6   8
ENDBRANCH   3   6
ENDBRANCH   1   2
BRANCH   1  19
ATOM     19  C   UNL     1       1.207  -1.685   4.624  1.00  0.00     0.023 C 
BRANCH  19  20
ATOM     20  C   UNL     1       0.887  -1.867   6.107  1.00  0.00     0.023 C 
BRANCH  20  21
ATOM     21  C   UNL     1       0.059  -3.098   6.459  1.00  0.00     0.116 C 
BRANCH  21  22
ATOM     22  N   UNL     1       0.659  -4.348   6.019  1.00  0.00    -0.352 N 
ATOM     23  C   UNL     1       0.828  -5.521   6.718  1.00  0.00     0.251 C 
ATOM     24  H   UNL     1       0.991  -4.356   5.092  1.00  0.00     0.163 HD
ATOM     25  O   UNL     1       1.440  -6.458   6.224  1.00  0.00    -0.269 OA
BRANCH  23  26
ATOM     26  C   UNL     1       0.299  -5.623   8.094  1.00  0.00     0.039 A 
ATOM     27  C   UNL     1       1.153  -6.054   9.111  1.00  0.00     0.014 A 
ATOM     28  C   UNL     1      -1.014  -5.244   8.383  1.00  0.00     0.014 A 
ATOM     29  C   UNL     1       0.714  -6.025  10.436  1.00  0.00     0.010 A 
ATOM     30  C   UNL     1      -1.424  -5.144   9.708  1.00  0.00     0.010 A 
ATOM     31  C   UNL     1      -0.562  -5.527  10.748  1.00  0.00    -0.014 A 
BRANCH  31  32
ATOM     32  C   UNL     1      -1.008  -5.385  12.157  1.00  0.00     0.031 A 
ATOM     33  C   UNL     1      -2.177  -6.184  12.661  1.00  0.00     0.074 A 
ATOM     34  C   UNL     1      -0.411  -4.481  12.958  1.00  0.00     0.049 A 
ATOM     35  N   UNL     1      -2.765  -6.144  13.829  1.00  0.00    -0.248 NA
ATOM     36  C   UNL     1      -2.785  -7.132  11.715  1.00  0.00     0.031 C 
ATOM     37  C   UNL     1       0.694  -3.604  12.568  1.00  0.00     0.029 A 
ATOM     38  N   UNL     1      -0.660  -4.140  14.264  1.00  0.00    -0.354 N 
ATOM     39  C   UNL     1      -3.820  -7.043  13.751  1.00  0.00     0.074 A 
ATOM     40  C   UNL     1      -3.823  -7.577  12.407  1.00  0.00     0.031 C 
ATOM     41  C   UNL     1       1.041  -2.841  13.617  1.00  0.00     0.029 A 
ATOM     42  C   UNL     1       0.163  -3.150  14.742  1.00  0.00     0.049 A 
ATOM     43  H   UNL     1      -1.362  -4.566  14.807  1.00  0.00     0.167 HD
ATOM     44  C   UNL     1      -4.691  -7.408  14.721  1.00  0.00     0.037 A 
ATOM     45  C   UNL     1       0.201  -2.555  15.949  1.00  0.00     0.037 A 
ATOM     46  C   UNL     1      -4.664  -6.901  16.067  1.00  0.00     0.049 A 
ATOM     47  C   UNL     1      -0.767  -2.992  17.014  1.00  0.00     0.074 A 
ATOM     48  C   UNL     1      -5.459  -7.261  17.142  1.00  0.00     0.029 A 
ATOM     49  N   UNL     1      -3.793  -5.923  16.524  1.00  0.00    -0.354 N 
ATOM     50  N   UNL     1      -1.712  -3.898  16.951  1.00  0.00    -0.248 NA
ATOM     51  C   UNL     1      -0.658  -2.329  18.321  1.00  0.00     0.031 C 
ATOM     52  C   UNL     1      -5.094  -6.474  18.239  1.00  0.00     0.029 A 
ATOM     53  C   UNL     1      -4.042  -5.655  17.860  1.00  0.00     0.049 A 
ATOM     54  H   UNL     1      -3.100  -5.485  15.979  1.00  0.00     0.167 HD
ATOM     55  C   UNL     1      -2.292  -3.934  18.212  1.00  0.00     0.074 A 
ATOM     56  C   UNL     1      -1.582  -2.968  19.025  1.00  0.00     0.031 C 
ATOM     57  C   UNL     1      -3.320  -4.697  18.657  1.00  0.00     0.037 A 
BRANCH  44  58
ATOM     58  C   UNL     1      -5.746  -8.413  14.361  1.00  0.00     0.064 A 
ATOM     59  C   UNL     1      -5.426  -9.758  14.118  1.00  0.00     0.173 A 
ATOM     60  C   UNL     1      -7.095  -8.036  14.289  1.00  0.00     0.173 A 
ATOM     61  F   UNL     1      -4.149 -10.167  14.162  1.00  0.00    -0.203 F 
ATOM     62  C   UNL     1      -6.415 -10.681  13.788  1.00  0.00     0.198 A 
ATOM     63  C   UNL     1      -8.084  -8.968  13.988  1.00  0.00     0.198 A 
ATOM     64  F   UNL     1      -7.455  -6.764  14.517  1.00  0.00    -0.203 F 
ATOM     65  F   UNL     1      -6.079 -11.949  13.512  1.00  0.00    -0.200 F 
ATOM     66  C   UNL     1      -7.743 -10.287  13.730  1.00  0.00     0.200 A 
ATOM     67  F   UNL     1      -9.369  -8.589  13.943  1.00  0.00    -0.200 F 
ATOM     68  F   UNL     1      -8.694 -11.179  13.418  1.00  0.00    -0.200 F 
ENDBRANCH  44  58
BRANCH  45  69
ATOM     69  C   UNL     1       1.212  -1.502  16.227  1.00  0.00     0.064 A 
ATOM     70  C   UNL     1       2.284  -1.748  17.096  1.00  0.00     0.173 A 
ATOM     71  C   UNL     1       1.128  -0.234  15.636  1.00  0.00     0.173 A 
ATOM     72  F   UNL     1       2.395  -2.940  17.701  1.00  0.00    -0.203 F 
ATOM     73  C   UNL     1       3.222  -0.758  17.381  1.00  0.00     0.198 A 
ATOM     74  C   UNL     1       2.082   0.747  15.901  1.00  0.00     0.198 A 
ATOM     75  F   UNL     1       0.125   0.050  14.793  1.00  0.00    -0.203 F 
ATOM     76  F   UNL     1       4.212  -1.006  18.250  1.00  0.00    -0.200 F 
ATOM     77  C   UNL     1       3.123   0.487  16.779  1.00  0.00     0.200 A 
ATOM     78  F   UNL     1       1.991   1.945  15.307  1.00  0.00    -0.200 F 
ATOM     79  F   UNL     1       4.027   1.438  17.050  1.00  0.00    -0.200 F 
ENDBRANCH  45  69
BRANCH  57  80
ATOM     80  C   UNL     1      -3.717  -4.545  20.095  1.00  0.00     0.064 A 
ATOM     81  C   UNL     1      -4.399  -3.409  20.553  1.00  0.00     0.173 A 
ATOM     82  C   UNL     1      -3.447  -5.567  21.017  1.00  0.00     0.173 A 
ATOM     83  F   UNL     1      -4.666  -2.397  19.713  1.00  0.00    -0.203 F 
ATOM     84  C   UNL     1      -4.777  -3.292  21.888  1.00  0.00     0.198 A 
ATOM     85  C   UNL     1      -3.851  -5.460  22.345  1.00  0.00     0.198 A 
ATOM     86  F   UNL     1      -2.801  -6.677  20.627  1.00  0.00    -0.203 F 
ATOM     87  F   UNL     1      -5.389  -2.179  22.314  1.00  0.00    -0.200 F 
ATOM     88  C   UNL     1      -4.509  -4.320  22.780  1.00  0.00     0.200 A 
ATOM     89  F   UNL     1      -3.602  -6.458  23.203  1.00  0.00    -0.200 F 
ATOM     90  F   UNL     1      -4.880  -4.208  24.063  1.00  0.00    -0.200 F 
ENDBRANCH  57  80
ENDBRANCH  31  32
ENDBRANCH  23  26
ENDBRANCH  21  22
ENDBRANCH  20  21
ENDBRANCH  19  20
ENDBRANCH   1  19
TORSDOF 15
