REMARK SMILES C[C@H]1[C@@H](C(=O)NCCCCNC(=O)c2ccc(-c3c4nc(c(-c5c(F)c(F)c(F)c(F)c5F)c5ccc([nH]5)c(-c5c(F)c(F)c(F)c(F)c5F)c5nc(c(-c6c(F)c(F)c(F)c(F)c6F)c6ccc3[nH]6)C=C5)C=C4)cc2)CCN1C(=O)/C=C/c1cccc(F)c1
REMARK SMILES IDX 8 1 7 2 6 3 4 4 5 5 3 7 1 8 2 9 79 10 77 11 78 12 80 13
REMARK SMILES IDX 81 14 82 15 83 16 84 17 85 18 90 19 86 20 88 21 87 22 89 23
REMARK SMILES IDX 9 24 10 25 11 26 12 27 13 29 14 30 15 31 76 32 16 33 75 34
REMARK SMILES IDX 17 35 18 36 19 37 69 38 20 39 74 40 68 41 70 42 21 43 73 44
REMARK SMILES IDX 67 45 66 46 22 48 54 49 34 50 53 51 35 52 38 53 52 54 71 55
REMARK SMILES IDX 36 56 37 57 51 59 72 60 39 61 23 62 24 63 32 64 25 65 26 66
REMARK SMILES IDX 30 67 33 68 27 69 28 70 31 71 29 72 55 73 56 74 64 75 57 76
REMARK SMILES IDX 58 77 62 78 65 79 59 80 60 81 63 82 61 83 40 84 41 85 49 86
REMARK SMILES IDX 42 87 43 88 47 89 50 90 44 91 45 92 48 93 46 94
REMARK H PARENT 6 6 11 28 70 47 38 58
REMARK Flexibility Score: inf
ROOT
ATOM      1  C   UNL     1       3.451   0.529  -1.970  1.00  0.00     0.023 C 
ENDROOT
BRANCH   1   2
ATOM      2  C   UNL     1       2.707   1.636  -1.219  1.00  0.00     0.116 C 
BRANCH   2   3
ATOM      3  N   UNL     1       1.406   1.854  -1.821  1.00  0.00    -0.356 N 
ATOM      4  C   UNL     1       0.171   1.403  -1.458  1.00  0.00     0.225 C 
ATOM      5  O   UNL     1      -0.740   1.585  -2.267  1.00  0.00    -0.275 OA
ATOM      6  H   UNL     1       1.416   2.422  -2.625  1.00  0.00     0.163 HD
BRANCH   4   7
ATOM      7  C   UNL     1      -0.079   0.804  -0.073  1.00  0.00     0.102 C 
ATOM      8  C   UNL     1       1.230  -1.365  -0.780  1.00  0.00     0.032 C 
ATOM      9  C   UNL     1       0.608  -0.522   0.327  1.00  0.00     0.094 C 
ATOM     10  N   UNL     1      -0.436  -1.320   0.967  1.00  0.00    -0.336 N 
ATOM     11  C   UNL     1      -1.584   0.561   0.209  1.00  0.00     0.037 C 
ATOM     12  C   UNL     1      -1.723  -0.932   0.440  1.00  0.00     0.121 C 
BRANCH  10  13
ATOM     13  C   UNL     1      -0.280  -2.470   1.718  1.00  0.00     0.246 C 
ATOM     14  O   UNL     1      -1.209  -3.197   2.054  1.00  0.00    -0.270 OA
BRANCH  13  15
ATOM     15  C   UNL     1       1.118  -2.907   1.993  1.00  0.00     0.072 C 
ATOM     16  C   UNL     1       1.973  -2.150   2.697  1.00  0.00     0.014 C 
BRANCH  16  17
ATOM     17  C   UNL     1       3.422  -2.382   2.845  1.00  0.00    -0.023 A 
ATOM     18  C   UNL     1       4.162  -1.473   3.621  1.00  0.00     0.008 A 
ATOM     19  C   UNL     1       4.115  -3.405   2.186  1.00  0.00     0.047 A 
ATOM     20  C   UNL     1       5.553  -1.583   3.738  1.00  0.00     0.004 A 
ATOM     21  C   UNL     1       5.501  -3.508   2.311  1.00  0.00     0.123 A 
ATOM     22  C   UNL     1       6.225  -2.606   3.078  1.00  0.00     0.039 A 
ATOM     23  F   UNL     1       6.146  -4.489   1.666  1.00  0.00    -0.207 F 
ENDBRANCH  16  17
ENDBRANCH  13  15
ENDBRANCH  10  13
ENDBRANCH   4   7
ENDBRANCH   2   3
ENDBRANCH   1   2
BRANCH   1  24
ATOM     24  C   UNL     1       4.281   0.973  -3.159  1.00  0.00     0.023 C 
BRANCH  24  25
ATOM     25  C   UNL     1       5.536   1.733  -2.789  1.00  0.00     0.116 C 
BRANCH  25  26
ATOM     26  N   UNL     1       6.446   0.993  -1.919  1.00  0.00    -0.352 N 
ATOM     27  C   UNL     1       7.806   0.819  -2.040  1.00  0.00     0.251 C 
ATOM     28  H   UNL     1       6.030   0.559  -1.139  1.00  0.00     0.163 HD
ATOM     29  O   UNL     1       8.425   0.110  -1.254  1.00  0.00    -0.269 OA
BRANCH  27  30
ATOM     30  C   UNL     1       8.498   1.464  -3.171  1.00  0.00     0.039 A 
ATOM     31  C   UNL     1       9.312   0.693  -4.002  1.00  0.00     0.014 A 
ATOM     32  C   UNL     1       8.221   2.796  -3.478  1.00  0.00     0.014 A 
ATOM     33  C   UNL     1       9.764   1.235  -5.205  1.00  0.00     0.010 A 
ATOM     34  C   UNL     1       8.558   3.284  -4.730  1.00  0.00     0.010 A 
ATOM     35  C   UNL     1       9.339   2.513  -5.604  1.00  0.00    -0.014 A 
BRANCH  35  36
ATOM     36  C   UNL     1       9.714   3.090  -6.918  1.00  0.00     0.031 A 
ATOM     37  C   UNL     1      10.469   4.390  -6.960  1.00  0.00     0.074 A 
ATOM     38  C   UNL     1       9.293   2.508  -8.058  1.00  0.00     0.049 A 
ATOM     39  N   UNL     1      10.778   5.138  -7.987  1.00  0.00    -0.248 NA
ATOM     40  C   UNL     1      10.885   4.953  -5.664  1.00  0.00     0.031 C 
ATOM     41  C   UNL     1       8.487   1.289  -8.146  1.00  0.00     0.029 A 
ATOM     42  N   UNL     1       9.478   2.876  -9.367  1.00  0.00    -0.354 N 
ATOM     43  C   UNL     1      11.382   6.270  -7.457  1.00  0.00     0.074 A 
ATOM     44  C   UNL     1      11.335   6.146  -6.018  1.00  0.00     0.031 C 
ATOM     45  C   UNL     1       8.278   0.990  -9.439  1.00  0.00     0.029 A 
ATOM     46  C   UNL     1       8.905   2.013 -10.269  1.00  0.00     0.049 A 
ATOM     47  H   UNL     1       9.976   3.682  -9.635  1.00  0.00     0.167 HD
ATOM     48  C   UNL     1      11.959   7.304  -8.111  1.00  0.00     0.037 A 
ATOM     49  C   UNL     1       8.892   2.048 -11.615  1.00  0.00     0.037 A 
ATOM     50  C   UNL     1      12.068   7.385  -9.541  1.00  0.00     0.049 A 
ATOM     51  C   UNL     1       9.597   3.175 -12.321  1.00  0.00     0.074 A 
ATOM     52  C   UNL     1      12.710   8.340 -10.306  1.00  0.00     0.029 A 
ATOM     53  N   UNL     1      11.530   6.457 -10.421  1.00  0.00    -0.354 N 
ATOM     54  N   UNL     1      10.228   4.205 -11.811  1.00  0.00    -0.248 NA
ATOM     55  C   UNL     1       9.596   3.140 -13.790  1.00  0.00     0.031 C 
ATOM     56  C   UNL     1      12.539   8.005 -11.653  1.00  0.00     0.029 A 
ATOM     57  C   UNL     1      11.821   6.822 -11.725  1.00  0.00     0.049 A 
ATOM     58  H   UNL     1      11.018   5.658 -10.159  1.00  0.00     0.167 HD
ATOM     59  C   UNL     1      10.719   4.925 -12.890  1.00  0.00     0.074 A 
ATOM     60  C   UNL     1      10.326   4.206 -14.085  1.00  0.00     0.031 C 
ATOM     61  C   UNL     1      11.430   6.079 -12.894  1.00  0.00     0.037 A 
BRANCH  48  62
ATOM     62  C   UNL     1      12.536   8.410  -7.279  1.00  0.00     0.064 A 
ATOM     63  C   UNL     1      13.681   8.216  -6.490  1.00  0.00     0.173 A 
ATOM     64  C   UNL     1      11.943   9.681  -7.272  1.00  0.00     0.173 A 
ATOM     65  F   UNL     1      14.275   7.014  -6.447  1.00  0.00    -0.203 F 
ATOM     66  C   UNL     1      14.187   9.242  -5.697  1.00  0.00     0.198 A 
ATOM     67  C   UNL     1      12.471  10.714  -6.502  1.00  0.00     0.198 A 
ATOM     68  F   UNL     1      10.847   9.920  -8.008  1.00  0.00    -0.203 F 
ATOM     69  F   UNL     1      15.244   9.013  -4.904  1.00  0.00    -0.200 F 
ATOM     70  C   UNL     1      13.586  10.491  -5.708  1.00  0.00     0.200 A 
ATOM     71  F   UNL     1      11.894  11.923  -6.520  1.00  0.00    -0.200 F 
ATOM     72  F   UNL     1      14.075  11.477  -4.944  1.00  0.00    -0.200 F 
ENDBRANCH  48  62
BRANCH  49  73
ATOM     73  C   UNL     1       8.234   0.959 -12.383  1.00  0.00     0.064 A 
ATOM     74  C   UNL     1       8.999   0.025 -13.096  1.00  0.00     0.173 A 
ATOM     75  C   UNL     1       6.840   0.828 -12.425  1.00  0.00     0.173 A 
ATOM     76  F   UNL     1      10.337   0.121 -13.101  1.00  0.00    -0.203 F 
ATOM     77  C   UNL     1       8.394  -0.986 -13.839  1.00  0.00     0.198 A 
ATOM     78  C   UNL     1       6.235  -0.199 -13.149  1.00  0.00     0.198 A 
ATOM     79  F   UNL     1       6.063   1.692 -11.755  1.00  0.00    -0.203 F 
ATOM     80  F   UNL     1       9.149  -1.839 -14.545  1.00  0.00    -0.200 F 
ATOM     81  C   UNL     1       7.013  -1.101 -13.861  1.00  0.00     0.200 A 
ATOM     82  F   UNL     1       4.900  -0.314 -13.158  1.00  0.00    -0.200 F 
ATOM     83  F   UNL     1       6.430  -2.074 -14.574  1.00  0.00    -0.200 F 
ENDBRANCH  49  73
BRANCH  61  84
ATOM     84  C   UNL     1      11.855   6.617 -14.227  1.00  0.00     0.064 A 
ATOM     85  C   UNL     1      10.942   7.232 -15.093  1.00  0.00     0.173 A 
ATOM     86  C   UNL     1      13.202   6.561 -14.615  1.00  0.00     0.173 A 
ATOM     87  F   UNL     1       9.641   7.295 -14.769  1.00  0.00    -0.203 F 
ATOM     88  C   UNL     1      11.359   7.757 -16.313  1.00  0.00     0.198 A 
ATOM     89  C   UNL     1      13.620   7.110 -15.823  1.00  0.00     0.198 A 
ATOM     90  F   UNL     1      14.114   5.988 -13.815  1.00  0.00    -0.203 F 
ATOM     91  F   UNL     1      10.463   8.307 -17.144  1.00  0.00    -0.200 F 
ATOM     92  C   UNL     1      12.697   7.703 -16.673  1.00  0.00     0.200 A 
ATOM     93  F   UNL     1      14.915   7.068 -16.165  1.00  0.00    -0.200 F 
ATOM     94  F   UNL     1      13.098   8.217 -17.844  1.00  0.00    -0.200 F 
ENDBRANCH  61  84
ENDBRANCH  35  36
ENDBRANCH  27  30
ENDBRANCH  25  26
ENDBRANCH  24  25
ENDBRANCH   1  24
TORSDOF 14
