REMARK SMILES COc1ccc([C@@H](CC(=O)NCCCCNC(=O)c2ccc(-c3c4nc(c(-c5c(F)c(F)c(F)c(F)c5F)c5ccc([nH]5)c(-c5c(F)c(F)c(F)c(F)c5F)c5nc(c(-c6c(F)c(F)c(F)c(F)c6F)c6ccc3[nH]6)C=C5)C=C4)cc2)NC(=O)c2ccc(Cl)c([N+](=O)[O-])c2)cc1
REMARK SMILES IDX 12 1 11 2 9 3 10 4 8 6 7 7 6 8 3 9 4 10 96 11 5 12 95 13
REMARK SMILES IDX 2 14 1 15 82 16 83 17 84 19 85 20 86 21 94 22 87 23 90 24
REMARK SMILES IDX 88 25 89 26 91 27 92 28 93 29 13 30 14 31 15 32 16 33 17 34
REMARK SMILES IDX 18 36 19 37 20 38 81 39 21 40 80 41 22 42 23 43 24 44 74 45
REMARK SMILES IDX 25 46 79 47 73 48 75 49 26 50 78 51 72 52 71 53 27 55 59 56
REMARK SMILES IDX 39 57 58 58 40 59 43 60 57 61 76 62 41 63 42 64 56 66 77 67
REMARK SMILES IDX 44 68 28 69 29 70 37 71 30 72 31 73 35 74 38 75 32 76 33 77
REMARK SMILES IDX 36 78 34 79 60 80 61 81 69 82 62 83 63 84 67 85 70 86 64 87
REMARK SMILES IDX 65 88 68 89 66 90 45 91 46 92 54 93 47 94 48 95 52 96 55 97
REMARK SMILES IDX 49 98 50 99 53 100 51 101
REMARK H PARENT 11 5 82 18 16 35 75 54 43 65
REMARK Flexibility Score: inf
ROOT
ATOM      1  C   UNL     1      -0.202  -5.301  -2.338  1.00  0.00     0.116 C 
ENDROOT
BRANCH   1   2
ATOM      2  N   UNL     1      -0.601  -5.772  -3.646  1.00  0.00    -0.356 N 
ATOM      3  C   UNL     1      -0.008  -5.483  -4.841  1.00  0.00     0.222 C 
ATOM      4  O   UNL     1      -0.678  -5.603  -5.867  1.00  0.00    -0.275 OA
ATOM      5  H   UNL     1      -1.386  -6.365  -3.678  1.00  0.00     0.163 HD
BRANCH   3   6
ATOM      6  C   UNL     1       1.456  -5.090  -4.900  1.00  0.00     0.129 C 
BRANCH   6   7
ATOM      7  C   UNL     1       1.770  -3.630  -5.287  1.00  0.00     0.122 C 
BRANCH   7   8
ATOM      8  C   UNL     1       1.704  -2.616  -4.150  1.00  0.00    -0.025 A 
ATOM      9  C   UNL     1       1.423  -1.110  -1.796  1.00  0.00     0.118 A 
ATOM     10  C   UNL     1       0.558  -0.886  -2.866  1.00  0.00     0.047 A 
ATOM     11  C   UNL     1       2.504  -1.973  -1.935  1.00  0.00     0.047 A 
ATOM     12  C   UNL     1       0.712  -1.624  -4.051  1.00  0.00     0.010 A 
ATOM     13  C   UNL     1       2.647  -2.716  -3.108  1.00  0.00     0.010 A 
BRANCH   9  14
ATOM     14  O   UNL     1       1.056  -0.778  -0.520  1.00  0.00    -0.497 OA
ATOM     15  C   UNL     1       1.246   0.596  -0.218  1.00  0.00     0.278 C 
ENDBRANCH   9  14
ENDBRANCH   7   8
BRANCH   7  16
ATOM     16  N   UNL     1       1.062  -3.203  -6.491  1.00  0.00    -0.345 N 
ATOM     17  C   UNL     1       1.554  -2.555  -7.597  1.00  0.00     0.252 C 
ATOM     18  H   UNL     1       0.099  -3.408  -6.512  1.00  0.00     0.164 HD
ATOM     19  O   UNL     1       0.815  -2.011  -8.402  1.00  0.00    -0.269 OA
BRANCH  17  20
ATOM     20  C   UNL     1       3.017  -2.515  -7.806  1.00  0.00     0.046 A 
ATOM     21  C   UNL     1       3.645  -1.287  -8.010  1.00  0.00     0.016 A 
ATOM     22  C   UNL     1       3.766  -3.693  -7.767  1.00  0.00     0.101 A 
ATOM     23  C   UNL     1       5.040  -1.231  -8.097  1.00  0.00     0.028 A 
ATOM     24  C   UNL     1       5.166  -3.622  -7.803  1.00  0.00     0.288 A 
ATOM     25  C   UNL     1       5.815  -2.394  -7.964  1.00  0.00     0.118 A 
ATOM     26  Cl  UNL     1       7.527  -2.184  -7.946  1.00  0.00    -0.077 Cl
BRANCH  24  27
ATOM     27  N   UNL     1       5.893  -4.859  -7.561  1.00  0.00     0.064 N 
ATOM     28  O   UNL     1       6.897  -5.097  -8.239  1.00  0.00    -0.258 OA
ATOM     29  O   UNL     1       5.419  -5.618  -6.700  1.00  0.00    -0.258 OA
ENDBRANCH  24  27
ENDBRANCH  17  20
ENDBRANCH   7  16
ENDBRANCH   6   7
ENDBRANCH   3   6
ENDBRANCH   1   2
BRANCH   1  30
ATOM     30  C   UNL     1      -0.694  -3.874  -2.160  1.00  0.00     0.023 C 
BRANCH  30  31
ATOM     31  C   UNL     1      -2.035  -3.693  -1.487  1.00  0.00     0.023 C 
BRANCH  31  32
ATOM     32  C   UNL     1      -2.008  -4.024  -0.011  1.00  0.00     0.116 C 
BRANCH  32  33
ATOM     33  N   UNL     1      -1.107  -3.193   0.784  1.00  0.00    -0.352 N 
ATOM     34  C   UNL     1      -1.312  -2.646   2.032  1.00  0.00     0.251 C 
ATOM     35  H   UNL     1      -0.234  -2.998   0.372  1.00  0.00     0.163 HD
ATOM     36  O   UNL     1      -0.464  -1.941   2.566  1.00  0.00    -0.269 OA
BRANCH  34  37
ATOM     37  C   UNL     1      -2.619  -2.857   2.685  1.00  0.00     0.039 A 
ATOM     38  C   UNL     1      -3.305  -1.751   3.189  1.00  0.00     0.014 A 
ATOM     39  C   UNL     1      -3.224  -4.112   2.655  1.00  0.00     0.014 A 
ATOM     40  C   UNL     1      -4.643  -1.888   3.559  1.00  0.00     0.010 A 
ATOM     41  C   UNL     1      -4.589  -4.207   2.866  1.00  0.00     0.010 A 
ATOM     42  C   UNL     1      -5.313  -3.102   3.338  1.00  0.00    -0.014 A 
BRANCH  42  43
ATOM     43  C   UNL     1      -6.763  -3.260   3.615  1.00  0.00     0.031 A 
ATOM     44  C   UNL     1      -7.221  -4.329   4.570  1.00  0.00     0.074 A 
ATOM     45  C   UNL     1      -7.665  -2.508   2.955  1.00  0.00     0.049 A 
ATOM     46  N   UNL     1      -8.437  -4.695   4.887  1.00  0.00    -0.248 NA
ATOM     47  C   UNL     1      -6.170  -5.133   5.214  1.00  0.00     0.031 C 
ATOM     48  C   UNL     1      -7.352  -1.483   1.957  1.00  0.00     0.029 A 
ATOM     49  N   UNL     1      -9.036  -2.490   3.027  1.00  0.00    -0.354 N 
ATOM     50  C   UNL     1      -8.289  -5.786   5.734  1.00  0.00     0.074 A 
ATOM     51  C   UNL     1      -6.877  -6.080   5.807  1.00  0.00     0.031 C 
ATOM     52  C   UNL     1      -8.492  -0.897   1.556  1.00  0.00     0.029 A 
ATOM     53  C   UNL     1      -9.617  -1.536   2.228  1.00  0.00     0.049 A 
ATOM     54  H   UNL     1      -9.553  -3.104   3.597  1.00  0.00     0.167 HD
ATOM     55  C   UNL     1      -9.240  -6.458   6.425  1.00  0.00     0.037 A 
ATOM     56  C   UNL     1     -10.914  -1.211   2.067  1.00  0.00     0.037 A 
ATOM     57  C   UNL     1     -10.638  -6.130   6.380  1.00  0.00     0.049 A 
ATOM     58  C   UNL     1     -11.957  -1.973   2.840  1.00  0.00     0.074 A 
ATOM     59  C   UNL     1     -11.680  -6.688   7.096  1.00  0.00     0.029 A 
ATOM     60  N   UNL     1     -11.190  -5.152   5.563  1.00  0.00    -0.354 N 
ATOM     61  N   UNL     1     -11.803  -2.946   3.705  1.00  0.00    -0.248 NA
ATOM     62  C   UNL     1     -13.357  -1.587   2.614  1.00  0.00     0.031 C 
ATOM     63  C   UNL     1     -12.870  -6.089   6.670  1.00  0.00     0.029 A 
ATOM     64  C   UNL     1     -12.563  -5.112   5.735  1.00  0.00     0.049 A 
ATOM     65  H   UNL     1     -10.680  -4.572   4.953  1.00  0.00     0.167 HD
ATOM     66  C   UNL     1     -13.078  -3.266   4.153  1.00  0.00     0.074 A 
ATOM     67  C   UNL     1     -13.993  -2.374   3.470  1.00  0.00     0.031 C 
ATOM     68  C   UNL     1     -13.457  -4.211   5.049  1.00  0.00     0.037 A 
BRANCH  55  69
ATOM     69  C   UNL     1      -8.784  -7.611   7.276  1.00  0.00     0.064 A 
ATOM     70  C   UNL     1      -7.952  -7.427   8.393  1.00  0.00     0.173 A 
ATOM     71  C   UNL     1      -9.162  -8.923   6.955  1.00  0.00     0.173 A 
ATOM     72  F   UNL     1      -7.547  -6.195   8.739  1.00  0.00    -0.203 F 
ATOM     73  C   UNL     1      -7.467  -8.514   9.115  1.00  0.00     0.198 A 
ATOM     74  C   UNL     1      -8.710 -10.005   7.706  1.00  0.00     0.198 A 
ATOM     75  F   UNL     1      -9.960  -9.160   5.903  1.00  0.00    -0.203 F 
ATOM     76  F   UNL     1      -6.602  -8.316  10.120  1.00  0.00    -0.200 F 
ATOM     77  C   UNL     1      -7.850  -9.802   8.774  1.00  0.00     0.200 A 
ATOM     78  F   UNL     1      -9.093 -11.248   7.384  1.00  0.00    -0.200 F 
ATOM     79  F   UNL     1      -7.377 -10.848   9.465  1.00  0.00    -0.200 F 
ENDBRANCH  55  69
BRANCH  56  80
ATOM     80  C   UNL     1     -11.292  -0.074   1.187  1.00  0.00     0.064 A 
ATOM     81  C   UNL     1     -11.793   1.115   1.737  1.00  0.00     0.173 A 
ATOM     82  C   UNL     1     -11.150  -0.137  -0.206  1.00  0.00     0.173 A 
ATOM     83  F   UNL     1     -11.965   1.218   3.064  1.00  0.00    -0.203 F 
ATOM     84  C   UNL     1     -12.151   2.191   0.928  1.00  0.00     0.198 A 
ATOM     85  C   UNL     1     -11.483   0.950  -1.014  1.00  0.00     0.198 A 
ATOM     86  F   UNL     1     -10.671  -1.248  -0.783  1.00  0.00    -0.203 F 
ATOM     87  F   UNL     1     -12.662   3.300   1.478  1.00  0.00    -0.200 F 
ATOM     88  C   UNL     1     -11.989   2.111  -0.447  1.00  0.00     0.200 A 
ATOM     89  F   UNL     1     -11.310   0.874  -2.340  1.00  0.00    -0.200 F 
ATOM     90  F   UNL     1     -12.324   3.149  -1.225  1.00  0.00    -0.200 F 
ENDBRANCH  56  80
BRANCH  68  91
ATOM     91  C   UNL     1     -14.919  -4.302   5.377  1.00  0.00     0.064 A 
ATOM     92  C   UNL     1     -15.855  -4.792   4.454  1.00  0.00     0.173 A 
ATOM     93  C   UNL     1     -15.382  -3.936   6.651  1.00  0.00     0.173 A 
ATOM     94  F   UNL     1     -15.466  -5.141   3.219  1.00  0.00    -0.203 F 
ATOM     95  C   UNL     1     -17.204  -4.885   4.785  1.00  0.00     0.198 A 
ATOM     96  C   UNL     1     -16.725  -4.065   6.990  1.00  0.00     0.198 A 
ATOM     97  F   UNL     1     -14.527  -3.470   7.573  1.00  0.00    -0.203 F 
ATOM     98  F   UNL     1     -18.088  -5.306   3.870  1.00  0.00    -0.200 F 
ATOM     99  C   UNL     1     -17.637  -4.531   6.055  1.00  0.00     0.200 A 
ATOM    100  F   UNL     1     -17.137  -3.740   8.223  1.00  0.00    -0.200 F 
ATOM    101  F   UNL     1     -18.934  -4.632   6.375  1.00  0.00    -0.200 F 
ENDBRANCH  68  91
ENDBRANCH  42  43
ENDBRANCH  34  37
ENDBRANCH  32  33
ENDBRANCH  31  32
ENDBRANCH  30  31
ENDBRANCH   1  30
TORSDOF 17
