REMARK SMILES CC[C@H](C(=O)NCCCCNC(=O)c1ccc(-c2c3nc(c(-c4c(F)c(F)c(F)c(F)c4F)c4ccc([nH]4)c(-c4c(F)c(F)c(F)c(F)c4F)c4nc(c(-c5c(F)c(F)c(F)c(F)c5F)c5ccc2[nH]5)C=C4)C=C3)cc1)N(C)c1cc(C)ccc1[N+](=O)[O-]
REMARK SMILES IDX 8 1 7 2 6 3 4 4 5 5 3 7 2 8 1 9 77 10 78 11 79 12 80 13
REMARK SMILES IDX 85 14 81 15 84 16 82 17 83 18 86 19 87 20 88 21 9 22 10 23
REMARK SMILES IDX 11 24 12 25 13 27 14 28 15 29 76 30 16 31 75 32 17 33 18 34
REMARK SMILES IDX 19 35 69 36 20 37 74 38 68 39 70 40 21 41 73 42 67 43 66 44
REMARK SMILES IDX 22 46 54 47 34 48 53 49 35 50 38 51 52 52 71 53 36 54 37 55
REMARK SMILES IDX 51 57 72 58 39 59 23 60 24 61 32 62 25 63 26 64 30 65 33 66
REMARK SMILES IDX 27 67 28 68 31 69 29 70 55 71 56 72 64 73 57 74 58 75 62 76
REMARK SMILES IDX 65 77 59 78 60 79 63 80 61 81 40 82 41 83 49 84 42 85 43 86
REMARK SMILES IDX 47 87 50 88 44 89 45 90 48 91 46 92
REMARK H PARENT 6 6 11 26 70 45 38 56
REMARK Flexibility Score: inf
ROOT
ATOM      1  C   UNL     1      -0.933   0.972   2.169  1.00  0.00     0.023 C 
ENDROOT
BRANCH   1   2
ATOM      2  C   UNL     1      -1.056  -0.314   1.354  1.00  0.00     0.116 C 
BRANCH   2   3
ATOM      3  N   UNL     1      -0.120  -0.296   0.254  1.00  0.00    -0.354 N 
ATOM      4  C   UNL     1       0.912  -1.109  -0.086  1.00  0.00     0.242 C 
ATOM      5  O   UNL     1       1.590  -0.743  -1.054  1.00  0.00    -0.273 OA
ATOM      6  H   UNL     1      -0.257   0.453  -0.371  1.00  0.00     0.163 HD
BRANCH   4   7
ATOM      7  C   UNL     1       1.225  -2.450   0.612  1.00  0.00     0.171 C 
BRANCH   7   8
ATOM      8  C   UNL     1       1.195  -2.538   2.144  1.00  0.00     0.032 C 
ATOM      9  C   UNL     1       1.893  -1.371   2.838  1.00  0.00     0.006 C 
ENDBRANCH   7   8
BRANCH   7  10
ATOM     10  N   UNL     1       0.561  -3.627  -0.037  1.00  0.00    -0.357 N 
ATOM     11  C   UNL     1       1.435  -4.764  -0.338  1.00  0.00     0.144 C 
BRANCH  10  12
ATOM     12  C   UNL     1      -0.808  -3.871  -0.099  1.00  0.00     0.116 A 
ATOM     13  C   UNL     1      -1.333  -5.010   0.558  1.00  0.00     0.036 A 
ATOM     14  C   UNL     1      -1.748  -3.151  -0.865  1.00  0.00     0.292 A 
ATOM     15  C   UNL     1      -2.685  -5.405   0.463  1.00  0.00    -0.049 A 
ATOM     16  C   UNL     1      -3.124  -3.469  -0.885  1.00  0.00     0.088 A 
ATOM     17  C   UNL     1      -3.124  -6.728   1.025  1.00  0.00     0.044 C 
ATOM     18  C   UNL     1      -3.587  -4.597  -0.223  1.00  0.00     0.010 A 
BRANCH  14  19
ATOM     19  N   UNL     1      -1.347  -2.181  -1.874  1.00  0.00     0.064 N 
ATOM     20  O   UNL     1      -1.953  -1.095  -1.876  1.00  0.00    -0.258 OA
ATOM     21  O   UNL     1      -0.529  -2.544  -2.729  1.00  0.00    -0.258 OA
ENDBRANCH  14  19
ENDBRANCH  10  12
ENDBRANCH   7  10
ENDBRANCH   4   7
ENDBRANCH   2   3
ENDBRANCH   1   2
BRANCH   1  22
ATOM     22  C   UNL     1      -1.641   2.166   1.532  1.00  0.00     0.023 C 
BRANCH  22  23
ATOM     23  C   UNL     1      -3.144   1.983   1.357  1.00  0.00     0.116 C 
BRANCH  23  24
ATOM     24  N   UNL     1      -3.820   1.658   2.602  1.00  0.00    -0.352 N 
ATOM     25  C   UNL     1      -4.985   2.185   3.116  1.00  0.00     0.251 C 
ATOM     26  H   UNL     1      -3.385   0.968   3.154  1.00  0.00     0.163 HD
ATOM     27  O   UNL     1      -5.346   1.917   4.248  1.00  0.00    -0.269 OA
BRANCH  25  28
ATOM     28  C   UNL     1      -5.773   3.104   2.273  1.00  0.00     0.039 A 
ATOM     29  C   UNL     1      -6.199   4.316   2.816  1.00  0.00     0.014 A 
ATOM     30  C   UNL     1      -6.045   2.782   0.942  1.00  0.00     0.014 A 
ATOM     31  C   UNL     1      -6.853   5.238   1.997  1.00  0.00     0.010 A 
ATOM     32  C   UNL     1      -6.615   3.735   0.108  1.00  0.00     0.010 A 
ATOM     33  C   UNL     1      -7.034   4.967   0.630  1.00  0.00    -0.014 A 
BRANCH  33  34
ATOM     34  C   UNL     1      -7.673   5.961  -0.265  1.00  0.00     0.031 A 
ATOM     35  C   UNL     1      -8.978   5.638  -0.936  1.00  0.00     0.074 A 
ATOM     36  C   UNL     1      -7.051   7.130  -0.511  1.00  0.00     0.049 A 
ATOM     37  N   UNL     1      -9.685   6.363  -1.765  1.00  0.00    -0.248 NA
ATOM     38  C   UNL     1      -9.551   4.309  -0.665  1.00  0.00     0.031 C 
ATOM     39  C   UNL     1      -5.749   7.526   0.028  1.00  0.00     0.029 A 
ATOM     40  N   UNL     1      -7.431   8.200  -1.280  1.00  0.00    -0.354 N 
ATOM     41  C   UNL     1     -10.771   5.575  -2.121  1.00  0.00     0.074 A 
ATOM     42  C   UNL     1     -10.598   4.294  -1.474  1.00  0.00     0.031 C 
ATOM     43  C   UNL     1      -5.455   8.765  -0.397  1.00  0.00     0.029 A 
ATOM     44  C   UNL     1      -6.532   9.237  -1.261  1.00  0.00     0.049 A 
ATOM     45  H   UNL     1      -8.269   8.222  -1.796  1.00  0.00     0.167 HD
ATOM     46  C   UNL     1     -11.835   5.903  -2.893  1.00  0.00     0.037 A 
ATOM     47  C   UNL     1      -6.578  10.437  -1.870  1.00  0.00     0.037 A 
ATOM     48  C   UNL     1     -12.012   7.188  -3.514  1.00  0.00     0.049 A 
ATOM     49  C   UNL     1      -7.780  10.784  -2.706  1.00  0.00     0.074 A 
ATOM     50  C   UNL     1     -13.078   7.644  -4.269  1.00  0.00     0.029 A 
ATOM     51  N   UNL     1     -11.093   8.226  -3.452  1.00  0.00    -0.354 N 
ATOM     52  N   UNL     1      -8.842  10.062  -2.970  1.00  0.00    -0.248 NA
ATOM     53  C   UNL     1      -7.795  12.120  -3.316  1.00  0.00     0.031 C 
ATOM     54  C   UNL     1     -12.785   8.943  -4.699  1.00  0.00     0.029 A 
ATOM     55  C   UNL     1     -11.560   9.316  -4.168  1.00  0.00     0.049 A 
ATOM     56  H   UNL     1     -10.235   8.193  -2.970  1.00  0.00     0.167 HD
ATOM     57  C   UNL     1      -9.663  10.863  -3.752  1.00  0.00     0.074 A 
ATOM     58  C   UNL     1      -8.984  12.134  -3.901  1.00  0.00     0.031 C 
ATOM     59  C   UNL     1     -10.870  10.574  -4.300  1.00  0.00     0.037 A 
BRANCH  46  60
ATOM     60  C   UNL     1     -12.890   4.853  -3.097  1.00  0.00     0.064 A 
ATOM     61  C   UNL     1     -13.718   4.428  -2.045  1.00  0.00     0.173 A 
ATOM     62  C   UNL     1     -13.089   4.277  -4.360  1.00  0.00     0.173 A 
ATOM     63  F   UNL     1     -13.559   4.936  -0.814  1.00  0.00    -0.203 F 
ATOM     64  C   UNL     1     -14.681   3.442  -2.243  1.00  0.00     0.198 A 
ATOM     65  C   UNL     1     -14.076   3.315  -4.562  1.00  0.00     0.198 A 
ATOM     66  F   UNL     1     -12.329   4.648  -5.401  1.00  0.00    -0.203 F 
ATOM     67  F   UNL     1     -15.419   3.012  -1.210  1.00  0.00    -0.200 F 
ATOM     68  C   UNL     1     -14.864   2.892  -3.502  1.00  0.00     0.200 A 
ATOM     69  F   UNL     1     -14.261   2.793  -5.782  1.00  0.00    -0.200 F 
ATOM     70  F   UNL     1     -15.794   1.946  -3.692  1.00  0.00    -0.200 F 
ENDBRANCH  46  60
BRANCH  47  71
ATOM     71  C   UNL     1      -5.477  11.415  -1.671  1.00  0.00     0.064 A 
ATOM     72  C   UNL     1      -5.682  12.588  -0.931  1.00  0.00     0.173 A 
ATOM     73  C   UNL     1      -4.203  11.203  -2.217  1.00  0.00     0.173 A 
ATOM     74  F   UNL     1      -6.889  12.844  -0.404  1.00  0.00    -0.203 F 
ATOM     75  C   UNL     1      -4.663  13.523  -0.764  1.00  0.00     0.198 A 
ATOM     76  C   UNL     1      -3.176  12.125  -2.026  1.00  0.00     0.198 A 
ATOM     77  F   UNL     1      -3.952  10.094  -2.928  1.00  0.00    -0.203 F 
ATOM     78  F   UNL     1      -4.901  14.658  -0.093  1.00  0.00    -0.200 F 
ATOM     79  C   UNL     1      -3.409  13.289  -1.308  1.00  0.00     0.200 A 
ATOM     80  F   UNL     1      -1.961  11.888  -2.539  1.00  0.00    -0.200 F 
ATOM     81  F   UNL     1      -2.428  14.187  -1.145  1.00  0.00    -0.200 F 
ENDBRANCH  47  71
BRANCH  59  82
ATOM     82  C   UNL     1     -11.545  11.667  -5.077  1.00  0.00     0.064 A 
ATOM     83  C   UNL     1     -11.061  12.094  -6.323  1.00  0.00     0.173 A 
ATOM     84  C   UNL     1     -12.702  12.282  -4.576  1.00  0.00     0.173 A 
ATOM     85  F   UNL     1      -9.950  11.547  -6.839  1.00  0.00    -0.203 F 
ATOM     86  C   UNL     1     -11.689  13.124  -7.019  1.00  0.00     0.198 A 
ATOM     87  C   UNL     1     -13.347  13.287  -5.290  1.00  0.00     0.198 A 
ATOM     88  F   UNL     1     -13.212  11.904  -3.393  1.00  0.00    -0.203 F 
ATOM     89  F   UNL     1     -11.173  13.557  -8.177  1.00  0.00    -0.200 F 
ATOM     90  C   UNL     1     -12.833  13.715  -6.505  1.00  0.00     0.200 A 
ATOM     91  F   UNL     1     -14.461  13.848  -4.800  1.00  0.00    -0.200 F 
ATOM     92  F   UNL     1     -13.436  14.705  -7.177  1.00  0.00    -0.200 F 
ENDBRANCH  59  82
ENDBRANCH  33  34
ENDBRANCH  25  28
ENDBRANCH  23  24
ENDBRANCH  22  23
ENDBRANCH   1  22
TORSDOF 15
