REMARK SMILES CCOC(=O)c1cc(C[NH2+]CC(=O)NCCCCNC(=O)c2ccc(-c3c4nc(c(-c5c(F)c(F)c(F)c(F)c5F)c5ccc([nH]5)c(-c5c(F)c(F)c(F)c(F)c5F)c5nc(c(-c6c(F)c(F)c(F)c(F)c6F)c6ccc3[nH]6)C=C5)C=C4)cc2)c(C)o1
REMARK SMILES IDX 12 1 13 2 14 3 11 5 10 6 9 9 8 10 6 11 7 12 87 13 85 14
REMARK SMILES IDX 86 15 4 16 5 17 3 18 2 19 1 20 15 21 16 22 17 23 18 24 19 25
REMARK SMILES IDX 20 26 21 28 22 29 23 30 84 31 24 32 83 33 25 34 26 35 27 36
REMARK SMILES IDX 77 37 28 38 82 39 76 40 78 41 29 42 81 43 75 44 74 45 30 47
REMARK SMILES IDX 62 48 42 49 61 50 43 51 46 52 60 53 79 54 44 55 45 56 59 58
REMARK SMILES IDX 80 59 47 60 31 61 32 62 40 63 33 64 34 65 38 66 41 67 35 68
REMARK SMILES IDX 36 69 39 70 37 71 63 72 64 73 72 74 65 75 66 76 70 77 73 78
REMARK SMILES IDX 67 79 68 80 71 81 69 82 48 83 49 84 57 85 50 86 51 87 55 88
REMARK SMILES IDX 58 89 52 90 53 91 56 92 54 93
REMARK H PARENT 14 4 10 7 10 8 19 27 78 46 46 57
REMARK Flexibility Score: inf
ROOT
ATOM      1  C   UNL     1       4.523   3.216   4.016  1.00  0.00     0.275 C 
ATOM      2  O   UNL     1       4.004   3.209   5.135  1.00  0.00    -0.269 OA
ATOM      3  N   UNL     1       3.820   3.810   2.999  1.00  0.00    -0.351 N 
ATOM      4  H   UNL     1       3.000   4.272   3.288  1.00  0.00     0.163 HD
ENDROOT
BRANCH   1   5
ATOM      5  C   UNL     1       5.892   2.540   3.773  1.00  0.00     0.362 C 
BRANCH   5   6
ATOM      6  N   UNL     1       5.796   1.067   3.544  1.00  0.00    -0.335 N 
ATOM      7  H   UNL     1       6.730   0.672   3.426  1.00  0.00     0.347 HD
ATOM      8  H   UNL     1       5.353   0.610   4.340  1.00  0.00     0.347 HD
BRANCH   6   9
ATOM      9  C   UNL     1       5.019   0.857   2.343  1.00  0.00     0.301 C 
BRANCH   9  10
ATOM     10  C   UNL     1       4.825  -0.531   1.871  1.00  0.00     0.048 A 
ATOM     11  C   UNL     1       3.668  -2.088   0.736  1.00  0.00     0.212 A 
ATOM     12  C   UNL     1       3.538  -1.119   1.710  1.00  0.00     0.068 A 
ATOM     13  O   UNL     1       4.998  -2.314   0.506  1.00  0.00    -0.454 OA
ATOM     14  C   UNL     1       5.698  -1.360   1.194  1.00  0.00     0.110 A 
ATOM     15  C   UNL     1       7.152  -1.313   0.934  1.00  0.00     0.088 C 
BRANCH  11  16
ATOM     16  C   UNL     1       2.667  -2.662  -0.136  1.00  0.00     0.374 C 
ATOM     17  O   UNL     1       2.855  -3.361  -1.121  1.00  0.00    -0.242 OA
BRANCH  16  18
ATOM     18  O   UNL     1       1.457  -2.122   0.204  1.00  0.00    -0.460 OA
BRANCH  18  19
ATOM     19  C   UNL     1       0.691  -1.583  -0.881  1.00  0.00     0.230 C 
ATOM     20  C   UNL     1       0.618  -0.079  -0.657  1.00  0.00     0.049 C 
ENDBRANCH  18  19
ENDBRANCH  16  18
ENDBRANCH  11  16
ENDBRANCH   9  10
ENDBRANCH   6   9
ENDBRANCH   5   6
ENDBRANCH   1   5
BRANCH   3  21
ATOM     21  C   UNL     1       4.074   3.876   1.567  1.00  0.00     0.116 C 
BRANCH  21  22
ATOM     22  C   UNL     1       3.103   2.992   0.765  1.00  0.00     0.023 C 
BRANCH  22  23
ATOM     23  C   UNL     1       1.718   3.582   0.549  1.00  0.00     0.023 C 
BRANCH  23  24
ATOM     24  C   UNL     1       1.682   4.728  -0.443  1.00  0.00     0.116 C 
BRANCH  24  25
ATOM     25  N   UNL     1       2.125   4.346  -1.778  1.00  0.00    -0.352 N 
ATOM     26  C   UNL     1       1.536   4.598  -2.994  1.00  0.00     0.251 C 
ATOM     27  H   UNL     1       2.966   3.836  -1.814  1.00  0.00     0.163 HD
ATOM     28  O   UNL     1       1.989   4.101  -4.019  1.00  0.00    -0.269 OA
BRANCH  26  29
ATOM     29  C   UNL     1       0.322   5.436  -3.047  1.00  0.00     0.039 A 
ATOM     30  C   UNL     1      -0.765   5.010  -3.813  1.00  0.00     0.014 A 
ATOM     31  C   UNL     1       0.236   6.603  -2.286  1.00  0.00     0.014 A 
ATOM     32  C   UNL     1      -1.970   5.711  -3.743  1.00  0.00     0.010 A 
ATOM     33  C   UNL     1      -0.991   7.229  -2.129  1.00  0.00     0.010 A 
ATOM     34  C   UNL     1      -2.105   6.796  -2.862  1.00  0.00    -0.014 A 
BRANCH  34  35
ATOM     35  C   UNL     1      -3.394   7.511  -2.696  1.00  0.00     0.031 A 
ATOM     36  C   UNL     1      -3.474   8.980  -3.009  1.00  0.00     0.074 A 
ATOM     37  C   UNL     1      -4.457   6.866  -2.175  1.00  0.00     0.049 A 
ATOM     38  N   UNL     1      -4.465   9.814  -2.824  1.00  0.00    -0.248 NA
ATOM     39  C   UNL     1      -2.261   9.607  -3.561  1.00  0.00     0.031 C 
ATOM     40  C   UNL     1      -4.479   5.462  -1.761  1.00  0.00     0.029 A 
ATOM     41  N   UNL     1      -5.721   7.315  -1.888  1.00  0.00    -0.354 N 
ATOM     42  C   UNL     1      -3.982  11.060  -3.201  1.00  0.00     0.074 A 
ATOM     43  C   UNL     1      -2.596  10.887  -3.571  1.00  0.00     0.031 C 
ATOM     44  C   UNL     1      -5.701   5.159  -1.294  1.00  0.00     0.029 A 
ATOM     45  C   UNL     1      -6.537   6.354  -1.343  1.00  0.00     0.049 A 
ATOM     46  H   UNL     1      -6.016   8.239  -2.057  1.00  0.00     0.167 HD
ATOM     47  C   UNL     1      -4.646  12.238  -3.260  1.00  0.00     0.037 A 
ATOM     48  C   UNL     1      -7.815   6.432  -0.924  1.00  0.00     0.037 A 
ATOM     49  C   UNL     1      -6.042  12.389  -2.953  1.00  0.00     0.049 A 
ATOM     50  C   UNL     1      -8.545   7.742  -1.053  1.00  0.00     0.074 A 
ATOM     51  C   UNL     1      -6.835  13.515  -3.080  1.00  0.00     0.029 A 
ATOM     52  N   UNL     1      -6.853  11.377  -2.462  1.00  0.00    -0.354 N 
ATOM     53  N   UNL     1      -8.104   8.894  -1.497  1.00  0.00    -0.248 NA
ATOM     54  C   UNL     1      -9.953   7.761  -0.634  1.00  0.00     0.031 C 
ATOM     55  C   UNL     1      -8.119  13.195  -2.627  1.00  0.00     0.029 A 
ATOM     56  C   UNL     1      -8.136  11.858  -2.263  1.00  0.00     0.049 A 
ATOM     57  H   UNL     1      -6.561  10.454  -2.283  1.00  0.00     0.167 HD
ATOM     58  C   UNL     1      -9.183   9.765  -1.436  1.00  0.00     0.074 A 
ATOM     59  C   UNL     1     -10.305   9.004  -0.927  1.00  0.00     0.031 C 
ATOM     60  C   UNL     1      -9.241  11.078  -1.768  1.00  0.00     0.037 A 
BRANCH  47  61
ATOM     61  C   UNL     1      -3.875  13.453  -3.688  1.00  0.00     0.064 A 
ATOM     62  C   UNL     1      -3.426  13.616  -5.007  1.00  0.00     0.173 A 
ATOM     63  C   UNL     1      -3.617  14.486  -2.774  1.00  0.00     0.173 A 
ATOM     64  F   UNL     1      -3.634  12.650  -5.915  1.00  0.00    -0.203 F 
ATOM     65  C   UNL     1      -2.724  14.755  -5.389  1.00  0.00     0.198 A 
ATOM     66  C   UNL     1      -2.942  15.639  -3.168  1.00  0.00     0.198 A 
ATOM     67  F   UNL     1      -4.026  14.382  -1.501  1.00  0.00    -0.203 F 
ATOM     68  F   UNL     1      -2.262  14.866  -6.642  1.00  0.00    -0.200 F 
ATOM     69  C   UNL     1      -2.490  15.769  -4.473  1.00  0.00     0.200 A 
ATOM     70  F   UNL     1      -2.726  16.622  -2.284  1.00  0.00    -0.200 F 
ATOM     71  F   UNL     1      -1.822  16.870  -4.845  1.00  0.00    -0.200 F 
ENDBRANCH  47  61
BRANCH  48  72
ATOM     72  C   UNL     1      -8.494   5.232  -0.369  1.00  0.00     0.064 A 
ATOM     73  C   UNL     1      -9.524   4.596  -1.076  1.00  0.00     0.173 A 
ATOM     74  C   UNL     1      -8.138   4.702   0.880  1.00  0.00     0.173 A 
ATOM     75  F   UNL     1      -9.913   5.077  -2.267  1.00  0.00    -0.203 F 
ATOM     76  C   UNL     1     -10.190   3.494  -0.545  1.00  0.00     0.198 A 
ATOM     77  C   UNL     1      -8.785   3.582   1.398  1.00  0.00     0.198 A 
ATOM     78  F   UNL     1      -7.153   5.268   1.593  1.00  0.00    -0.203 F 
ATOM     79  F   UNL     1     -11.204   2.937  -1.220  1.00  0.00    -0.200 F 
ATOM     80  C   UNL     1      -9.817   2.985   0.690  1.00  0.00     0.200 A 
ATOM     81  F   UNL     1      -8.411   3.084   2.584  1.00  0.00    -0.200 F 
ATOM     82  F   UNL     1     -10.457   1.924   1.200  1.00  0.00    -0.200 F 
ENDBRANCH  48  72
BRANCH  60  83
ATOM     83  C   UNL     1     -10.566  11.766  -1.625  1.00  0.00     0.064 A 
ATOM     84  C   UNL     1     -11.095  12.086  -0.367  1.00  0.00     0.173 A 
ATOM     85  C   UNL     1     -11.289  12.152  -2.764  1.00  0.00     0.173 A 
ATOM     86  F   UNL     1     -10.447  11.725   0.750  1.00  0.00    -0.203 F 
ATOM     87  C   UNL     1     -12.314  12.749  -0.254  1.00  0.00     0.198 A 
ATOM     88  C   UNL     1     -12.492  12.841  -2.647  1.00  0.00     0.198 A 
ATOM     89  F   UNL     1     -10.819  11.875  -3.990  1.00  0.00    -0.203 F 
ATOM     90  F   UNL     1     -12.823  13.007   0.958  1.00  0.00    -0.200 F 
ATOM     91  C   UNL     1     -13.007  13.133  -1.393  1.00  0.00     0.200 A 
ATOM     92  F   UNL     1     -13.153  13.224  -3.748  1.00  0.00    -0.200 F 
ATOM     93  F   UNL     1     -14.175  13.780  -1.282  1.00  0.00    -0.200 F 
ENDBRANCH  60  83
ENDBRANCH  34  35
ENDBRANCH  26  29
ENDBRANCH  24  25
ENDBRANCH  23  24
ENDBRANCH  22  23
ENDBRANCH  21  22
ENDBRANCH   3  21
TORSDOF 17
