REMARK SMILES CCOCCC[N@@H+]1[C@@H](C(=O)NCCCCNC(=O)c2ccc(-c3c4nc(c(-c5c(F)c(F)c(F)c(F)c5F)c5ccc([nH]5)c(-c5c(F)c(F)c(F)c(F)c5F)c5nc(c(-c6c(F)c(F)c(F)c(F)c6F)c6ccc3[nH]6)C=C5)C=C4)cc2)CC[C@H]2CCCC[C@H]21
REMARK SMILES IDX 12 1 11 2 9 3 10 4 8 6 7 7 89 8 82 10 84 11 88 12 83 13
REMARK SMILES IDX 85 14 87 15 86 16 6 17 5 18 4 19 3 20 2 21 1 22 13 23 14 24
REMARK SMILES IDX 15 25 16 26 17 27 18 29 19 30 20 31 81 32 21 33 80 34 22 35
REMARK SMILES IDX 23 36 24 37 74 38 25 39 79 40 73 41 75 42 26 43 78 44 72 45
REMARK SMILES IDX 71 46 27 48 59 49 39 50 58 51 40 52 43 53 57 54 76 55 41 56
REMARK SMILES IDX 42 57 56 59 77 60 44 61 28 62 29 63 37 64 30 65 31 66 35 67
REMARK SMILES IDX 38 68 32 69 33 70 36 71 34 72 60 73 61 74 69 75 62 76 63 77
REMARK SMILES IDX 67 78 70 79 64 80 65 81 68 82 66 83 45 84 46 85 54 86 47 87
REMARK SMILES IDX 48 88 52 89 55 90 49 91 50 92 53 93 51 94
REMARK H PARENT 11 5 7 9 16 28 75 47 43 58
REMARK Flexibility Score: inf
ROOT
ATOM      1  C   UNL     1       1.756  -0.250  -3.676  1.00  0.00     0.116 C 
ENDROOT
BRANCH   1   2
ATOM      2  N   UNL     1       2.658  -1.362  -3.890  1.00  0.00    -0.351 N 
ATOM      3  C   UNL     1       3.764  -1.722  -3.173  1.00  0.00     0.278 C 
ATOM      4  O   UNL     1       4.393  -2.713  -3.561  1.00  0.00    -0.268 OA
ATOM      5  H   UNL     1       2.444  -1.939  -4.659  1.00  0.00     0.163 HD
BRANCH   3   6
ATOM      6  C   UNL     1       4.238  -0.919  -1.926  1.00  0.00     0.274 C 
ATOM      7  N   UNL     1       3.128  -0.725  -0.934  1.00  0.00    -0.322 N 
ATOM      8  C   UNL     1       3.428   0.275   0.108  1.00  0.00     0.187 C 
ATOM      9  H   UNL     1       2.331  -0.274  -1.383  1.00  0.00     0.349 HD
ATOM     10  C   UNL     1       4.924   0.352  -2.428  1.00  0.00     0.076 C 
ATOM     11  C   UNL     1       4.089   1.576  -0.415  1.00  0.00     0.048 C 
ATOM     12  C   UNL     1       2.242   0.740   0.971  1.00  0.00     0.065 C 
ATOM     13  C   UNL     1       5.310   1.262  -1.278  1.00  0.00     0.016 C 
ATOM     14  C   UNL     1       3.152   2.577  -1.126  1.00  0.00     0.010 C 
ATOM     15  C   UNL     1       1.249   1.735   0.386  1.00  0.00     0.006 C 
ATOM     16  C   UNL     1       1.658   2.424  -0.895  1.00  0.00     0.001 C 
BRANCH   7  17
ATOM     17  C   UNL     1       2.639  -2.058  -0.489  1.00  0.00     0.265 C 
BRANCH  17  18
ATOM     18  C   UNL     1       2.913  -2.716   0.876  1.00  0.00     0.090 C 
BRANCH  18  19
ATOM     19  C   UNL     1       2.038  -2.433   2.104  1.00  0.00     0.166 C 
BRANCH  19  20
ATOM     20  O   UNL     1       0.713  -1.967   1.905  1.00  0.00    -0.382 OA
BRANCH  20  21
ATOM     21  C   UNL     1      -0.156  -2.712   1.071  1.00  0.00     0.156 C 
ATOM     22  C   UNL     1      -0.866  -1.706   0.172  1.00  0.00     0.035 C 
ENDBRANCH  20  21
ENDBRANCH  19  20
ENDBRANCH  18  19
ENDBRANCH  17  18
ENDBRANCH   7  17
ENDBRANCH   3   6
ENDBRANCH   1   2
BRANCH   1  23
ATOM     23  C   UNL     1       1.828   0.775  -4.803  1.00  0.00     0.023 C 
BRANCH  23  24
ATOM     24  C   UNL     1       1.296   0.276  -6.144  1.00  0.00     0.023 C 
BRANCH  24  25
ATOM     25  C   UNL     1      -0.162  -0.165  -6.130  1.00  0.00     0.116 C 
BRANCH  25  26
ATOM     26  N   UNL     1      -1.083   0.909  -5.783  1.00  0.00    -0.352 N 
ATOM     27  C   UNL     1      -2.261   1.262  -6.402  1.00  0.00     0.251 C 
ATOM     28  H   UNL     1      -0.829   1.454  -5.003  1.00  0.00     0.163 HD
ATOM     29  O   UNL     1      -2.872   2.266  -6.072  1.00  0.00    -0.269 OA
BRANCH  27  30
ATOM     30  C   UNL     1      -2.758   0.417  -7.507  1.00  0.00     0.039 A 
ATOM     31  C   UNL     1      -3.055   1.011  -8.736  1.00  0.00     0.014 A 
ATOM     32  C   UNL     1      -2.857  -0.966  -7.342  1.00  0.00     0.014 A 
ATOM     33  C   UNL     1      -3.367   0.204  -9.831  1.00  0.00     0.010 A 
ATOM     34  C   UNL     1      -3.098  -1.771  -8.448  1.00  0.00     0.010 A 
ATOM     35  C   UNL     1      -3.344  -1.194  -9.706  1.00  0.00    -0.014 A 
BRANCH  35  36
ATOM     36  C   UNL     1      -3.557  -2.092 -10.869  1.00  0.00     0.031 A 
ATOM     37  C   UNL     1      -4.729  -3.030 -10.876  1.00  0.00     0.074 A 
ATOM     38  C   UNL     1      -2.639  -2.146 -11.852  1.00  0.00     0.049 A 
ATOM     39  N   UNL     1      -4.999  -4.014 -11.694  1.00  0.00    -0.248 NA
ATOM     40  C   UNL     1      -5.713  -2.856  -9.796  1.00  0.00     0.031 C 
ATOM     41  C   UNL     1      -1.439  -1.312 -11.940  1.00  0.00     0.029 A 
ATOM     42  N   UNL     1      -2.557  -2.961 -12.955  1.00  0.00    -0.354 N 
ATOM     43  C   UNL     1      -6.163  -4.595 -11.211  1.00  0.00     0.074 A 
ATOM     44  C   UNL     1      -6.527  -3.880 -10.007  1.00  0.00     0.031 C 
ATOM     45  C   UNL     1      -0.744  -1.654 -13.037  1.00  0.00     0.029 A 
ATOM     46  C   UNL     1      -1.423  -2.761 -13.704  1.00  0.00     0.049 A 
ATOM     47  H   UNL     1      -3.246  -3.625 -13.187  1.00  0.00     0.167 HD
ATOM     48  C   UNL     1      -6.872  -5.624 -11.734  1.00  0.00     0.037 A 
ATOM     49  C   UNL     1      -0.970  -3.413 -14.793  1.00  0.00     0.037 A 
ATOM     50  C   UNL     1      -6.523  -6.309 -12.950  1.00  0.00     0.049 A 
ATOM     51  C   UNL     1      -1.775  -4.554 -15.354  1.00  0.00     0.074 A 
ATOM     52  C   UNL     1      -7.209  -7.321 -13.597  1.00  0.00     0.029 A 
ATOM     53  N   UNL     1      -5.388  -6.048 -13.704  1.00  0.00    -0.354 N 
ATOM     54  N   UNL     1      -2.902  -5.063 -14.920  1.00  0.00    -0.248 NA
ATOM     55  C   UNL     1      -1.246  -5.211 -16.558  1.00  0.00     0.031 C 
ATOM     56  C   UNL     1      -6.469  -7.702 -14.720  1.00  0.00     0.029 A 
ATOM     57  C   UNL     1      -5.346  -6.893 -14.800  1.00  0.00     0.049 A 
ATOM     58  H   UNL     1      -4.712  -5.365 -13.491  1.00  0.00     0.167 HD
ATOM     59  C   UNL     1      -3.236  -6.072 -15.813  1.00  0.00     0.074 A 
ATOM     60  C   UNL     1      -2.192  -6.104 -16.816  1.00  0.00     0.031 C 
ATOM     61  C   UNL     1      -4.312  -6.895 -15.803  1.00  0.00     0.037 A 
BRANCH  48  62
ATOM     62  C   UNL     1      -8.095  -6.072 -10.990  1.00  0.00     0.064 A 
ATOM     63  C   UNL     1      -9.252  -5.280 -10.929  1.00  0.00     0.173 A 
ATOM     64  C   UNL     1      -8.123  -7.324 -10.357  1.00  0.00     0.173 A 
ATOM     65  F   UNL     1      -9.273  -4.070 -11.508  1.00  0.00    -0.203 F 
ATOM     66  C   UNL     1     -10.379  -5.712 -10.235  1.00  0.00     0.198 A 
ATOM     67  C   UNL     1      -9.263  -7.765  -9.691  1.00  0.00     0.198 A 
ATOM     68  F   UNL     1      -7.045  -8.123 -10.390  1.00  0.00    -0.203 F 
ATOM     69  F   UNL     1     -11.454  -4.916 -10.147  1.00  0.00    -0.200 F 
ATOM     70  C   UNL     1     -10.386  -6.956  -9.623  1.00  0.00     0.200 A 
ATOM     71  F   UNL     1      -9.272  -8.973  -9.111  1.00  0.00    -0.200 F 
ATOM     72  F   UNL     1     -11.475  -7.372  -8.961  1.00  0.00    -0.200 F 
ENDBRANCH  48  62
BRANCH  49  73
ATOM     73  C   UNL     1       0.304  -2.993 -15.432  1.00  0.00     0.064 A 
ATOM     74  C   UNL     1       0.304  -2.361 -16.683  1.00  0.00     0.173 A 
ATOM     75  C   UNL     1       1.542  -3.208 -14.809  1.00  0.00     0.173 A 
ATOM     76  F   UNL     1      -0.854  -2.152 -17.326  1.00  0.00    -0.203 F 
ATOM     77  C   UNL     1       1.494  -1.976 -17.295  1.00  0.00     0.198 A 
ATOM     78  C   UNL     1       2.730  -2.799 -15.411  1.00  0.00     0.198 A 
ATOM     79  F   UNL     1       1.596  -3.805 -13.610  1.00  0.00    -0.203 F 
ATOM     80  F   UNL     1       1.468  -1.411 -18.510  1.00  0.00    -0.200 F 
ATOM     81  C   UNL     1       2.706  -2.190 -16.656  1.00  0.00     0.200 A 
ATOM     82  F   UNL     1       3.898  -2.995 -14.784  1.00  0.00    -0.200 F 
ATOM     83  F   UNL     1       3.851  -1.815 -17.243  1.00  0.00    -0.200 F 
ENDBRANCH  49  73
BRANCH  61  84
ATOM     84  C   UNL     1      -4.455  -7.865 -16.938  1.00  0.00     0.064 A 
ATOM     85  C   UNL     1      -3.656  -9.012 -17.033  1.00  0.00     0.173 A 
ATOM     86  C   UNL     1      -5.456  -7.676 -17.904  1.00  0.00     0.173 A 
ATOM     87  F   UNL     1      -2.676  -9.229 -16.143  1.00  0.00    -0.203 F 
ATOM     88  C   UNL     1      -3.847  -9.932 -18.061  1.00  0.00     0.198 A 
ATOM     89  C   UNL     1      -5.662  -8.611 -18.914  1.00  0.00     0.198 A 
ATOM     90  F   UNL     1      -6.250  -6.596 -17.852  1.00  0.00    -0.203 F 
ATOM     91  F   UNL     1      -3.052 -11.007 -18.153  1.00  0.00    -0.200 F 
ATOM     92  C   UNL     1      -4.855  -9.736 -18.994  1.00  0.00     0.200 A 
ATOM     93  F   UNL     1      -6.645  -8.426 -19.806  1.00  0.00    -0.200 F 
ATOM     94  F   UNL     1      -5.048 -10.630 -19.973  1.00  0.00    -0.200 F 
ENDBRANCH  61  84
ENDBRANCH  35  36
ENDBRANCH  27  30
ENDBRANCH  25  26
ENDBRANCH  24  25
ENDBRANCH  23  24
ENDBRANCH   1  23
TORSDOF 16
