REMARK SMILES Cc1coc2c(C)c3oc(=O)c(CCC(=O)N[C@H](CC(C)C)C(=O)NCCCCNC(=O)c4ccc(-c5c6nc(c(-c7c(F)c(F)c(F)c(F)c7F)c7ccc([nH]7)c(-c7c(F)c(F)c(F)c(F)c7F)c7nc(c(-c8c(F)c(F)c(F)c(F)c8F)c8ccc5[nH]8)C=C7)C=C6)cc4)c(C)c3cc12
REMARK SMILES IDX 26 1 25 2 23 3 24 4 18 6 17 7 15 8 16 9 14 11 13 12 12 13
REMARK SMILES IDX 1 14 2 15 3 16 100 17 4 18 5 19 99 20 6 21 98 22 7 23 8 24
REMARK SMILES IDX 96 25 9 26 97 27 10 28 11 29 19 30 20 31 21 32 22 33 27 34
REMARK SMILES IDX 28 35 29 36 30 37 31 38 32 40 33 41 34 42 95 43 35 44 94 45
REMARK SMILES IDX 36 46 37 47 38 48 88 49 39 50 93 51 87 52 89 53 40 54 92 55
REMARK SMILES IDX 86 56 85 57 41 59 73 60 53 61 72 62 54 63 57 64 71 65 90 66
REMARK SMILES IDX 55 67 56 68 70 70 91 71 58 72 42 73 43 74 51 75 44 76 45 77
REMARK SMILES IDX 49 78 52 79 46 80 47 81 50 82 48 83 74 84 75 85 83 86 76 87
REMARK SMILES IDX 77 88 81 89 84 90 78 91 79 92 82 93 80 94 59 95 60 96 68 97
REMARK SMILES IDX 61 98 62 99 66 100 69 101 63 102 64 103 67 104 65 105
REMARK H PARENT 25 5 17 10 30 39 89 58 57 69
REMARK Flexibility Score: inf
ROOT
ATOM      1  C   UNL     1       4.185   1.654   2.959  1.00  0.00     0.116 C 
ENDROOT
BRANCH   1   2
ATOM      2  N   UNL     1       3.761   3.135   2.909  1.00  0.00    -0.354 N 
ATOM      3  C   UNL     1       2.860   4.153   2.794  1.00  0.00     0.242 C 
ATOM      4  O   UNL     1       3.407   5.275   2.858  1.00  0.00    -0.273 OA
ATOM      5  H   UNL     1       4.615   3.611   3.025  1.00  0.00     0.163 HD
BRANCH   3   6
ATOM      6  C   UNL     1       1.293   4.226   2.585  1.00  0.00     0.171 C 
BRANCH   6   7
ATOM      7  N   UNL     1       0.567   2.979   2.610  1.00  0.00    -0.344 N 
ATOM      8  C   UNL     1       0.438   2.171   1.521  1.00  0.00     0.220 C 
ATOM      9  O   UNL     1      -0.697   1.764   1.259  1.00  0.00    -0.275 OA
ATOM     10  H   UNL     1       0.144   2.700   3.454  1.00  0.00     0.164 HD
BRANCH   8  11
ATOM     11  C   UNL     1       1.664   1.620   0.798  1.00  0.00     0.105 C 
BRANCH  11  12
ATOM     12  C   UNL     1       2.615   2.221  -0.286  1.00  0.00     0.053 C 
BRANCH  12  13
ATOM     13  C   UNL     1       3.359   3.563  -0.381  1.00  0.00     0.042 A 
ATOM     14  C   UNL     1       2.173  10.164  -0.257  1.00  0.00     0.048 C 
ATOM     15  C   UNL     1       3.534   9.577  -0.344  1.00  0.00    -0.005 A 
ATOM     16  C   UNL     1       4.756  10.208  -0.260  1.00  0.00     0.199 A 
ATOM     17  C   UNL     1       3.849   8.211  -0.570  1.00  0.00     0.024 A 
ATOM     18  O   UNL     1       5.780   9.310  -0.321  1.00  0.00    -0.464 OA
ATOM     19  C   UNL     1       5.225   8.076  -0.516  1.00  0.00     0.140 A 
ATOM     20  C   UNL     1       3.080   7.064  -0.756  1.00  0.00     0.024 A 
ATOM     21  C   UNL     1       5.896   6.845  -0.589  1.00  0.00     0.036 A 
ATOM     22  C   UNL     1       3.670   5.849  -1.037  1.00  0.00     0.022 A 
ATOM     23  C   UNL     1       7.333   6.704  -0.207  1.00  0.00     0.052 C 
ATOM     24  C   UNL     1       5.058   5.753  -0.915  1.00  0.00     0.145 A 
ATOM     25  C   UNL     1       2.906   4.586  -1.143  1.00  0.00    -0.030 A 
ATOM     26  O   UNL     1       5.538   4.450  -0.988  1.00  0.00    -0.422 OA
ATOM     27  C   UNL     1       1.678   4.525  -1.993  1.00  0.00     0.046 C 
ATOM     28  C   UNL     1       4.804   3.870   0.027  1.00  0.00     0.339 A 
ATOM     29  O   UNL     1       5.298   3.807   1.137  1.00  0.00    -0.246 OA
ENDBRANCH  12  13
ENDBRANCH  11  12
ENDBRANCH   8  11
ENDBRANCH   6   7
BRANCH   6  30
ATOM     30  C   UNL     1       0.808   5.068   1.320  1.00  0.00     0.038 C 
BRANCH  30  31
ATOM     31  C   UNL     1      -0.131   6.321   1.330  1.00  0.00    -0.015 C 
ATOM     32  C   UNL     1       0.453   7.531   2.058  1.00  0.00     0.007 C 
ATOM     33  C   UNL     1      -0.532   6.732  -0.125  1.00  0.00     0.007 C 
ENDBRANCH  30  31
ENDBRANCH   6  30
ENDBRANCH   3   6
ENDBRANCH   1   2
BRANCH   1  34
ATOM     34  C   UNL     1       5.284   1.300   1.868  1.00  0.00     0.023 C 
BRANCH  34  35
ATOM     35  C   UNL     1       6.139   0.023   1.792  1.00  0.00     0.023 C 
BRANCH  35  36
ATOM     36  C   UNL     1       5.441  -1.277   1.452  1.00  0.00     0.116 C 
BRANCH  36  37
ATOM     37  N   UNL     1       5.191  -1.556   0.034  1.00  0.00    -0.352 N 
ATOM     38  C   UNL     1       4.546  -2.705  -0.455  1.00  0.00     0.251 C 
ATOM     39  H   UNL     1       5.496  -0.890  -0.623  1.00  0.00     0.163 HD
ATOM     40  O   UNL     1       4.579  -3.055  -1.595  1.00  0.00    -0.269 OA
BRANCH  38  41
ATOM     41  C   UNL     1       3.809  -3.478   0.575  1.00  0.00     0.039 A 
ATOM     42  C   UNL     1       4.382  -4.638   1.097  1.00  0.00     0.014 A 
ATOM     43  C   UNL     1       2.813  -2.780   1.252  1.00  0.00     0.014 A 
ATOM     44  C   UNL     1       4.059  -5.002   2.402  1.00  0.00     0.010 A 
ATOM     45  C   UNL     1       2.601  -3.075   2.585  1.00  0.00     0.010 A 
ATOM     46  C   UNL     1       3.231  -4.171   3.182  1.00  0.00    -0.014 A 
BRANCH  46  47
ATOM     47  C   UNL     1       3.159  -4.395   4.633  1.00  0.00     0.031 A 
ATOM     48  C   UNL     1       4.448  -4.705   5.330  1.00  0.00     0.074 A 
ATOM     49  C   UNL     1       2.062  -4.221   5.401  1.00  0.00     0.049 A 
ATOM     50  N   UNL     1       4.801  -5.838   5.846  1.00  0.00    -0.248 NA
ATOM     51  C   UNL     1       5.486  -3.667   5.428  1.00  0.00     0.031 C 
ATOM     52  C   UNL     1       0.775  -3.621   5.035  1.00  0.00     0.029 A 
ATOM     53  N   UNL     1       1.896  -4.511   6.729  1.00  0.00    -0.354 N 
ATOM     54  C   UNL     1       6.022  -5.624   6.484  1.00  0.00     0.074 A 
ATOM     55  C   UNL     1       6.453  -4.306   6.096  1.00  0.00     0.031 C 
ATOM     56  C   UNL     1       0.048  -3.389   6.147  1.00  0.00     0.029 A 
ATOM     57  C   UNL     1       0.718  -4.022   7.265  1.00  0.00     0.049 A 
ATOM     58  H   UNL     1       2.556  -5.019   7.254  1.00  0.00     0.167 HD
ATOM     59  C   UNL     1       6.461  -6.474   7.457  1.00  0.00     0.037 A 
ATOM     60  C   UNL     1       0.259  -4.168   8.526  1.00  0.00     0.037 A 
ATOM     61  C   UNL     1       5.669  -7.673   7.503  1.00  0.00     0.049 A 
ATOM     62  C   UNL     1       0.833  -5.409   9.088  1.00  0.00     0.074 A 
ATOM     63  C   UNL     1       5.640  -8.900   6.880  1.00  0.00     0.029 A 
ATOM     64  N   UNL     1       4.477  -7.519   8.152  1.00  0.00    -0.354 N 
ATOM     65  N   UNL     1       0.574  -6.600   8.620  1.00  0.00    -0.248 NA
ATOM     66  C   UNL     1       1.937  -5.335  10.038  1.00  0.00     0.031 C 
ATOM     67  C   UNL     1       4.318  -9.414   7.059  1.00  0.00     0.029 A 
ATOM     68  C   UNL     1       3.584  -8.497   7.802  1.00  0.00     0.049 A 
ATOM     69  H   UNL     1       4.284  -6.796   8.791  1.00  0.00     0.167 HD
ATOM     70  C   UNL     1       1.718  -7.320   8.884  1.00  0.00     0.074 A 
ATOM     71  C   UNL     1       2.428  -6.569   9.909  1.00  0.00     0.031 C 
ATOM     72  C   UNL     1       2.174  -8.265   8.015  1.00  0.00     0.037 A 
BRANCH  59  73
ATOM     73  C   UNL     1       7.306  -6.093   8.654  1.00  0.00     0.064 A 
ATOM     74  C   UNL     1       7.852  -7.105   9.475  1.00  0.00     0.173 A 
ATOM     75  C   UNL     1       7.326  -4.794   9.201  1.00  0.00     0.173 A 
ATOM     76  F   UNL     1       7.859  -8.384   9.069  1.00  0.00    -0.203 F 
ATOM     77  C   UNL     1       8.332  -6.840  10.762  1.00  0.00     0.198 A 
ATOM     78  C   UNL     1       7.851  -4.525  10.467  1.00  0.00     0.198 A 
ATOM     79  F   UNL     1       6.736  -3.763   8.583  1.00  0.00    -0.203 F 
ATOM     80  F   UNL     1       8.742  -7.848  11.544  1.00  0.00    -0.200 F 
ATOM     81  C   UNL     1       8.330  -5.549  11.258  1.00  0.00     0.200 A 
ATOM     82  F   UNL     1       7.815  -3.272  10.943  1.00  0.00    -0.200 F 
ATOM     83  F   UNL     1       8.742  -5.298  12.507  1.00  0.00    -0.200 F 
ENDBRANCH  59  73
BRANCH  60  84
ATOM     84  C   UNL     1      -0.494  -3.187   9.331  1.00  0.00     0.064 A 
ATOM     85  C   UNL     1      -1.192  -3.581  10.481  1.00  0.00     0.173 A 
ATOM     86  C   UNL     1      -0.296  -1.804   9.150  1.00  0.00     0.173 A 
ATOM     87  F   UNL     1      -1.399  -4.882  10.732  1.00  0.00    -0.203 F 
ATOM     88  C   UNL     1      -1.615  -2.649  11.430  1.00  0.00     0.198 A 
ATOM     89  C   UNL     1      -0.725  -0.874  10.095  1.00  0.00     0.198 A 
ATOM     90  F   UNL     1       0.406  -1.341   8.105  1.00  0.00    -0.203 F 
ATOM     91  F   UNL     1      -2.206  -3.067  12.558  1.00  0.00    -0.200 F 
ATOM     92  C   UNL     1      -1.365  -1.298  11.245  1.00  0.00     0.200 A 
ATOM     93  F   UNL     1      -0.452   0.426   9.919  1.00  0.00    -0.200 F 
ATOM     94  F   UNL     1      -1.700  -0.413  12.193  1.00  0.00    -0.200 F 
ENDBRANCH  60  84
BRANCH  72  95
ATOM     95  C   UNL     1       1.181  -8.926   7.115  1.00  0.00     0.064 A 
ATOM     96  C   UNL     1       0.481  -8.273   6.088  1.00  0.00     0.173 A 
ATOM     97  C   UNL     1       0.964 -10.301   7.274  1.00  0.00     0.173 A 
ATOM     98  F   UNL     1       0.690  -6.977   5.828  1.00  0.00    -0.203 F 
ATOM     99  C   UNL     1      -0.430  -8.962   5.288  1.00  0.00     0.198 A 
ATOM    100  C   UNL     1       0.080 -10.993   6.453  1.00  0.00     0.198 A 
ATOM    101  F   UNL     1       1.635 -10.982   8.217  1.00  0.00    -0.203 F 
ATOM    102  F   UNL     1      -1.107  -8.314   4.328  1.00  0.00    -0.200 F 
ATOM    103  C   UNL     1      -0.626 -10.322   5.468  1.00  0.00     0.200 A 
ATOM    104  F   UNL     1      -0.079 -12.315   6.610  1.00  0.00    -0.200 F 
ATOM    105  F   UNL     1      -1.483 -10.990   4.684  1.00  0.00    -0.200 F 
ENDBRANCH  72  95
ENDBRANCH  46  47
ENDBRANCH  38  41
ENDBRANCH  36  37
ENDBRANCH  35  36
ENDBRANCH  34  35
ENDBRANCH   1  34
TORSDOF 17
