REMARK SMILES CC(=O)N1CCC[C@@H](Cc2nccnc2C(=O)NCCCCNC(=O)c2ccc(-c3c4nc(c(-c5c(F)c(F)c(F)c(F)c5F)c5ccc([nH]5)c(-c5c(F)c(F)c(F)c(F)c5F)c5nc(c(-c6c(F)c(F)c(F)c(F)c6F)c6ccc3[nH]6)C=C5)C=C4)cc2)C1
REMARK SMILES IDX 20 1 19 2 18 3 16 4 17 5 15 7 10 8 11 9 12 10 14 11 13 12
REMARK SMILES IDX 9 13 8 14 4 15 5 16 89 17 6 18 7 19 2 20 1 21 3 22 21 23
REMARK SMILES IDX 22 24 23 25 24 26 25 28 26 29 27 30 88 31 28 32 87 33 29 34
REMARK SMILES IDX 30 35 31 36 81 37 32 38 86 39 80 40 82 41 33 42 85 43 79 44
REMARK SMILES IDX 78 45 34 47 66 48 46 49 65 50 47 51 50 52 64 53 83 54 48 55
REMARK SMILES IDX 49 56 63 58 84 59 51 60 35 61 36 62 44 63 37 64 38 65 42 66
REMARK SMILES IDX 45 67 39 68 40 69 43 70 41 71 67 72 68 73 76 74 69 75 70 76
REMARK SMILES IDX 74 77 77 78 71 79 72 80 75 81 73 82 52 83 53 84 61 85 54 86
REMARK SMILES IDX 55 87 59 88 62 89 56 90 57 91 60 92 58 93
REMARK H PARENT 18 6 23 27 82 46 50 57
REMARK Flexibility Score: inf
ROOT
ATOM      1  C   UNL     1       4.457  -6.166   0.629  1.00  0.00     0.023 C 
ENDROOT
BRANCH   1   2
ATOM      2  C   UNL     1       5.566  -6.219  -0.438  1.00  0.00     0.116 C 
BRANCH   2   3
ATOM      3  N   UNL     1       5.119  -7.033  -1.552  1.00  0.00    -0.351 N 
ATOM      4  C   UNL     1       4.504  -6.825  -2.764  1.00  0.00     0.271 C 
ATOM      5  O   UNL     1       4.194  -7.879  -3.339  1.00  0.00    -0.267 OA
ATOM      6  H   UNL     1       5.305  -7.988  -1.400  1.00  0.00     0.163 HD
BRANCH   4   7
ATOM      7  C   UNL     1       4.221  -5.529  -3.497  1.00  0.00     0.149 A 
ATOM      8  C   UNL     1       3.674  -4.322  -3.030  1.00  0.00     0.072 A 
ATOM      9  N   UNL     1       3.316  -3.313  -3.886  1.00  0.00    -0.257 NA
ATOM     10  C   UNL     1       3.485  -3.537  -5.204  1.00  0.00     0.131 A 
ATOM     11  N   UNL     1       4.407  -5.701  -4.846  1.00  0.00    -0.248 NA
ATOM     12  C   UNL     1       4.027  -4.708  -5.674  1.00  0.00     0.132 A 
BRANCH   8  13
ATOM     13  C   UNL     1       3.482  -3.938  -1.606  1.00  0.00     0.064 C 
BRANCH  13  14
ATOM     14  C   UNL     1       2.082  -3.698  -1.043  1.00  0.00     0.015 C 
ATOM     15  N   UNL     1       0.200  -2.189  -0.744  1.00  0.00    -0.343 N 
ATOM     16  C   UNL     1      -0.791  -3.252  -0.907  1.00  0.00     0.119 C 
ATOM     17  C   UNL     1       1.444  -2.384  -1.498  1.00  0.00     0.123 C 
ATOM     18  C   UNL     1      -0.201  -4.612  -0.533  1.00  0.00     0.022 C 
ATOM     19  C   UNL     1       1.115  -4.870  -1.272  1.00  0.00     0.007 C 
BRANCH  15  20
ATOM     20  C   UNL     1      -0.045  -1.159   0.151  1.00  0.00     0.219 C 
ATOM     21  C   UNL     1       0.997  -0.075   0.263  1.00  0.00     0.114 C 
ATOM     22  O   UNL     1      -1.062  -1.105   0.844  1.00  0.00    -0.275 OA
ENDBRANCH  15  20
ENDBRANCH  13  14
ENDBRANCH   8  13
ENDBRANCH   4   7
ENDBRANCH   2   3
ENDBRANCH   1   2
BRANCH   1  23
ATOM     23  C   UNL     1       4.601  -7.130   1.795  1.00  0.00     0.023 C 
BRANCH  23  24
ATOM     24  C   UNL     1       5.704  -6.754   2.766  1.00  0.00     0.116 C 
BRANCH  24  25
ATOM     25  N   UNL     1       5.547  -5.433   3.367  1.00  0.00    -0.352 N 
ATOM     26  C   UNL     1       5.931  -5.017   4.620  1.00  0.00     0.251 C 
ATOM     27  H   UNL     1       5.110  -4.754   2.804  1.00  0.00     0.163 HD
ATOM     28  O   UNL     1       5.691  -3.879   5.008  1.00  0.00    -0.269 OA
BRANCH  26  29
ATOM     29  C   UNL     1       6.584  -5.991   5.514  1.00  0.00     0.039 A 
ATOM     30  C   UNL     1       6.060  -6.190   6.792  1.00  0.00     0.014 A 
ATOM     31  C   UNL     1       7.627  -6.787   5.037  1.00  0.00     0.014 A 
ATOM     32  C   UNL     1       6.520  -7.259   7.559  1.00  0.00     0.010 A 
ATOM     33  C   UNL     1       8.008  -7.908   5.757  1.00  0.00     0.010 A 
ATOM     34  C   UNL     1       7.459  -8.156   7.024  1.00  0.00    -0.014 A 
BRANCH  34  35
ATOM     35  C   UNL     1       7.887  -9.366   7.763  1.00  0.00     0.031 A 
ATOM     36  C   UNL     1       9.332  -9.537   8.131  1.00  0.00     0.074 A 
ATOM     37  C   UNL     1       7.003 -10.354   7.997  1.00  0.00     0.049 A 
ATOM     38  N   UNL     1       9.934 -10.567   8.668  1.00  0.00    -0.248 NA
ATOM     39  C   UNL     1      10.232  -8.421   7.801  1.00  0.00     0.031 C 
ATOM     40  C   UNL     1       5.594 -10.345   7.600  1.00  0.00     0.029 A 
ATOM     41  N   UNL     1       7.168 -11.571   8.608  1.00  0.00    -0.354 N 
ATOM     42  C   UNL     1      11.283 -10.240   8.694  1.00  0.00     0.074 A 
ATOM     43  C   UNL     1      11.418  -8.940   8.075  1.00  0.00     0.031 C 
ATOM     44  C   UNL     1       5.017 -11.491   7.997  1.00  0.00     0.029 A 
ATOM     45  C   UNL     1       6.020 -12.324   8.653  1.00  0.00     0.049 A 
ATOM     46  H   UNL     1       8.027 -11.876   8.979  1.00  0.00     0.167 HD
ATOM     47  C   UNL     1      12.312 -10.949   9.213  1.00  0.00     0.037 A 
ATOM     48  C   UNL     1       5.805 -13.548   9.170  1.00  0.00     0.037 A 
ATOM     49  C   UNL     1      12.159 -12.206   9.893  1.00  0.00     0.049 A 
ATOM     50  C   UNL     1       6.941 -14.271   9.834  1.00  0.00     0.074 A 
ATOM     51  C   UNL     1      13.114 -12.948  10.563  1.00  0.00     0.029 A 
ATOM     52  N   UNL     1      10.963 -12.900   9.997  1.00  0.00    -0.354 N 
ATOM     53  N   UNL     1       8.198 -13.913   9.940  1.00  0.00    -0.248 NA
ATOM     54  C   UNL     1       6.629 -15.562  10.463  1.00  0.00     0.031 C 
ATOM     55  C   UNL     1      12.500 -14.107  11.051  1.00  0.00     0.029 A 
ATOM     56  C   UNL     1      11.157 -14.071  10.711  1.00  0.00     0.049 A 
ATOM     57  H   UNL     1      10.103 -12.605   9.619  1.00  0.00     0.167 HD
ATOM     58  C   UNL     1       8.824 -14.922  10.656  1.00  0.00     0.074 A 
ATOM     59  C   UNL     1       7.804 -15.902  10.975  1.00  0.00     0.031 C 
ATOM     60  C   UNL     1      10.126 -15.030  11.016  1.00  0.00     0.037 A 
BRANCH  47  61
ATOM     61  C   UNL     1      13.686 -10.366   9.071  1.00  0.00     0.064 A 
ATOM     62  C   UNL     1      14.078  -9.219   9.778  1.00  0.00     0.173 A 
ATOM     63  C   UNL     1      14.620 -10.954   8.205  1.00  0.00     0.173 A 
ATOM     64  F   UNL     1      13.215  -8.609  10.605  1.00  0.00    -0.203 F 
ATOM     65  C   UNL     1      15.338  -8.658   9.592  1.00  0.00     0.198 A 
ATOM     66  C   UNL     1      15.891 -10.408   8.045  1.00  0.00     0.198 A 
ATOM     67  F   UNL     1      14.297 -12.053   7.506  1.00  0.00    -0.203 F 
ATOM     68  F   UNL     1      15.665  -7.525  10.228  1.00  0.00    -0.200 F 
ATOM     69  C   UNL     1      16.245  -9.255   8.729  1.00  0.00     0.200 A 
ATOM     70  F   UNL     1      16.768 -10.989   7.215  1.00  0.00    -0.200 F 
ATOM     71  F   UNL     1      17.455  -8.710   8.546  1.00  0.00    -0.200 F 
ENDBRANCH  47  61
BRANCH  48  72
ATOM     72  C   UNL     1       4.442 -14.134   9.120  1.00  0.00     0.064 A 
ATOM     73  C   UNL     1       3.640 -14.175  10.269  1.00  0.00     0.173 A 
ATOM     74  C   UNL     1       3.903 -14.628   7.925  1.00  0.00     0.173 A 
ATOM     75  F   UNL     1       4.122 -13.728  11.437  1.00  0.00    -0.203 F 
ATOM     76  C   UNL     1       2.350 -14.700  10.226  1.00  0.00     0.198 A 
ATOM     77  C   UNL     1       2.605 -15.134   7.879  1.00  0.00     0.198 A 
ATOM     78  F   UNL     1       4.629 -14.601   6.798  1.00  0.00    -0.203 F 
ATOM     79  F   UNL     1       1.613 -14.751  11.344  1.00  0.00    -0.200 F 
ATOM     80  C   UNL     1       1.831 -15.173   9.030  1.00  0.00     0.200 A 
ATOM     81  F   UNL     1       2.102 -15.579   6.720  1.00  0.00    -0.200 F 
ATOM     82  F   UNL     1       0.587 -15.668   8.987  1.00  0.00    -0.200 F 
ENDBRANCH  48  72
BRANCH  60  83
ATOM     83  C   UNL     1      10.520 -16.241  11.804  1.00  0.00     0.064 A 
ATOM     84  C   UNL     1      10.654 -17.496  11.193  1.00  0.00     0.173 A 
ATOM     85  C   UNL     1      10.813 -16.135  13.171  1.00  0.00     0.173 A 
ATOM     86  F   UNL     1      10.368 -17.647   9.891  1.00  0.00    -0.203 F 
ATOM     87  C   UNL     1      11.054 -18.607  11.929  1.00  0.00     0.198 A 
ATOM     88  C   UNL     1      11.235 -17.244  13.898  1.00  0.00     0.198 A 
ATOM     89  F   UNL     1      10.704 -14.954  13.797  1.00  0.00    -0.203 F 
ATOM     90  F   UNL     1      11.145 -19.805  11.334  1.00  0.00    -0.200 F 
ATOM     91  C   UNL     1      11.351 -18.479  13.278  1.00  0.00     0.200 A 
ATOM     92  F   UNL     1      11.531 -17.118  15.199  1.00  0.00    -0.200 F 
ATOM     93  F   UNL     1      11.745 -19.549  13.983  1.00  0.00    -0.200 F 
ENDBRANCH  60  83
ENDBRANCH  34  35
ENDBRANCH  26  29
ENDBRANCH  24  25
ENDBRANCH  23  24
ENDBRANCH   1  23
TORSDOF 14
