REMARK SMILES CC(C)CCNC(=O)[C@@H](C)Oc1ccc(N)cc1C(=O)NCCCCNC(=O)c1ccc(-c2c3nc(c(-c4c(F)c(F)c(F)c(F)c4F)c4ccc([nH]4)c(-c4c(F)c(F)c(F)c(F)c4F)c4nc(c(-c5c(F)c(F)c(F)c(F)c5F)c5ccc2[nH]5)C=C4)C=C3)cc1
REMARK SMILES IDX 19 1 20 2 21 3 18 5 12 6 13 7 14 8 17 9 15 10 11 11 9 12
REMARK SMILES IDX 10 13 7 14 6 15 8 17 5 18 4 19 2 20 1 21 3 22 16 23 22 26
REMARK SMILES IDX 23 27 24 28 25 29 26 30 27 31 28 33 29 34 30 35 91 36 31 37
REMARK SMILES IDX 90 38 32 39 33 40 34 41 84 42 35 43 89 44 83 45 85 46 36 47
REMARK SMILES IDX 88 48 82 49 81 50 37 52 69 53 49 54 68 55 50 56 53 57 67 58
REMARK SMILES IDX 86 59 51 60 52 61 66 63 87 64 54 65 38 66 39 67 47 68 40 69
REMARK SMILES IDX 41 70 45 71 48 72 42 73 43 74 46 75 44 76 70 77 71 78 79 79
REMARK SMILES IDX 72 80 73 81 77 82 80 83 74 84 75 85 78 86 76 87 55 88 56 89
REMARK SMILES IDX 64 90 57 91 58 92 62 93 65 94 59 95 60 96 63 97 61 98
REMARK H PARENT 21 4 6 16 16 24 16 25 26 32 85 51 53 62
REMARK Flexibility Score: inf
ROOT
ATOM      1  C   UNL     1      -5.597  -1.659  -0.097  1.00  0.00     0.255 C 
ATOM      2  O   UNL     1      -6.126  -0.885  -0.904  1.00  0.00    -0.269 OA
ATOM      3  N   UNL     1      -6.479  -2.292   0.733  1.00  0.00    -0.352 N 
ATOM      4  H   UNL     1      -7.408  -2.235   0.412  1.00  0.00     0.163 HD
ENDROOT
BRANCH   1   5
ATOM      5  C   UNL     1      -4.119  -1.882  -0.196  1.00  0.00     0.083 A 
ATOM      6  C   UNL     1      -3.213  -2.364   0.755  1.00  0.00     0.133 A 
ATOM      7  C   UNL     1      -1.930  -2.755   0.346  1.00  0.00     0.049 A 
ATOM      8  C   UNL     1      -1.457  -2.439  -0.932  1.00  0.00     0.029 A 
ATOM      9  C   UNL     1      -3.595  -1.538  -1.467  1.00  0.00     0.043 A 
ATOM     10  C   UNL     1      -2.258  -1.730  -1.815  1.00  0.00     0.032 A 
BRANCH   6  11
ATOM     11  O   UNL     1      -3.520  -2.542   2.067  1.00  0.00    -0.480 OA
BRANCH  11  12
ATOM     12  C   UNL     1      -3.018  -1.593   3.014  1.00  0.00     0.258 C 
ATOM     13  C   UNL     1      -3.690  -0.216   2.929  1.00  0.00     0.064 C 
BRANCH  12  14
ATOM     14  C   UNL     1      -1.518  -1.521   3.418  1.00  0.00     0.260 C 
ATOM     15  N   UNL     1      -0.620  -0.726   2.768  1.00  0.00    -0.353 N 
ATOM     16  H   UNL     1       0.220  -0.551   3.251  1.00  0.00     0.163 HD
ATOM     17  O   UNL     1      -1.097  -2.173   4.380  1.00  0.00    -0.271 OA
BRANCH  15  18
ATOM     18  C   UNL     1      -0.735  -0.104   1.468  1.00  0.00     0.116 C 
BRANCH  18  19
ATOM     19  C   UNL     1      -0.200   1.318   1.414  1.00  0.00     0.024 C 
BRANCH  19  20
ATOM     20  C   UNL     1       1.329   1.426   1.271  1.00  0.00    -0.016 C 
ATOM     21  C   UNL     1       1.869   0.650   0.064  1.00  0.00     0.007 C 
ATOM     22  C   UNL     1       1.710   2.902   1.136  1.00  0.00     0.007 C 
ENDBRANCH  19  20
ENDBRANCH  18  19
ENDBRANCH  15  18
ENDBRANCH  12  14
ENDBRANCH  11  12
ENDBRANCH   6  11
BRANCH  10  23
ATOM     23  N   UNL     1      -1.794  -1.349  -3.061  1.00  0.00    -0.399 N 
ATOM     24  H   UNL     1      -0.849  -1.488  -3.298  1.00  0.00     0.156 HD
ATOM     25  H   UNL     1      -2.410  -0.939  -3.711  1.00  0.00     0.156 HD
ENDBRANCH  10  23
ENDBRANCH   1   5
BRANCH   3  26
ATOM     26  C   UNL     1      -6.364  -3.026   1.973  1.00  0.00     0.116 C 
BRANCH  26  27
ATOM     27  C   UNL     1      -6.513  -2.045   3.142  1.00  0.00     0.023 C 
BRANCH  27  28
ATOM     28  C   UNL     1      -7.859  -2.107   3.851  1.00  0.00     0.023 C 
BRANCH  28  29
ATOM     29  C   UNL     1      -8.115  -3.418   4.570  1.00  0.00     0.116 C 
BRANCH  29  30
ATOM     30  N   UNL     1      -7.126  -3.744   5.590  1.00  0.00    -0.352 N 
ATOM     31  C   UNL     1      -7.332  -4.454   6.751  1.00  0.00     0.251 C 
ATOM     32  H   UNL     1      -6.209  -3.421   5.431  1.00  0.00     0.163 HD
ATOM     33  O   UNL     1      -6.438  -4.625   7.571  1.00  0.00    -0.269 OA
BRANCH  31  34
ATOM     34  C   UNL     1      -8.694  -4.953   7.008  1.00  0.00     0.039 A 
ATOM     35  C   UNL     1      -9.366  -4.517   8.150  1.00  0.00     0.014 A 
ATOM     36  C   UNL     1      -9.350  -5.698   6.025  1.00  0.00     0.014 A 
ATOM     37  C   UNL     1     -10.736  -4.751   8.262  1.00  0.00     0.010 A 
ATOM     38  C   UNL     1     -10.728  -5.839   6.092  1.00  0.00     0.010 A 
ATOM     39  C   UNL     1     -11.435  -5.364   7.208  1.00  0.00    -0.014 A 
BRANCH  39  40
ATOM     40  C   UNL     1     -12.909  -5.524   7.247  1.00  0.00     0.031 A 
ATOM     41  C   UNL     1     -13.505  -6.902   7.197  1.00  0.00     0.074 A 
ATOM     42  C   UNL     1     -13.705  -4.437   7.232  1.00  0.00     0.049 A 
ATOM     43  N   UNL     1     -14.761  -7.259   7.113  1.00  0.00    -0.248 NA
ATOM     44  C   UNL     1     -12.559  -8.030   7.194  1.00  0.00     0.031 C 
ATOM     45  C   UNL     1     -13.246  -3.047   7.201  1.00  0.00     0.029 A 
ATOM     46  N   UNL     1     -15.074  -4.333   7.230  1.00  0.00    -0.354 N 
ATOM     47  C   UNL     1     -14.750  -8.643   7.010  1.00  0.00     0.074 A 
ATOM     48  C   UNL     1     -13.366  -9.059   6.985  1.00  0.00     0.031 C 
ATOM     49  C   UNL     1     -14.312  -2.230   7.215  1.00  0.00     0.029 A 
ATOM     50  C   UNL     1     -15.529  -3.037   7.224  1.00  0.00     0.049 A 
ATOM     51  H   UNL     1     -15.673  -5.114   7.233  1.00  0.00     0.167 HD
ATOM     52  C   UNL     1     -15.801  -9.493   6.972  1.00  0.00     0.037 A 
ATOM     53  C   UNL     1     -16.787  -2.557   7.228  1.00  0.00     0.037 A 
ATOM     54  C   UNL     1     -17.174  -9.080   7.064  1.00  0.00     0.049 A 
ATOM     55  C   UNL     1     -17.938  -3.526   7.249  1.00  0.00     0.074 A 
ATOM     56  C   UNL     1     -18.310  -9.866   7.128  1.00  0.00     0.029 A 
ATOM     57  N   UNL     1     -17.595  -7.759   7.116  1.00  0.00    -0.354 N 
ATOM     58  N   UNL     1     -17.916  -4.836   7.229  1.00  0.00    -0.248 NA
ATOM     59  C   UNL     1     -19.289  -2.949   7.301  1.00  0.00     0.031 C 
ATOM     60  C   UNL     1     -19.422  -9.020   7.190  1.00  0.00     0.029 A 
ATOM     61  C   UNL     1     -18.976  -7.707   7.202  1.00  0.00     0.049 A 
ATOM     62  H   UNL     1     -17.000  -6.975   7.095  1.00  0.00     0.167 HD
ATOM     63  C   UNL     1     -19.242  -5.241   7.291  1.00  0.00     0.074 A 
ATOM     64  C   UNL     1     -20.044  -4.037   7.364  1.00  0.00     0.031 C 
ATOM     65  C   UNL     1     -19.751  -6.497   7.286  1.00  0.00     0.037 A 
BRANCH  52  66
ATOM     66  C   UNL     1     -15.501 -10.957   6.843  1.00  0.00     0.064 A 
ATOM     67  C   UNL     1     -14.921 -11.683   7.895  1.00  0.00     0.173 A 
ATOM     68  C   UNL     1     -15.810 -11.645   5.661  1.00  0.00     0.173 A 
ATOM     69  F   UNL     1     -14.591 -11.066   9.040  1.00  0.00    -0.203 F 
ATOM     70  C   UNL     1     -14.632 -13.038   7.756  1.00  0.00     0.198 A 
ATOM     71  C   UNL     1     -15.548 -13.007   5.537  1.00  0.00     0.198 A 
ATOM     72  F   UNL     1     -16.367 -10.998   4.627  1.00  0.00    -0.203 F 
ATOM     73  F   UNL     1     -14.027 -13.697   8.753  1.00  0.00    -0.200 F 
ATOM     74  C   UNL     1     -14.951 -13.700   6.580  1.00  0.00     0.200 A 
ATOM     75  F   UNL     1     -15.866 -13.649   4.404  1.00  0.00    -0.200 F 
ATOM     76  F   UNL     1     -14.676 -15.005   6.449  1.00  0.00    -0.200 F 
ENDBRANCH  52  66
BRANCH  53  77
ATOM     77  C   UNL     1     -17.024  -1.091   7.258  1.00  0.00     0.064 A 
ATOM     78  C   UNL     1     -17.506  -0.468   8.417  1.00  0.00     0.173 A 
ATOM     79  C   UNL     1     -16.776  -0.285   6.138  1.00  0.00     0.173 A 
ATOM     80  F   UNL     1     -17.776  -1.201   9.507  1.00  0.00    -0.203 F 
ATOM     81  C   UNL     1     -17.749   0.904   8.451  1.00  0.00     0.198 A 
ATOM     82  C   UNL     1     -16.997   1.091   6.180  1.00  0.00     0.198 A 
ATOM     83  F   UNL     1     -16.309  -0.832   5.006  1.00  0.00    -0.203 F 
ATOM     84  F   UNL     1     -18.247   1.467   9.559  1.00  0.00    -0.200 F 
ATOM     85  C   UNL     1     -17.489   1.683   7.333  1.00  0.00     0.200 A 
ATOM     86  F   UNL     1     -16.734   1.843   5.102  1.00  0.00    -0.200 F 
ATOM     87  F   UNL     1     -17.720   3.002   7.366  1.00  0.00    -0.200 F 
ENDBRANCH  53  77
BRANCH  65  88
ATOM     88  C   UNL     1     -21.240  -6.636   7.393  1.00  0.00     0.064 A 
ATOM     89  C   UNL     1     -22.082  -6.344   6.311  1.00  0.00     0.173 A 
ATOM     90  C   UNL     1     -21.823  -7.118   8.574  1.00  0.00     0.173 A 
ATOM     91  F   UNL     1     -21.570  -5.867   5.167  1.00  0.00    -0.203 F 
ATOM     92  C   UNL     1     -23.460  -6.513   6.415  1.00  0.00     0.198 A 
ATOM     93  C   UNL     1     -23.198  -7.310   8.665  1.00  0.00     0.198 A 
ATOM     94  F   UNL     1     -21.057  -7.417   9.634  1.00  0.00    -0.203 F 
ATOM     95  F   UNL     1     -24.251  -6.194   5.381  1.00  0.00    -0.200 F 
ATOM     96  C   UNL     1     -24.015  -7.003   7.588  1.00  0.00     0.200 A 
ATOM     97  F   UNL     1     -23.733  -7.795   9.794  1.00  0.00    -0.200 F 
ATOM     98  F   UNL     1     -25.341  -7.175   7.681  1.00  0.00    -0.200 F 
ENDBRANCH  65  88
ENDBRANCH  39  40
ENDBRANCH  31  34
ENDBRANCH  29  30
ENDBRANCH  28  29
ENDBRANCH  27  28
ENDBRANCH  26  27
ENDBRANCH   3  26
TORSDOF 18
