REMARK SMILES CS(=O)(=O)c1ccc(/C=C(/C(=O)NCCCCNC(=O)c2ccc(-c3c4nc(c(-c5c(F)c(F)c(F)c(F)c5F)c5ccc([nH]5)c(-c5c(F)c(F)c(F)c(F)c5F)c5nc(c(-c6c(F)c(F)c(F)c(F)c6F)c6ccc3[nH]6)C=C5)C=C4)cc2)c2ccc(-c3ccc(S(C)(=O)=O)cc3)cc2)cc1
REMARK SMILES IDX 15 1 14 2 13 3 11 4 12 5 10 7 9 8 8 9 5 10 6 11 101 12 7 13
REMARK SMILES IDX 100 14 2 15 1 16 3 17 4 18 84 19 85 20 99 21 86 22 98 23
REMARK SMILES IDX 87 24 88 25 89 26 97 27 90 28 96 29 91 30 92 31 93 32 94 33
REMARK SMILES IDX 95 34 16 35 17 36 18 37 19 38 20 40 21 41 22 42 83 43 23 44
REMARK SMILES IDX 82 45 24 46 25 47 26 48 76 49 27 50 81 51 75 52 77 53 28 54
REMARK SMILES IDX 80 55 74 56 73 57 29 59 61 60 41 61 60 62 42 63 45 64 59 65
REMARK SMILES IDX 78 66 43 67 44 68 58 70 79 71 46 72 30 73 31 74 39 75 32 76
REMARK SMILES IDX 33 77 37 78 40 79 34 80 35 81 38 82 36 83 62 84 63 85 71 86
REMARK SMILES IDX 64 87 65 88 69 89 72 90 66 91 67 92 70 93 68 94 47 95 48 96
REMARK SMILES IDX 56 97 49 98 50 99 54 100 57 101 51 102 52 103 55 104 53 105
REMARK H PARENT 13 6 18 39 77 58 45 69
REMARK Flexibility Score: inf
ROOT
ATOM      1  C   UNL     1       1.942   4.782   8.755  1.00  0.00     0.023 C 
ENDROOT
BRANCH   1   2
ATOM      2  C   UNL     1       3.174   3.964   8.357  1.00  0.00     0.116 C 
BRANCH   2   3
ATOM      3  N   UNL     1       3.146   2.666   8.999  1.00  0.00    -0.352 N 
ATOM      4  C   UNL     1       2.754   1.430   8.588  1.00  0.00     0.251 C 
ATOM      5  O   UNL     1       2.825   0.532   9.431  1.00  0.00    -0.269 OA
ATOM      6  H   UNL     1       3.480   2.681   9.925  1.00  0.00     0.163 HD
BRANCH   4   7
ATOM      7  C   UNL     1       2.329   1.118   7.171  1.00  0.00     0.047 C 
ATOM      8  C   UNL     1       1.642   1.999   6.409  1.00  0.00     0.022 C 
BRANCH   8   9
ATOM      9  C   UNL     1       1.234   1.896   4.991  1.00  0.00    -0.025 A 
ATOM     10  C   UNL     1       0.627   1.806   2.253  1.00  0.00     0.067 A 
ATOM     11  C   UNL     1       0.275   0.736   3.078  1.00  0.00     0.021 A 
ATOM     12  C   UNL     1       1.232   2.943   2.789  1.00  0.00     0.021 A 
ATOM     13  C   UNL     1       0.565   0.793   4.446  1.00  0.00     0.009 A 
ATOM     14  C   UNL     1       1.531   2.984   4.153  1.00  0.00     0.009 A 
BRANCH  10  15
ATOM     15  S   UNL     1       0.297   1.724   0.509  1.00  0.00     0.175 S 
ATOM     16  C   UNL     1       1.111   0.244  -0.033  1.00  0.00     0.163 C 
ATOM     17  O   UNL     1       0.974   2.841  -0.116  1.00  0.00    -0.224 OA
ATOM     18  O   UNL     1      -1.137   1.540   0.365  1.00  0.00    -0.224 OA
ENDBRANCH  10  15
ENDBRANCH   8   9
BRANCH   7  19
ATOM     19  C   UNL     1       2.514  -0.277   6.701  1.00  0.00    -0.013 A 
ATOM     20  C   UNL     1       1.736  -1.284   7.289  1.00  0.00     0.009 A 
ATOM     21  C   UNL     1       3.331  -0.602   5.615  1.00  0.00     0.009 A 
ATOM     22  C   UNL     1       1.711  -2.570   6.752  1.00  0.00     0.009 A 
ATOM     23  C   UNL     1       3.292  -1.893   5.069  1.00  0.00     0.009 A 
ATOM     24  C   UNL     1       2.451  -2.885   5.603  1.00  0.00    -0.018 A 
BRANCH  24  25
ATOM     25  C   UNL     1       2.280  -4.191   4.940  1.00  0.00    -0.018 A 
ATOM     26  C   UNL     1       0.987  -4.691   4.688  1.00  0.00     0.010 A 
ATOM     27  C   UNL     1       3.379  -4.951   4.507  1.00  0.00     0.010 A 
ATOM     28  C   UNL     1       0.792  -5.902   4.023  1.00  0.00     0.021 A 
ATOM     29  C   UNL     1       3.195  -6.168   3.841  1.00  0.00     0.021 A 
ATOM     30  C   UNL     1       1.902  -6.637   3.608  1.00  0.00     0.067 A 
BRANCH  30  31
ATOM     31  S   UNL     1       1.646  -8.158   2.727  1.00  0.00     0.175 S 
ATOM     32  C   UNL     1       1.007  -9.257   3.964  1.00  0.00     0.163 C 
ATOM     33  O   UNL     1       0.597  -7.909   1.753  1.00  0.00    -0.224 OA
ATOM     34  O   UNL     1       2.942  -8.655   2.316  1.00  0.00    -0.224 OA
ENDBRANCH  30  31
ENDBRANCH  24  25
ENDBRANCH   7  19
ENDBRANCH   4   7
ENDBRANCH   2   3
ENDBRANCH   1   2
BRANCH   1  35
ATOM     35  C   UNL     1       1.954   5.282  10.205  1.00  0.00     0.023 C 
BRANCH  35  36
ATOM     36  C   UNL     1       3.104   6.221  10.556  1.00  0.00     0.116 C 
BRANCH  36  37
ATOM     37  N   UNL     1       3.155   7.401   9.709  1.00  0.00    -0.352 N 
ATOM     38  C   UNL     1       3.569   8.671  10.024  1.00  0.00     0.251 C 
ATOM     39  H   UNL     1       2.851   7.272   8.781  1.00  0.00     0.163 HD
ATOM     40  O   UNL     1       3.446   9.580   9.210  1.00  0.00    -0.269 OA
BRANCH  38  41
ATOM     41  C   UNL     1       4.128   8.949  11.363  1.00  0.00     0.039 A 
ATOM     42  C   UNL     1       3.652  10.058  12.067  1.00  0.00     0.014 A 
ATOM     43  C   UNL     1       5.106   8.123  11.923  1.00  0.00     0.014 A 
ATOM     44  C   UNL     1       4.114  10.306  13.361  1.00  0.00     0.010 A 
ATOM     45  C   UNL     1       5.521   8.336  13.235  1.00  0.00     0.010 A 
ATOM     46  C   UNL     1       5.028   9.428  13.965  1.00  0.00    -0.014 A 
BRANCH  46  47
ATOM     47  C   UNL     1       5.477   9.636  15.363  1.00  0.00     0.031 A 
ATOM     48  C   UNL     1       6.909   9.982  15.653  1.00  0.00     0.074 A 
ATOM     49  C   UNL     1       4.607   9.446  16.373  1.00  0.00     0.049 A 
ATOM     50  N   UNL     1       7.505  10.137  16.808  1.00  0.00    -0.248 NA
ATOM     51  C   UNL     1       7.795  10.149  14.491  1.00  0.00     0.031 C 
ATOM     52  C   UNL     1       3.204   9.057  16.219  1.00  0.00     0.029 A 
ATOM     53  N   UNL     1       4.778   9.543  17.731  1.00  0.00    -0.354 N 
ATOM     54  C   UNL     1       8.835  10.402  16.512  1.00  0.00     0.074 A 
ATOM     55  C   UNL     1       8.970  10.343  15.073  1.00  0.00     0.031 C 
ATOM     56  C   UNL     1       2.638   8.966  17.433  1.00  0.00     0.029 A 
ATOM     57  C   UNL     1       3.643   9.260  18.450  1.00  0.00     0.049 A 
ATOM     58  H   UNL     1       5.633   9.791  18.150  1.00  0.00     0.167 HD
ATOM     59  C   UNL     1       9.848  10.690  17.365  1.00  0.00     0.037 A 
ATOM     60  C   UNL     1       3.439   9.239  19.780  1.00  0.00     0.037 A 
ATOM     61  C   UNL     1       9.704  10.779  18.794  1.00  0.00     0.049 A 
ATOM     62  C   UNL     1       4.575   9.584  20.703  1.00  0.00     0.074 A 
ATOM     63  C   UNL     1      10.654  11.126  19.738  1.00  0.00     0.029 A 
ATOM     64  N   UNL     1       8.529  10.521  19.485  1.00  0.00    -0.354 N 
ATOM     65  N   UNL     1       5.812   9.899  20.410  1.00  0.00    -0.248 NA
ATOM     66  C   UNL     1       4.282   9.580  22.143  1.00  0.00     0.031 C 
ATOM     67  C   UNL     1      10.063  11.044  21.004  1.00  0.00     0.029 A 
ATOM     68  C   UNL     1       8.734  10.688  20.845  1.00  0.00     0.049 A 
ATOM     69  H   UNL     1       7.675  10.259  19.070  1.00  0.00     0.167 HD
ATOM     70  C   UNL     1       6.438  10.156  21.621  1.00  0.00     0.074 A 
ATOM     71  C   UNL     1       5.440   9.974  22.654  1.00  0.00     0.031 C 
ATOM     72  C   UNL     1       7.725  10.511  21.857  1.00  0.00     0.037 A 
BRANCH  59  73
ATOM     73  C   UNL     1      11.203  10.937  16.770  1.00  0.00     0.064 A 
ATOM     74  C   UNL     1      11.482  12.101  16.039  1.00  0.00     0.173 A 
ATOM     75  C   UNL     1      12.243  10.015  16.961  1.00  0.00     0.173 A 
ATOM     76  F   UNL     1      10.518  13.007  15.818  1.00  0.00    -0.203 F 
ATOM     77  C   UNL     1      12.746  12.320  15.496  1.00  0.00     0.198 A 
ATOM     78  C   UNL     1      13.513  10.251  16.440  1.00  0.00     0.198 A 
ATOM     79  F   UNL     1      12.030   8.888  17.656  1.00  0.00    -0.203 F 
ATOM     80  F   UNL     1      12.976  13.417  14.761  1.00  0.00    -0.200 F 
ATOM     81  C   UNL     1      13.761  11.399  15.703  1.00  0.00     0.200 A 
ATOM     82  F   UNL     1      14.497   9.365  16.649  1.00  0.00    -0.200 F 
ATOM     83  F   UNL     1      14.978  11.614  15.184  1.00  0.00    -0.200 F 
ENDBRANCH  59  73
BRANCH  60  84
ATOM     84  C   UNL     1       2.094   8.912  20.318  1.00  0.00     0.064 A 
ATOM     85  C   UNL     1       1.296   9.903  20.906  1.00  0.00     0.173 A 
ATOM     86  C   UNL     1       1.579   7.609  20.256  1.00  0.00     0.173 A 
ATOM     87  F   UNL     1       1.755  11.160  21.004  1.00  0.00    -0.203 F 
ATOM     88  C   UNL     1       0.042   9.601  21.430  1.00  0.00     0.198 A 
ATOM     89  C   UNL     1       0.314   7.313  20.759  1.00  0.00     0.198 A 
ATOM     90  F   UNL     1       2.301   6.627  19.698  1.00  0.00    -0.203 F 
ATOM     91  F   UNL     1      -0.683  10.558  22.024  1.00  0.00    -0.200 F 
ATOM     92  C   UNL     1      -0.451   8.306  21.352  1.00  0.00     0.200 A 
ATOM     93  F   UNL     1      -0.164   6.064  20.670  1.00  0.00    -0.200 F 
ATOM     94  F   UNL     1      -1.659   8.016  21.853  1.00  0.00    -0.200 F 
ENDBRANCH  60  84
BRANCH  72  95
ATOM     95  C   UNL     1       8.116  10.758  23.284  1.00  0.00     0.064 A 
ATOM     96  C   UNL     1       8.276   9.705  24.195  1.00  0.00     0.173 A 
ATOM     97  C   UNL     1       8.368  12.063  23.734  1.00  0.00     0.173 A 
ATOM     98  F   UNL     1       8.032   8.441  23.815  1.00  0.00    -0.203 F 
ATOM     99  C   UNL     1       8.652   9.951  25.512  1.00  0.00     0.198 A 
ATOM    100  C   UNL     1       8.769  12.303  25.045  1.00  0.00     0.198 A 
ATOM    101  F   UNL     1       8.233  13.104  22.898  1.00  0.00    -0.203 F 
ATOM    102  F   UNL     1       8.756   8.933  26.378  1.00  0.00    -0.200 F 
ATOM    103  C   UNL     1       8.904  11.248  25.934  1.00  0.00     0.200 A 
ATOM    104  F   UNL     1       9.022  13.556  25.448  1.00  0.00    -0.200 F 
ATOM    105  F   UNL     1       9.270  11.482  27.202  1.00  0.00    -0.200 F 
ENDBRANCH  72  95
ENDBRANCH  46  47
ENDBRANCH  38  41
ENDBRANCH  36  37
ENDBRANCH  35  36
ENDBRANCH   1  35
TORSDOF 16
