REMARK SMILES CC[C@]1(C(=O)NCCCCNC(=O)c2ccc(-c3c4nc(c(-c5c(F)c(F)c(F)c(F)c5F)c5ccc([nH]5)c(-c5c(F)c(F)c(F)c(F)c5F)c5nc(c(-c6c(F)c(F)c(F)c(F)c6F)c6ccc3[nH]6)C=C5)C=C4)cc2)CCC[N@@H+]([C@@H]2CCC[C@H](S(C)(=O)=O)C2)C1
REMARK SMILES IDX 8 1 7 2 6 3 4 4 5 5 3 7 77 8 91 9 78 10 80 11 79 12 2 14
REMARK SMILES IDX 1 15 81 16 82 17 90 18 83 19 85 20 84 21 86 22 87 23 88 24
REMARK SMILES IDX 89 25 9 26 10 27 11 28 12 29 13 31 14 32 15 33 76 34 16 35
REMARK SMILES IDX 75 36 17 37 18 38 19 39 69 40 20 41 74 42 68 43 70 44 21 45
REMARK SMILES IDX 73 46 67 47 66 48 22 50 54 51 34 52 53 53 35 54 38 55 52 56
REMARK SMILES IDX 71 57 36 58 37 59 51 61 72 62 39 63 23 64 24 65 32 66 25 67
REMARK SMILES IDX 26 68 30 69 33 70 27 71 28 72 31 73 29 74 55 75 56 76 64 77
REMARK SMILES IDX 57 78 58 79 62 80 65 81 59 82 60 83 63 84 61 85 40 86 41 87
REMARK SMILES IDX 49 88 42 89 43 90 47 91 50 92 44 93 45 94 48 95 46 96
REMARK H PARENT 6 6 80 13 11 30 70 49 38 60
REMARK Flexibility Score: inf
ROOT
ATOM      1  C   UNL     1       3.557   3.995  -3.700  1.00  0.00     0.023 C 
ENDROOT
BRANCH   1   2
ATOM      2  C   UNL     1       2.101   3.909  -3.257  1.00  0.00     0.116 C 
BRANCH   2   3
ATOM      3  N   UNL     1       1.611   2.539  -3.232  1.00  0.00    -0.355 N 
ATOM      4  C   UNL     1       1.041   1.786  -2.244  1.00  0.00     0.231 C 
ATOM      5  O   UNL     1       0.602   0.690  -2.599  1.00  0.00    -0.274 OA
ATOM      6  H   UNL     1       1.708   2.064  -4.090  1.00  0.00     0.163 HD
BRANCH   4   7
ATOM      7  C   UNL     1       0.903   2.305  -0.793  1.00  0.00     0.098 C 
ATOM      8  C   UNL     1       2.288   2.700  -0.220  1.00  0.00     0.028 C 
ATOM      9  C   UNL     1      -0.091   3.510  -0.868  1.00  0.00     0.279 C 
ATOM     10  C   UNL     1       2.188   3.688   0.932  1.00  0.00     0.063 C 
ATOM     11  N   UNL     1      -0.049   4.482   0.239  1.00  0.00    -0.332 N 
ATOM     12  C   UNL     1       1.323   4.888   0.566  1.00  0.00     0.262 C 
ATOM     13  H   UNL     1      -0.391   4.017   1.080  1.00  0.00     0.348 HD
BRANCH   7  14
ATOM     14  C   UNL     1       0.258   1.226   0.142  1.00  0.00     0.019 C 
ATOM     15  C   UNL     1       0.950  -0.136   0.217  1.00  0.00     0.005 C 
ENDBRANCH   7  14
BRANCH  11  16
ATOM     16  C   UNL     1      -0.980   5.619  -0.001  1.00  0.00     0.185 C 
ATOM     17  C   UNL     1      -0.575   6.565  -1.154  1.00  0.00     0.065 C 
ATOM     18  C   UNL     1      -1.220   6.407   1.300  1.00  0.00     0.084 C 
ATOM     19  C   UNL     1      -1.567   7.711  -1.323  1.00  0.00     0.007 C 
ATOM     20  C   UNL     1      -2.152   7.616   1.129  1.00  0.00     0.114 C 
ATOM     21  C   UNL     1      -1.712   8.507  -0.034  1.00  0.00     0.020 C 
BRANCH  20  22
ATOM     22  S   UNL     1      -2.192   8.534   2.688  1.00  0.00     0.150 S 
ATOM     23  C   UNL     1      -3.293   9.895   2.396  1.00  0.00     0.158 C 
ATOM     24  O   UNL     1      -2.828   7.685   3.680  1.00  0.00    -0.229 OA
ATOM     25  O   UNL     1      -0.874   9.088   2.928  1.00  0.00    -0.229 OA
ENDBRANCH  20  22
ENDBRANCH  11  16
ENDBRANCH   4   7
ENDBRANCH   2   3
ENDBRANCH   1   2
BRANCH   1  26
ATOM     26  C   UNL     1       3.802   3.559  -5.141  1.00  0.00     0.023 C 
BRANCH  26  27
ATOM     27  C   UNL     1       2.933   4.260  -6.179  1.00  0.00     0.116 C 
BRANCH  27  28
ATOM     28  N   UNL     1       3.101   5.706  -6.173  1.00  0.00    -0.352 N 
ATOM     29  C   UNL     1       3.404   6.545  -7.218  1.00  0.00     0.251 C 
ATOM     30  H   UNL     1       2.980   6.144  -5.300  1.00  0.00     0.163 HD
ATOM     31  O   UNL     1       3.658   7.728  -7.014  1.00  0.00    -0.269 OA
BRANCH  29  32
ATOM     32  C   UNL     1       3.456   6.001  -8.589  1.00  0.00     0.039 A 
ATOM     33  C   UNL     1       4.568   6.278  -9.386  1.00  0.00     0.014 A 
ATOM     34  C   UNL     1       2.430   5.180  -9.065  1.00  0.00     0.014 A 
ATOM     35  C   UNL     1       4.691   5.662 -10.633  1.00  0.00     0.010 A 
ATOM     36  C   UNL     1       2.592   4.505 -10.269  1.00  0.00     0.010 A 
ATOM     37  C   UNL     1       3.728   4.734 -11.062  1.00  0.00    -0.014 A 
BRANCH  37  38
ATOM     38  C   UNL     1       3.892   3.977 -12.329  1.00  0.00     0.031 A 
ATOM     39  C   UNL     1       2.895   4.143 -13.440  1.00  0.00     0.074 A 
ATOM     40  C   UNL     1       4.894   3.084 -12.447  1.00  0.00     0.049 A 
ATOM     41  N   UNL     1       2.806   3.502 -14.578  1.00  0.00    -0.248 NA
ATOM     42  C   UNL     1       1.840   5.149 -13.235  1.00  0.00     0.031 C 
ATOM     43  C   UNL     1       5.904   2.805 -11.425  1.00  0.00     0.029 A 
ATOM     44  N   UNL     1       5.221   2.234 -13.475  1.00  0.00    -0.354 N 
ATOM     45  C   UNL     1       1.686   4.018 -15.216  1.00  0.00     0.074 A 
ATOM     46  C   UNL     1       1.093   4.982 -14.316  1.00  0.00     0.031 C 
ATOM     47  C   UNL     1       6.748   1.867 -11.884  1.00  0.00     0.029 A 
ATOM     48  C   UNL     1       6.312   1.442 -13.210  1.00  0.00     0.049 A 
ATOM     49  H   UNL     1       4.721   2.196 -14.322  1.00  0.00     0.167 HD
ATOM     50  C   UNL     1       1.211   3.730 -16.451  1.00  0.00     0.037 A 
ATOM     51  C   UNL     1       6.884   0.470 -13.946  1.00  0.00     0.037 A 
ATOM     52  C   UNL     1       1.812   2.777 -17.347  1.00  0.00     0.049 A 
ATOM     53  C   UNL     1       6.305   0.138 -15.296  1.00  0.00     0.074 A 
ATOM     54  C   UNL     1       1.434   2.450 -18.637  1.00  0.00     0.029 A 
ATOM     55  N   UNL     1       2.915   1.992 -17.042  1.00  0.00    -0.354 N 
ATOM     56  N   UNL     1       5.286   0.679 -15.918  1.00  0.00    -0.248 NA
ATOM     57  C   UNL     1       6.960  -0.942 -16.049  1.00  0.00     0.031 C 
ATOM     58  C   UNL     1       2.271   1.426 -19.091  1.00  0.00     0.029 A 
ATOM     59  C   UNL     1       3.211   1.159 -18.109  1.00  0.00     0.049 A 
ATOM     60  H   UNL     1       3.413   2.023 -16.194  1.00  0.00     0.167 HD
ATOM     61  C   UNL     1       5.194   0.029 -17.141  1.00  0.00     0.074 A 
ATOM     62  C   UNL     1       6.275  -0.934 -17.183  1.00  0.00     0.031 C 
ATOM     63  C   UNL     1       4.295   0.209 -18.139  1.00  0.00     0.037 A 
BRANCH  50  64
ATOM     64  C   UNL     1      -0.023   4.455 -16.907  1.00  0.00     0.064 A 
ATOM     65  C   UNL     1      -0.007   5.830 -17.188  1.00  0.00     0.173 A 
ATOM     66  C   UNL     1      -1.226   3.760 -17.108  1.00  0.00     0.173 A 
ATOM     67  F   UNL     1       1.113   6.545 -17.002  1.00  0.00    -0.203 F 
ATOM     68  C   UNL     1      -1.155   6.487 -17.623  1.00  0.00     0.198 A 
ATOM     69  C   UNL     1      -2.363   4.414 -17.576  1.00  0.00     0.198 A 
ATOM     70  F   UNL     1      -1.296   2.444 -16.861  1.00  0.00    -0.203 F 
ATOM     71  F   UNL     1      -1.129   7.811 -17.834  1.00  0.00    -0.200 F 
ATOM     72  C   UNL     1      -2.329   5.778 -17.825  1.00  0.00     0.200 A 
ATOM     73  F   UNL     1      -3.492   3.724 -17.785  1.00  0.00    -0.200 F 
ATOM     74  F   UNL     1      -3.431   6.409 -18.253  1.00  0.00    -0.200 F 
ENDBRANCH  50  64
BRANCH  51  75
ATOM     75  C   UNL     1       8.073  -0.260 -13.430  1.00  0.00     0.064 A 
ATOM     76  C   UNL     1       9.324  -0.127 -14.049  1.00  0.00     0.173 A 
ATOM     77  C   UNL     1       7.982  -1.120 -12.326  1.00  0.00     0.173 A 
ATOM     78  F   UNL     1       9.458   0.667 -15.122  1.00  0.00    -0.203 F 
ATOM     79  C   UNL     1      10.430  -0.847 -13.603  1.00  0.00     0.198 A 
ATOM     80  C   UNL     1       9.097  -1.814 -11.859  1.00  0.00     0.198 A 
ATOM     81  F   UNL     1       6.811  -1.281 -11.693  1.00  0.00    -0.203 F 
ATOM     82  F   UNL     1      11.599  -0.745 -14.250  1.00  0.00    -0.200 F 
ATOM     83  C   UNL     1      10.317  -1.686 -12.505  1.00  0.00     0.200 A 
ATOM     84  F   UNL     1       8.987  -2.611 -10.787  1.00  0.00    -0.200 F 
ATOM     85  F   UNL     1      11.381  -2.378 -12.075  1.00  0.00    -0.200 F 
ENDBRANCH  51  75
BRANCH  63  86
ATOM     86  C   UNL     1       4.459  -0.626 -19.377  1.00  0.00     0.064 A 
ATOM     87  C   UNL     1       4.199  -2.005 -19.376  1.00  0.00     0.173 A 
ATOM     88  C   UNL     1       4.840  -0.032 -20.589  1.00  0.00     0.173 A 
ATOM     89  F   UNL     1       3.846  -2.625 -18.239  1.00  0.00    -0.203 F 
ATOM     90  C   UNL     1       4.342  -2.761 -20.536  1.00  0.00     0.198 A 
ATOM     91  C   UNL     1       4.947  -0.784 -21.755  1.00  0.00     0.198 A 
ATOM     92  F   UNL     1       5.094   1.284 -20.648  1.00  0.00    -0.203 F 
ATOM     93  F   UNL     1       4.139  -4.085 -20.499  1.00  0.00    -0.200 F 
ATOM     94  C   UNL     1       4.706  -2.149 -21.726  1.00  0.00     0.200 A 
ATOM     95  F   UNL     1       5.283  -0.188 -22.908  1.00  0.00    -0.200 F 
ATOM     96  F   UNL     1       4.832  -2.877 -22.844  1.00  0.00    -0.200 F 
ENDBRANCH  63  86
ENDBRANCH  37  38
ENDBRANCH  29  32
ENDBRANCH  27  28
ENDBRANCH  26  27
ENDBRANCH   1  26
TORSDOF 14
