REMARK SMILES C[C@@H](Oc1ccccc1Cl)C(=O)Nc1ccc(C(=O)NCCCCNC(=O)c2ccc(-c3c4nc(c(-c5c(F)c(F)c(F)c(F)c5F)c5ccc([nH]5)c(-c5c(F)c(F)c(F)c(F)c5F)c5nc(c(-c6c(F)c(F)c(F)c(F)c6F)c6ccc3[nH]6)C=C5)C=C4)cc2)cc1
REMARK SMILES IDX 21 1 20 2 18 3 19 4 17 6 14 7 15 8 92 9 16 10 91 11 13 12
REMARK SMILES IDX 11 13 12 14 2 16 1 17 3 18 4 19 5 20 9 21 6 22 8 23 10 24
REMARK SMILES IDX 7 25 22 26 23 27 24 28 25 29 26 30 27 32 28 33 29 34 90 35
REMARK SMILES IDX 30 36 89 37 31 38 32 39 33 40 83 41 34 42 88 43 82 44 84 45
REMARK SMILES IDX 35 46 87 47 81 48 80 49 36 51 68 52 48 53 67 54 49 55 52 56
REMARK SMILES IDX 66 57 85 58 50 59 51 60 65 62 86 63 53 64 37 65 38 66 46 67
REMARK SMILES IDX 39 68 40 69 44 70 47 71 41 72 42 73 45 74 43 75 69 76 70 77
REMARK SMILES IDX 78 78 71 79 72 80 76 81 79 82 73 83 74 84 77 85 75 86 54 87
REMARK SMILES IDX 55 88 63 89 56 90 57 91 61 92 64 93 58 94 59 95 62 96 60 97
REMARK H PARENT 20 5 13 15 25 31 84 50 52 61
REMARK Flexibility Score: inf
ROOT
ATOM      1  C   UNL     1       2.557   3.986   2.669  1.00  0.00     0.116 C 
ENDROOT
BRANCH   1   2
ATOM      2  N   UNL     1       1.702   4.331   3.791  1.00  0.00    -0.352 N 
ATOM      3  C   UNL     1       0.496   3.805   4.189  1.00  0.00     0.251 C 
ATOM      4  O   UNL     1       0.003   4.194   5.246  1.00  0.00    -0.269 OA
ATOM      5  H   UNL     1       2.042   5.059   4.359  1.00  0.00     0.163 HD
BRANCH   3   6
ATOM      6  C   UNL     1      -0.184   2.730   3.418  1.00  0.00     0.039 A 
ATOM      7  C   UNL     1      -1.212   0.489   2.102  1.00  0.00     0.041 A 
ATOM      8  C   UNL     1      -1.397   0.626   3.476  1.00  0.00     0.027 A 
ATOM      9  C   UNL     1      -0.675   1.542   1.369  1.00  0.00     0.027 A 
ATOM     10  C   UNL     1      -0.854   1.732   4.138  1.00  0.00     0.016 A 
ATOM     11  C   UNL     1      -0.189   2.673   2.024  1.00  0.00     0.016 A 
BRANCH   7  12
ATOM     12  N   UNL     1      -1.606  -0.699   1.484  1.00  0.00    -0.323 N 
ATOM     13  C   UNL     1      -0.896  -1.495   0.625  1.00  0.00     0.265 C 
ATOM     14  O   UNL     1      -1.505  -2.411   0.057  1.00  0.00    -0.270 OA
ATOM     15  H   UNL     1      -2.517  -1.006   1.695  1.00  0.00     0.170 HD
BRANCH  13  16
ATOM     16  C   UNL     1       0.636  -1.340   0.412  1.00  0.00     0.259 C 
ATOM     17  C   UNL     1       0.928  -0.568  -0.871  1.00  0.00     0.064 C 
BRANCH  16  18
ATOM     18  O   UNL     1       1.330  -0.758   1.519  1.00  0.00    -0.479 OA
BRANCH  18  19
ATOM     19  C   UNL     1       2.587  -1.267   1.723  1.00  0.00     0.139 A 
ATOM     20  C   UNL     1       2.733  -2.508   2.349  1.00  0.00     0.048 A 
ATOM     21  C   UNL     1       3.722  -0.500   1.432  1.00  0.00     0.083 A 
ATOM     22  C   UNL     1       4.010  -2.995   2.647  1.00  0.00     0.004 A 
ATOM     23  C   UNL     1       4.995  -0.990   1.731  1.00  0.00     0.024 A 
ATOM     24  Cl  UNL     1       3.609   1.058   0.700  1.00  0.00    -0.080 Cl
ATOM     25  C   UNL     1       5.140  -2.238   2.336  1.00  0.00     0.002 A 
ENDBRANCH  18  19
ENDBRANCH  16  18
ENDBRANCH  13  16
ENDBRANCH   7  12
ENDBRANCH   3   6
ENDBRANCH   1   2
BRANCH   1  26
ATOM     26  C   UNL     1       2.461   5.034   1.558  1.00  0.00     0.023 C 
BRANCH  26  27
ATOM     27  C   UNL     1       3.210   6.333   1.859  1.00  0.00     0.023 C 
BRANCH  27  28
ATOM     28  C   UNL     1       4.720   6.181   1.987  1.00  0.00     0.116 C 
BRANCH  28  29
ATOM     29  N   UNL     1       5.354   5.692   0.773  1.00  0.00    -0.352 N 
ATOM     30  C   UNL     1       6.574   6.037   0.247  1.00  0.00     0.251 C 
ATOM     31  H   UNL     1       4.841   5.025   0.262  1.00  0.00     0.163 HD
ATOM     32  O   UNL     1       6.918   5.619  -0.855  1.00  0.00    -0.269 OA
BRANCH  30  33
ATOM     33  C   UNL     1       7.465   6.944   1.002  1.00  0.00     0.039 A 
ATOM     34  C   UNL     1       8.098   7.989   0.323  1.00  0.00     0.014 A 
ATOM     35  C   UNL     1       7.675   6.768   2.372  1.00  0.00     0.014 A 
ATOM     36  C   UNL     1       8.907   8.882   1.029  1.00  0.00     0.010 A 
ATOM     37  C   UNL     1       8.410   7.706   3.087  1.00  0.00     0.010 A 
ATOM     38  C   UNL     1       9.052   8.760   2.420  1.00  0.00    -0.014 A 
BRANCH  38  39
ATOM     39  C   UNL     1       9.914   9.693   3.188  1.00  0.00     0.031 A 
ATOM     40  C   UNL     1      11.140   9.172   3.888  1.00  0.00     0.074 A 
ATOM     41  C   UNL     1       9.575  10.992   3.295  1.00  0.00     0.049 A 
ATOM     42  N   UNL     1      11.998   9.808   4.646  1.00  0.00    -0.248 NA
ATOM     43  C   UNL     1      11.422   7.734   3.743  1.00  0.00     0.031 C 
ATOM     44  C   UNL     1       8.387  11.608   2.702  1.00  0.00     0.029 A 
ATOM     45  N   UNL     1      10.198  12.027   3.945  1.00  0.00    -0.354 N 
ATOM     46  C   UNL     1      12.905   8.848   5.075  1.00  0.00     0.074 A 
ATOM     47  C   UNL     1      12.458   7.577   4.552  1.00  0.00     0.031 C 
ATOM     48  C   UNL     1       8.384  12.920   2.990  1.00  0.00     0.029 A 
ATOM     49  C   UNL     1       9.548  13.230   3.814  1.00  0.00     0.049 A 
ATOM     50  H   UNL     1      11.031  11.918   4.457  1.00  0.00     0.167 HD
ATOM     51  C   UNL     1      14.030   9.015   5.811  1.00  0.00     0.037 A 
ATOM     52  C   UNL     1       9.861  14.445   4.303  1.00  0.00     0.037 A 
ATOM     53  C   UNL     1      14.487  10.286   6.307  1.00  0.00     0.049 A 
ATOM     54  C   UNL     1      11.116  14.605   5.120  1.00  0.00     0.074 A 
ATOM     55  C   UNL     1      15.634  10.572   7.025  1.00  0.00     0.029 A 
ATOM     56  N   UNL     1      13.813  11.487   6.134  1.00  0.00    -0.354 N 
ATOM     57  N   UNL     1      12.003  13.703   5.465  1.00  0.00    -0.248 NA
ATOM     58  C   UNL     1      11.420  15.958   5.605  1.00  0.00     0.031 C 
ATOM     59  C   UNL     1      15.633  11.938   7.324  1.00  0.00     0.029 A 
ATOM     60  C   UNL     1      14.515  12.514   6.742  1.00  0.00     0.049 A 
ATOM     61  H   UNL     1      12.963  11.593   5.649  1.00  0.00     0.167 HD
ATOM     62  C   UNL     1      12.988  14.384   6.168  1.00  0.00     0.074 A 
ATOM     63  C   UNL     1      12.594  15.777   6.193  1.00  0.00     0.031 C 
ATOM     64  C   UNL     1      14.119  13.900   6.739  1.00  0.00     0.037 A 
BRANCH  51  65
ATOM     65  C   UNL     1      14.845   7.790   6.116  1.00  0.00     0.064 A 
ATOM     66  C   UNL     1      15.539   7.098   5.110  1.00  0.00     0.173 A 
ATOM     67  C   UNL     1      14.950   7.311   7.430  1.00  0.00     0.173 A 
ATOM     68  F   UNL     1      15.462   7.506   3.834  1.00  0.00    -0.203 F 
ATOM     69  C   UNL     1      16.274   5.952   5.402  1.00  0.00     0.198 A 
ATOM     70  C   UNL     1      15.715   6.185   7.724  1.00  0.00     0.198 A 
ATOM     71  F   UNL     1      14.313   7.936   8.432  1.00  0.00    -0.203 F 
ATOM     72  F   UNL     1      16.875   5.274   4.415  1.00  0.00    -0.200 F 
ATOM     73  C   UNL     1      16.367   5.501   6.710  1.00  0.00     0.200 A 
ATOM     74  F   UNL     1      15.816   5.758   8.991  1.00  0.00    -0.200 F 
ATOM     75  F   UNL     1      17.078   4.400   6.991  1.00  0.00    -0.200 F 
ENDBRANCH  51  65
BRANCH  52  76
ATOM     76  C   UNL     1       8.999  15.617   3.998  1.00  0.00     0.064 A 
ATOM     77  C   UNL     1       9.455  16.645   3.161  1.00  0.00     0.173 A 
ATOM     78  C   UNL     1       7.713  15.742   4.543  1.00  0.00     0.173 A 
ATOM     79  F   UNL     1      10.685  16.581   2.631  1.00  0.00    -0.203 F 
ATOM     80  C   UNL     1       8.669  17.766   2.902  1.00  0.00     0.198 A 
ATOM     81  C   UNL     1       6.916  16.850   4.259  1.00  0.00     0.198 A 
ATOM     82  F   UNL     1       7.226  14.784   5.345  1.00  0.00    -0.203 F 
ATOM     83  F   UNL     1       9.151  18.758   2.140  1.00  0.00    -0.200 F 
ATOM     84  C   UNL     1       7.398  17.865   3.447  1.00  0.00     0.200 A 
ATOM     85  F   UNL     1       5.683  16.935   4.776  1.00  0.00    -0.200 F 
ATOM     86  F   UNL     1       6.642  18.943   3.197  1.00  0.00    -0.200 F 
ENDBRANCH  52  76
BRANCH  64  87
ATOM     87  C   UNL     1      15.044  14.891   7.385  1.00  0.00     0.064 A 
ATOM     88  C   UNL     1      14.715  15.543   8.582  1.00  0.00     0.173 A 
ATOM     89  C   UNL     1      16.296  15.164   6.810  1.00  0.00     0.173 A 
ATOM     90  F   UNL     1      13.526  15.327   9.164  1.00  0.00    -0.203 F 
ATOM     91  C   UNL     1      15.592  16.457   9.162  1.00  0.00     0.198 A 
ATOM     92  C   UNL     1      17.183  16.052   7.412  1.00  0.00     0.198 A 
ATOM     93  F   UNL     1      16.663  14.560   5.670  1.00  0.00    -0.203 F 
ATOM     94  F   UNL     1      15.234  17.110  10.277  1.00  0.00    -0.200 F 
ATOM     95  C   UNL     1      16.827  16.704   8.582  1.00  0.00     0.200 A 
ATOM     96  F   UNL     1      18.382  16.277   6.857  1.00  0.00    -0.200 F 
ATOM     97  F   UNL     1      17.671  17.579   9.146  1.00  0.00    -0.200 F 
ENDBRANCH  64  87
ENDBRANCH  38  39
ENDBRANCH  30  33
ENDBRANCH  28  29
ENDBRANCH  27  28
ENDBRANCH  26  27
ENDBRANCH   1  26
TORSDOF 15
