REMARK SMILES CC1(C)CCN(c2nc3c(cc2C(=O)NCCCCNC(=O)c2ccc(-c4c5nc(c(-c6c(F)c(F)c(F)c(F)c6F)c6ccc([nH]6)c(-c6c(F)c(F)c(F)c(F)c6F)c6nc(c(-c7c(F)c(F)c(F)c(F)c7F)c7ccc4[nH]7)C=C6)C=C5)cc2)CCC3)C1
REMARK SMILES IDX 18 1 17 2 16 3 15 4 13 5 14 6 12 8 7 9 8 10 9 11 11 12 10 13
REMARK SMILES IDX 88 14 86 15 87 16 6 17 1 18 2 19 3 20 4 21 89 22 5 23 19 24
REMARK SMILES IDX 20 25 21 26 22 28 23 29 24 30 85 31 25 32 84 33 26 34 27 35
REMARK SMILES IDX 28 36 78 37 29 38 83 39 77 40 79 41 30 42 82 43 76 44 75 45
REMARK SMILES IDX 31 47 63 48 43 49 62 50 44 51 47 52 61 53 80 54 45 55 46 56
REMARK SMILES IDX 60 58 81 59 48 60 32 61 33 62 41 63 34 64 35 65 39 66 42 67
REMARK SMILES IDX 36 68 37 69 40 70 38 71 64 72 65 73 73 74 66 75 67 76 71 77
REMARK SMILES IDX 74 78 68 79 69 80 72 81 70 82 49 83 50 84 58 85 51 86 52 87
REMARK SMILES IDX 56 88 59 89 53 90 54 91 57 92 55 93
REMARK H PARENT 15 7 20 27 79 46 47 57
REMARK Flexibility Score: inf
ROOT
ATOM      1  C   UNL     1       0.728  -0.665   4.364  1.00  0.00     0.023 C 
ENDROOT
BRANCH   1   2
ATOM      2  C   UNL     1       1.863  -0.819   3.350  1.00  0.00     0.023 C 
BRANCH   2   3
ATOM      3  C   UNL     1       1.850   0.126   2.155  1.00  0.00     0.116 C 
BRANCH   3   4
ATOM      4  N   UNL     1       1.914   1.533   2.473  1.00  0.00    -0.352 N 
ATOM      5  C   UNL     1       2.277   2.584   1.657  1.00  0.00     0.255 C 
ATOM      6  O   UNL     1       2.147   3.724   2.110  1.00  0.00    -0.269 OA
ATOM      7  H   UNL     1       1.666   1.774   3.394  1.00  0.00     0.163 HD
BRANCH   5   8
ATOM      8  C   UNL     1       2.914   2.419   0.320  1.00  0.00     0.082 A 
ATOM      9  C   UNL     1       2.491   1.556  -0.716  1.00  0.00     0.141 A 
ATOM     10  N   UNL     1       3.180   1.456  -1.887  1.00  0.00    -0.235 NA
ATOM     11  C   UNL     1       4.247   2.252  -2.046  1.00  0.00     0.046 A 
ATOM     12  C   UNL     1       4.037   3.246   0.100  1.00  0.00     0.023 A 
ATOM     13  C   UNL     1       4.704   3.152  -1.103  1.00  0.00    -0.025 A 
ATOM     14  C   UNL     1       5.048   2.339  -3.312  1.00  0.00     0.057 C 
ATOM     15  C   UNL     1       5.863   3.935  -1.621  1.00  0.00     0.038 C 
ATOM     16  C   UNL     1       6.303   3.066  -2.811  1.00  0.00     0.011 C 
BRANCH   9  17
ATOM     17  N   UNL     1       1.352   0.786  -0.645  1.00  0.00    -0.355 N 
ATOM     18  C   UNL     1      -1.420   0.372  -2.570  1.00  0.00     0.013 C 
ATOM     19  C   UNL     1      -0.926   0.273  -1.120  1.00  0.00    -0.016 C 
ATOM     20  C   UNL     1      -2.129   0.265  -0.173  1.00  0.00     0.013 C 
ATOM     21  C   UNL     1      -0.072  -1.001  -0.955  1.00  0.00     0.030 C 
ATOM     22  C   UNL     1       0.050   1.435  -0.774  1.00  0.00     0.124 C 
ATOM     23  C   UNL     1       1.341  -0.527  -1.268  1.00  0.00     0.119 C 
ENDBRANCH   9  17
ENDBRANCH   5   8
ENDBRANCH   3   4
ENDBRANCH   2   3
ENDBRANCH   1   2
BRANCH   1  24
ATOM     24  C   UNL     1      -0.682  -0.458   3.818  1.00  0.00     0.116 C 
BRANCH  24  25
ATOM     25  N   UNL     1      -1.145  -1.507   2.922  1.00  0.00    -0.352 N 
ATOM     26  C   UNL     1      -2.334  -2.200   2.909  1.00  0.00     0.251 C 
ATOM     27  H   UNL     1      -0.509  -1.760   2.214  1.00  0.00     0.163 HD
ATOM     28  O   UNL     1      -2.580  -3.002   2.017  1.00  0.00    -0.269 OA
BRANCH  26  29
ATOM     29  C   UNL     1      -3.276  -2.041   4.034  1.00  0.00     0.039 A 
ATOM     30  C   UNL     1      -3.600  -3.181   4.773  1.00  0.00     0.014 A 
ATOM     31  C   UNL     1      -3.745  -0.783   4.420  1.00  0.00     0.014 A 
ATOM     32  C   UNL     1      -4.288  -3.046   5.977  1.00  0.00     0.010 A 
ATOM     33  C   UNL     1      -4.383  -0.642   5.651  1.00  0.00     0.010 A 
ATOM     34  C   UNL     1      -4.624  -1.769   6.454  1.00  0.00    -0.014 A 
BRANCH  34  35
ATOM     35  C   UNL     1      -5.156  -1.601   7.826  1.00  0.00     0.031 A 
ATOM     36  C   UNL     1      -6.579  -1.193   8.043  1.00  0.00     0.074 A 
ATOM     37  C   UNL     1      -4.330  -1.782   8.875  1.00  0.00     0.049 A 
ATOM     38  N   UNL     1      -7.216  -0.995   9.169  1.00  0.00    -0.248 NA
ATOM     39  C   UNL     1      -7.392  -0.965   6.840  1.00  0.00     0.031 C 
ATOM     40  C   UNL     1      -2.913  -2.142   8.781  1.00  0.00     0.029 A 
ATOM     41  N   UNL     1      -4.560  -1.688  10.224  1.00  0.00    -0.354 N 
ATOM     42  C   UNL     1      -8.504  -0.627   8.811  1.00  0.00     0.074 A 
ATOM     43  C   UNL     1      -8.546  -0.579   7.364  1.00  0.00     0.031 C 
ATOM     44  C   UNL     1      -2.409  -2.266  10.019  1.00  0.00     0.029 A 
ATOM     45  C   UNL     1      -3.456  -1.970  10.992  1.00  0.00     0.049 A 
ATOM     46  H   UNL     1      -5.433  -1.443  10.606  1.00  0.00     0.167 HD
ATOM     47  C   UNL     1      -9.561  -0.377   9.618  1.00  0.00     0.037 A 
ATOM     48  C   UNL     1      -3.309  -1.991  12.330  1.00  0.00     0.037 A 
ATOM     49  C   UNL     1      -9.517  -0.430  11.054  1.00  0.00     0.049 A 
ATOM     50  C   UNL     1      -4.493  -1.681  13.203  1.00  0.00     0.074 A 
ATOM     51  C   UNL     1     -10.545  -0.227  11.957  1.00  0.00     0.029 A 
ATOM     52  N   UNL     1      -8.378  -0.705  11.797  1.00  0.00    -0.354 N 
ATOM     53  N   UNL     1      -5.721  -1.390  12.853  1.00  0.00    -0.248 NA
ATOM     54  C   UNL     1      -4.270  -1.702  14.656  1.00  0.00     0.031 C 
ATOM     55  C   UNL     1     -10.022  -0.349  13.249  1.00  0.00     0.029 A 
ATOM     56  C   UNL     1      -8.675  -0.659  13.149  1.00  0.00     0.049 A 
ATOM     57  H   UNL     1      -7.491  -0.902  11.419  1.00  0.00     0.167 HD
ATOM     58  C   UNL     1      -6.423  -1.212  14.036  1.00  0.00     0.074 A 
ATOM     59  C   UNL     1      -5.486  -1.438  15.117  1.00  0.00     0.031 C 
ATOM     60  C   UNL     1      -7.728  -0.891  14.210  1.00  0.00     0.037 A 
BRANCH  47  61
ATOM     61  C   UNL     1     -10.861  -0.037   8.957  1.00  0.00     0.064 A 
ATOM     62  C   UNL     1     -11.623  -1.020   8.307  1.00  0.00     0.173 A 
ATOM     63  C   UNL     1     -11.365   1.270   8.996  1.00  0.00     0.173 A 
ATOM     64  F   UNL     1     -11.174  -2.282   8.233  1.00  0.00    -0.203 F 
ATOM     65  C   UNL     1     -12.834  -0.700   7.701  1.00  0.00     0.198 A 
ATOM     66  C   UNL     1     -12.588   1.582   8.407  1.00  0.00     0.198 A 
ATOM     67  F   UNL     1     -10.674   2.244   9.607  1.00  0.00    -0.203 F 
ATOM     68  F   UNL     1     -13.527  -1.646   7.052  1.00  0.00    -0.200 F 
ATOM     69  C   UNL     1     -13.318   0.598   7.756  1.00  0.00     0.200 A 
ATOM     70  F   UNL     1     -13.058   2.835   8.465  1.00  0.00    -0.200 F 
ATOM     71  F   UNL     1     -14.486   0.904   7.174  1.00  0.00    -0.200 F 
ENDBRANCH  47  61
BRANCH  48  72
ATOM     72  C   UNL     1      -1.999  -2.359  12.923  1.00  0.00     0.064 A 
ATOM     73  C   UNL     1      -1.819  -3.605  13.539  1.00  0.00     0.173 A 
ATOM     74  C   UNL     1      -0.903  -1.488  12.874  1.00  0.00     0.173 A 
ATOM     75  F   UNL     1      -2.846  -4.463  13.625  1.00  0.00    -0.203 F 
ATOM     76  C   UNL     1      -0.591  -3.963  14.092  1.00  0.00     0.198 A 
ATOM     77  C   UNL     1       0.330  -1.854  13.411  1.00  0.00     0.198 A 
ATOM     78  F   UNL     1      -1.026  -0.285  12.293  1.00  0.00    -0.203 F 
ATOM     79  F   UNL     1      -0.452  -5.149  14.700  1.00  0.00    -0.200 F 
ATOM     80  C   UNL     1       0.484  -3.089  14.023  1.00  0.00     0.200 A 
ATOM     81  F   UNL     1       1.369  -1.011  13.334  1.00  0.00    -0.200 F 
ATOM     82  F   UNL     1       1.666  -3.436  14.550  1.00  0.00    -0.200 F 
ENDBRANCH  48  72
BRANCH  60  83
ATOM     83  C   UNL     1      -8.228  -0.775  15.617  1.00  0.00     0.064 A 
ATOM     84  C   UNL     1      -7.940   0.351  16.401  1.00  0.00     0.173 A 
ATOM     85  C   UNL     1      -9.063  -1.763  16.158  1.00  0.00     0.173 A 
ATOM     86  F   UNL     1      -7.134   1.313  15.929  1.00  0.00    -0.203 F 
ATOM     87  C   UNL     1      -8.468   0.480  17.682  1.00  0.00     0.198 A 
ATOM     88  C   UNL     1      -9.605  -1.620  17.432  1.00  0.00     0.198 A 
ATOM     89  F   UNL     1      -9.368  -2.856  15.443  1.00  0.00    -0.203 F 
ATOM     90  F   UNL     1      -8.163   1.553  18.425  1.00  0.00    -0.200 F 
ATOM     91  C   UNL     1      -9.306  -0.500  18.193  1.00  0.00     0.200 A 
ATOM     92  F   UNL     1     -10.423  -2.563  17.920  1.00  0.00    -0.200 F 
ATOM     93  F   UNL     1      -9.826  -0.366  19.421  1.00  0.00    -0.200 F 
ENDBRANCH  60  83
ENDBRANCH  34  35
ENDBRANCH  26  29
ENDBRANCH  24  25
ENDBRANCH   1  24
TORSDOF 12
