REMARK SMILES [NH3+][C@H](Cc1ccc(O)c(F)c1)C(=O)NCCCCNC(=O)c1ccc(-c2c3nc(c(-c4c(F)c(F)c(F)c(F)c4F)c4ccc([nH]4)c(-c4c(F)c(F)c(F)c(F)c4F)c4nc(c(-c5c(F)c(F)c(F)c(F)c5F)c5ccc2[nH]5)C=C4)C=C3)cc1
REMARK SMILES IDX 16 1 15 2 14 3 12 4 13 5 2 7 1 8 3 12 4 13 5 14 11 15 6 16
REMARK SMILES IDX 9 17 7 18 10 19 8 20 17 22 18 23 19 24 20 25 21 27 22 28
REMARK SMILES IDX 23 29 84 30 24 31 83 32 25 33 26 34 27 35 77 36 28 37 82 38
REMARK SMILES IDX 76 39 78 40 29 41 81 42 75 43 74 44 30 46 62 47 42 48 61 49
REMARK SMILES IDX 43 50 46 51 60 52 79 53 44 54 45 55 59 57 80 58 47 59 31 60
REMARK SMILES IDX 32 61 40 62 33 63 34 64 38 65 41 66 35 67 36 68 39 69 37 70
REMARK SMILES IDX 63 71 64 72 72 73 65 74 66 75 70 76 73 77 67 78 68 79 71 80
REMARK SMILES IDX 69 81 48 82 49 83 57 84 50 85 51 86 55 87 58 88 52 89 53 90
REMARK SMILES IDX 56 91 54 92
REMARK H PARENT 14 6 1 9 1 10 1 11 8 21 19 26 78 45 46 56
REMARK Flexibility Score: inf
ROOT
ATOM      1  C   UNL     1      -1.409   2.088   1.735  1.00  0.00     0.023 C 
ENDROOT
BRANCH   1   2
ATOM      2  C   UNL     1      -1.047   0.642   2.057  1.00  0.00     0.116 C 
BRANCH   2   3
ATOM      3  N   UNL     1      -1.655  -0.283   1.122  1.00  0.00    -0.351 N 
ATOM      4  C   UNL     1      -1.129  -1.347   0.452  1.00  0.00     0.278 C 
ATOM      5  O   UNL     1      -1.878  -1.953  -0.319  1.00  0.00    -0.268 OA
ATOM      6  H   UNL     1      -2.608  -0.115   0.941  1.00  0.00     0.163 HD
BRANCH   4   7
ATOM      7  C   UNL     1       0.337  -1.785   0.647  1.00  0.00     0.275 C 
BRANCH   7   8
ATOM      8  N   UNL     1       0.616  -2.032   2.082  1.00  0.00    -0.347 N 
ATOM      9  H   UNL     1      -0.064  -2.698   2.451  1.00  0.00     0.345 HD
ATOM     10  H   UNL     1       0.546  -1.154   2.598  1.00  0.00     0.345 HD
ATOM     11  H   UNL     1       1.556  -2.413   2.186  1.00  0.00     0.345 HD
ENDBRANCH   7   8
BRANCH   7  12
ATOM     12  C   UNL     1       1.293  -0.791  -0.047  1.00  0.00     0.111 C 
BRANCH  12  13
ATOM     13  C   UNL     1       2.705  -1.262  -0.332  1.00  0.00    -0.038 A 
ATOM     14  C   UNL     1       3.375  -2.199   0.468  1.00  0.00     0.008 A 
ATOM     15  C   UNL     1       3.405  -0.683  -1.403  1.00  0.00     0.047 A 
ATOM     16  C   UNL     1       4.695  -2.574   0.195  1.00  0.00     0.049 A 
ATOM     17  C   UNL     1       4.719  -1.058  -1.674  1.00  0.00     0.165 A 
ATOM     18  C   UNL     1       5.363  -2.003  -0.882  1.00  0.00     0.151 A 
ATOM     19  F   UNL     1       5.355  -0.490  -2.709  1.00  0.00    -0.203 F 
BRANCH  18  20
ATOM     20  O   UNL     1       6.649  -2.356  -1.170  1.00  0.00    -0.505 OA
ATOM     21  H   UNL     1       7.090  -2.991  -0.642  1.00  0.00     0.293 HD
ENDBRANCH  18  20
ENDBRANCH  12  13
ENDBRANCH   7  12
ENDBRANCH   4   7
ENDBRANCH   2   3
ENDBRANCH   1   2
BRANCH   1  22
ATOM     22  C   UNL     1      -2.891   2.427   1.889  1.00  0.00     0.023 C 
BRANCH  22  23
ATOM     23  C   UNL     1      -3.495   2.080   3.245  1.00  0.00     0.116 C 
BRANCH  23  24
ATOM     24  N   UNL     1      -2.820   2.742   4.351  1.00  0.00    -0.352 N 
ATOM     25  C   UNL     1      -3.369   3.431   5.405  1.00  0.00     0.251 C 
ATOM     26  H   UNL     1      -1.837   2.688   4.344  1.00  0.00     0.163 HD
ATOM     27  O   UNL     1      -2.654   4.049   6.186  1.00  0.00    -0.269 OA
BRANCH  25  28
ATOM     28  C   UNL     1      -4.836   3.449   5.568  1.00  0.00     0.039 A 
ATOM     29  C   UNL     1      -5.481   4.675   5.745  1.00  0.00     0.014 A 
ATOM     30  C   UNL     1      -5.572   2.263   5.502  1.00  0.00     0.014 A 
ATOM     31  C   UNL     1      -6.875   4.718   5.786  1.00  0.00     0.010 A 
ATOM     32  C   UNL     1      -6.961   2.316   5.468  1.00  0.00     0.010 A 
ATOM     33  C   UNL     1      -7.626   3.544   5.609  1.00  0.00    -0.014 A 
BRANCH  33  34
ATOM     34  C   UNL     1      -9.109   3.579   5.565  1.00  0.00     0.031 A 
ATOM     35  C   UNL     1      -9.909   2.873   6.622  1.00  0.00     0.074 A 
ATOM     36  C   UNL     1      -9.731   4.185   4.536  1.00  0.00     0.049 A 
ATOM     37  N   UNL     1     -11.206   2.723   6.717  1.00  0.00    -0.248 NA
ATOM     38  C   UNL     1      -9.149   2.223   7.701  1.00  0.00     0.031 C 
ATOM     39  C   UNL     1      -9.063   4.858   3.420  1.00  0.00     0.029 A 
ATOM     40  N   UNL     1     -11.068   4.322   4.253  1.00  0.00    -0.354 N 
ATOM     41  C   UNL     1     -11.413   1.954   7.854  1.00  0.00     0.074 A 
ATOM     42  C   UNL     1     -10.109   1.619   8.383  1.00  0.00     0.031 C 
ATOM     43  C   UNL     1      -9.992   5.351   2.585  1.00  0.00     0.029 A 
ATOM     44  C   UNL     1     -11.317   5.000   3.085  1.00  0.00     0.049 A 
ATOM     45  H   UNL     1     -11.780   3.967   4.833  1.00  0.00     0.167 HD
ATOM     46  C   UNL     1     -12.586   1.584   8.421  1.00  0.00     0.037 A 
ATOM     47  C   UNL     1     -12.484   5.297   2.483  1.00  0.00     0.037 A 
ATOM     48  C   UNL     1     -13.882   1.939   7.905  1.00  0.00     0.049 A 
ATOM     49  C   UNL     1     -13.774   4.875   3.133  1.00  0.00     0.074 A 
ATOM     50  C   UNL     1     -15.129   1.661   8.435  1.00  0.00     0.029 A 
ATOM     51  N   UNL     1     -14.095   2.651   6.733  1.00  0.00    -0.354 N 
ATOM     52  N   UNL     1     -13.960   4.207   4.245  1.00  0.00    -0.248 NA
ATOM     53  C   UNL     1     -15.017   5.255   2.447  1.00  0.00     0.031 C 
ATOM     54  C   UNL     1     -16.098   2.167   7.562  1.00  0.00     0.029 A 
ATOM     55  C   UNL     1     -15.455   2.805   6.514  1.00  0.00     0.049 A 
ATOM     56  H   UNL     1     -13.385   2.996   6.144  1.00  0.00     0.167 HD
ATOM     57  C   UNL     1     -15.335   4.111   4.408  1.00  0.00     0.074 A 
ATOM     58  C   UNL     1     -15.937   4.802   3.287  1.00  0.00     0.031 C 
ATOM     59  C   UNL     1     -16.036   3.503   5.396  1.00  0.00     0.037 A 
BRANCH  46  60
ATOM     60  C   UNL     1     -12.519   0.757   9.672  1.00  0.00     0.064 A 
ATOM     61  C   UNL     1     -12.060   1.295  10.885  1.00  0.00     0.173 A 
ATOM     62  C   UNL     1     -12.941  -0.581   9.667  1.00  0.00     0.173 A 
ATOM     63  F   UNL     1     -11.632   2.565  10.941  1.00  0.00    -0.203 F 
ATOM     64  C   UNL     1     -11.997   0.516  12.037  1.00  0.00     0.198 A 
ATOM     65  C   UNL     1     -12.907  -1.348  10.829  1.00  0.00     0.198 A 
ATOM     66  F   UNL     1     -13.393  -1.144   8.537  1.00  0.00    -0.203 F 
ATOM     67  F   UNL     1     -11.504   1.036  13.169  1.00  0.00    -0.200 F 
ATOM     68  C   UNL     1     -12.427  -0.802  12.010  1.00  0.00     0.200 A 
ATOM     69  F   UNL     1     -13.334  -2.618  10.805  1.00  0.00    -0.200 F 
ATOM     70  F   UNL     1     -12.370  -1.550  13.121  1.00  0.00    -0.200 F 
ENDBRANCH  46  60
BRANCH  47  71
ATOM     71  C   UNL     1     -12.486   6.056   1.205  1.00  0.00     0.064 A 
ATOM     72  C   UNL     1     -12.948   7.379   1.153  1.00  0.00     0.173 A 
ATOM     73  C   UNL     1     -12.029   5.478   0.011  1.00  0.00     0.173 A 
ATOM     74  F   UNL     1     -13.413   7.968   2.264  1.00  0.00    -0.203 F 
ATOM     75  C   UNL     1     -12.971   8.087  -0.046  1.00  0.00     0.198 A 
ATOM     76  C   UNL     1     -12.026   6.197  -1.182  1.00  0.00     0.198 A 
ATOM     77  F   UNL     1     -11.571   4.217   0.008  1.00  0.00    -0.203 F 
ATOM     78  F   UNL     1     -13.458   9.335  -0.075  1.00  0.00    -0.200 F 
ATOM     79  C   UNL     1     -12.505   7.498  -1.212  1.00  0.00     0.200 A 
ATOM     80  F   UNL     1     -11.561   5.629  -2.303  1.00  0.00    -0.200 F 
ATOM     81  F   UNL     1     -12.522   8.181  -2.364  1.00  0.00    -0.200 F 
ENDBRANCH  47  71
BRANCH  59  82
ATOM     82  C   UNL     1     -17.533   3.587   5.328  1.00  0.00     0.064 A 
ATOM     83  C   UNL     1     -18.270   2.862   4.380  1.00  0.00     0.173 A 
ATOM     84  C   UNL     1     -18.242   4.370   6.253  1.00  0.00     0.173 A 
ATOM     85  F   UNL     1     -17.638   2.111   3.465  1.00  0.00    -0.203 F 
ATOM     86  C   UNL     1     -19.659   2.938   4.343  1.00  0.00     0.198 A 
ATOM     87  C   UNL     1     -19.632   4.420   6.232  1.00  0.00     0.198 A 
ATOM     88  F   UNL     1     -17.584   5.077   7.184  1.00  0.00    -0.203 F 
ATOM     89  F   UNL     1     -20.340   2.275   3.399  1.00  0.00    -0.200 F 
ATOM     90  C   UNL     1     -20.340   3.710   5.274  1.00  0.00     0.200 A 
ATOM     91  F   UNL     1     -20.288   5.155   7.141  1.00  0.00    -0.200 F 
ATOM     92  F   UNL     1     -21.678   3.775   5.242  1.00  0.00    -0.200 F 
ENDBRANCH  59  82
ENDBRANCH  33  34
ENDBRANCH  25  28
ENDBRANCH  23  24
ENDBRANCH  22  23
ENDBRANCH   1  22
TORSDOF 15
