REMARK SMILES C[NH2+]C[C@H](C)C(=O)NC[C@](C)(O)C(=O)NCCCCNC(=O)c1ccc(-c2c3nc(c(-c4c(F)c(F)c(F)c(F)c4F)c4ccc([nH]4)c(-c4c(F)c(F)c(F)c(F)c4F)c4nc(c(-c5c(F)c(F)c(F)c(F)c5F)c5ccc2[nH]5)C=C4)C=C3)cc1
REMARK SMILES IDX 16 1 15 2 13 3 14 4 10 6 11 7 9 8 8 9 6 10 7 11 4 13 5 14
REMARK SMILES IDX 3 15 2 16 1 17 12 20 17 22 18 23 19 24 20 25 21 26 22 28
REMARK SMILES IDX 23 29 24 30 85 31 25 32 84 33 26 34 27 35 28 36 78 37 29 38
REMARK SMILES IDX 83 39 77 40 79 41 30 42 82 43 76 44 75 45 31 47 63 48 43 49
REMARK SMILES IDX 62 50 44 51 47 52 61 53 80 54 45 55 46 56 60 58 81 59 48 60
REMARK SMILES IDX 32 61 33 62 41 63 34 64 35 65 39 66 42 67 36 68 37 69 40 70
REMARK SMILES IDX 38 71 64 72 65 73 73 74 66 75 67 76 71 77 74 78 68 79 69 80
REMARK SMILES IDX 72 81 70 82 49 83 50 84 58 85 51 86 52 87 56 88 59 89 53 90
REMARK SMILES IDX 54 91 57 92 55 93
REMARK H PARENT 15 5 8 12 2 18 2 19 12 21 20 27 79 46 47 57
REMARK Flexibility Score: inf
ROOT
ATOM      1  C   UNL     1      -3.038   4.097  -4.046  1.00  0.00     0.116 C 
ENDROOT
BRANCH   1   2
ATOM      2  N   UNL     1      -2.531   2.940  -3.341  1.00  0.00    -0.354 N 
ATOM      3  C   UNL     1      -2.559   2.685  -1.994  1.00  0.00     0.253 C 
ATOM      4  O   UNL     1      -2.271   1.543  -1.627  1.00  0.00    -0.272 OA
ATOM      5  H   UNL     1      -2.111   2.247  -3.901  1.00  0.00     0.163 HD
BRANCH   3   6
ATOM      6  C   UNL     1      -2.991   3.792  -0.993  1.00  0.00     0.157 C 
ATOM      7  C   UNL     1      -2.688   3.356   0.446  1.00  0.00     0.055 C 
BRANCH   6   8
ATOM      8  C   UNL     1      -4.511   4.058  -1.155  1.00  0.00     0.160 C 
BRANCH   8   9
ATOM      9  N   UNL     1      -4.867   5.418  -0.764  1.00  0.00    -0.352 N 
ATOM     10  C   UNL     1      -5.772   6.300  -1.248  1.00  0.00     0.228 C 
ATOM     11  O   UNL     1      -5.817   7.392  -0.669  1.00  0.00    -0.275 OA
ATOM     12  H   UNL     1      -4.349   5.759   0.001  1.00  0.00     0.163 HD
BRANCH  10  13
ATOM     13  C   UNL     1      -6.649   6.071  -2.475  1.00  0.00     0.130 C 
ATOM     14  C   UNL     1      -5.886   6.434  -3.752  1.00  0.00     0.024 C 
BRANCH  13  15
ATOM     15  C   UNL     1      -7.406   4.742  -2.646  1.00  0.00     0.273 C 
BRANCH  15  16
ATOM     16  N   UNL     1      -7.867   3.992  -1.482  1.00  0.00    -0.348 N 
ATOM     17  C   UNL     1      -8.601   4.771  -0.501  1.00  0.00     0.330 C 
ATOM     18  H   UNL     1      -8.474   3.241  -1.810  1.00  0.00     0.346 HD
ATOM     19  H   UNL     1      -7.027   3.656  -1.009  1.00  0.00     0.346 HD
ENDBRANCH  15  16
ENDBRANCH  13  15
ENDBRANCH  10  13
ENDBRANCH   8   9
ENDBRANCH   6   8
BRANCH   6  20
ATOM     20  O   UNL     1      -2.235   4.996  -1.199  1.00  0.00    -0.378 OA
ATOM     21  H   UNL     1      -1.290   4.806  -1.093  1.00  0.00     0.212 HD
ENDBRANCH   6  20
ENDBRANCH   3   6
ENDBRANCH   1   2
BRANCH   1  22
ATOM     22  C   UNL     1      -2.175   4.563  -5.207  1.00  0.00     0.023 C 
BRANCH  22  23
ATOM     23  C   UNL     1      -2.156   3.628  -6.413  1.00  0.00     0.023 C 
BRANCH  23  24
ATOM     24  C   UNL     1      -3.522   3.260  -6.988  1.00  0.00     0.116 C 
BRANCH  24  25
ATOM     25  N   UNL     1      -4.280   4.401  -7.484  1.00  0.00    -0.352 N 
ATOM     26  C   UNL     1      -4.735   4.677  -8.757  1.00  0.00     0.251 C 
ATOM     27  H   UNL     1      -4.501   5.080  -6.807  1.00  0.00     0.163 HD
ATOM     28  O   UNL     1      -5.282   5.742  -8.999  1.00  0.00    -0.269 OA
BRANCH  26  29
ATOM     29  C   UNL     1      -4.506   3.699  -9.843  1.00  0.00     0.039 A 
ATOM     30  C   UNL     1      -3.904   4.139 -11.025  1.00  0.00     0.014 A 
ATOM     31  C   UNL     1      -4.819   2.349  -9.673  1.00  0.00     0.014 A 
ATOM     32  C   UNL     1      -3.493   3.205 -11.979  1.00  0.00     0.010 A 
ATOM     33  C   UNL     1      -4.341   1.414 -10.587  1.00  0.00     0.010 A 
ATOM     34  C   UNL     1      -3.642   1.831 -11.731  1.00  0.00    -0.014 A 
BRANCH  34  35
ATOM     35  C   UNL     1      -2.998   0.811 -12.599  1.00  0.00     0.031 A 
ATOM     36  C   UNL     1      -3.827  -0.196 -13.340  1.00  0.00     0.074 A 
ATOM     37  C   UNL     1      -1.652   0.726 -12.625  1.00  0.00     0.049 A 
ATOM     38  N   UNL     1      -3.438  -1.238 -14.032  1.00  0.00    -0.248 NA
ATOM     39  C   UNL     1      -5.286  -0.026 -13.275  1.00  0.00     0.031 C 
ATOM     40  C   UNL     1      -0.734   1.614 -11.908  1.00  0.00     0.029 A 
ATOM     41  N   UNL     1      -0.821  -0.164 -13.260  1.00  0.00    -0.354 N 
ATOM     42  C   UNL     1      -4.601  -1.855 -14.471  1.00  0.00     0.074 A 
ATOM     43  C   UNL     1      -5.711  -1.095 -13.934  1.00  0.00     0.031 C 
ATOM     44  C   UNL     1       0.529   1.232 -12.151  1.00  0.00     0.029 A 
ATOM     45  C   UNL     1       0.512   0.045 -13.000  1.00  0.00     0.049 A 
ATOM     46  H   UNL     1      -1.149  -0.884 -13.846  1.00  0.00     0.167 HD
ATOM     47  C   UNL     1      -4.729  -2.945 -15.264  1.00  0.00     0.037 A 
ATOM     48  C   UNL     1       1.599  -0.653 -13.380  1.00  0.00     0.037 A 
ATOM     49  C   UNL     1      -3.624  -3.684 -15.816  1.00  0.00     0.049 A 
ATOM     50  C   UNL     1       1.426  -1.877 -14.236  1.00  0.00     0.074 A 
ATOM     51  C   UNL     1      -3.655  -4.748 -16.701  1.00  0.00     0.029 A 
ATOM     52  N   UNL     1      -2.289  -3.442 -15.530  1.00  0.00    -0.354 N 
ATOM     53  N   UNL     1       0.323  -2.407 -14.706  1.00  0.00    -0.248 NA
ATOM     54  C   UNL     1       2.648  -2.605 -14.607  1.00  0.00     0.031 C 
ATOM     55  C   UNL     1      -2.342  -5.181 -16.911  1.00  0.00     0.029 A 
ATOM     56  C   UNL     1      -1.489  -4.360 -16.192  1.00  0.00     0.049 A 
ATOM     57  H   UNL     1      -1.958  -2.724 -14.943  1.00  0.00     0.167 HD
ATOM     58  C   UNL     1       0.717  -3.519 -15.437  1.00  0.00     0.074 A 
ATOM     59  C   UNL     1       2.162  -3.577 -15.367  1.00  0.00     0.031 C 
ATOM     60  C   UNL     1      -0.053  -4.413 -16.104  1.00  0.00     0.037 A 
BRANCH  47  61
ATOM     61  C   UNL     1      -6.119  -3.409 -15.589  1.00  0.00     0.064 A 
ATOM     62  C   UNL     1      -6.950  -2.686 -16.457  1.00  0.00     0.173 A 
ATOM     63  C   UNL     1      -6.606  -4.616 -15.066  1.00  0.00     0.173 A 
ATOM     64  F   UNL     1      -6.533  -1.520 -16.976  1.00  0.00    -0.203 F 
ATOM     65  C   UNL     1      -8.227  -3.142 -16.772  1.00  0.00     0.198 A 
ATOM     66  C   UNL     1      -7.873  -5.083 -15.404  1.00  0.00     0.198 A 
ATOM     67  F   UNL     1      -5.848  -5.348 -14.236  1.00  0.00    -0.203 F 
ATOM     68  F   UNL     1      -9.018  -2.414 -17.571  1.00  0.00    -0.200 F 
ATOM     69  C   UNL     1      -8.684  -4.343 -16.251  1.00  0.00     0.200 A 
ATOM     70  F   UNL     1      -8.310  -6.250 -14.910  1.00  0.00    -0.200 F 
ATOM     71  F   UNL     1      -9.911  -4.786 -16.562  1.00  0.00    -0.200 F 
ENDBRANCH  47  61
BRANCH  48  72
ATOM     72  C   UNL     1       2.951  -0.215 -12.948  1.00  0.00     0.064 A 
ATOM     73  C   UNL     1       3.861   0.320 -13.870  1.00  0.00     0.173 A 
ATOM     74  C   UNL     1       3.362  -0.323 -11.611  1.00  0.00     0.173 A 
ATOM     75  F   UNL     1       3.522   0.421 -15.163  1.00  0.00    -0.203 F 
ATOM     76  C   UNL     1       5.137   0.717 -13.474  1.00  0.00     0.198 A 
ATOM     77  C   UNL     1       4.628   0.099 -11.211  1.00  0.00     0.198 A 
ATOM     78  F   UNL     1       2.527  -0.826 -10.690  1.00  0.00    -0.203 F 
ATOM     79  F   UNL     1       6.002   1.186 -14.383  1.00  0.00    -0.200 F 
ATOM     80  C   UNL     1       5.517   0.612 -12.144  1.00  0.00     0.200 A 
ATOM     81  F   UNL     1       4.987   0.008  -9.924  1.00  0.00    -0.200 F 
ATOM     82  F   UNL     1       6.743   0.998 -11.763  1.00  0.00    -0.200 F 
ENDBRANCH  48  72
BRANCH  60  83
ATOM     83  C   UNL     1       0.653  -5.532 -16.812  1.00  0.00     0.064 A 
ATOM     84  C   UNL     1       1.225  -6.598 -16.103  1.00  0.00     0.173 A 
ATOM     85  C   UNL     1       0.722  -5.560 -18.213  1.00  0.00     0.173 A 
ATOM     86  F   UNL     1       1.202  -6.606 -14.762  1.00  0.00    -0.203 F 
ATOM     87  C   UNL     1       1.855  -7.644 -16.771  1.00  0.00     0.198 A 
ATOM     88  C   UNL     1       1.329  -6.621 -18.878  1.00  0.00     0.198 A 
ATOM     89  F   UNL     1       0.187  -4.565 -18.936  1.00  0.00    -0.203 F 
ATOM     90  F   UNL     1       2.430  -8.633 -16.073  1.00  0.00    -0.200 F 
ATOM     91  C   UNL     1       1.899  -7.659 -18.158  1.00  0.00     0.200 A 
ATOM     92  F   UNL     1       1.361  -6.639 -20.218  1.00  0.00    -0.200 F 
ATOM     93  F   UNL     1       2.498  -8.672 -18.799  1.00  0.00    -0.200 F 
ENDBRANCH  60  83
ENDBRANCH  34  35
ENDBRANCH  26  29
ENDBRANCH  24  25
ENDBRANCH  23  24
ENDBRANCH  22  23
ENDBRANCH   1  22
TORSDOF 17
