REMARK SMILES Cc1c(CC(=O)NCCCCNC(=O)c2ccc(-c3c4nc(c(-c5c(F)c(F)c(F)c(F)c5F)c5ccc([nH]5)c(-c5c(F)c(F)c(F)c(F)c5F)c5nc(c(-c6c(F)c(F)c(F)c(F)c6F)c6ccc3[nH]6)C=C5)C=C4)cc2)cc(-c2ccccc2)cc1-c1ccccc1
REMARK SMILES IDX 9 1 8 2 7 3 5 4 6 5 4 7 3 8 1 9 2 10 87 11 78 12 86 13 79 14
REMARK SMILES IDX 88 15 89 16 93 17 90 18 92 19 91 20 80 21 81 22 85 23 82 24
REMARK SMILES IDX 84 25 83 26 10 27 11 28 12 29 13 30 14 32 15 33 16 34 77 35
REMARK SMILES IDX 17 36 76 37 18 38 19 39 20 40 70 41 21 42 75 43 69 44 71 45
REMARK SMILES IDX 22 46 74 47 68 48 67 49 23 51 55 52 35 53 54 54 36 55 39 56
REMARK SMILES IDX 53 57 72 58 37 59 38 60 52 62 73 63 40 64 24 65 25 66 33 67
REMARK SMILES IDX 26 68 27 69 31 70 34 71 28 72 29 73 32 74 30 75 56 76 57 77
REMARK SMILES IDX 65 78 58 79 59 80 63 81 66 82 60 83 61 84 64 85 62 86 41 87
REMARK SMILES IDX 42 88 50 89 43 90 44 91 48 92 51 93 45 94 46 95 49 96 47 97
REMARK H PARENT 7 6 12 31 71 50 39 61
REMARK Flexibility Score: inf
ROOT
ATOM      1  C   UNL     1       0.449  -0.434   3.228  1.00  0.00     0.023 C 
ENDROOT
BRANCH   1   2
ATOM      2  C   UNL     1       1.449  -1.541   2.861  1.00  0.00     0.116 C 
BRANCH   2   3
ATOM      3  N   UNL     1       0.816  -2.785   2.460  1.00  0.00    -0.356 N 
ATOM      4  C   UNL     1       0.582  -3.284   1.209  1.00  0.00     0.224 C 
ATOM      5  O   UNL     1       0.044  -4.391   1.125  1.00  0.00    -0.275 OA
ATOM      6  H   UNL     1       0.509  -3.355   3.201  1.00  0.00     0.163 HD
BRANCH   4   7
ATOM      7  C   UNL     1       1.014  -2.524  -0.041  1.00  0.00     0.135 C 
BRANCH   7   8
ATOM      8  C   UNL     1       0.340  -1.175  -0.198  1.00  0.00    -0.035 A 
ATOM      9  C   UNL     1       2.553   0.068  -0.422  1.00  0.00     0.045 C 
ATOM     10  C   UNL     1       1.046   0.052  -0.287  1.00  0.00    -0.040 A 
ATOM     11  C   UNL     1       0.313   1.270  -0.293  1.00  0.00    -0.015 A 
ATOM     12  C   UNL     1      -1.071  -1.168  -0.202  1.00  0.00     0.013 A 
ATOM     13  C   UNL     1      -1.098   1.224  -0.258  1.00  0.00     0.017 A 
ATOM     14  C   UNL     1      -1.808   0.019  -0.227  1.00  0.00    -0.017 A 
BRANCH  11  15
ATOM     15  C   UNL     1       0.961   2.596  -0.275  1.00  0.00    -0.018 A 
ATOM     16  C   UNL     1       0.827   3.435   0.846  1.00  0.00     0.009 A 
ATOM     17  C   UNL     1       1.728   3.053  -1.357  1.00  0.00     0.009 A 
ATOM     18  C   UNL     1       1.451   4.684   0.889  1.00  0.00     0.001 A 
ATOM     19  C   UNL     1       2.364   4.296  -1.309  1.00  0.00     0.001 A 
ATOM     20  C   UNL     1       2.225   5.111  -0.187  1.00  0.00     0.000 A 
ENDBRANCH  11  15
BRANCH  14  21
ATOM     21  C   UNL     1      -3.279  -0.005  -0.206  1.00  0.00    -0.018 A 
ATOM     22  C   UNL     1      -3.982  -0.682   0.806  1.00  0.00     0.009 A 
ATOM     23  C   UNL     1      -4.021   0.630  -1.214  1.00  0.00     0.009 A 
ATOM     24  C   UNL     1      -5.378  -0.728   0.805  1.00  0.00     0.001 A 
ATOM     25  C   UNL     1      -5.418   0.583  -1.218  1.00  0.00     0.001 A 
ATOM     26  C   UNL     1      -6.095  -0.098  -0.209  1.00  0.00     0.000 A 
ENDBRANCH  14  21
ENDBRANCH   7   8
ENDBRANCH   4   7
ENDBRANCH   2   3
ENDBRANCH   1   2
BRANCH   1  27
ATOM     27  C   UNL     1      -0.419  -0.713   4.456  1.00  0.00     0.023 C 
BRANCH  27  28
ATOM     28  C   UNL     1       0.361  -0.760   5.760  1.00  0.00     0.116 C 
BRANCH  28  29
ATOM     29  N   UNL     1       0.583   0.526   6.403  1.00  0.00    -0.352 N 
ATOM     30  C   UNL     1       1.405   0.856   7.472  1.00  0.00     0.251 C 
ATOM     31  H   UNL     1       0.073   1.276   6.022  1.00  0.00     0.163 HD
ATOM     32  O   UNL     1       1.344   1.976   7.954  1.00  0.00    -0.269 OA
BRANCH  30  33
ATOM     33  C   UNL     1       2.457  -0.091   7.938  1.00  0.00     0.039 A 
ATOM     34  C   UNL     1       3.703   0.436   8.308  1.00  0.00     0.014 A 
ATOM     35  C   UNL     1       2.307  -1.468   7.823  1.00  0.00     0.014 A 
ATOM     36  C   UNL     1       4.832  -0.385   8.298  1.00  0.00     0.010 A 
ATOM     37  C   UNL     1       3.430  -2.253   7.677  1.00  0.00     0.010 A 
ATOM     38  C   UNL     1       4.699  -1.700   7.857  1.00  0.00    -0.014 A 
BRANCH  38  39
ATOM     39  C   UNL     1       5.816  -2.530   7.428  1.00  0.00     0.031 A 
ATOM     40  C   UNL     1       6.234  -3.713   8.210  1.00  0.00     0.074 A 
ATOM     41  C   UNL     1       6.381  -2.295   6.221  1.00  0.00     0.049 A 
ATOM     42  N   UNL     1       7.426  -4.208   8.176  1.00  0.00    -0.248 NA
ATOM     43  C   UNL     1       5.340  -4.431   9.113  1.00  0.00     0.031 C 
ATOM     44  C   UNL     1       7.252  -3.194   5.468  1.00  0.00     0.029 A 
ATOM     45  N   UNL     1       6.394  -1.099   5.485  1.00  0.00    -0.354 N 
ATOM     46  C   UNL     1       7.389  -5.428   8.810  1.00  0.00     0.074 A 
ATOM     47  C   UNL     1       6.087  -5.493   9.432  1.00  0.00     0.031 C 
ATOM     48  C   UNL     1       7.929  -2.482   4.554  1.00  0.00     0.029 A 
ATOM     49  C   UNL     1       7.627  -1.083   4.793  1.00  0.00     0.049 A 
ATOM     50  H   UNL     1       5.689  -0.413   5.456  1.00  0.00     0.167 HD
ATOM     51  C   UNL     1       8.404  -6.318   8.623  1.00  0.00     0.037 A 
ATOM     52  C   UNL     1       8.563  -0.115   5.014  1.00  0.00     0.037 A 
ATOM     53  C   UNL     1       9.406  -5.797   7.701  1.00  0.00     0.049 A 
ATOM     54  C   UNL     1       9.894  -0.645   5.485  1.00  0.00     0.074 A 
ATOM     55  C   UNL     1       9.586  -5.979   6.340  1.00  0.00     0.029 A 
ATOM     56  N   UNL     1      10.200  -4.718   8.066  1.00  0.00    -0.354 N 
ATOM     57  N   UNL     1      10.048  -1.810   6.046  1.00  0.00    -0.248 NA
ATOM     58  C   UNL     1      11.144   0.104   5.398  1.00  0.00     0.031 C 
ATOM     59  C   UNL     1      10.487  -4.994   5.879  1.00  0.00     0.029 A 
ATOM     60  C   UNL     1      10.860  -4.217   6.961  1.00  0.00     0.049 A 
ATOM     61  H   UNL     1      10.281  -4.361   8.980  1.00  0.00     0.167 HD
ATOM     62  C   UNL     1      11.358  -1.969   6.416  1.00  0.00     0.074 A 
ATOM     63  C   UNL     1      12.008  -0.751   5.974  1.00  0.00     0.031 C 
ATOM     64  C   UNL     1      11.779  -3.095   7.066  1.00  0.00     0.037 A 
BRANCH  51  65
ATOM     65  C   UNL     1       8.319  -7.771   9.026  1.00  0.00     0.064 A 
ATOM     66  C   UNL     1       8.916  -8.784   8.243  1.00  0.00     0.173 A 
ATOM     67  C   UNL     1       7.628  -8.230  10.161  1.00  0.00     0.173 A 
ATOM     68  F   UNL     1       9.697  -8.495   7.194  1.00  0.00    -0.203 F 
ATOM     69  C   UNL     1       8.728 -10.143   8.503  1.00  0.00     0.198 A 
ATOM     70  C   UNL     1       7.396  -9.590  10.394  1.00  0.00     0.198 A 
ATOM     71  F   UNL     1       7.186  -7.373  11.093  1.00  0.00    -0.203 F 
ATOM     72  F   UNL     1       9.307 -11.057   7.712  1.00  0.00    -0.200 F 
ATOM     73  C   UNL     1       7.935 -10.546   9.556  1.00  0.00     0.200 A 
ATOM     74  F   UNL     1       6.641  -9.967  11.436  1.00  0.00    -0.200 F 
ATOM     75  F   UNL     1       7.710 -11.848   9.775  1.00  0.00    -0.200 F 
ENDBRANCH  51  65
BRANCH  52  76
ATOM     76  C   UNL     1       7.975   1.181   5.437  1.00  0.00     0.064 A 
ATOM     77  C   UNL     1       7.192   1.892   4.509  1.00  0.00     0.173 A 
ATOM     78  C   UNL     1       7.835   1.505   6.792  1.00  0.00     0.173 A 
ATOM     79  F   UNL     1       7.288   1.613   3.199  1.00  0.00    -0.203 F 
ATOM     80  C   UNL     1       6.224   2.802   4.929  1.00  0.00     0.198 A 
ATOM     81  C   UNL     1       6.869   2.423   7.207  1.00  0.00     0.198 A 
ATOM     82  F   UNL     1       8.540   0.847   7.723  1.00  0.00    -0.203 F 
ATOM     83  F   UNL     1       5.418   3.382   4.029  1.00  0.00    -0.200 F 
ATOM     84  C   UNL     1       6.043   3.043   6.280  1.00  0.00     0.200 A 
ATOM     85  F   UNL     1       6.671   2.634   8.516  1.00  0.00    -0.200 F 
ATOM     86  F   UNL     1       5.047   3.840   6.692  1.00  0.00    -0.200 F 
ENDBRANCH  52  76
BRANCH  64  87
ATOM     87  C   UNL     1      13.108  -3.306   7.754  1.00  0.00     0.064 A 
ATOM     88  C   UNL     1      13.910  -2.268   8.256  1.00  0.00     0.173 A 
ATOM     89  C   UNL     1      13.552  -4.617   8.065  1.00  0.00     0.173 A 
ATOM     90  F   UNL     1      13.547  -0.985   8.137  1.00  0.00    -0.203 F 
ATOM     91  C   UNL     1      15.092  -2.519   8.960  1.00  0.00     0.198 A 
ATOM     92  C   UNL     1      14.700  -4.863   8.818  1.00  0.00     0.198 A 
ATOM     93  F   UNL     1      12.871  -5.704   7.674  1.00  0.00    -0.203 F 
ATOM     94  F   UNL     1      15.842  -1.492   9.382  1.00  0.00    -0.200 F 
ATOM     95  C   UNL     1      15.480  -3.814   9.252  1.00  0.00     0.200 A 
ATOM     96  F   UNL     1      15.029  -6.123   9.137  1.00  0.00    -0.200 F 
ATOM     97  F   UNL     1      16.587  -4.047   9.968  1.00  0.00    -0.200 F 
ENDBRANCH  64  87
ENDBRANCH  38  39
ENDBRANCH  30  33
ENDBRANCH  28  29
ENDBRANCH  27  28
ENDBRANCH   1  27
TORSDOF 14
