REMARK SMILES CC(C)[C@@H]1CCCN1C(=O)N1CCO[C@H](CC(=O)NCCCCNC(=O)c2ccc(-c3c4nc(c(-c5c(F)c(F)c(F)c(F)c5F)c5ccc([nH]5)c(-c5c(F)c(F)c(F)c(F)c5F)c5nc(c(-c6c(F)c(F)c(F)c(F)c6F)c6ccc3[nH]6)C=C5)C=C4)cc2)C1
REMARK SMILES IDX 20 1 19 2 17 3 18 4 16 6 15 7 11 8 12 9 90 10 13 11 14 12
REMARK SMILES IDX 9 13 10 14 8 15 4 16 5 17 6 18 7 19 2 20 1 21 3 22 21 23
REMARK SMILES IDX 22 24 23 25 24 26 25 27 26 29 27 30 28 31 89 32 29 33 88 34
REMARK SMILES IDX 30 35 31 36 32 37 82 38 33 39 87 40 81 41 83 42 34 43 86 44
REMARK SMILES IDX 80 45 79 46 35 48 67 49 47 50 66 51 48 52 51 53 65 54 84 55
REMARK SMILES IDX 49 56 50 57 64 59 85 60 52 61 36 62 37 63 45 64 38 65 39 66
REMARK SMILES IDX 43 67 46 68 40 69 41 70 44 71 42 72 68 73 69 74 77 75 70 76
REMARK SMILES IDX 71 77 75 78 78 79 72 80 73 81 76 82 74 83 53 84 54 85 62 86
REMARK SMILES IDX 55 87 56 88 60 89 63 90 57 91 58 92 61 93 59 94
REMARK H PARENT 19 5 24 28 83 47 51 58
REMARK Flexibility Score: inf
ROOT
ATOM      1  C   UNL     1       2.932  -0.893  -2.344  1.00  0.00     0.116 C 
ENDROOT
BRANCH   1   2
ATOM      2  N   UNL     1       2.708  -1.649  -3.561  1.00  0.00    -0.356 N 
ATOM      3  C   UNL     1       1.816  -2.638  -3.845  1.00  0.00     0.222 C 
ATOM      4  O   UNL     1       1.840  -3.145  -4.967  1.00  0.00    -0.275 OA
ATOM      5  H   UNL     1       3.301  -1.407  -4.308  1.00  0.00     0.163 HD
BRANCH   3   6
ATOM      6  C   UNL     1       0.788  -3.053  -2.825  1.00  0.00     0.133 C 
BRANCH   6   7
ATOM      7  C   UNL     1       0.967  -4.510  -2.393  1.00  0.00     0.147 C 
ATOM      8  N   UNL     1      -0.093  -4.283  -0.180  1.00  0.00    -0.320 N 
ATOM      9  C   UNL     1       1.161  -4.629   0.476  1.00  0.00     0.150 C 
ATOM     10  C   UNL     1      -0.204  -4.928  -1.486  1.00  0.00     0.154 C 
ATOM     11  C   UNL     1       2.337  -4.240  -0.414  1.00  0.00     0.182 C 
ATOM     12  O   UNL     1       2.232  -4.766  -1.743  1.00  0.00    -0.374 OA
BRANCH   8  13
ATOM     13  C   UNL     1      -1.223  -4.274   0.603  1.00  0.00     0.320 C 
ATOM     14  O   UNL     1      -1.732  -5.322   0.994  1.00  0.00    -0.248 OA
BRANCH  13  15
ATOM     15  N   UNL     1      -1.760  -3.032   0.866  1.00  0.00    -0.321 N 
ATOM     16  C   UNL     1      -1.324  -1.695   0.421  1.00  0.00     0.089 C 
ATOM     17  C   UNL     1      -2.414  -0.755   0.969  1.00  0.00     0.027 C 
ATOM     18  C   UNL     1      -3.649  -1.636   1.012  1.00  0.00     0.024 C 
ATOM     19  C   UNL     1      -3.082  -2.969   1.468  1.00  0.00     0.122 C 
BRANCH  16  20
ATOM     20  C   UNL     1       0.101  -1.246   0.825  1.00  0.00     0.005 C 
ATOM     21  C   UNL     1       0.389   0.187   0.358  1.00  0.00     0.009 C 
ATOM     22  C   UNL     1       0.409  -1.373   2.318  1.00  0.00     0.009 C 
ENDBRANCH  16  20
ENDBRANCH  13  15
ENDBRANCH   8  13
ENDBRANCH   6   7
ENDBRANCH   3   6
ENDBRANCH   1   2
BRANCH   1  23
ATOM     23  C   UNL     1       4.247  -1.292  -1.671  1.00  0.00     0.023 C 
BRANCH  23  24
ATOM     24  C   UNL     1       5.189  -0.113  -1.440  1.00  0.00     0.023 C 
BRANCH  24  25
ATOM     25  C   UNL     1       4.634   0.975  -0.529  1.00  0.00     0.116 C 
BRANCH  25  26
ATOM     26  N   UNL     1       4.448   0.556   0.853  1.00  0.00    -0.352 N 
ATOM     27  C   UNL     1       4.569   1.341   1.980  1.00  0.00     0.251 C 
ATOM     28  H   UNL     1       4.209  -0.388   0.998  1.00  0.00     0.163 HD
ATOM     29  O   UNL     1       4.428   0.874   3.105  1.00  0.00    -0.269 OA
BRANCH  27  30
ATOM     30  C   UNL     1       4.933   2.760   1.797  1.00  0.00     0.039 A 
ATOM     31  C   UNL     1       6.150   3.215   2.308  1.00  0.00     0.014 A 
ATOM     32  C   UNL     1       4.144   3.578   0.984  1.00  0.00     0.014 A 
ATOM     33  C   UNL     1       6.629   4.468   1.919  1.00  0.00     0.010 A 
ATOM     34  C   UNL     1       4.653   4.797   0.549  1.00  0.00     0.010 A 
ATOM     35  C   UNL     1       5.909   5.242   0.993  1.00  0.00    -0.014 A 
BRANCH  35  36
ATOM     36  C   UNL     1       6.465   6.502   0.440  1.00  0.00     0.031 A 
ATOM     37  C   UNL     1       5.776   7.807   0.711  1.00  0.00     0.074 A 
ATOM     38  C   UNL     1       7.526   6.457  -0.390  1.00  0.00     0.049 A 
ATOM     39  N   UNL     1       6.024   8.993   0.218  1.00  0.00    -0.248 NA
ATOM     40  C   UNL     1       4.631   7.765   1.633  1.00  0.00     0.031 C 
ATOM     41  C   UNL     1       8.248   5.245  -0.780  1.00  0.00     0.029 A 
ATOM     42  N   UNL     1       8.170   7.460  -1.073  1.00  0.00    -0.354 N 
ATOM     43  C   UNL     1       5.052   9.831   0.746  1.00  0.00     0.074 A 
ATOM     44  C   UNL     1       4.186   9.011   1.567  1.00  0.00     0.031 C 
ATOM     45  C   UNL     1       9.243   5.575  -1.619  1.00  0.00     0.029 A 
ATOM     46  C   UNL     1       9.212   7.016  -1.851  1.00  0.00     0.049 A 
ATOM     47  H   UNL     1       7.910   8.407  -1.010  1.00  0.00     0.167 HD
ATOM     48  C   UNL     1       4.905  11.165   0.575  1.00  0.00     0.037 A 
ATOM     49  C   UNL     1      10.043   7.696  -2.664  1.00  0.00     0.037 A 
ATOM     50  C   UNL     1       5.792  11.986  -0.205  1.00  0.00     0.049 A 
ATOM     51  C   UNL     1       9.885   9.185  -2.801  1.00  0.00     0.074 A 
ATOM     52  C   UNL     1       5.765  13.358  -0.383  1.00  0.00     0.029 A 
ATOM     53  N   UNL     1       6.872  11.508  -0.931  1.00  0.00    -0.354 N 
ATOM     54  N   UNL     1       8.997   9.975  -2.250  1.00  0.00    -0.248 NA
ATOM     55  C   UNL     1      10.850   9.878  -3.668  1.00  0.00     0.031 C 
ATOM     56  C   UNL     1       6.817  13.709  -1.237  1.00  0.00     0.029 A 
ATOM     57  C   UNL     1       7.517  12.558  -1.564  1.00  0.00     0.049 A 
ATOM     58  H   UNL     1       7.142  10.563  -0.987  1.00  0.00     0.167 HD
ATOM     59  C   UNL     1       9.310  11.258  -2.679  1.00  0.00     0.074 A 
ATOM     60  C   UNL     1      10.475  11.142  -3.531  1.00  0.00     0.031 C 
ATOM     61  C   UNL     1       8.687  12.426  -2.392  1.00  0.00     0.037 A 
BRANCH  48  62
ATOM     62  C   UNL     1       3.741  11.821   1.253  1.00  0.00     0.064 A 
ATOM     63  C   UNL     1       3.712  12.005   2.644  1.00  0.00     0.173 A 
ATOM     64  C   UNL     1       2.651  12.289   0.504  1.00  0.00     0.173 A 
ATOM     65  F   UNL     1       4.724  11.561   3.404  1.00  0.00    -0.203 F 
ATOM     66  C   UNL     1       2.621  12.608   3.263  1.00  0.00     0.198 A 
ATOM     67  C   UNL     1       1.573  12.915   1.125  1.00  0.00     0.198 A 
ATOM     68  F   UNL     1       2.631  12.138  -0.828  1.00  0.00    -0.203 F 
ATOM     69  F   UNL     1       2.594  12.729   4.597  1.00  0.00    -0.200 F 
ATOM     70  C   UNL     1       1.556  13.067   2.503  1.00  0.00     0.200 A 
ATOM     71  F   UNL     1       0.547  13.365   0.389  1.00  0.00    -0.200 F 
ATOM     72  F   UNL     1       0.506  13.648   3.101  1.00  0.00    -0.200 F 
ENDBRANCH  48  62
BRANCH  49  73
ATOM     73  C   UNL     1      11.123   6.979  -3.388  1.00  0.00     0.064 A 
ATOM     74  C   UNL     1      12.461   7.120  -2.997  1.00  0.00     0.173 A 
ATOM     75  C   UNL     1      10.845   6.144  -4.479  1.00  0.00     0.173 A 
ATOM     76  F   UNL     1      12.776   7.925  -1.971  1.00  0.00    -0.203 F 
ATOM     77  C   UNL     1      13.484   6.468  -3.682  1.00  0.00     0.198 A 
ATOM     78  C   UNL     1      11.867   5.475  -5.150  1.00  0.00     0.198 A 
ATOM     79  F   UNL     1       9.579   5.973  -4.888  1.00  0.00    -0.203 F 
ATOM     80  F   UNL     1      14.759   6.652  -3.311  1.00  0.00    -0.200 F 
ATOM     81  C   UNL     1      13.186   5.643  -4.755  1.00  0.00     0.200 A 
ATOM     82  F   UNL     1      11.574   4.670  -6.181  1.00  0.00    -0.200 F 
ATOM     83  F   UNL     1      14.169   5.014  -5.413  1.00  0.00    -0.200 F 
ENDBRANCH  49  73
BRANCH  61  84
ATOM     84  C   UNL     1       9.273  13.678  -2.970  1.00  0.00     0.064 A 
ATOM     85  C   UNL     1       9.103  14.010  -4.321  1.00  0.00     0.173 A 
ATOM     86  C   UNL     1       9.967  14.579  -2.149  1.00  0.00     0.173 A 
ATOM     87  F   UNL     1       8.459  13.172  -5.147  1.00  0.00    -0.203 F 
ATOM     88  C   UNL     1       9.620  15.197  -4.834  1.00  0.00     0.198 A 
ATOM     89  C   UNL     1      10.464  15.774  -2.660  1.00  0.00     0.198 A 
ATOM     90  F   UNL     1      10.151  14.304  -0.849  1.00  0.00    -0.203 F 
ATOM     91  F   UNL     1       9.475  15.482  -6.135  1.00  0.00    -0.200 F 
ATOM     92  C   UNL     1      10.293  16.080  -4.002  1.00  0.00     0.200 A 
ATOM     93  F   UNL     1      11.106  16.630  -1.854  1.00  0.00    -0.200 F 
ATOM     94  F   UNL     1      10.783  17.226  -4.496  1.00  0.00    -0.200 F 
ENDBRANCH  61  84
ENDBRANCH  35  36
ENDBRANCH  27  30
ENDBRANCH  25  26
ENDBRANCH  24  25
ENDBRANCH  23  24
ENDBRANCH   1  23
TORSDOF 15
