REMARK SMILES CN1C(=O)/C(=N\Nc2cccc(C(=O)NCCCCNC(=O)c3ccc(-c4c5nc(c(-c6c(F)c(F)c(F)c(F)c6F)c6ccc([nH]6)c(-c6c(F)c(F)c(F)c(F)c6F)c6nc(c(-c7c(F)c(F)c(F)c(F)c7F)c7ccc4[nH]7)C=C6)C=C5)cc3)c2)c2ccccc21
REMARK SMILES IDX 17 1 16 2 15 3 13 4 14 5 12 7 8 8 9 9 86 10 10 11 11 12 7 13
REMARK SMILES IDX 6 15 1 16 2 17 3 18 92 19 4 20 5 21 87 22 91 23 88 24 90 25
REMARK SMILES IDX 89 26 18 27 19 28 20 29 21 30 22 32 23 33 24 34 85 35 25 36
REMARK SMILES IDX 84 37 26 38 27 39 28 40 78 41 29 42 83 43 77 44 79 45 30 46
REMARK SMILES IDX 82 47 76 48 75 49 31 51 63 52 43 53 62 54 44 55 47 56 61 57
REMARK SMILES IDX 80 58 45 59 46 60 60 62 81 63 48 64 32 65 33 66 41 67 34 68
REMARK SMILES IDX 35 69 39 70 42 71 36 72 37 73 40 74 38 75 64 76 65 77 73 78
REMARK SMILES IDX 66 79 67 80 71 81 74 82 68 83 69 84 72 85 70 86 49 87 50 88
REMARK SMILES IDX 58 89 51 90 52 91 56 92 59 93 53 94 54 95 57 96 55 97
REMARK H PARENT 15 6 7 14 20 31 79 50 47 61
REMARK Flexibility Score: inf
ROOT
ATOM      1  C   UNL     1      -1.882  -0.259  -3.859  1.00  0.00     0.023 C 
ENDROOT
BRANCH   1   2
ATOM      2  C   UNL     1      -2.132   0.852  -2.838  1.00  0.00     0.116 C 
BRANCH   2   3
ATOM      3  N   UNL     1      -3.497   1.322  -2.919  1.00  0.00    -0.352 N 
ATOM      4  C   UNL     1      -4.652   0.937  -2.286  1.00  0.00     0.251 C 
ATOM      5  O   UNL     1      -5.678   1.538  -2.612  1.00  0.00    -0.269 OA
ATOM      6  H   UNL     1      -3.622   2.065  -3.553  1.00  0.00     0.163 HD
BRANCH   4   7
ATOM      7  C   UNL     1      -4.728  -0.098  -1.209  1.00  0.00     0.041 A 
ATOM      8  C   UNL     1      -3.824  -1.876   0.202  1.00  0.00     0.057 A 
ATOM      9  C   UNL     1      -4.971  -1.816   1.001  1.00  0.00     0.028 A 
ATOM     10  C   UNL     1      -3.758  -1.071  -0.945  1.00  0.00     0.041 A 
ATOM     11  C   UNL     1      -5.991  -0.914   0.709  1.00  0.00     0.003 A 
ATOM     12  C   UNL     1      -5.855  -0.044  -0.372  1.00  0.00     0.014 A 
BRANCH   8  13
ATOM     13  N   UNL     1      -2.706  -2.583   0.691  1.00  0.00    -0.278 N 
ATOM     14  H   UNL     1      -2.878  -3.334   1.305  1.00  0.00     0.190 HD
BRANCH  13  15
ATOM     15  N   UNL     1      -1.414  -2.312   0.383  1.00  0.00    -0.169 NA
ATOM     16  C   UNL     1      -1.037   2.598   0.743  1.00  0.00     0.153 C 
ATOM     17  N   UNL     1      -0.720   1.197   0.684  1.00  0.00    -0.309 N 
ATOM     18  C   UNL     1      -1.596   0.189   1.070  1.00  0.00     0.279 C 
ATOM     19  C   UNL     1       0.492   0.658   0.236  1.00  0.00     0.053 A 
ATOM     20  O   UNL     1      -2.630   0.308   1.683  1.00  0.00    -0.267 OA
ATOM     21  C   UNL     1      -0.934  -1.118   0.572  1.00  0.00     0.158 C 
ATOM     22  C   UNL     1       0.432  -0.735   0.206  1.00  0.00     0.031 A 
ATOM     23  C   UNL     1       1.659   1.320  -0.100  1.00  0.00     0.027 A 
ATOM     24  C   UNL     1       1.517  -1.521  -0.131  1.00  0.00     0.013 A 
ATOM     25  C   UNL     1       2.778   0.545  -0.426  1.00  0.00     0.002 A 
ATOM     26  C   UNL     1       2.710  -0.862  -0.436  1.00  0.00     0.001 A 
ENDBRANCH  13  15
ENDBRANCH   8  13
ENDBRANCH   4   7
ENDBRANCH   2   3
ENDBRANCH   1   2
BRANCH   1  27
ATOM     27  C   UNL     1      -1.570   0.257  -5.268  1.00  0.00     0.023 C 
BRANCH  27  28
ATOM     28  C   UNL     1      -0.272   1.050  -5.380  1.00  0.00     0.116 C 
BRANCH  28  29
ATOM     29  N   UNL     1       0.898   0.302  -4.950  1.00  0.00    -0.352 N 
ATOM     30  C   UNL     1       2.203   0.455  -5.344  1.00  0.00     0.251 C 
ATOM     31  H   UNL     1       0.732  -0.408  -4.289  1.00  0.00     0.163 HD
ATOM     32  O   UNL     1       3.064  -0.326  -4.953  1.00  0.00    -0.269 OA
BRANCH  30  33
ATOM     33  C   UNL     1       2.566   1.547  -6.270  1.00  0.00     0.039 A 
ATOM     34  C   UNL     1       3.381   1.250  -7.365  1.00  0.00     0.014 A 
ATOM     35  C   UNL     1       2.125   2.856  -6.055  1.00  0.00     0.014 A 
ATOM     36  C   UNL     1       3.728   2.259  -8.264  1.00  0.00     0.010 A 
ATOM     37  C   UNL     1       2.419   3.849  -6.986  1.00  0.00     0.010 A 
ATOM     38  C   UNL     1       3.238   3.563  -8.088  1.00  0.00    -0.014 A 
BRANCH  38  39
ATOM     39  C   UNL     1       3.623   4.649  -9.021  1.00  0.00     0.031 A 
ATOM     40  C   UNL     1       4.500   5.771  -8.539  1.00  0.00     0.074 A 
ATOM     41  C   UNL     1       3.160   4.643 -10.285  1.00  0.00     0.049 A 
ATOM     42  N   UNL     1       4.923   6.829  -9.184  1.00  0.00    -0.248 NA
ATOM     43  C   UNL     1       4.941   5.709  -7.136  1.00  0.00     0.031 C 
ATOM     44  C   UNL     1       2.260   3.638 -10.852  1.00  0.00     0.029 A 
ATOM     45  N   UNL     1       3.382   5.515 -11.320  1.00  0.00    -0.354 N 
ATOM     46  C   UNL     1       5.668   7.557  -8.267  1.00  0.00     0.074 A 
ATOM     47  C   UNL     1       5.594   6.854  -7.005  1.00  0.00     0.031 C 
ATOM     48  C   UNL     1       2.019   3.941 -12.139  1.00  0.00     0.029 A 
ATOM     49  C   UNL     1       2.734   5.168 -12.480  1.00  0.00     0.049 A 
ATOM     50  H   UNL     1       3.951   6.314 -11.239  1.00  0.00     0.167 HD
ATOM     51  C   UNL     1       6.376   8.694  -8.465  1.00  0.00     0.037 A 
ATOM     52  C   UNL     1       2.726   5.773 -13.683  1.00  0.00     0.037 A 
ATOM     53  C   UNL     1       6.474   9.377  -9.727  1.00  0.00     0.049 A 
ATOM     54  C   UNL     1       3.554   7.013 -13.885  1.00  0.00     0.074 A 
ATOM     55  C   UNL     1       7.183  10.524 -10.038  1.00  0.00     0.029 A 
ATOM     56  N   UNL     1       5.848   8.964 -10.893  1.00  0.00    -0.354 N 
ATOM     57  N   UNL     1       4.294   7.665 -13.022  1.00  0.00    -0.248 NA
ATOM     58  C   UNL     1       3.558   7.591 -15.237  1.00  0.00     0.031 C 
ATOM     59  C   UNL     1       6.972  10.815 -11.391  1.00  0.00     0.029 A 
ATOM     60  C   UNL     1       6.158   9.830 -11.928  1.00  0.00     0.049 A 
ATOM     61  H   UNL     1       5.269   8.172 -10.974  1.00  0.00     0.167 HD
ATOM     62  C   UNL     1       4.871   8.711 -13.729  1.00  0.00     0.074 A 
ATOM     63  C   UNL     1       4.412   8.595 -15.097  1.00  0.00     0.031 C 
ATOM     64  C   UNL     1       5.702   9.685 -13.285  1.00  0.00     0.037 A 
BRANCH  51  65
ATOM     65  C   UNL     1       7.122   9.255  -7.291  1.00  0.00     0.064 A 
ATOM     66  C   UNL     1       8.272   8.625  -6.791  1.00  0.00     0.173 A 
ATOM     67  C   UNL     1       6.707  10.447  -6.679  1.00  0.00     0.173 A 
ATOM     68  F   UNL     1       8.699   7.474  -7.332  1.00  0.00    -0.203 F 
ATOM     69  C   UNL     1       8.965   9.155  -5.706  1.00  0.00     0.198 A 
ATOM     70  C   UNL     1       7.417  10.988  -5.611  1.00  0.00     0.198 A 
ATOM     71  F   UNL     1       5.614  11.088  -7.120  1.00  0.00    -0.203 F 
ATOM     72  F   UNL     1      10.033   8.511  -5.217  1.00  0.00    -0.200 F 
ATOM     73  C   UNL     1       8.541  10.338  -5.122  1.00  0.00     0.200 A 
ATOM     74  F   UNL     1       7.012  12.136  -5.051  1.00  0.00    -0.200 F 
ATOM     75  F   UNL     1       9.212  10.850  -4.080  1.00  0.00    -0.200 F 
ENDBRANCH  51  65
BRANCH  52  76
ATOM     76  C   UNL     1       1.938   5.197 -14.802  1.00  0.00     0.064 A 
ATOM     77  C   UNL     1       2.575   4.596 -15.897  1.00  0.00     0.173 A 
ATOM     78  C   UNL     1       0.538   5.260 -14.815  1.00  0.00     0.173 A 
ATOM     79  F   UNL     1       3.915   4.531 -15.937  1.00  0.00    -0.203 F 
ATOM     80  C   UNL     1       1.844   4.108 -16.977  1.00  0.00     0.198 A 
ATOM     81  C   UNL     1      -0.195   4.747 -15.884  1.00  0.00     0.198 A 
ATOM     82  F   UNL     1      -0.119   5.819 -13.789  1.00  0.00    -0.203 F 
ATOM     83  F   UNL     1       2.481   3.587 -18.034  1.00  0.00    -0.200 F 
ATOM     84  C   UNL     1       0.459   4.181 -16.968  1.00  0.00     0.200 A 
ATOM     85  F   UNL     1      -1.533   4.810 -15.868  1.00  0.00    -0.200 F 
ATOM     86  F   UNL     1      -0.244   3.717 -18.010  1.00  0.00    -0.200 F 
ENDBRANCH  52  76
BRANCH  64  87
ATOM     87  C   UNL     1       6.191  10.677 -14.297  1.00  0.00     0.064 A 
ATOM     88  C   UNL     1       5.349  11.670 -14.818  1.00  0.00     0.173 A 
ATOM     89  C   UNL     1       7.524  10.647 -14.733  1.00  0.00     0.173 A 
ATOM     90  F   UNL     1       4.063  11.729 -14.442  1.00  0.00    -0.203 F 
ATOM     91  C   UNL     1       5.816  12.580 -15.761  1.00  0.00     0.198 A 
ATOM     92  C   UNL     1       7.995  11.575 -15.657  1.00  0.00     0.198 A 
ATOM     93  F   UNL     1       8.370   9.720 -14.259  1.00  0.00    -0.203 F 
ATOM     94  F   UNL     1       4.982  13.490 -16.282  1.00  0.00    -0.200 F 
ATOM     95  C   UNL     1       7.139  12.535 -16.176  1.00  0.00     0.200 A 
ATOM     96  F   UNL     1       9.276  11.537 -16.050  1.00  0.00    -0.200 F 
ATOM     97  F   UNL     1       7.587  13.412 -17.085  1.00  0.00    -0.200 F 
ENDBRANCH  64  87
ENDBRANCH  38  39
ENDBRANCH  30  33
ENDBRANCH  28  29
ENDBRANCH  27  28
ENDBRANCH   1  27
TORSDOF 13
