REMARK SMILES CCC[NH2+][C@]1(C(=O)NCCCCNC(=O)c2ccc(-c3c4nc(c(-c5c(F)c(F)c(F)c(F)c5F)c5ccc([nH]5)c(-c5c(F)c(F)c(F)c(F)c5F)c5nc(c(-c6c(F)c(F)c(F)c(F)c6F)c6ccc3[nH]6)C=C5)C=C4)cc2)CCC[C@H](Sc2nnc(C)o2)C1
REMARK SMILES IDX 10 1 9 2 8 3 6 4 7 5 5 7 79 8 90 9 80 10 82 11 81 12 4 13
REMARK SMILES IDX 3 16 2 17 1 18 83 19 84 20 85 21 89 22 86 23 87 24 88 25
REMARK SMILES IDX 11 26 12 27 13 28 14 29 15 31 16 32 17 33 78 34 18 35 77 36
REMARK SMILES IDX 19 37 20 38 21 39 71 40 22 41 76 42 70 43 72 44 23 45 75 46
REMARK SMILES IDX 69 47 68 48 24 50 56 51 36 52 55 53 37 54 40 55 54 56 73 57
REMARK SMILES IDX 38 58 39 59 53 61 74 62 41 63 25 64 26 65 34 66 27 67 28 68
REMARK SMILES IDX 32 69 35 70 29 71 30 72 33 73 31 74 57 75 58 76 66 77 59 78
REMARK SMILES IDX 60 79 64 80 67 81 61 82 62 83 65 84 63 85 42 86 43 87 51 88
REMARK SMILES IDX 44 89 45 90 49 91 52 92 46 93 47 94 50 95 48 96
REMARK H PARENT 8 6 4 14 4 15 13 30 72 49 40 60
REMARK Flexibility Score: inf
ROOT
ATOM      1  C   UNL     1      -0.209  -4.314   0.454  1.00  0.00     0.023 C 
ENDROOT
BRANCH   1   2
ATOM      2  C   UNL     1      -0.990  -3.634  -0.672  1.00  0.00     0.116 C 
BRANCH   2   3
ATOM      3  N   UNL     1      -0.345  -2.398  -1.060  1.00  0.00    -0.351 N 
ATOM      4  C   UNL     1       0.684  -2.121  -1.902  1.00  0.00     0.281 C 
ATOM      5  O   UNL     1       1.276  -1.062  -1.638  1.00  0.00    -0.268 OA
ATOM      6  H   UNL     1      -0.728  -1.600  -0.629  1.00  0.00     0.163 HD
BRANCH   4   7
ATOM      7  C   UNL     1       1.044  -2.927  -3.211  1.00  0.00     0.176 C 
ATOM      8  C   UNL     1       2.593  -2.909  -3.334  1.00  0.00     0.079 C 
ATOM      9  C   UNL     1       0.598  -4.413  -3.255  1.00  0.00     0.094 C 
ATOM     10  C   UNL     1       3.135  -3.689  -4.529  1.00  0.00     0.008 C 
ATOM     11  C   UNL     1       1.153  -5.285  -4.407  1.00  0.00     0.063 C 
ATOM     12  C   UNL     1       2.672  -5.141  -4.506  1.00  0.00     0.015 C 
BRANCH   7  13
ATOM     13  N   UNL     1       0.372  -2.258  -4.356  1.00  0.00    -0.334 N 
ATOM     14  H   UNL     1       0.636  -2.765  -5.200  1.00  0.00     0.347 HD
ATOM     15  H   UNL     1      -0.620  -2.281  -4.118  1.00  0.00     0.347 HD
BRANCH  13  16
ATOM     16  C   UNL     1       0.659  -0.847  -4.589  1.00  0.00     0.261 C 
BRANCH  16  17
ATOM     17  C   UNL     1       0.171  -0.427  -5.983  1.00  0.00     0.058 C 
ATOM     18  C   UNL     1      -1.329  -0.583  -6.191  1.00  0.00     0.010 C 
ENDBRANCH  16  17
ENDBRANCH  13  16
ENDBRANCH   7  13
BRANCH  11  19
ATOM     19  S   UNL     1       0.281  -4.905  -5.973  1.00  0.00    -0.062 SA
BRANCH  19  20
ATOM     20  C   UNL     1       0.666  -6.243  -6.995  1.00  0.00     0.276 A 
ATOM     21  N   UNL     1       1.271  -7.356  -6.633  1.00  0.00    -0.101 NA
ATOM     22  O   UNL     1       0.324  -6.246  -8.321  1.00  0.00    -0.416 OA
ATOM     23  N   UNL     1       1.352  -8.148  -7.764  1.00  0.00    -0.112 NA
ATOM     24  C   UNL     1       0.784  -7.462  -8.732  1.00  0.00     0.214 A 
ATOM     25  C   UNL     1       0.582  -7.809 -10.148  1.00  0.00     0.113 C 
ENDBRANCH  19  20
ENDBRANCH  11  19
ENDBRANCH   4   7
ENDBRANCH   2   3
ENDBRANCH   1   2
BRANCH   1  26
ATOM     26  C   UNL     1      -0.540  -3.776   1.849  1.00  0.00     0.023 C 
BRANCH  26  27
ATOM     27  C   UNL     1      -2.004  -3.906   2.260  1.00  0.00     0.116 C 
BRANCH  27  28
ATOM     28  N   UNL     1      -2.529  -5.259   2.137  1.00  0.00    -0.352 N 
ATOM     29  C   UNL     1      -3.547  -5.839   2.857  1.00  0.00     0.251 C 
ATOM     30  H   UNL     1      -2.103  -5.828   1.456  1.00  0.00     0.163 HD
ATOM     31  O   UNL     1      -3.842  -7.016   2.704  1.00  0.00    -0.269 OA
BRANCH  29  32
ATOM     32  C   UNL     1      -4.244  -5.017   3.862  1.00  0.00     0.039 A 
ATOM     33  C   UNL     1      -4.232  -5.433   5.194  1.00  0.00     0.014 A 
ATOM     34  C   UNL     1      -4.814  -3.796   3.494  1.00  0.00     0.014 A 
ATOM     35  C   UNL     1      -4.721  -4.577   6.181  1.00  0.00     0.010 A 
ATOM     36  C   UNL     1      -5.248  -2.922   4.483  1.00  0.00     0.010 A 
ATOM     37  C   UNL     1      -5.188  -3.299   5.835  1.00  0.00    -0.014 A 
BRANCH  37  38
ATOM     38  C   UNL     1      -5.587  -2.318   6.872  1.00  0.00     0.031 A 
ATOM     39  C   UNL     1      -7.013  -1.864   6.963  1.00  0.00     0.074 A 
ATOM     40  C   UNL     1      -4.643  -1.770   7.661  1.00  0.00     0.049 A 
ATOM     41  N   UNL     1      -7.537  -0.933   7.718  1.00  0.00    -0.248 NA
ATOM     42  C   UNL     1      -7.972  -2.523   6.063  1.00  0.00     0.031 C 
ATOM     43  C   UNL     1      -3.216  -2.095   7.626  1.00  0.00     0.029 A 
ATOM     44  N   UNL     1      -4.740  -0.806   8.633  1.00  0.00    -0.354 N 
ATOM     45  C   UNL     1      -8.879  -0.880   7.370  1.00  0.00     0.074 A 
ATOM     46  C   UNL     1      -9.082  -1.842   6.309  1.00  0.00     0.031 C 
ATOM     47  C   UNL     1      -2.573  -1.353   8.541  1.00  0.00     0.029 A 
ATOM     48  C   UNL     1      -3.534  -0.475   9.201  1.00  0.00     0.049 A 
ATOM     49  H   UNL     1      -5.593  -0.391   8.898  1.00  0.00     0.167 HD
ATOM     50  C   UNL     1      -9.855  -0.110   7.904  1.00  0.00     0.037 A 
ATOM     51  C   UNL     1      -3.239   0.443  10.141  1.00  0.00     0.037 A 
ATOM     52  C   UNL     1      -9.654   0.819   8.984  1.00  0.00     0.049 A 
ATOM     53  C   UNL     1      -4.344   1.280  10.722  1.00  0.00     0.074 A 
ATOM     54  C   UNL     1     -10.594   1.582   9.652  1.00  0.00     0.029 A 
ATOM     55  N   UNL     1      -8.423   1.109   9.554  1.00  0.00    -0.354 N 
ATOM     56  N   UNL     1      -5.623   1.271  10.437  1.00  0.00    -0.248 NA
ATOM     57  C   UNL     1      -3.966   2.255  11.754  1.00  0.00     0.031 C 
ATOM     58  C   UNL     1      -9.927   2.362  10.603  1.00  0.00     0.029 A 
ATOM     59  C   UNL     1      -8.576   2.058  10.551  1.00  0.00     0.049 A 
ATOM     60  H   UNL     1      -7.567   0.701   9.289  1.00  0.00     0.167 HD
ATOM     61  C   UNL     1      -6.205   2.220  11.265  1.00  0.00     0.074 A 
ATOM     62  C   UNL     1      -5.141   2.778  12.073  1.00  0.00     0.031 C 
ATOM     63  C   UNL     1      -7.504   2.598  11.346  1.00  0.00     0.037 A 
BRANCH  50  64
ATOM     64  C   UNL     1     -11.234  -0.246   7.332  1.00  0.00     0.064 A 
ATOM     65  C   UNL     1     -12.016  -1.386   7.567  1.00  0.00     0.173 A 
ATOM     66  C   UNL     1     -11.793   0.790   6.569  1.00  0.00     0.173 A 
ATOM     67  F   UNL     1     -11.521  -2.409   8.280  1.00  0.00    -0.203 F 
ATOM     68  C   UNL     1     -13.299  -1.496   7.037  1.00  0.00     0.198 A 
ATOM     69  C   UNL     1     -13.085   0.688   6.062  1.00  0.00     0.198 A 
ATOM     70  F   UNL     1     -11.087   1.903   6.318  1.00  0.00    -0.203 F 
ATOM     71  F   UNL     1     -14.011  -2.613   7.237  1.00  0.00    -0.200 F 
ATOM     72  C   UNL     1     -13.834  -0.457   6.290  1.00  0.00     0.200 A 
ATOM     73  F   UNL     1     -13.606   1.696   5.348  1.00  0.00    -0.200 F 
ATOM     74  F   UNL     1     -15.071  -0.562   5.785  1.00  0.00    -0.200 F 
ENDBRANCH  50  64
BRANCH  51  75
ATOM     75  C   UNL     1      -1.837   0.607  10.601  1.00  0.00     0.064 A 
ATOM     76  C   UNL     1      -1.448   0.180  11.879  1.00  0.00     0.173 A 
ATOM     77  C   UNL     1      -0.860   1.188   9.780  1.00  0.00     0.173 A 
ATOM     78  F   UNL     1      -2.352  -0.363  12.706  1.00  0.00    -0.203 F 
ATOM     79  C   UNL     1      -0.138   0.344  12.323  1.00  0.00     0.198 A 
ATOM     80  C   UNL     1       0.455   1.330  10.217  1.00  0.00     0.198 A 
ATOM     81  F   UNL     1      -1.182   1.608   8.548  1.00  0.00    -0.203 F 
ATOM     82  F   UNL     1       0.199  -0.037  13.563  1.00  0.00    -0.200 F 
ATOM     83  C   UNL     1       0.814   0.914  11.491  1.00  0.00     0.200 A 
ATOM     84  F   UNL     1       1.374   1.871   9.406  1.00  0.00    -0.200 F 
ATOM     85  F   UNL     1       2.075   1.068  11.918  1.00  0.00    -0.200 F 
ENDBRANCH  51  75
BRANCH  63  86
ATOM     86  C   UNL     1      -7.851   3.650  12.355  1.00  0.00     0.064 A 
ATOM     87  C   UNL     1      -7.538   4.999  12.139  1.00  0.00     0.173 A 
ATOM     88  C   UNL     1      -8.550   3.312  13.523  1.00  0.00     0.173 A 
ATOM     89  F   UNL     1      -6.855   5.367  11.044  1.00  0.00    -0.203 F 
ATOM     90  C   UNL     1      -7.902   5.973  13.064  1.00  0.00     0.198 A 
ATOM     91  C   UNL     1      -8.933   4.292  14.435  1.00  0.00     0.198 A 
ATOM     92  F   UNL     1      -8.875   2.035  13.771  1.00  0.00    -0.203 F 
ATOM     93  F   UNL     1      -7.564   7.253  12.855  1.00  0.00    -0.200 F 
ATOM     94  C   UNL     1      -8.605   5.620  14.207  1.00  0.00     0.200 A 
ATOM     95  F   UNL     1      -9.621   3.951  15.533  1.00  0.00    -0.200 F 
ATOM     96  F   UNL     1      -8.964   6.561  15.091  1.00  0.00    -0.200 F 
ENDBRANCH  63  86
ENDBRANCH  37  38
ENDBRANCH  29  32
ENDBRANCH  27  28
ENDBRANCH  26  27
ENDBRANCH   1  26
TORSDOF 16
