REMARK SMILES C[C@](C(=O)NCCCCNC(=O)c1ccc(-c2c3nc(c(-c4c(F)c(F)c(F)c(F)c4F)c4ccc([nH]4)c(-c4c(F)c(F)c(F)c(F)c4F)c4nc(c(-c5c(F)c(F)c(F)c(F)c5F)c5ccc2[nH]5)C=C4)C=C3)cc1)(c1cc(F)cc(F)c1)[NH+]1CCCC1
REMARK SMILES IDX 8 1 7 2 6 3 5 4 3 5 4 6 2 8 1 9 76 10 77 11 83 12 78 13
REMARK SMILES IDX 81 14 79 15 80 16 82 17 84 18 85 19 88 20 86 22 87 23 9 24
REMARK SMILES IDX 10 25 11 26 12 28 13 29 14 30 75 31 15 32 74 33 16 34 17 35
REMARK SMILES IDX 18 36 68 37 19 38 73 39 67 40 69 41 20 42 72 43 66 44 65 45
REMARK SMILES IDX 21 47 53 48 33 49 52 50 34 51 37 52 51 53 70 54 35 55 36 56
REMARK SMILES IDX 50 58 71 59 38 60 22 61 23 62 31 63 24 64 25 65 29 66 32 67
REMARK SMILES IDX 26 68 27 69 30 70 28 71 54 72 55 73 63 74 56 75 57 76 61 77
REMARK SMILES IDX 64 78 58 79 59 80 62 81 60 82 39 83 40 84 48 85 41 86 42 87
REMARK SMILES IDX 46 88 49 89 43 90 44 91 47 92 45 93
REMARK H PARENT 5 7 84 21 10 27 69 46 37 57
REMARK Flexibility Score: inf
ROOT
ATOM      1  C   UNL     1      -2.319  -1.085   3.150  1.00  0.00     0.023 C 
ENDROOT
BRANCH   1   2
ATOM      2  C   UNL     1      -2.231  -0.340   1.823  1.00  0.00     0.023 C 
BRANCH   2   3
ATOM      3  C   UNL     1      -0.878   0.332   1.612  1.00  0.00     0.116 C 
BRANCH   3   4
ATOM      4  N   UNL     1       0.070  -0.598   1.027  1.00  0.00    -0.350 N 
ATOM      5  C   UNL     1       0.664  -0.552  -0.212  1.00  0.00     0.286 C 
ATOM      6  O   UNL     1       1.446  -1.466  -0.494  1.00  0.00    -0.267 OA
ATOM      7  H   UNL     1       0.322  -1.363   1.593  1.00  0.00     0.163 HD
BRANCH   5   8
ATOM      8  C   UNL     1       0.368   0.664  -1.208  1.00  0.00     0.200 C 
ATOM      9  C   UNL     1       1.122   0.411  -2.531  1.00  0.00     0.096 C 
BRANCH   8  10
ATOM     10  C   UNL     1      -1.163   0.638  -1.520  1.00  0.00     0.028 A 
ATOM     11  C   UNL     1      -1.990   1.774  -1.432  1.00  0.00     0.050 A 
ATOM     12  C   UNL     1      -1.803  -0.592  -1.792  1.00  0.00     0.050 A 
ATOM     13  C   UNL     1      -3.377   1.670  -1.550  1.00  0.00     0.126 A 
ATOM     14  C   UNL     1      -3.195  -0.676  -1.880  1.00  0.00     0.126 A 
ATOM     15  F   UNL     1      -4.127   2.772  -1.413  1.00  0.00    -0.207 F 
ATOM     16  C   UNL     1      -3.993   0.448  -1.752  1.00  0.00     0.078 A 
ATOM     17  F   UNL     1      -3.771  -1.875  -2.036  1.00  0.00    -0.207 F 
ENDBRANCH   8  10
BRANCH   8  18
ATOM     18  N   UNL     1       0.821   1.917  -0.520  1.00  0.00    -0.319 N 
ATOM     19  C   UNL     1       2.057   1.810   0.273  1.00  0.00     0.263 C 
ATOM     20  C   UNL     1       1.067   3.117  -1.323  1.00  0.00     0.263 C 
ATOM     21  H   UNL     1      -0.025   2.023   0.040  1.00  0.00     0.349 HD
ATOM     22  C   UNL     1       2.130   3.213   0.849  1.00  0.00     0.067 C 
ATOM     23  C   UNL     1       1.569   4.096  -0.260  1.00  0.00     0.067 C 
ENDBRANCH   8  18
ENDBRANCH   5   8
ENDBRANCH   3   4
ENDBRANCH   2   3
ENDBRANCH   1   2
BRANCH   1  24
ATOM     24  C   UNL     1      -2.261  -0.175   4.371  1.00  0.00     0.116 C 
BRANCH  24  25
ATOM     25  N   UNL     1      -3.368   0.769   4.434  1.00  0.00    -0.352 N 
ATOM     26  C   UNL     1      -4.144   1.097   5.524  1.00  0.00     0.251 C 
ATOM     27  H   UNL     1      -3.590   1.230   3.592  1.00  0.00     0.163 HD
ATOM     28  O   UNL     1      -5.116   1.821   5.422  1.00  0.00    -0.269 OA
BRANCH  26  29
ATOM     29  C   UNL     1      -3.779   0.502   6.825  1.00  0.00     0.039 A 
ATOM     30  C   UNL     1      -4.713  -0.297   7.484  1.00  0.00     0.014 A 
ATOM     31  C   UNL     1      -2.475   0.637   7.306  1.00  0.00     0.014 A 
ATOM     32  C   UNL     1      -4.307  -1.046   8.589  1.00  0.00     0.010 A 
ATOM     33  C   UNL     1      -2.056  -0.162   8.362  1.00  0.00     0.010 A 
ATOM     34  C   UNL     1      -2.964  -1.024   9.000  1.00  0.00    -0.014 A 
BRANCH  34  35
ATOM     35  C   UNL     1      -2.465  -1.924  10.068  1.00  0.00     0.031 A 
ATOM     36  C   UNL     1      -1.910  -1.341  11.334  1.00  0.00     0.074 A 
ATOM     37  C   UNL     1      -2.408  -3.252   9.843  1.00  0.00     0.049 A 
ATOM     38  N   UNL     1      -1.298  -1.943  12.321  1.00  0.00    -0.248 NA
ATOM     39  C   UNL     1      -2.029   0.117  11.499  1.00  0.00     0.031 C 
ATOM     40  C   UNL     1      -2.862  -3.927   8.626  1.00  0.00     0.029 A 
ATOM     41  N   UNL     1      -1.914  -4.271  10.620  1.00  0.00    -0.354 N 
ATOM     42  C   UNL     1      -0.936  -0.938  13.207  1.00  0.00     0.074 A 
ATOM     43  C   UNL     1      -1.364   0.316  12.628  1.00  0.00     0.031 C 
ATOM     44  C   UNL     1      -2.627  -5.245   8.737  1.00  0.00     0.029 A 
ATOM     45  C   UNL     1      -1.968  -5.503  10.013  1.00  0.00     0.049 A 
ATOM     46  H   UNL     1      -1.554  -4.132  11.526  1.00  0.00     0.167 HD
ATOM     47  C   UNL     1      -0.315  -1.058  14.403  1.00  0.00     0.037 A 
ATOM     48  C   UNL     1      -1.513  -6.701  10.429  1.00  0.00     0.037 A 
ATOM     49  C   UNL     1       0.062  -2.313  14.995  1.00  0.00     0.049 A 
ATOM     50  C   UNL     1      -0.834  -6.801  11.769  1.00  0.00     0.074 A 
ATOM     51  C   UNL     1       0.585  -2.547  16.254  1.00  0.00     0.029 A 
ATOM     52  N   UNL     1      -0.039  -3.544  14.366  1.00  0.00    -0.354 N 
ATOM     53  N   UNL     1      -0.587  -5.857  12.643  1.00  0.00    -0.248 NA
ATOM     54  C   UNL     1      -0.367  -8.134  12.179  1.00  0.00     0.031 C 
ATOM     55  C   UNL     1       0.849  -3.915  16.369  1.00  0.00     0.029 A 
ATOM     56  C   UNL     1       0.450  -4.538  15.197  1.00  0.00     0.049 A 
ATOM     57  H   UNL     1      -0.403  -3.690  13.463  1.00  0.00     0.167 HD
ATOM     58  C   UNL     1       0.044  -6.480  13.710  1.00  0.00     0.074 A 
ATOM     59  C   UNL     1       0.126  -7.888  13.385  1.00  0.00     0.031 C 
ATOM     60  C   UNL     1       0.520  -5.934  14.856  1.00  0.00     0.037 A 
BRANCH  47  61
ATOM     61  C   UNL     1      -0.006   0.195  15.165  1.00  0.00     0.064 A 
ATOM     62  C   UNL     1      -1.012   0.937  15.800  1.00  0.00     0.173 A 
ATOM     63  C   UNL     1       1.323   0.614  15.325  1.00  0.00     0.173 A 
ATOM     64  F   UNL     1      -2.299   0.583  15.666  1.00  0.00    -0.203 F 
ATOM     65  C   UNL     1      -0.699   2.062  16.559  1.00  0.00     0.198 A 
ATOM     66  C   UNL     1       1.634   1.723  16.106  1.00  0.00     0.198 A 
ATOM     67  F   UNL     1       2.321  -0.065  14.740  1.00  0.00    -0.203 F 
ATOM     68  F   UNL     1      -1.679   2.773  17.134  1.00  0.00    -0.200 F 
ATOM     69  C   UNL     1       0.623   2.447  16.720  1.00  0.00     0.200 A 
ATOM     70  F   UNL     1       2.913   2.088  16.270  1.00  0.00    -0.200 F 
ATOM     71  F   UNL     1       0.924   3.519  17.466  1.00  0.00    -0.200 F 
ENDBRANCH  47  61
BRANCH  48  72
ATOM     72  C   UNL     1      -1.666  -7.902   9.566  1.00  0.00     0.064 A 
ATOM     73  C   UNL     1      -2.521  -8.950   9.933  1.00  0.00     0.173 A 
ATOM     74  C   UNL     1      -0.936  -8.042   8.376  1.00  0.00     0.173 A 
ATOM     75  F   UNL     1      -3.222  -8.873  11.074  1.00  0.00    -0.203 F 
ATOM     76  C   UNL     1      -2.620 -10.104   9.157  1.00  0.00     0.198 A 
ATOM     77  C   UNL     1      -1.059  -9.183   7.586  1.00  0.00     0.198 A 
ATOM     78  F   UNL     1      -0.106  -7.067   7.978  1.00  0.00    -0.203 F 
ATOM     79  F   UNL     1      -3.403 -11.114   9.561  1.00  0.00    -0.200 F 
ATOM     80  C   UNL     1      -1.892 -10.218   7.983  1.00  0.00     0.200 A 
ATOM     81  F   UNL     1      -0.362  -9.284   6.446  1.00  0.00    -0.200 F 
ATOM     82  F   UNL     1      -1.984 -11.329   7.240  1.00  0.00    -0.200 F 
ENDBRANCH  48  72
BRANCH  60  83
ATOM     83  C   UNL     1       1.158  -6.861  15.847  1.00  0.00     0.064 A 
ATOM     84  C   UNL     1       2.430  -7.406  15.622  1.00  0.00     0.173 A 
ATOM     85  C   UNL     1       0.516  -7.160  17.058  1.00  0.00     0.173 A 
ATOM     86  F   UNL     1       3.075  -7.162  14.471  1.00  0.00    -0.203 F 
ATOM     87  C   UNL     1       3.030  -8.231  16.569  1.00  0.00     0.198 A 
ATOM     88  C   UNL     1       1.132  -7.963  18.014  1.00  0.00     0.198 A 
ATOM     89  F   UNL     1      -0.699  -6.658  17.322  1.00  0.00    -0.203 F 
ATOM     90  F   UNL     1       4.231  -8.772  16.317  1.00  0.00    -0.200 F 
ATOM     91  C   UNL     1       2.386  -8.501  17.767  1.00  0.00     0.200 A 
ATOM     92  F   UNL     1       0.513  -8.211  19.177  1.00  0.00    -0.200 F 
ATOM     93  F   UNL     1       2.972  -9.284  18.682  1.00  0.00    -0.200 F 
ENDBRANCH  60  83
ENDBRANCH  34  35
ENDBRANCH  26  29
ENDBRANCH  24  25
ENDBRANCH   1  24
TORSDOF 13
