REMARK SMILES C[C@@H](C(=O)NCCCCNC(=O)c1ccc(-c2c3nc(c(-c4c(F)c(F)c(F)c(F)c4F)c4ccc([nH]4)c(-c4c(F)c(F)c(F)c(F)c4F)c4nc(c(-c5c(F)c(F)c(F)c(F)c5F)c5ccc2[nH]5)C=C4)C=C3)cc1)c1ccc(C[C@@H]2CCC[C@@H]2O)cc1F
REMARK SMILES IDX 6 1 5 2 3 3 4 4 2 6 1 7 76 8 77 9 88 10 78 11 87 12 89 13
REMARK SMILES IDX 79 14 80 15 81 16 82 17 85 18 83 19 84 20 86 21 7 23 8 24
REMARK SMILES IDX 9 25 10 26 11 27 12 29 13 30 14 31 75 32 15 33 74 34 16 35
REMARK SMILES IDX 17 36 18 37 68 38 19 39 73 40 67 41 69 42 20 43 72 44 66 45
REMARK SMILES IDX 65 46 21 48 53 49 33 50 52 51 34 52 37 53 51 54 70 55 35 56
REMARK SMILES IDX 36 57 50 59 71 60 38 61 22 62 23 63 31 64 24 65 25 66 29 67
REMARK SMILES IDX 32 68 26 69 27 70 30 71 28 72 54 73 55 74 63 75 56 76 57 77
REMARK SMILES IDX 61 78 64 79 58 80 59 81 62 82 60 83 39 84 40 85 48 86 41 87
REMARK SMILES IDX 42 88 46 89 49 90 43 91 44 92 47 93 45 94
REMARK H PARENT 5 5 86 22 10 28 69 47 37 58
REMARK Flexibility Score: inf
ROOT
ATOM      1  C   UNL     1     -10.879   5.014   9.440  1.00  0.00     0.116 C 
ENDROOT
BRANCH   1   2
ATOM      2  N   UNL     1     -10.682   3.644   9.006  1.00  0.00    -0.356 N 
ATOM      3  C   UNL     1     -10.536   3.139   7.744  1.00  0.00     0.227 C 
ATOM      4  O   UNL     1     -10.695   1.923   7.622  1.00  0.00    -0.274 OA
ATOM      5  H   UNL     1     -10.647   2.978   9.730  1.00  0.00     0.163 HD
BRANCH   3   6
ATOM      6  C   UNL     1     -10.187   4.081   6.576  1.00  0.00     0.108 C 
ATOM      7  C   UNL     1     -11.482   4.768   6.124  1.00  0.00     0.023 C 
BRANCH   6   8
ATOM      8  C   UNL     1      -9.426   3.424   5.419  1.00  0.00    -0.000 A 
ATOM      9  C   UNL     1      -8.628   2.283   5.607  1.00  0.00     0.008 A 
ATOM     10  C   UNL     1      -9.438   3.973   4.128  1.00  0.00     0.127 A 
ATOM     11  C   UNL     1      -7.950   1.678   4.541  1.00  0.00     0.004 A 
ATOM     12  C   UNL     1      -8.753   3.387   3.066  1.00  0.00     0.043 A 
ATOM     13  F   UNL     1     -10.097   5.110   3.868  1.00  0.00    -0.207 F 
ATOM     14  C   UNL     1      -7.995   2.231   3.260  1.00  0.00    -0.045 A 
BRANCH  14  15
ATOM     15  C   UNL     1      -7.235   1.627   2.107  1.00  0.00     0.041 C 
BRANCH  15  16
ATOM     16  C   UNL     1      -5.723   1.920   2.004  1.00  0.00     0.022 C 
ATOM     17  C   UNL     1      -4.875   1.312   3.126  1.00  0.00     0.007 C 
ATOM     18  C   UNL     1      -5.286   3.389   2.009  1.00  0.00     0.117 C 
ATOM     19  C   UNL     1      -4.591   2.438   4.123  1.00  0.00     0.003 C 
ATOM     20  C   UNL     1      -5.079   3.731   3.479  1.00  0.00     0.032 C 
BRANCH  18  21
ATOM     21  O   UNL     1      -6.207   4.248   1.370  1.00  0.00    -0.393 OA
ATOM     22  H   UNL     1      -7.066   4.193   1.818  1.00  0.00     0.210 HD
ENDBRANCH  18  21
ENDBRANCH  15  16
ENDBRANCH  14  15
ENDBRANCH   6   8
ENDBRANCH   3   6
ENDBRANCH   1   2
BRANCH   1  23
ATOM     23  C   UNL     1     -12.362   5.301   9.707  1.00  0.00     0.023 C 
BRANCH  23  24
ATOM     24  C   UNL     1     -12.996   4.447  10.804  1.00  0.00     0.023 C 
BRANCH  24  25
ATOM     25  C   UNL     1     -12.377   4.621  12.181  1.00  0.00     0.116 C 
BRANCH  25  26
ATOM     26  N   UNL     1     -12.506   5.980  12.687  1.00  0.00    -0.352 N 
ATOM     27  C   UNL     1     -12.850   6.388  13.953  1.00  0.00     0.251 C 
ATOM     28  H   UNL     1     -12.323   6.698  12.039  1.00  0.00     0.163 HD
ATOM     29  O   UNL     1     -13.045   7.572  14.203  1.00  0.00    -0.269 OA
BRANCH  27  30
ATOM     30  C   UNL     1     -13.015   5.368  15.006  1.00  0.00     0.039 A 
ATOM     31  C   UNL     1     -14.196   5.344  15.752  1.00  0.00     0.014 A 
ATOM     32  C   UNL     1     -12.025   4.403  15.204  1.00  0.00     0.014 A 
ATOM     33  C   UNL     1     -14.419   4.302  16.652  1.00  0.00     0.010 A 
ATOM     34  C   UNL     1     -12.278   3.330  16.048  1.00  0.00     0.010 A 
ATOM     35  C   UNL     1     -13.478   3.268  16.777  1.00  0.00    -0.014 A 
BRANCH  35  36
ATOM     36  C   UNL     1     -13.700   2.104  17.668  1.00  0.00     0.031 A 
ATOM     37  C   UNL     1     -12.772   1.876  18.824  1.00  0.00     0.074 A 
ATOM     38  C   UNL     1     -14.644   1.195  17.362  1.00  0.00     0.049 A 
ATOM     39  N   UNL     1     -12.654   0.830  19.600  1.00  0.00    -0.248 NA
ATOM     40  C   UNL     1     -11.819   2.957  19.118  1.00  0.00     0.031 C 
ATOM     41  C   UNL     1     -15.576   1.286  16.239  1.00  0.00     0.029 A 
ATOM     42  N   UNL     1     -14.950  -0.005  17.955  1.00  0.00    -0.354 N 
ATOM     43  C   UNL     1     -11.588   1.110  20.444  1.00  0.00     0.074 A 
ATOM     44  C   UNL     1     -11.072   2.407  20.063  1.00  0.00     0.031 C 
ATOM     45  C   UNL     1     -16.349   0.188  16.221  1.00  0.00     0.029 A 
ATOM     46  C   UNL     1     -15.938  -0.701  17.304  1.00  0.00     0.049 A 
ATOM     47  H   UNL     1     -14.504  -0.334  18.768  1.00  0.00     0.167 HD
ATOM     48  C   UNL     1     -11.094   0.355  21.454  1.00  0.00     0.037 A 
ATOM     49  C   UNL     1     -16.440  -1.928  17.542  1.00  0.00     0.037 A 
ATOM     50  C   UNL     1     -11.640  -0.913  21.855  1.00  0.00     0.049 A 
ATOM     51  C   UNL     1     -15.899  -2.734  18.689  1.00  0.00     0.074 A 
ATOM     52  C   UNL     1     -11.264  -1.720  22.913  1.00  0.00     0.029 A 
ATOM     53  N   UNL     1     -12.687  -1.558  21.210  1.00  0.00    -0.354 N 
ATOM     54  N   UNL     1     -14.926  -2.441  19.518  1.00  0.00    -0.248 NA
ATOM     55  C   UNL     1     -16.526  -4.040  18.938  1.00  0.00     0.031 C 
ATOM     56  C   UNL     1     -12.061  -2.870  22.889  1.00  0.00     0.029 A 
ATOM     57  C   UNL     1     -12.961  -2.760  21.841  1.00  0.00     0.049 A 
ATOM     58  H   UNL     1     -13.164  -1.212  20.422  1.00  0.00     0.167 HD
ATOM     59  C   UNL     1     -14.841  -3.508  20.401  1.00  0.00     0.074 A 
ATOM     60  C   UNL     1     -15.864  -4.456  20.010  1.00  0.00     0.031 C 
ATOM     61  C   UNL     1     -13.993  -3.684  21.444  1.00  0.00     0.037 A 
BRANCH  48  62
ATOM     62  C   UNL     1      -9.895   0.886  22.184  1.00  0.00     0.064 A 
ATOM     63  C   UNL     1      -9.978   2.008  23.023  1.00  0.00     0.173 A 
ATOM     64  C   UNL     1      -8.646   0.264  22.041  1.00  0.00     0.173 A 
ATOM     65  F   UNL     1     -11.147   2.647  23.182  1.00  0.00    -0.203 F 
ATOM     66  C   UNL     1      -8.846   2.512  23.659  1.00  0.00     0.198 A 
ATOM     67  C   UNL     1      -7.523   0.752  22.703  1.00  0.00     0.198 A 
ATOM     68  F   UNL     1      -8.512  -0.814  21.255  1.00  0.00    -0.203 F 
ATOM     69  F   UNL     1      -8.938   3.622  24.404  1.00  0.00    -0.200 F 
ATOM     70  C   UNL     1      -7.621   1.882  23.502  1.00  0.00     0.200 A 
ATOM     71  F   UNL     1      -6.341   0.136  22.559  1.00  0.00    -0.200 F 
ATOM     72  F   UNL     1      -6.532   2.370  24.111  1.00  0.00    -0.200 F 
ENDBRANCH  48  62
BRANCH  49  73
ATOM     73  C   UNL     1     -17.529  -2.451  16.680  1.00  0.00     0.064 A 
ATOM     74  C   UNL     1     -18.845  -2.524  17.155  1.00  0.00     0.173 A 
ATOM     75  C   UNL     1     -17.286  -2.852  15.358  1.00  0.00     0.173 A 
ATOM     76  F   UNL     1     -19.121  -2.169  18.418  1.00  0.00    -0.203 F 
ATOM     77  C   UNL     1     -19.878  -2.985  16.342  1.00  0.00     0.198 A 
ATOM     78  C   UNL     1     -18.324  -3.292  14.539  1.00  0.00     0.198 A 
ATOM     79  F   UNL     1     -16.044  -2.794  14.857  1.00  0.00    -0.203 F 
ATOM     80  F   UNL     1     -21.124  -3.070  16.828  1.00  0.00    -0.200 F 
ATOM     81  C   UNL     1     -19.618  -3.361  15.032  1.00  0.00     0.200 A 
ATOM     82  F   UNL     1     -18.071  -3.642  13.270  1.00  0.00    -0.200 F 
ATOM     83  F   UNL     1     -20.614  -3.792  14.247  1.00  0.00    -0.200 F 
ENDBRANCH  49  73
BRANCH  61  84
ATOM     84  C   UNL     1     -14.158  -4.926  22.266  1.00  0.00     0.064 A 
ATOM     85  C   UNL     1     -13.726  -6.177  21.804  1.00  0.00     0.173 A 
ATOM     86  C   UNL     1     -14.694  -4.850  23.561  1.00  0.00     0.173 A 
ATOM     87  F   UNL     1     -13.220  -6.301  20.567  1.00  0.00    -0.203 F 
ATOM     88  C   UNL     1     -13.835  -7.310  22.605  1.00  0.00     0.198 A 
ATOM     89  C   UNL     1     -14.780  -5.980  24.367  1.00  0.00     0.198 A 
ATOM     90  F   UNL     1     -15.117  -3.674  24.049  1.00  0.00    -0.203 F 
ATOM     91  F   UNL     1     -13.442  -8.502  22.134  1.00  0.00    -0.200 F 
ATOM     92  C   UNL     1     -14.353  -7.210  23.888  1.00  0.00     0.200 A 
ATOM     93  F   UNL     1     -15.269  -5.879  25.611  1.00  0.00    -0.200 F 
ATOM     94  F   UNL     1     -14.443  -8.300  24.663  1.00  0.00    -0.200 F 
ENDBRANCH  61  84
ENDBRANCH  35  36
ENDBRANCH  27  30
ENDBRANCH  25  26
ENDBRANCH  24  25
ENDBRANCH  23  24
ENDBRANCH   1  23
TORSDOF 15
