REMARK SMILES O=C(Cn1c2ccccc2c(=O)c2ccccc21)N[C@@H](Cc1ccccc1)C(=O)NCCCCNC(=O)c1ccc(-c2c3nc(c(-c4c(F)c(F)c(F)c(F)c4F)c4ccc([nH]4)c(-c4c(F)c(F)c(F)c(F)c4F)c4nc(c(-c5c(F)c(F)c(F)c(F)c5F)c5ccc2[nH]5)C=C4)C=C3)cc1
REMARK SMILES IDX 32 1 31 2 30 3 28 4 29 5 20 7 19 8 1 9 2 10 3 12 4 13 5 14
REMARK SMILES IDX 18 15 6 16 10 17 13 18 17 19 7 20 9 21 11 22 14 23 16 24
REMARK SMILES IDX 8 25 12 26 15 27 21 28 22 29 23 30 27 31 24 32 26 33 25 34
REMARK SMILES IDX 33 35 34 36 35 37 36 38 37 40 38 41 39 42 100 43 40 44 99 45
REMARK SMILES IDX 41 46 42 47 43 48 93 49 44 50 98 51 92 52 94 53 45 54 97 55
REMARK SMILES IDX 91 56 90 57 46 59 78 60 58 61 77 62 59 63 62 64 76 65 95 66
REMARK SMILES IDX 60 67 61 68 75 70 96 71 63 72 47 73 48 74 56 75 49 76 50 77
REMARK SMILES IDX 54 78 57 79 51 80 52 81 55 82 53 83 79 84 80 85 88 86 81 87
REMARK SMILES IDX 82 88 86 89 89 90 83 91 84 92 87 93 85 94 64 95 65 96 73 97
REMARK SMILES IDX 66 98 67 99 71 100 74 101 68 102 69 103 72 104 70 105
REMARK H PARENT 30 6 19 11 35 39 94 58 62 69
REMARK Flexibility Score: inf
ROOT
ATOM      1  C   UNL     1       6.425  -2.515  -0.632  1.00  0.00     0.023 C 
ENDROOT
BRANCH   1   2
ATOM      2  C   UNL     1       5.483  -2.346  -1.811  1.00  0.00     0.116 C 
BRANCH   2   3
ATOM      3  N   UNL     1       4.259  -3.116  -1.699  1.00  0.00    -0.354 N 
ATOM      4  C   UNL     1       2.983  -2.758  -2.041  1.00  0.00     0.242 C 
ATOM      5  O   UNL     1       2.206  -3.666  -2.352  1.00  0.00    -0.273 OA
ATOM      6  H   UNL     1       4.361  -4.021  -1.326  1.00  0.00     0.163 HD
BRANCH   4   7
ATOM      7  C   UNL     1       2.543  -1.281  -2.123  1.00  0.00     0.175 C 
BRANCH   7   8
ATOM      8  N   UNL     1       3.093  -0.504  -1.006  1.00  0.00    -0.342 N 
ATOM      9  O   UNL     1       1.179   0.670  -0.578  1.00  0.00    -0.273 OA
ATOM     10  C   UNL     1       2.290   0.285  -0.217  1.00  0.00     0.240 C 
ATOM     11  H   UNL     1       4.059  -0.549  -0.817  1.00  0.00     0.164 HD
BRANCH  10  12
ATOM     12  C   UNL     1       2.877   0.691   1.141  1.00  0.00     0.222 C 
BRANCH  12  13
ATOM     13  N   UNL     1       3.708  -0.332   1.851  1.00  0.00    -0.331 N 
ATOM     14  C   UNL     1       4.802   0.150   2.629  1.00  0.00     0.053 A 
ATOM     15  C   UNL     1       3.302  -1.689   1.932  1.00  0.00     0.053 A 
ATOM     16  C   UNL     1       5.069   1.513   2.859  1.00  0.00     0.027 A 
ATOM     17  C   UNL     1       5.676  -0.763   3.253  1.00  0.00     0.046 A 
ATOM     18  C   UNL     1       4.177  -2.651   2.480  1.00  0.00     0.046 A 
ATOM     19  C   UNL     1       2.066  -2.178   1.479  1.00  0.00     0.027 A 
ATOM     20  C   UNL     1       6.151   1.934   3.649  1.00  0.00     0.002 A 
ATOM     21  C   UNL     1       6.758  -0.348   4.048  1.00  0.00     0.014 A 
ATOM     22  C   UNL     1       5.447  -2.209   3.087  1.00  0.00     0.197 A 
ATOM     23  C   UNL     1       3.891  -4.025   2.470  1.00  0.00     0.014 A 
ATOM     24  C   UNL     1       1.777  -3.551   1.452  1.00  0.00     0.002 A 
ATOM     25  C   UNL     1       6.995   1.006   4.244  1.00  0.00     0.001 A 
ATOM     26  O   UNL     1       6.287  -3.025   3.454  1.00  0.00    -0.288 OA
ATOM     27  C   UNL     1       2.695  -4.477   1.932  1.00  0.00     0.001 A 
ENDBRANCH  12  13
ENDBRANCH  10  12
ENDBRANCH   7   8
BRANCH   7  28
ATOM     28  C   UNL     1       2.669  -0.647  -3.523  1.00  0.00     0.070 C 
BRANCH  28  29
ATOM     29  C   UNL     1       4.036  -0.648  -4.165  1.00  0.00    -0.045 A 
ATOM     30  C   UNL     1       4.929   0.410  -3.949  1.00  0.00     0.004 A 
ATOM     31  C   UNL     1       4.447  -1.731  -4.959  1.00  0.00     0.004 A 
ATOM     32  C   UNL     1       6.224   0.359  -4.470  1.00  0.00     0.000 A 
ATOM     33  C   UNL     1       5.741  -1.777  -5.482  1.00  0.00     0.000 A 
ATOM     34  C   UNL     1       6.634  -0.739  -5.226  1.00  0.00     0.000 A 
ENDBRANCH  28  29
ENDBRANCH   7  28
ENDBRANCH   4   7
ENDBRANCH   2   3
ENDBRANCH   1   2
BRANCH   1  35
ATOM     35  C   UNL     1       7.092  -3.882  -0.537  1.00  0.00     0.023 C 
BRANCH  35  36
ATOM     36  C   UNL     1       7.755  -4.372  -1.819  1.00  0.00     0.116 C 
BRANCH  36  37
ATOM     37  N   UNL     1       8.673  -3.414  -2.426  1.00  0.00    -0.352 N 
ATOM     38  C   UNL     1       9.846  -3.672  -3.102  1.00  0.00     0.251 C 
ATOM     39  H   UNL     1       8.424  -2.466  -2.341  1.00  0.00     0.163 HD
ATOM     40  O   UNL     1      10.544  -2.770  -3.535  1.00  0.00    -0.269 OA
BRANCH  38  41
ATOM     41  C   UNL     1      10.262  -5.081  -3.246  1.00  0.00     0.039 A 
ATOM     42  C   UNL     1       9.376  -6.010  -3.793  1.00  0.00     0.014 A 
ATOM     43  C   UNL     1      11.483  -5.485  -2.701  1.00  0.00     0.014 A 
ATOM     44  C   UNL     1       9.630  -7.364  -3.624  1.00  0.00     0.010 A 
ATOM     45  C   UNL     1      11.770  -6.848  -2.605  1.00  0.00     0.010 A 
ATOM     46  C   UNL     1      10.815  -7.797  -3.004  1.00  0.00    -0.014 A 
BRANCH  46  47
ATOM     47  C   UNL     1      11.000  -9.247  -2.746  1.00  0.00     0.031 A 
ATOM     48  C   UNL     1      10.995  -9.784  -1.340  1.00  0.00     0.074 A 
ATOM     49  C   UNL     1      11.075 -10.091  -3.792  1.00  0.00     0.049 A 
ATOM     50  N   UNL     1      11.062 -11.028  -0.933  1.00  0.00    -0.248 NA
ATOM     51  C   UNL     1      10.902  -8.804  -0.246  1.00  0.00     0.031 C 
ATOM     52  C   UNL     1      11.073  -9.686  -5.197  1.00  0.00     0.029 A 
ATOM     53  N   UNL     1      11.122 -11.460  -3.837  1.00  0.00    -0.354 N 
ATOM     54  C   UNL     1      11.037 -10.977   0.455  1.00  0.00     0.074 A 
ATOM     55  C   UNL     1      10.973  -9.581   0.827  1.00  0.00     0.031 C 
ATOM     56  C   UNL     1      11.047 -10.783  -5.968  1.00  0.00     0.029 A 
ATOM     57  C   UNL     1      11.084 -11.965  -5.113  1.00  0.00     0.049 A 
ATOM     58  H   UNL     1      11.178 -12.026  -3.034  1.00  0.00     0.167 HD
ATOM     59  C   UNL     1      11.052 -12.004   1.337  1.00  0.00     0.037 A 
ATOM     60  C   UNL     1      11.077 -13.239  -5.547  1.00  0.00     0.037 A 
ATOM     61  C   UNL     1      11.080 -13.395   0.968  1.00  0.00     0.049 A 
ATOM     62  C   UNL     1      11.118 -14.357  -4.546  1.00  0.00     0.074 A 
ATOM     63  C   UNL     1      11.070 -14.507   1.792  1.00  0.00     0.029 A 
ATOM     64  N   UNL     1      11.114 -13.864  -0.337  1.00  0.00    -0.354 N 
ATOM     65  N   UNL     1      11.096 -14.293  -3.238  1.00  0.00    -0.248 NA
ATOM     66  C   UNL     1      11.199 -15.722  -5.082  1.00  0.00     0.031 C 
ATOM     67  C   UNL     1      11.132 -15.649   0.988  1.00  0.00     0.029 A 
ATOM     68  C   UNL     1      11.145 -15.249  -0.339  1.00  0.00     0.049 A 
ATOM     69  H   UNL     1      11.117 -13.297  -1.142  1.00  0.00     0.167 HD
ATOM     70  C   UNL     1      11.157 -15.605  -2.793  1.00  0.00     0.074 A 
ATOM     71  C   UNL     1      11.194 -16.447  -3.971  1.00  0.00     0.031 C 
ATOM     72  C   UNL     1      11.189 -16.069  -1.521  1.00  0.00     0.037 A 
BRANCH  59  73
ATOM     73  C   UNL     1      11.039 -11.673   2.800  1.00  0.00     0.064 A 
ATOM     74  C   UNL     1       9.868 -11.247   3.443  1.00  0.00     0.173 A 
ATOM     75  C   UNL     1      12.189 -11.861   3.581  1.00  0.00     0.173 A 
ATOM     76  F   UNL     1       8.746 -11.044   2.738  1.00  0.00    -0.203 F 
ATOM     77  C   UNL     1       9.852 -11.012   4.816  1.00  0.00     0.198 A 
ATOM     78  C   UNL     1      12.164 -11.645   4.956  1.00  0.00     0.198 A 
ATOM     79  F   UNL     1      13.331 -12.275   3.013  1.00  0.00    -0.203 F 
ATOM     80  F   UNL     1       8.728 -10.585   5.408  1.00  0.00    -0.200 F 
ATOM     81  C   UNL     1      10.997 -11.219   5.572  1.00  0.00     0.200 A 
ATOM     82  F   UNL     1      13.267 -11.857   5.687  1.00  0.00    -0.200 F 
ATOM     83  F   UNL     1      10.975 -11.009   6.896  1.00  0.00    -0.200 F 
ENDBRANCH  59  73
BRANCH  60  84
ATOM     84  C   UNL     1      11.010 -13.512  -7.003  1.00  0.00     0.064 A 
ATOM     85  C   UNL     1       9.844 -14.027  -7.583  1.00  0.00     0.173 A 
ATOM     86  C   UNL     1      12.092 -13.226  -7.848  1.00  0.00     0.173 A 
ATOM     87  F   UNL     1       8.790 -14.332  -6.811  1.00  0.00    -0.203 F 
ATOM     88  C   UNL     1       9.763 -14.247  -8.956  1.00  0.00     0.198 A 
ATOM     89  C   UNL     1      12.002 -13.424  -9.223  1.00  0.00     0.198 A 
ATOM     90  F   UNL     1      13.228 -12.728  -7.338  1.00  0.00    -0.203 F 
ATOM     91  F   UNL     1       8.644 -14.762  -9.485  1.00  0.00    -0.200 F 
ATOM     92  C   UNL     1      10.838 -13.937  -9.776  1.00  0.00     0.200 A 
ATOM     93  F   UNL     1      13.037 -13.109 -10.012  1.00  0.00    -0.200 F 
ATOM     94  F   UNL     1      10.754 -14.134 -11.098  1.00  0.00    -0.200 F 
ENDBRANCH  60  84
BRANCH  72  95
ATOM     95  C   UNL     1      11.273 -17.553  -1.332  1.00  0.00     0.064 A 
ATOM     96  C   UNL     1      12.478 -18.241  -1.529  1.00  0.00     0.173 A 
ATOM     97  C   UNL     1      10.159 -18.281  -0.889  1.00  0.00     0.173 A 
ATOM     98  F   UNL     1      13.565 -17.587  -1.965  1.00  0.00    -0.203 F 
ATOM     99  C   UNL     1      12.563 -19.611  -1.298  1.00  0.00     0.198 A 
ATOM    100  C   UNL     1      10.253 -19.647  -0.640  1.00  0.00     0.198 A 
ATOM    101  F   UNL     1       8.986 -17.664  -0.682  1.00  0.00    -0.203 F 
ATOM    102  F   UNL     1      13.717 -20.255  -1.518  1.00  0.00    -0.200 F 
ATOM    103  C   UNL     1      11.454 -20.311  -0.847  1.00  0.00     0.200 A 
ATOM    104  F   UNL     1       9.184 -20.321  -0.195  1.00  0.00    -0.200 F 
ATOM    105  F   UNL     1      11.540 -21.628  -0.615  1.00  0.00    -0.200 F 
ENDBRANCH  72  95
ENDBRANCH  46  47
ENDBRANCH  38  41
ENDBRANCH  36  37
ENDBRANCH  35  36
ENDBRANCH   1  35
TORSDOF 16
