REMARK SMILES O=C(NCCCCNC(=O)[C@]1([NH2+]C2CC2)CCC[C@@H](n2cc(Br)cn2)C1)c1ccc(-c2c3nc(c(-c4c(F)c(F)c(F)c(F)c4F)c4ccc([nH]4)c(-c4c(F)c(F)c(F)c(F)c4F)c4nc(c(-c5c(F)c(F)c(F)c(F)c5F)c5ccc2[nH]5)C=C4)C=C3)cc1
REMARK SMILES IDX 5 1 4 2 3 3 1 4 2 5 27 7 28 8 89 9 29 10 88 11 30 12 31 13
REMARK SMILES IDX 32 14 82 15 33 16 87 17 81 18 83 19 34 20 86 21 80 22 79 23
REMARK SMILES IDX 35 25 67 26 47 27 66 28 48 29 51 30 65 31 84 32 49 33 50 34
REMARK SMILES IDX 64 36 85 37 52 38 36 39 37 40 45 41 38 42 39 43 43 44 46 45
REMARK SMILES IDX 40 46 41 47 44 48 42 49 68 50 69 51 77 52 70 53 71 54 75 55
REMARK SMILES IDX 78 56 72 57 73 58 76 59 74 60 53 61 54 62 62 63 55 64 56 65
REMARK SMILES IDX 60 66 63 67 57 68 58 69 61 70 59 71 6 72 7 73 8 74 9 75
REMARK SMILES IDX 10 77 11 78 16 79 26 80 17 81 19 82 18 83 12 84 13 87 14 88
REMARK SMILES IDX 15 89 20 90 21 91 25 92 22 93 24 94 23 95
REMARK H PARENT 3 6 83 24 51 35 8 76 12 85 12 86
REMARK Flexibility Score: inf
ROOT
ATOM      1  C   UNL     1       3.646   2.821   2.043  1.00  0.00     0.023 C 
ENDROOT
BRANCH   1   2
ATOM      2  C   UNL     1       2.941   4.173   1.967  1.00  0.00     0.116 C 
BRANCH   2   3
ATOM      3  N   UNL     1       3.623   5.144   1.137  1.00  0.00    -0.352 N 
ATOM      4  O   UNL     1       4.367   6.391  -0.517  1.00  0.00    -0.269 OA
ATOM      5  C   UNL     1       3.706   5.406  -0.206  1.00  0.00     0.251 C 
ATOM      6  H   UNL     1       4.161   5.773   1.671  1.00  0.00     0.163 HD
BRANCH   5   7
ATOM      7  C   UNL     1       3.093   4.589  -1.296  1.00  0.00     0.039 A 
ATOM      8  C   UNL     1       2.141   3.584  -1.136  1.00  0.00     0.014 A 
ATOM      9  C   UNL     1       3.510   4.906  -2.607  1.00  0.00     0.014 A 
ATOM     10  C   UNL     1       1.640   2.901  -2.249  1.00  0.00     0.010 A 
ATOM     11  C   UNL     1       3.011   4.231  -3.721  1.00  0.00     0.010 A 
ATOM     12  C   UNL     1       2.075   3.219  -3.542  1.00  0.00    -0.014 A 
BRANCH  12  13
ATOM     13  C   UNL     1       1.374   2.608  -4.676  1.00  0.00     0.031 A 
ATOM     14  C   UNL     1      -0.065   2.987  -4.795  1.00  0.00     0.074 A 
ATOM     15  C   UNL     1       1.942   1.879  -5.659  1.00  0.00     0.049 A 
ATOM     16  N   UNL     1      -1.101   2.212  -4.754  1.00  0.00    -0.248 NA
ATOM     17  C   UNL     1      -0.392   4.416  -4.902  1.00  0.00     0.031 C 
ATOM     18  C   UNL     1       3.366   1.667  -5.914  1.00  0.00     0.029 A 
ATOM     19  N   UNL     1       1.339   1.237  -6.707  1.00  0.00    -0.354 N 
ATOM     20  C   UNL     1      -2.209   3.029  -4.981  1.00  0.00     0.074 A 
ATOM     21  C   UNL     1      -1.725   4.385  -4.949  1.00  0.00     0.031 C 
ATOM     22  C   UNL     1       3.523   1.118  -7.141  1.00  0.00     0.029 A 
ATOM     23  C   UNL     1       2.214   0.821  -7.703  1.00  0.00     0.049 A 
ATOM     24  H   UNL     1       0.368   1.083  -6.752  1.00  0.00     0.167 HD
ATOM     25  C   UNL     1      -3.407   2.510  -5.371  1.00  0.00     0.037 A 
ATOM     26  C   UNL     1       1.889   0.313  -8.919  1.00  0.00     0.037 A 
ATOM     27  C   UNL     1      -3.488   1.104  -5.070  1.00  0.00     0.049 A 
ATOM     28  C   UNL     1       0.493  -0.177  -8.854  1.00  0.00     0.074 A 
ATOM     29  C   UNL     1      -3.418   0.342  -3.920  1.00  0.00     0.029 A 
ATOM     30  N   UNL     1      -3.368   0.215  -6.106  1.00  0.00    -0.354 N 
ATOM     31  N   UNL     1       0.113  -1.242  -8.208  1.00  0.00    -0.248 NA
ATOM     32  C   UNL     1      -0.574   0.729  -9.249  1.00  0.00     0.031 C 
ATOM     33  C   UNL     1      -2.780  -0.871  -4.316  1.00  0.00     0.029 A 
ATOM     34  C   UNL     1      -2.542  -0.791  -5.687  1.00  0.00     0.049 A 
ATOM     35  H   UNL     1      -3.797   0.287  -6.989  1.00  0.00     0.167 HD
ATOM     36  C   UNL     1      -1.145  -0.922  -7.728  1.00  0.00     0.074 A 
ATOM     37  C   UNL     1      -1.568   0.234  -8.509  1.00  0.00     0.031 C 
ATOM     38  C   UNL     1      -1.594  -1.448  -6.553  1.00  0.00     0.037 A 
BRANCH  25  39
ATOM     39  C   UNL     1      -4.354   3.168  -6.355  1.00  0.00     0.064 A 
ATOM     40  C   UNL     1      -5.580   2.530  -6.651  1.00  0.00     0.173 A 
ATOM     41  C   UNL     1      -3.977   4.190  -7.251  1.00  0.00     0.173 A 
ATOM     42  F   UNL     1      -6.047   1.545  -5.868  1.00  0.00    -0.203 F 
ATOM     43  C   UNL     1      -6.298   2.806  -7.817  1.00  0.00     0.198 A 
ATOM     44  C   UNL     1      -4.726   4.500  -8.387  1.00  0.00     0.198 A 
ATOM     45  F   UNL     1      -2.822   4.853  -7.135  1.00  0.00    -0.203 F 
ATOM     46  F   UNL     1      -7.370   2.064  -8.129  1.00  0.00    -0.200 F 
ATOM     47  C   UNL     1      -5.863   3.782  -8.692  1.00  0.00     0.200 A 
ATOM     48  F   UNL     1      -4.284   5.445  -9.229  1.00  0.00    -0.200 F 
ATOM     49  F   UNL     1      -6.504   3.996  -9.848  1.00  0.00    -0.200 F 
ENDBRANCH  25  39
BRANCH  26  50
ATOM     50  C   UNL     1       2.608   0.404 -10.212  1.00  0.00     0.064 A 
ATOM     51  C   UNL     1       2.289  -0.451 -11.283  1.00  0.00     0.173 A 
ATOM     52  C   UNL     1       3.408   1.519 -10.521  1.00  0.00     0.173 A 
ATOM     53  F   UNL     1       1.498  -1.516 -11.087  1.00  0.00    -0.203 F 
ATOM     54  C   UNL     1       2.713  -0.184 -12.588  1.00  0.00     0.198 A 
ATOM     55  C   UNL     1       3.839   1.779 -11.823  1.00  0.00     0.198 A 
ATOM     56  F   UNL     1       3.704   2.432  -9.585  1.00  0.00    -0.203 F 
ATOM     57  F   UNL     1       2.327  -0.983 -13.594  1.00  0.00    -0.200 F 
ATOM     58  C   UNL     1       3.478   0.938 -12.859  1.00  0.00     0.200 A 
ATOM     59  F   UNL     1       4.549   2.887 -12.078  1.00  0.00    -0.200 F 
ATOM     60  F   UNL     1       3.827   1.232 -14.119  1.00  0.00    -0.200 F 
ENDBRANCH  26  50
BRANCH  38  61
ATOM     61  C   UNL     1      -0.884  -2.650  -6.003  1.00  0.00     0.064 A 
ATOM     62  C   UNL     1       0.475  -2.677  -5.644  1.00  0.00     0.173 A 
ATOM     63  C   UNL     1      -1.651  -3.790  -5.724  1.00  0.00     0.173 A 
ATOM     64  F   UNL     1       1.250  -1.593  -5.779  1.00  0.00    -0.203 F 
ATOM     65  C   UNL     1       1.047  -3.820  -5.087  1.00  0.00     0.198 A 
ATOM     66  C   UNL     1      -1.086  -4.912  -5.126  1.00  0.00     0.198 A 
ATOM     67  F   UNL     1      -2.966  -3.801  -5.995  1.00  0.00    -0.203 F 
ATOM     68  F   UNL     1       2.352  -3.834  -4.776  1.00  0.00    -0.200 F 
ATOM     69  C   UNL     1       0.265  -4.932  -4.822  1.00  0.00     0.200 A 
ATOM     70  F   UNL     1      -1.858  -5.966  -4.826  1.00  0.00    -0.200 F 
ATOM     71  F   UNL     1       0.807  -6.016  -4.249  1.00  0.00    -0.200 F 
ENDBRANCH  38  61
ENDBRANCH  12  13
ENDBRANCH   5   7
ENDBRANCH   2   3
ENDBRANCH   1   2
BRANCH   1  72
ATOM     72  C   UNL     1       5.084   2.873   2.577  1.00  0.00     0.023 C 
BRANCH  72  73
ATOM     73  C   UNL     1       5.259   3.396   4.006  1.00  0.00     0.116 C 
BRANCH  73  74
ATOM     74  N   UNL     1       4.504   2.648   5.000  1.00  0.00    -0.351 N 
ATOM     75  C   UNL     1       4.894   1.910   6.083  1.00  0.00     0.281 C 
ATOM     76  H   UNL     1       3.529   2.680   4.869  1.00  0.00     0.163 HD
ATOM     77  O   UNL     1       3.979   1.394   6.735  1.00  0.00    -0.268 OA
BRANCH  75  78
ATOM     78  C   UNL     1       6.392   1.776   6.530  1.00  0.00     0.177 C 
ATOM     79  C   UNL     1       6.546   0.782   7.718  1.00  0.00     0.079 C 
ATOM     80  C   UNL     1       6.938   3.161   6.974  1.00  0.00     0.106 C 
ATOM     81  C   UNL     1       6.014   1.282   9.060  1.00  0.00     0.009 C 
ATOM     82  C   UNL     1       6.313   3.665   8.291  1.00  0.00     0.114 C 
ATOM     83  C   UNL     1       6.561   2.652   9.417  1.00  0.00     0.028 C 
BRANCH  78  84
ATOM     84  N   UNL     1       7.197   1.292   5.363  1.00  0.00    -0.331 N 
ATOM     85  H   UNL     1       8.183   1.444   5.578  1.00  0.00     0.347 HD
ATOM     86  H   UNL     1       6.864   1.819   4.556  1.00  0.00     0.347 HD
BRANCH  84  87
ATOM     87  C   UNL     1       7.022  -0.131   5.015  1.00  0.00     0.183 C 
ATOM     88  C   UNL     1       5.895  -0.605   4.147  1.00  0.00     0.071 C 
ATOM     89  C   UNL     1       7.288  -0.543   3.594  1.00  0.00     0.071 C 
ENDBRANCH  84  87
ENDBRANCH  78  84
BRANCH  82  90
ATOM     90  N   UNL     1       6.790   5.012   8.623  1.00  0.00    -0.268 N 
ATOM     91  C   UNL     1       6.508   6.161   7.931  1.00  0.00     0.124 A 
ATOM     92  N   UNL     1       7.547   5.233   9.722  1.00  0.00    -0.180 NA
ATOM     93  C   UNL     1       7.111   7.170   8.635  1.00  0.00     0.055 A 
ATOM     94  C   UNL     1       7.723   6.558   9.733  1.00  0.00     0.150 A 
ATOM     95  Br  UNL     1       7.132   8.995   8.254  1.00  0.00    -0.047 Br
ENDBRANCH  82  90
ENDBRANCH  75  78
ENDBRANCH  73  74
ENDBRANCH  72  73
ENDBRANCH   1  72
TORSDOF 14
