REMARK SMILES Cc1cnn([C@H]2CC[C@@]([NH3+])(C(=O)NCCCCNC(=O)c3ccc(-c4c5nc(c(-c6c(F)c(F)c(F)c(F)c6F)c6ccc([nH]6)c(-c6c(F)c(F)c(F)c(F)c6F)c6nc(c(-c7c(F)c(F)c(F)c(F)c7F)c7ccc4[nH]7)C=C6)C=C5)cc3)C2)c1
REMARK SMILES IDX 16 1 15 2 14 3 13 4 11 5 12 6 9 8 6 9 7 10 84 11 8 12 5 13
REMARK SMILES IDX 1 14 2 15 3 16 85 17 4 18 10 19 17 23 18 24 19 25 20 27
REMARK SMILES IDX 21 28 22 29 83 30 23 31 82 32 24 33 25 34 26 35 76 36 27 37
REMARK SMILES IDX 81 38 75 39 77 40 28 41 80 42 74 43 73 44 29 46 61 47 41 48
REMARK SMILES IDX 60 49 42 50 45 51 59 52 78 53 43 54 44 55 58 57 79 58 46 59
REMARK SMILES IDX 30 60 31 61 39 62 32 63 33 64 37 65 40 66 34 67 35 68 38 69
REMARK SMILES IDX 36 70 62 71 63 72 71 73 64 74 65 75 69 76 72 77 66 78 67 79
REMARK SMILES IDX 70 80 68 81 47 82 48 83 56 84 49 85 50 86 54 87 57 88 51 89
REMARK SMILES IDX 52 90 55 91 53 92
REMARK H PARENT 13 7 10 20 10 21 10 22 18 26 77 45 45 56
REMARK Flexibility Score: inf
ROOT
ATOM      1  C   UNL     1      -1.276   9.861   4.776  1.00  0.00     0.023 C 
ENDROOT
BRANCH   1   2
ATOM      2  C   UNL     1      -0.752   9.191   3.498  1.00  0.00     0.023 C 
BRANCH   2   3
ATOM      3  C   UNL     1       0.709   8.723   3.499  1.00  0.00     0.116 C 
BRANCH   3   4
ATOM      4  N   UNL     1       1.004   7.724   4.510  1.00  0.00    -0.351 N 
ATOM      5  C   UNL     1       1.487   6.452   4.364  1.00  0.00     0.281 C 
ATOM      6  O   UNL     1       2.022   5.954   5.359  1.00  0.00    -0.268 OA
ATOM      7  H   UNL     1       0.830   8.002   5.438  1.00  0.00     0.163 HD
BRANCH   5   8
ATOM      8  C   UNL     1       1.499   5.721   2.975  1.00  0.00     0.176 C 
ATOM      9  C   UNL     1       0.388   3.551   3.290  1.00  0.00     0.114 C 
ATOM     10  C   UNL     1      -0.510   4.402   2.378  1.00  0.00     0.034 C 
ATOM     11  C   UNL     1       1.767   4.204   3.094  1.00  0.00     0.106 C 
ATOM     12  C   UNL     1       0.156   5.774   2.236  1.00  0.00     0.081 C 
BRANCH   9  13
ATOM     13  N   UNL     1      -0.096   3.453   4.659  1.00  0.00    -0.269 N 
ATOM     14  C   UNL     1       0.019   3.774   8.274  1.00  0.00     0.048 C 
ATOM     15  C   UNL     1      -0.274   3.530   6.847  1.00  0.00    -0.013 A 
ATOM     16  C   UNL     1      -1.522   3.367   6.216  1.00  0.00     0.138 A 
ATOM     17  C   UNL     1       0.631   3.439   5.813  1.00  0.00     0.112 A 
ATOM     18  N   UNL     1      -1.415   3.275   4.889  1.00  0.00    -0.181 NA
ENDBRANCH   9  13
BRANCH   8  19
ATOM     19  N   UNL     1       2.592   6.342   2.192  1.00  0.00    -0.345 N 
ATOM     20  H   UNL     1       2.423   7.345   2.108  1.00  0.00     0.345 HD
ATOM     21  H   UNL     1       2.624   5.925   1.262  1.00  0.00     0.345 HD
ATOM     22  H   UNL     1       3.482   6.186   2.666  1.00  0.00     0.345 HD
ENDBRANCH   8  19
ENDBRANCH   5   8
ENDBRANCH   3   4
ENDBRANCH   2   3
ENDBRANCH   1   2
BRANCH   1  23
ATOM     23  C   UNL     1      -0.536  11.123   5.185  1.00  0.00     0.116 C 
BRANCH  23  24
ATOM     24  N   UNL     1      -0.595  12.192   4.181  1.00  0.00    -0.352 N 
ATOM     25  C   UNL     1       0.036  13.431   4.200  1.00  0.00     0.251 C 
ATOM     26  H   UNL     1      -1.155  12.009   3.392  1.00  0.00     0.163 HD
ATOM     27  O   UNL     1      -0.351  14.357   3.514  1.00  0.00    -0.269 OA
BRANCH  25  28
ATOM     28  C   UNL     1       1.218  13.587   5.066  1.00  0.00     0.039 A 
ATOM     29  C   UNL     1       1.488  14.747   5.800  1.00  0.00     0.014 A 
ATOM     30  C   UNL     1       2.053  12.484   5.155  1.00  0.00     0.014 A 
ATOM     31  C   UNL     1       2.579  14.747   6.670  1.00  0.00     0.010 A 
ATOM     32  C   UNL     1       2.928  12.391   6.190  1.00  0.00     0.010 A 
ATOM     33  C   UNL     1       3.289  13.555   6.852  1.00  0.00    -0.014 A 
BRANCH  33  34
ATOM     34  C   UNL     1       4.429  13.423   7.744  1.00  0.00     0.031 A 
ATOM     35  C   UNL     1       4.110  13.548   9.189  1.00  0.00     0.074 A 
ATOM     36  C   UNL     1       5.580  12.874   7.288  1.00  0.00     0.049 A 
ATOM     37  N   UNL     1       4.537  14.433  10.027  1.00  0.00    -0.248 NA
ATOM     38  C   UNL     1       3.078  12.655   9.745  1.00  0.00     0.031 C 
ATOM     39  C   UNL     1       5.867  12.338   5.947  1.00  0.00     0.029 A 
ATOM     40  N   UNL     1       6.699  12.537   7.978  1.00  0.00    -0.354 N 
ATOM     41  C   UNL     1       3.986  14.089  11.261  1.00  0.00     0.074 A 
ATOM     42  C   UNL     1       2.940  13.144  10.978  1.00  0.00     0.031 C 
ATOM     43  C   UNL     1       6.957  11.541   5.997  1.00  0.00     0.029 A 
ATOM     44  C   UNL     1       7.542  11.650   7.317  1.00  0.00     0.049 A 
ATOM     45  H   UNL     1       6.898  12.893   8.874  1.00  0.00     0.167 HD
ATOM     46  C   UNL     1       4.620  14.408  12.426  1.00  0.00     0.037 A 
ATOM     47  C   UNL     1       8.611  11.015   7.859  1.00  0.00     0.037 A 
ATOM     48  C   UNL     1       5.638  15.405  12.188  1.00  0.00     0.049 A 
ATOM     49  C   UNL     1       8.959  11.748   9.106  1.00  0.00     0.074 A 
ATOM     50  C   UNL     1       5.638  16.689  11.677  1.00  0.00     0.029 A 
ATOM     51  N   UNL     1       6.945  14.983  12.122  1.00  0.00    -0.354 N 
ATOM     52  N   UNL     1       9.411  12.973   9.124  1.00  0.00    -0.248 NA
ATOM     53  C   UNL     1       8.331  11.295  10.339  1.00  0.00     0.031 C 
ATOM     54  C   UNL     1       6.817  16.764  10.876  1.00  0.00     0.029 A 
ATOM     55  C   UNL     1       7.505  15.557  11.012  1.00  0.00     0.049 A 
ATOM     56  H   UNL     1       7.396  14.380  12.757  1.00  0.00     0.167 HD
ATOM     57  C   UNL     1       8.767  13.574  10.197  1.00  0.00     0.074 A 
ATOM     58  C   UNL     1       8.163  12.473  10.946  1.00  0.00     0.031 C 
ATOM     59  C   UNL     1       8.523  14.918  10.212  1.00  0.00     0.037 A 
BRANCH  46  60
ATOM     60  C   UNL     1       4.623  13.558  13.684  1.00  0.00     0.064 A 
ATOM     61  C   UNL     1       5.353  14.021  14.801  1.00  0.00     0.173 A 
ATOM     62  C   UNL     1       4.228  12.204  13.751  1.00  0.00     0.173 A 
ATOM     63  F   UNL     1       5.762  15.297  14.872  1.00  0.00    -0.203 F 
ATOM     64  C   UNL     1       5.773  13.166  15.823  1.00  0.00     0.198 A 
ATOM     65  C   UNL     1       4.606  11.365  14.800  1.00  0.00     0.198 A 
ATOM     66  F   UNL     1       3.551  11.596  12.774  1.00  0.00    -0.203 F 
ATOM     67  F   UNL     1       6.593  13.625  16.777  1.00  0.00    -0.200 F 
ATOM     68  C   UNL     1       5.415  11.833  15.811  1.00  0.00     0.200 A 
ATOM     69  F   UNL     1       4.247  10.074  14.769  1.00  0.00    -0.200 F 
ATOM     70  F   UNL     1       5.880  10.993  16.744  1.00  0.00    -0.200 F 
ENDBRANCH  46  60
BRANCH  47  71
ATOM     71  C   UNL     1       9.115   9.652   7.562  1.00  0.00     0.064 A 
ATOM     72  C   UNL     1      10.409   9.258   7.938  1.00  0.00     0.173 A 
ATOM     73  C   UNL     1       8.246   8.624   7.144  1.00  0.00     0.173 A 
ATOM     74  F   UNL     1      11.283  10.167   8.391  1.00  0.00    -0.203 F 
ATOM     75  C   UNL     1      10.803   7.914   7.917  1.00  0.00     0.198 A 
ATOM     76  C   UNL     1       8.642   7.285   7.117  1.00  0.00     0.198 A 
ATOM     77  F   UNL     1       6.966   8.887   6.841  1.00  0.00    -0.203 F 
ATOM     78  F   UNL     1      12.028   7.570   8.337  1.00  0.00    -0.200 F 
ATOM     79  C   UNL     1       9.916   6.928   7.516  1.00  0.00     0.200 A 
ATOM     80  F   UNL     1       7.762   6.338   6.761  1.00  0.00    -0.200 F 
ATOM     81  F   UNL     1      10.274   5.637   7.552  1.00  0.00    -0.200 F 
ENDBRANCH  47  71
BRANCH  59  82
ATOM     82  C   UNL     1       9.175  15.776   9.164  1.00  0.00     0.064 A 
ATOM     83  C   UNL     1       8.889  15.692   7.790  1.00  0.00     0.173 A 
ATOM     84  C   UNL     1       9.963  16.851   9.593  1.00  0.00     0.173 A 
ATOM     85  F   UNL     1       8.069  14.750   7.313  1.00  0.00    -0.203 F 
ATOM     86  C   UNL     1       9.389  16.630   6.888  1.00  0.00     0.198 A 
ATOM     87  C   UNL     1      10.432  17.806   8.696  1.00  0.00     0.198 A 
ATOM     88  F   UNL     1      10.223  17.012  10.900  1.00  0.00    -0.203 F 
ATOM     89  F   UNL     1       9.095  16.531   5.583  1.00  0.00    -0.200 F 
ATOM     90  C   UNL     1      10.150  17.693   7.344  1.00  0.00     0.200 A 
ATOM     91  F   UNL     1      11.125  18.860   9.149  1.00  0.00    -0.200 F 
ATOM     92  F   UNL     1      10.585  18.627   6.486  1.00  0.00    -0.200 F 
ENDBRANCH  59  82
ENDBRANCH  33  34
ENDBRANCH  25  28
ENDBRANCH  23  24
ENDBRANCH   1  23
TORSDOF 13
