REMARK SMILES CO[C@H]1C[C@@H](C(=O)NCCCCNC(=O)c2ccc(-c3c4nc(c(-c5c(F)c(F)c(F)c(F)c5F)c5ccc([nH]5)c(-c5c(F)c(F)c(F)c(F)c5F)c5nc(c(-c6c(F)c(F)c(F)c(F)c6F)c6ccc3[nH]6)C=C5)C=C4)cc2)N(C(=O)Nc2cc(C)cc(F)c2)C1
REMARK SMILES IDX 10 1 9 2 8 3 6 4 7 5 5 7 3 8 4 9 91 10 79 11 2 12 1 13 80 14
REMARK SMILES IDX 81 15 82 16 83 18 84 19 90 20 85 21 88 22 86 23 87 24 89 25
REMARK SMILES IDX 11 26 12 27 13 28 14 29 15 31 16 32 17 33 78 34 18 35 77 36
REMARK SMILES IDX 19 37 20 38 21 39 71 40 22 41 76 42 70 43 72 44 23 45 75 46
REMARK SMILES IDX 69 47 68 48 24 50 56 51 36 52 55 53 37 54 40 55 54 56 73 57
REMARK SMILES IDX 38 58 39 59 53 61 74 62 41 63 25 64 26 65 34 66 27 67 28 68
REMARK SMILES IDX 32 69 35 70 29 71 30 72 33 73 31 74 57 75 58 76 66 77 59 78
REMARK SMILES IDX 60 79 64 80 67 81 61 82 62 83 65 84 63 85 42 86 43 87 51 88
REMARK SMILES IDX 44 89 45 90 49 91 52 92 46 93 47 94 50 95 48 96
REMARK H PARENT 8 6 82 17 13 30 72 49 40 60
REMARK Flexibility Score: inf
ROOT
ATOM      1  C   UNL     1       0.516   6.494   2.079  1.00  0.00     0.023 C 
ENDROOT
BRANCH   1   2
ATOM      2  C   UNL     1       0.150   5.241   1.282  1.00  0.00     0.116 C 
BRANCH   2   3
ATOM      3  N   UNL     1      -0.703   5.493   0.134  1.00  0.00    -0.354 N 
ATOM      4  C   UNL     1      -0.801   4.838  -1.060  1.00  0.00     0.242 C 
ATOM      5  O   UNL     1      -1.833   5.031  -1.714  1.00  0.00    -0.273 OA
ATOM      6  H   UNL     1      -1.310   6.262   0.233  1.00  0.00     0.163 HD
BRANCH   4   7
ATOM      7  C   UNL     1       0.204   3.765  -1.503  1.00  0.00     0.179 C 
ATOM      8  C   UNL     1       1.244   1.825  -0.422  1.00  0.00     0.140 C 
ATOM      9  C   UNL     1      -0.081   2.541  -0.623  1.00  0.00     0.069 C 
ATOM     10  C   UNL     1       2.312   2.844  -0.814  1.00  0.00     0.154 C 
ATOM     11  N   UNL     1       1.650   4.002  -1.407  1.00  0.00    -0.310 N 
BRANCH   8  12
ATOM     12  O   UNL     1       1.436   1.452   0.945  1.00  0.00    -0.380 OA
ATOM     13  C   UNL     1       0.585   0.399   1.377  1.00  0.00     0.195 C 
ENDBRANCH   8  12
BRANCH  11  14
ATOM     14  C   UNL     1       2.451   4.789  -2.211  1.00  0.00     0.322 C 
ATOM     15  O   UNL     1       3.672   4.614  -2.265  1.00  0.00    -0.248 OA
ATOM     16  N   UNL     1       1.907   5.620  -3.134  1.00  0.00    -0.308 N 
ATOM     17  H   UNL     1       2.244   5.483  -4.048  1.00  0.00     0.171 HD
BRANCH  16  18
ATOM     18  C   UNL     1       0.953   6.639  -3.023  1.00  0.00     0.046 A 
ATOM     19  C   UNL     1       0.317   7.064  -4.196  1.00  0.00     0.029 A 
ATOM     20  C   UNL     1       0.670   7.280  -1.825  1.00  0.00     0.065 A 
ATOM     21  C   UNL     1      -0.715   8.013  -4.150  1.00  0.00    -0.046 A 
ATOM     22  C   UNL     1      -0.352   8.225  -1.781  1.00  0.00     0.125 A 
ATOM     23  C   UNL     1      -1.409   8.445  -5.406  1.00  0.00     0.044 C 
ATOM     24  C   UNL     1      -1.059   8.580  -2.922  1.00  0.00     0.042 A 
ATOM     25  F   UNL     1      -0.683   8.785  -0.611  1.00  0.00    -0.207 F 
ENDBRANCH  16  18
ENDBRANCH  11  14
ENDBRANCH   4   7
ENDBRANCH   2   3
ENDBRANCH   1   2
BRANCH   1  26
ATOM     26  C   UNL     1      -0.620   7.453   2.438  1.00  0.00     0.023 C 
BRANCH  26  27
ATOM     27  C   UNL     1      -1.937   6.835   2.883  1.00  0.00     0.116 C 
BRANCH  27  28
ATOM     28  N   UNL     1      -1.859   6.170   4.169  1.00  0.00    -0.352 N 
ATOM     29  C   UNL     1      -2.604   6.396   5.303  1.00  0.00     0.251 C 
ATOM     30  H   UNL     1      -1.181   5.460   4.241  1.00  0.00     0.163 HD
ATOM     31  O   UNL     1      -2.340   5.806   6.346  1.00  0.00    -0.269 OA
BRANCH  29  32
ATOM     32  C   UNL     1      -3.702   7.388   5.277  1.00  0.00     0.039 A 
ATOM     33  C   UNL     1      -3.759   8.354   6.284  1.00  0.00     0.014 A 
ATOM     34  C   UNL     1      -4.651   7.389   4.251  1.00  0.00     0.014 A 
ATOM     35  C   UNL     1      -4.720   9.367   6.221  1.00  0.00     0.010 A 
ATOM     36  C   UNL     1      -5.553   8.445   4.145  1.00  0.00     0.010 A 
ATOM     37  C   UNL     1      -5.598   9.447   5.128  1.00  0.00    -0.014 A 
BRANCH  37  38
ATOM     38  C   UNL     1      -6.572  10.561   4.992  1.00  0.00     0.031 A 
ATOM     39  C   UNL     1      -8.048  10.271   4.982  1.00  0.00     0.074 A 
ATOM     40  C   UNL     1      -6.134  11.822   4.802  1.00  0.00     0.049 A 
ATOM     41  N   UNL     1      -9.053  11.082   4.764  1.00  0.00    -0.248 NA
ATOM     42  C   UNL     1      -8.446   8.875   5.222  1.00  0.00     0.031 C 
ATOM     43  C   UNL     1      -4.730  12.232   4.754  1.00  0.00     0.029 A 
ATOM     44  N   UNL     1      -6.827  12.990   4.597  1.00  0.00    -0.354 N 
ATOM     45  C   UNL     1     -10.194  10.292   4.819  1.00  0.00     0.074 A 
ATOM     46  C   UNL     1      -9.757   8.931   5.040  1.00  0.00     0.031 C 
ATOM     47  C   UNL     1      -4.666  13.557   4.550  1.00  0.00     0.029 A 
ATOM     48  C   UNL     1      -6.019  14.085   4.408  1.00  0.00     0.049 A 
ATOM     49  H   UNL     1      -7.811  13.038   4.587  1.00  0.00     0.167 HD
ATOM     50  C   UNL     1     -11.491  10.671   4.719  1.00  0.00     0.037 A 
ATOM     51  C   UNL     1      -6.333  15.366   4.133  1.00  0.00     0.037 A 
ATOM     52  C   UNL     1     -11.924  12.030   4.527  1.00  0.00     0.049 A 
ATOM     53  C   UNL     1      -7.782  15.758   4.007  1.00  0.00     0.074 A 
ATOM     54  C   UNL     1     -13.216  12.523   4.470  1.00  0.00     0.029 A 
ATOM     55  N   UNL     1     -11.075  13.114   4.359  1.00  0.00    -0.354 N 
ATOM     56  N   UNL     1      -8.854  15.014   4.123  1.00  0.00    -0.248 NA
ATOM     57  C   UNL     1      -8.064  17.171   3.715  1.00  0.00     0.031 C 
ATOM     58  C   UNL     1     -13.150  13.896   4.217  1.00  0.00     0.029 A 
ATOM     59  C   UNL     1     -11.816  14.270   4.174  1.00  0.00     0.049 A 
ATOM     60  H   UNL     1     -10.091  13.068   4.369  1.00  0.00     0.167 HD
ATOM     61  C   UNL     1      -9.935  15.870   3.953  1.00  0.00     0.074 A 
ATOM     62  C   UNL     1      -9.389  17.193   3.735  1.00  0.00     0.031 C 
ATOM     63  C   UNL     1     -11.259  15.584   3.977  1.00  0.00     0.037 A 
BRANCH  50  64
ATOM     64  C   UNL     1     -12.538   9.599   4.816  1.00  0.00     0.064 A 
ATOM     65  C   UNL     1     -12.794   8.926   6.020  1.00  0.00     0.173 A 
ATOM     66  C   UNL     1     -13.323   9.268   3.701  1.00  0.00     0.173 A 
ATOM     67  F   UNL     1     -12.066   9.198   7.114  1.00  0.00    -0.203 F 
ATOM     68  C   UNL     1     -13.775   7.940   6.096  1.00  0.00     0.198 A 
ATOM     69  C   UNL     1     -14.325   8.305   3.789  1.00  0.00     0.198 A 
ATOM     70  F   UNL     1     -13.126   9.885   2.526  1.00  0.00    -0.203 F 
ATOM     71  F   UNL     1     -13.965   7.275   7.244  1.00  0.00    -0.200 F 
ATOM     72  C   UNL     1     -14.544   7.636   4.984  1.00  0.00     0.200 A 
ATOM     73  F   UNL     1     -15.078   8.023   2.717  1.00  0.00    -0.200 F 
ATOM     74  F   UNL     1     -15.494   6.693   5.061  1.00  0.00    -0.200 F 
ENDBRANCH  50  64
BRANCH  51  75
ATOM     75  C   UNL     1      -5.257  16.380   3.972  1.00  0.00     0.064 A 
ATOM     76  C   UNL     1      -5.087  17.406   4.913  1.00  0.00     0.173 A 
ATOM     77  C   UNL     1      -4.388  16.356   2.871  1.00  0.00     0.173 A 
ATOM     78  F   UNL     1      -5.908  17.486   5.971  1.00  0.00    -0.203 F 
ATOM     79  C   UNL     1      -4.106  18.381   4.747  1.00  0.00     0.198 A 
ATOM     80  C   UNL     1      -3.387  17.314   2.722  1.00  0.00     0.198 A 
ATOM     81  F   UNL     1      -4.505  15.396   1.943  1.00  0.00    -0.203 F 
ATOM     82  F   UNL     1      -4.000  19.379   5.635  1.00  0.00    -0.200 F 
ATOM     83  C   UNL     1      -3.253  18.331   3.655  1.00  0.00     0.200 A 
ATOM     84  F   UNL     1      -2.556  17.255   1.673  1.00  0.00    -0.200 F 
ATOM     85  F   UNL     1      -2.308  19.269   3.497  1.00  0.00    -0.200 F 
ENDBRANCH  51  75
BRANCH  63  86
ATOM     86  C   UNL     1     -12.219  16.727   3.812  1.00  0.00     0.064 A 
ATOM     87  C   UNL     1     -12.401  17.367   2.577  1.00  0.00     0.173 A 
ATOM     88  C   UNL     1     -13.010  17.147   4.893  1.00  0.00     0.173 A 
ATOM     89  F   UNL     1     -11.660  17.013   1.517  1.00  0.00    -0.203 F 
ATOM     90  C   UNL     1     -13.326  18.399   2.437  1.00  0.00     0.198 A 
ATOM     91  C   UNL     1     -13.955  18.157   4.741  1.00  0.00     0.198 A 
ATOM     92  F   UNL     1     -12.879  16.562   6.093  1.00  0.00    -0.203 F 
ATOM     93  F   UNL     1     -13.454  19.025   1.259  1.00  0.00    -0.200 F 
ATOM     94  C   UNL     1     -14.108  18.786   3.515  1.00  0.00     0.200 A 
ATOM     95  F   UNL     1     -14.720  18.519   5.779  1.00  0.00    -0.200 F 
ATOM     96  F   UNL     1     -15.007  19.770   3.373  1.00  0.00    -0.200 F 
ENDBRANCH  63  86
ENDBRANCH  37  38
ENDBRANCH  29  32
ENDBRANCH  27  28
ENDBRANCH  26  27
ENDBRANCH   1  26
TORSDOF 14
