REMARK SMILES C[C@H](c1ccc(Br)s1)[NH+]1CCC(CC(=O)NCCCCNC(=O)c2ccc(-c3c4nc(c(-c5c(F)c(F)c(F)c(F)c5F)c5ccc([nH]5)c(-c5c(F)c(F)c(F)c(F)c5F)c5nc(c(-c6c(F)c(F)c(F)c(F)c6F)c6ccc3[nH]6)C=C5)C=C4)cc2)CC1
REMARK SMILES IDX 18 1 17 2 16 3 14 4 15 5 13 7 12 8 9 9 10 10 88 11 11 13
REMARK SMILES IDX 87 14 2 15 1 16 3 17 4 18 8 19 5 20 6 21 7 22 19 23 20 24
REMARK SMILES IDX 21 25 22 26 23 28 24 29 25 30 86 31 26 32 85 33 27 34 28 35
REMARK SMILES IDX 29 36 79 37 30 38 84 39 78 40 80 41 31 42 83 43 77 44 76 45
REMARK SMILES IDX 32 47 64 48 44 49 63 50 45 51 48 52 62 53 81 54 46 55 47 56
REMARK SMILES IDX 61 58 82 59 49 60 33 61 34 62 42 63 35 64 36 65 40 66 43 67
REMARK SMILES IDX 37 68 38 69 41 70 39 71 65 72 66 73 74 74 67 75 68 76 72 77
REMARK SMILES IDX 75 78 69 79 70 80 73 81 71 82 50 83 51 84 59 85 52 86 53 87
REMARK SMILES IDX 57 88 60 89 54 90 55 91 58 92 56 93
REMARK H PARENT 16 6 9 12 21 27 80 46 48 57
REMARK Flexibility Score: inf
ROOT
ATOM      1  C   UNL     1      -3.519   4.365  -1.921  1.00  0.00     0.023 C 
ENDROOT
BRANCH   1   2
ATOM      2  C   UNL     1      -4.801   3.594  -1.585  1.00  0.00     0.116 C 
BRANCH   2   3
ATOM      3  N   UNL     1      -5.390   2.965  -2.759  1.00  0.00    -0.356 N 
ATOM      4  C   UNL     1      -5.441   1.653  -3.138  1.00  0.00     0.220 C 
ATOM      5  O   UNL     1      -5.991   1.382  -4.207  1.00  0.00    -0.275 OA
ATOM      6  H   UNL     1      -5.824   3.590  -3.384  1.00  0.00     0.163 HD
BRANCH   4   7
ATOM      7  C   UNL     1      -4.819   0.554  -2.284  1.00  0.00     0.104 C 
BRANCH   7   8
ATOM      8  C   UNL     1      -3.377   0.193  -2.700  1.00  0.00     0.009 C 
ATOM      9  N   UNL     1      -0.631   0.124  -1.627  1.00  0.00    -0.328 N 
ATOM     10  C   UNL     1      -0.981   1.149  -2.613  1.00  0.00     0.263 C 
ATOM     11  C   UNL     1      -1.301  -1.129  -2.000  1.00  0.00     0.263 C 
ATOM     12  H   UNL     1      -0.975   0.347  -0.693  1.00  0.00     0.348 HD
ATOM     13  C   UNL     1      -2.471   1.409  -2.567  1.00  0.00     0.066 C 
ATOM     14  C   UNL     1      -2.825  -0.971  -1.863  1.00  0.00     0.066 C 
BRANCH   9  15
ATOM     15  C   UNL     1       0.836   0.065  -1.449  1.00  0.00     0.222 C 
ATOM     16  C   UNL     1       1.611  -0.634  -2.569  1.00  0.00     0.082 C 
BRANCH  15  17
ATOM     17  C   UNL     1       1.230  -0.477  -0.083  1.00  0.00     0.063 A 
ATOM     18  C   UNL     1       1.076  -1.743   0.458  1.00  0.00     0.023 A 
ATOM     19  S   UNL     1       2.053   0.558   1.029  1.00  0.00    -0.127 S 
ATOM     20  C   UNL     1       1.622  -1.856   1.772  1.00  0.00     0.028 A 
ATOM     21  C   UNL     1       2.190  -0.677   2.175  1.00  0.00     0.070 A 
ATOM     22  Br  UNL     1       3.046  -0.453   3.826  1.00  0.00    -0.039 Br
ENDBRANCH  15  17
ENDBRANCH   9  15
ENDBRANCH   7   8
ENDBRANCH   4   7
ENDBRANCH   2   3
ENDBRANCH   1   2
BRANCH   1  23
ATOM     23  C   UNL     1      -3.714   5.786  -2.418  1.00  0.00     0.023 C 
BRANCH  23  24
ATOM     24  C   UNL     1      -4.194   6.752  -1.353  1.00  0.00     0.116 C 
BRANCH  24  25
ATOM     25  N   UNL     1      -3.274   6.880  -0.227  1.00  0.00    -0.352 N 
ATOM     26  C   UNL     1      -2.765   8.020   0.353  1.00  0.00     0.251 C 
ATOM     27  H   UNL     1      -2.976   6.032   0.173  1.00  0.00     0.163 HD
ATOM     28  O   UNL     1      -1.921   7.957   1.233  1.00  0.00    -0.269 OA
BRANCH  26  29
ATOM     29  C   UNL     1      -3.225   9.330  -0.150  1.00  0.00     0.039 A 
ATOM     30  C   UNL     1      -2.276  10.281  -0.528  1.00  0.00     0.014 A 
ATOM     31  C   UNL     1      -4.587   9.559  -0.354  1.00  0.00     0.014 A 
ATOM     32  C   UNL     1      -2.689  11.418  -1.220  1.00  0.00     0.010 A 
ATOM     33  C   UNL     1      -4.983  10.634  -1.133  1.00  0.00     0.010 A 
ATOM     34  C   UNL     1      -4.037  11.568  -1.584  1.00  0.00    -0.014 A 
BRANCH  34  35
ATOM     35  C   UNL     1      -4.493  12.678  -2.454  1.00  0.00     0.031 A 
ATOM     36  C   UNL     1      -5.509  13.656  -1.940  1.00  0.00     0.074 A 
ATOM     37  C   UNL     1      -4.075  12.737  -3.733  1.00  0.00     0.049 A 
ATOM     38  N   UNL     1      -6.134  14.612  -2.576  1.00  0.00    -0.248 NA
ATOM     39  C   UNL     1      -5.905  13.511  -0.529  1.00  0.00     0.031 C 
ATOM     40  C   UNL     1      -3.138  11.806  -4.365  1.00  0.00     0.029 A 
ATOM     41  N   UNL     1      -4.401  13.611  -4.740  1.00  0.00    -0.354 N 
ATOM     42  C   UNL     1      -7.011  15.164  -1.652  1.00  0.00     0.074 A 
ATOM     43  C   UNL     1      -6.883  14.399  -0.432  1.00  0.00     0.031 C 
ATOM     44  C   UNL     1      -2.942  12.175  -5.641  1.00  0.00     0.029 A 
ATOM     45  C   UNL     1      -3.773  13.339  -5.931  1.00  0.00     0.049 A 
ATOM     46  H   UNL     1      -5.026  14.363  -4.620  1.00  0.00     0.167 HD
ATOM     47  C   UNL     1      -7.829  16.232  -1.802  1.00  0.00     0.037 A 
ATOM     48  C   UNL     1      -3.867  13.954  -7.125  1.00  0.00     0.037 A 
ATOM     49  C   UNL     1      -7.920  17.012  -3.005  1.00  0.00     0.049 A 
ATOM     50  C   UNL     1      -4.790  15.133  -7.268  1.00  0.00     0.074 A 
ATOM     51  C   UNL     1      -8.641  18.170  -3.231  1.00  0.00     0.029 A 
ATOM     52  N   UNL     1      -7.265  16.708  -4.190  1.00  0.00    -0.354 N 
ATOM     53  N   UNL     1      -5.556  15.696  -6.367  1.00  0.00    -0.248 NA
ATOM     54  C   UNL     1      -4.866  15.756  -8.597  1.00  0.00     0.031 C 
ATOM     55  C   UNL     1      -8.457  18.544  -4.566  1.00  0.00     0.029 A 
ATOM     56  C   UNL     1      -7.591  17.640  -5.162  1.00  0.00     0.049 A 
ATOM     57  H   UNL     1      -6.659  15.944  -4.321  1.00  0.00     0.167 HD
ATOM     58  C   UNL     1      -6.197  16.744  -7.011  1.00  0.00     0.074 A 
ATOM     59  C   UNL     1      -5.714  16.752  -8.377  1.00  0.00     0.031 C 
ATOM     60  C   UNL     1      -7.106  17.620  -6.518  1.00  0.00     0.037 A 
BRANCH  47  61
ATOM     61  C   UNL     1      -8.678  16.618  -0.627  1.00  0.00     0.064 A 
ATOM     62  C   UNL     1      -8.116  17.167   0.536  1.00  0.00     0.173 A 
ATOM     63  C   UNL     1     -10.069  16.445  -0.666  1.00  0.00     0.173 A 
ATOM     64  F   UNL     1      -6.789  17.338   0.630  1.00  0.00    -0.203 F 
ATOM     65  C   UNL     1      -8.912  17.495   1.630  1.00  0.00     0.198 A 
ATOM     66  C   UNL     1     -10.865  16.803   0.419  1.00  0.00     0.198 A 
ATOM     67  F   UNL     1     -10.656  15.926  -1.755  1.00  0.00    -0.203 F 
ATOM     68  F   UNL     1      -8.347  17.964   2.751  1.00  0.00    -0.200 F 
ATOM     69  C   UNL     1     -10.286  17.318   1.569  1.00  0.00     0.200 A 
ATOM     70  F   UNL     1     -12.194  16.639   0.355  1.00  0.00    -0.200 F 
ATOM     71  F   UNL     1     -11.051  17.634   2.622  1.00  0.00    -0.200 F 
ENDBRANCH  47  61
BRANCH  48  72
ATOM     72  C   UNL     1      -3.050  13.478  -8.270  1.00  0.00     0.064 A 
ATOM     73  C   UNL     1      -1.966  14.234  -8.737  1.00  0.00     0.173 A 
ATOM     74  C   UNL     1      -3.321  12.260  -8.910  1.00  0.00     0.173 A 
ATOM     75  F   UNL     1      -1.682  15.415  -8.170  1.00  0.00    -0.203 F 
ATOM     76  C   UNL     1      -1.190  13.794  -9.807  1.00  0.00     0.198 A 
ATOM     77  C   UNL     1      -2.529  11.810  -9.965  1.00  0.00     0.198 A 
ATOM     78  F   UNL     1      -4.345  11.498  -8.498  1.00  0.00    -0.203 F 
ATOM     79  F   UNL     1      -0.179  14.552 -10.254  1.00  0.00    -0.200 F 
ATOM     80  C   UNL     1      -1.467  12.580 -10.416  1.00  0.00     0.200 A 
ATOM     81  F   UNL     1      -2.793  10.630 -10.542  1.00  0.00    -0.200 F 
ATOM     82  F   UNL     1      -0.715  12.154 -11.439  1.00  0.00    -0.200 F 
ENDBRANCH  48  72
BRANCH  60  83
ATOM     83  C   UNL     1      -7.639  18.656  -7.461  1.00  0.00     0.064 A 
ATOM     84  C   UNL     1      -8.569  18.324  -8.457  1.00  0.00     0.173 A 
ATOM     85  C   UNL     1      -7.258  20.000  -7.334  1.00  0.00     0.173 A 
ATOM     86  F   UNL     1      -8.949  17.049  -8.626  1.00  0.00    -0.203 F 
ATOM     87  C   UNL     1      -9.088  19.300  -9.302  1.00  0.00     0.198 A 
ATOM     88  C   UNL     1      -7.799  20.977  -8.165  1.00  0.00     0.198 A 
ATOM     89  F   UNL     1      -6.375  20.367  -6.394  1.00  0.00    -0.203 F 
ATOM     90  F   UNL     1      -9.949  18.956 -10.270  1.00  0.00    -0.200 F 
ATOM     91  C   UNL     1      -8.710  20.626  -9.150  1.00  0.00     0.200 A 
ATOM     92  F   UNL     1      -7.442  22.259  -8.010  1.00  0.00    -0.200 F 
ATOM     93  F   UNL     1      -9.220  21.565  -9.958  1.00  0.00    -0.200 F 
ENDBRANCH  60  83
ENDBRANCH  34  35
ENDBRANCH  26  29
ENDBRANCH  24  25
ENDBRANCH  23  24
ENDBRANCH   1  23
TORSDOF 14
