REMARK SMILES CC(C)(O)C#Cc1ccc(C(=O)N[C@@H](CCC(N)=O)C(=O)NCCCCNC(=O)c2ccc(-c3c4nc(c(-c5c(F)c(F)c(F)c(F)c5F)c5ccc([nH]5)c(-c5c(F)c(F)c(F)c(F)c5F)c5nc(c(-c6c(F)c(F)c(F)c(F)c6F)c6ccc3[nH]6)C=C5)C=C4)cc2)s1
REMARK SMILES IDX 23 1 22 2 20 3 21 4 14 6 13 7 11 8 12 9 10 11 7 12 8 13
REMARK SMILES IDX 93 14 9 15 6 16 5 17 2 18 1 19 3 20 4 21 15 23 16 24 17 25
REMARK SMILES IDX 18 26 19 27 24 30 25 31 26 32 27 33 28 34 29 36 30 37 31 38
REMARK SMILES IDX 92 39 32 40 91 41 33 42 34 43 35 44 85 45 36 46 90 47 84 48
REMARK SMILES IDX 86 49 37 50 89 51 83 52 82 53 38 55 70 56 50 57 69 58 51 59
REMARK SMILES IDX 54 60 68 61 87 62 52 63 53 64 67 66 88 67 55 68 39 69 40 70
REMARK SMILES IDX 48 71 41 72 42 73 46 74 49 75 43 76 44 77 47 78 45 79 71 80
REMARK SMILES IDX 72 81 80 82 73 83 74 84 78 85 81 86 75 87 76 88 79 89 77 90
REMARK SMILES IDX 56 91 57 92 65 93 58 94 59 95 63 96 66 97 60 98 61 99 64 100
REMARK SMILES IDX 62 101
REMARK H PARENT 22 5 13 10 4 22 18 28 18 29 27 35 86 54 54 65
REMARK Flexibility Score: inf
ROOT
ATOM      1  C   UNL     1       5.180   5.180   7.609  1.00  0.00     0.116 C 
ENDROOT
BRANCH   1   2
ATOM      2  N   UNL     1       4.064   4.373   7.175  1.00  0.00    -0.354 N 
ATOM      3  C   UNL     1       3.659   3.969   5.942  1.00  0.00     0.242 C 
ATOM      4  O   UNL     1       2.701   3.189   5.903  1.00  0.00    -0.273 OA
ATOM      5  H   UNL     1       3.490   4.056   7.909  1.00  0.00     0.163 HD
BRANCH   3   6
ATOM      6  C   UNL     1       4.362   4.408   4.643  1.00  0.00     0.172 C 
BRANCH   6   7
ATOM      7  N   UNL     1       4.484   5.874   4.513  1.00  0.00    -0.340 N 
ATOM      8  C   UNL     1       3.878   6.756   3.645  1.00  0.00     0.262 C 
ATOM      9  O   UNL     1       3.935   7.946   3.964  1.00  0.00    -0.268 OA
ATOM     10  H   UNL     1       5.103   6.291   5.154  1.00  0.00     0.164 HD
BRANCH   8  11
ATOM     11  C   UNL     1       3.148   6.301   2.485  1.00  0.00     0.093 A 
ATOM     12  C   UNL     1       2.022   4.772   1.006  1.00  0.00     0.078 A 
ATOM     13  C   UNL     1       1.379   5.989   1.015  1.00  0.00     0.030 A 
ATOM     14  S   UNL     1       3.621   4.944   1.552  1.00  0.00    -0.121 S 
ATOM     15  C   UNL     1       2.060   6.905   1.874  1.00  0.00     0.027 A 
BRANCH  12  16
ATOM     16  C   UNL     1       1.506   3.548   0.528  1.00  0.00    -0.053 C 
ATOM     17  C   UNL     1       1.071   2.480  -0.082  1.00  0.00    -0.063 C 
BRANCH  17  18
ATOM     18  C   UNL     1       0.565   1.236  -0.792  1.00  0.00     0.120 C 
ATOM     19  C   UNL     1       1.037  -0.012  -0.049  1.00  0.00     0.056 C 
ATOM     20  C   UNL     1       1.049   1.235  -2.240  1.00  0.00     0.056 C 
BRANCH  18  21
ATOM     21  O   UNL     1      -0.860   1.272  -0.785  1.00  0.00    -0.378 OA
ATOM     22  H   UNL     1      -1.205   0.485  -1.235  1.00  0.00     0.212 HD
ENDBRANCH  18  21
ENDBRANCH  17  18
ENDBRANCH  12  16
ENDBRANCH   8  11
ENDBRANCH   6   7
BRANCH   6  23
ATOM     23  C   UNL     1       5.650   3.669   4.217  1.00  0.00     0.045 C 
BRANCH  23  24
ATOM     24  C   UNL     1       6.755   3.417   5.237  1.00  0.00     0.102 C 
BRANCH  24  25
ATOM     25  C   UNL     1       6.468   2.262   6.166  1.00  0.00     0.217 C 
ATOM     26  N   UNL     1       7.463   1.989   7.051  1.00  0.00    -0.370 N 
ATOM     27  O   UNL     1       5.446   1.592   6.163  1.00  0.00    -0.275 OA
ATOM     28  H   UNL     1       8.284   2.530   7.050  1.00  0.00     0.159 HD
ATOM     29  H   UNL     1       7.361   1.249   7.693  1.00  0.00     0.159 HD
ENDBRANCH  24  25
ENDBRANCH  23  24
ENDBRANCH   6  23
ENDBRANCH   3   6
ENDBRANCH   1   2
BRANCH   1  30
ATOM     30  C   UNL     1       4.772   6.234   8.634  1.00  0.00     0.023 C 
BRANCH  30  31
ATOM     31  C   UNL     1       4.319   5.687   9.994  1.00  0.00     0.023 C 
BRANCH  31  32
ATOM     32  C   UNL     1       5.314   4.750  10.661  1.00  0.00     0.116 C 
BRANCH  32  33
ATOM     33  N   UNL     1       6.615   5.375  10.924  1.00  0.00    -0.352 N 
ATOM     34  C   UNL     1       7.718   4.803  11.530  1.00  0.00     0.251 C 
ATOM     35  H   UNL     1       6.715   6.310  10.634  1.00  0.00     0.163 HD
ATOM     36  O   UNL     1       8.605   5.497  12.031  1.00  0.00    -0.269 OA
BRANCH  34  37
ATOM     37  C   UNL     1       7.839   3.338  11.532  1.00  0.00     0.039 A 
ATOM     38  C   UNL     1       8.319   2.612  12.624  1.00  0.00     0.014 A 
ATOM     39  C   UNL     1       7.414   2.686  10.382  1.00  0.00     0.014 A 
ATOM     40  C   UNL     1       8.316   1.219  12.552  1.00  0.00     0.010 A 
ATOM     41  C   UNL     1       7.199   1.339  10.404  1.00  0.00     0.010 A 
ATOM     42  C   UNL     1       7.749   0.594  11.431  1.00  0.00    -0.014 A 
BRANCH  42  43
ATOM     43  C   UNL     1       7.597  -0.848  11.328  1.00  0.00     0.031 A 
ATOM     44  C   UNL     1       6.796  -1.440  12.425  1.00  0.00     0.074 A 
ATOM     45  C   UNL     1       7.936  -1.536  10.213  1.00  0.00     0.049 A 
ATOM     46  N   UNL     1       7.220  -2.225  13.355  1.00  0.00    -0.248 NA
ATOM     47  C   UNL     1       5.409  -0.983  12.615  1.00  0.00     0.031 C 
ATOM     48  C   UNL     1       8.452  -1.021   8.938  1.00  0.00     0.029 A 
ATOM     49  N   UNL     1       7.792  -2.861   9.949  1.00  0.00    -0.354 N 
ATOM     50  C   UNL     1       6.107  -2.537  14.127  1.00  0.00     0.074 A 
ATOM     51  C   UNL     1       5.084  -1.596  13.756  1.00  0.00     0.031 C 
ATOM     52  C   UNL     1       8.341  -1.970   7.980  1.00  0.00     0.029 A 
ATOM     53  C   UNL     1       7.925  -3.210   8.607  1.00  0.00     0.049 A 
ATOM     54  H   UNL     1       7.609  -3.525  10.653  1.00  0.00     0.167 HD
ATOM     55  C   UNL     1       6.052  -3.717  14.806  1.00  0.00     0.037 A 
ATOM     56  C   UNL     1       7.692  -4.433   8.063  1.00  0.00     0.037 A 
ATOM     57  C   UNL     1       7.365  -4.312  14.900  1.00  0.00     0.049 A 
ATOM     58  C   UNL     1       7.745  -5.417   9.175  1.00  0.00     0.074 A 
ATOM     59  C   UNL     1       8.572  -3.912  15.440  1.00  0.00     0.029 A 
ATOM     60  N   UNL     1       7.669  -5.327  14.024  1.00  0.00    -0.354 N 
ATOM     61  N   UNL     1       8.836  -5.701   9.831  1.00  0.00    -0.248 NA
ATOM     62  C   UNL     1       6.500  -5.699   9.875  1.00  0.00     0.031 C 
ATOM     63  C   UNL     1       9.557  -4.352  14.506  1.00  0.00     0.029 A 
ATOM     64  C   UNL     1       8.909  -5.070  13.501  1.00  0.00     0.049 A 
ATOM     65  H   UNL     1       7.098  -6.100  13.811  1.00  0.00     0.167 HD
ATOM     66  C   UNL     1       8.438  -5.765  11.159  1.00  0.00     0.074 A 
ATOM     67  C   UNL     1       6.978  -5.828  11.117  1.00  0.00     0.031 C 
ATOM     68  C   UNL     1       9.306  -5.454  12.166  1.00  0.00     0.037 A 
BRANCH  55  69
ATOM     69  C   UNL     1       4.794  -4.526  15.019  1.00  0.00     0.064 A 
ATOM     70  C   UNL     1       4.869  -5.691  15.809  1.00  0.00     0.173 A 
ATOM     71  C   UNL     1       3.621  -4.393  14.245  1.00  0.00     0.173 A 
ATOM     72  F   UNL     1       5.940  -5.927  16.581  1.00  0.00    -0.203 F 
ATOM     73  C   UNL     1       3.895  -6.691  15.745  1.00  0.00     0.198 A 
ATOM     74  C   UNL     1       2.626  -5.368  14.226  1.00  0.00     0.198 A 
ATOM     75  F   UNL     1       3.433  -3.381  13.391  1.00  0.00    -0.203 F 
ATOM     76  F   UNL     1       4.081  -7.842  16.404  1.00  0.00    -0.200 F 
ATOM     77  C   UNL     1       2.779  -6.532  14.945  1.00  0.00     0.200 A 
ATOM     78  F   UNL     1       1.559  -5.201  13.431  1.00  0.00    -0.200 F 
ATOM     79  F   UNL     1       1.879  -7.517  14.827  1.00  0.00    -0.200 F 
ENDBRANCH  55  69
BRANCH  56  80
ATOM     80  C   UNL     1       7.128  -4.775   6.732  1.00  0.00     0.064 A 
ATOM     81  C   UNL     1       7.207  -6.082   6.221  1.00  0.00     0.173 A 
ATOM     82  C   UNL     1       6.245  -3.901   6.069  1.00  0.00     0.173 A 
ATOM     83  F   UNL     1       7.991  -6.993   6.817  1.00  0.00    -0.203 F 
ATOM     84  C   UNL     1       6.427  -6.498   5.135  1.00  0.00     0.198 A 
ATOM     85  C   UNL     1       5.469  -4.315   4.984  1.00  0.00     0.198 A 
ATOM     86  F   UNL     1       6.047  -2.655   6.524  1.00  0.00    -0.203 F 
ATOM     87  F   UNL     1       6.484  -7.770   4.717  1.00  0.00    -0.200 F 
ATOM     88  C   UNL     1       5.549  -5.617   4.526  1.00  0.00     0.200 A 
ATOM     89  F   UNL     1       4.596  -3.465   4.426  1.00  0.00    -0.200 F 
ATOM     90  F   UNL     1       4.755  -6.031   3.529  1.00  0.00    -0.200 F 
ENDBRANCH  56  80
BRANCH  68  91
ATOM     91  C   UNL     1      10.761  -5.291  11.818  1.00  0.00     0.064 A 
ATOM     92  C   UNL     1      11.267  -4.299  10.959  1.00  0.00     0.173 A 
ATOM     93  C   UNL     1      11.694  -6.082  12.502  1.00  0.00     0.173 A 
ATOM     94  F   UNL     1      10.452  -3.436  10.343  1.00  0.00    -0.203 F 
ATOM     95  C   UNL     1      12.639  -4.139  10.764  1.00  0.00     0.198 A 
ATOM     96  C   UNL     1      13.063  -5.896  12.335  1.00  0.00     0.198 A 
ATOM     97  F   UNL     1      11.273  -7.008  13.377  1.00  0.00    -0.203 F 
ATOM     98  F   UNL     1      13.094  -3.191   9.931  1.00  0.00    -0.200 F 
ATOM     99  C   UNL     1      13.535  -4.933  11.459  1.00  0.00     0.200 A 
ATOM    100  F   UNL     1      13.925  -6.632  13.048  1.00  0.00    -0.200 F 
ATOM    101  F   UNL     1      14.855  -4.752  11.305  1.00  0.00    -0.200 F 
ENDBRANCH  68  91
ENDBRANCH  42  43
ENDBRANCH  34  37
ENDBRANCH  32  33
ENDBRANCH  31  32
ENDBRANCH  30  31
ENDBRANCH   1  30
TORSDOF 19
