REMARK SMILES CC(C)c1cc(O)cc(C(C)C)c1O[C@@H]1O[C@@H](C(=O)NCCCCNC(=O)c2ccc(-c3c4nc(c(-c5c(F)c(F)c(F)c(F)c5F)c5ccc([nH]5)c(-c5c(F)c(F)c(F)c(F)c5F)c5nc(c(-c6c(F)c(F)c(F)c(F)c6F)c6ccc3[nH]6)C=C5)C=C4)cc2)[C@@H](O)[C@H](O)[C@@H]1O
REMARK SMILES IDX 22 1 21 2 20 3 18 4 19 5 17 7 15 8 16 9 95 10 93 11 91 12
REMARK SMILES IDX 14 13 13 14 4 15 5 16 6 17 9 18 8 19 2 20 1 21 3 22 7 23
REMARK SMILES IDX 10 25 11 26 12 27 96 28 94 30 92 32 23 34 24 35 25 36 26 37
REMARK SMILES IDX 27 39 28 40 29 41 90 42 30 43 89 44 31 45 32 46 33 47 83 48
REMARK SMILES IDX 34 49 88 50 82 51 84 52 35 53 87 54 81 55 80 56 36 58 68 59
REMARK SMILES IDX 48 60 67 61 49 62 52 63 66 64 85 65 50 66 51 67 65 69 86 70
REMARK SMILES IDX 53 71 37 72 38 73 46 74 39 75 40 76 44 77 47 78 41 79 42 80
REMARK SMILES IDX 45 81 43 82 69 83 70 84 78 85 71 86 72 87 76 88 79 89 73 90
REMARK SMILES IDX 74 91 77 92 75 93 54 94 55 95 63 96 56 97 57 98 61 99 64 100
REMARK SMILES IDX 58 101 59 102 62 103 60 104
REMARK H PARENT 20 6 7 24 96 29 94 31 92 33 25 38 84 57 52 68
REMARK Flexibility Score: inf
ROOT
ATOM      1  C   UNL     1      -2.145   1.587   0.460  1.00  0.00     0.023 C 
ENDROOT
BRANCH   1   2
ATOM      2  C   UNL     1      -2.127   0.145   0.961  1.00  0.00     0.116 C 
BRANCH   2   3
ATOM      3  N   UNL     1      -2.119  -0.862  -0.090  1.00  0.00    -0.354 N 
ATOM      4  C   UNL     1      -1.190  -1.726  -0.572  1.00  0.00     0.252 C 
ATOM      5  O   UNL     1      -1.661  -2.683  -1.204  1.00  0.00    -0.272 OA
ATOM      6  H   UNL     1      -2.984  -0.932  -0.556  1.00  0.00     0.163 HD
BRANCH   4   7
ATOM      7  C   UNL     1       0.360  -1.571  -0.463  1.00  0.00     0.242 C 
ATOM      8  C   UNL     1       0.891  -3.748   0.448  1.00  0.00     0.339 C 
ATOM      9  O   UNL     1       1.060  -2.822  -0.633  1.00  0.00    -0.324 OA
ATOM     10  C   UNL     1       0.970  -3.184   1.904  1.00  0.00     0.214 C 
ATOM     11  C   UNL     1       0.588  -1.695   2.011  1.00  0.00     0.181 C 
ATOM     12  C   UNL     1       0.966  -0.889   0.754  1.00  0.00     0.184 C 
BRANCH   8  13
ATOM     13  O   UNL     1       1.636  -4.967   0.294  1.00  0.00    -0.461 OA
BRANCH  13  14
ATOM     14  C   UNL     1       2.982  -5.212   0.247  1.00  0.00     0.130 A 
ATOM     15  C   UNL     1       3.260  -6.617   0.319  1.00  0.00     0.001 A 
ATOM     16  C   UNL     1       4.594  -7.073   0.347  1.00  0.00     0.054 A 
ATOM     17  C   UNL     1       5.640  -6.177   0.255  1.00  0.00     0.116 A 
ATOM     18  C   UNL     1       4.071  -4.307   0.171  1.00  0.00     0.001 A 
ATOM     19  C   UNL     1       5.387  -4.824   0.154  1.00  0.00     0.054 A 
BRANCH  15  20
ATOM     20  C   UNL     1       2.120  -7.641   0.414  1.00  0.00     0.017 C 
ATOM     21  C   UNL     1       2.446  -9.021  -0.179  1.00  0.00     0.012 C 
ATOM     22  C   UNL     1       1.671  -7.801   1.870  1.00  0.00     0.012 C 
ENDBRANCH  15  20
BRANCH  17  23
ATOM     23  O   UNL     1       6.941  -6.580   0.265  1.00  0.00    -0.508 OA
ATOM     24  H   UNL     1       7.148  -7.491   0.332  1.00  0.00     0.293 HD
ENDBRANCH  17  23
BRANCH  18  25
ATOM     25  C   UNL     1       3.980  -2.799   0.101  1.00  0.00     0.017 C 
ATOM     26  C   UNL     1       4.841  -2.053   1.132  1.00  0.00     0.012 C 
ATOM     27  C   UNL     1       4.220  -2.263  -1.309  1.00  0.00     0.012 C 
ENDBRANCH  18  25
ENDBRANCH  13  14
ENDBRANCH   8  13
BRANCH  10  28
ATOM     28  O   UNL     1       2.250  -3.340   2.545  1.00  0.00    -0.384 OA
ATOM     29  H   UNL     1       2.908  -2.793   2.088  1.00  0.00     0.211 HD
ENDBRANCH  10  28
BRANCH  11  30
ATOM     30  O   UNL     1       1.204  -1.115   3.170  1.00  0.00    -0.387 OA
ATOM     31  H   UNL     1       2.168  -1.161   3.081  1.00  0.00     0.211 HD
ENDBRANCH  11  30
BRANCH  12  32
ATOM     32  O   UNL     1       0.669   0.505   0.799  1.00  0.00    -0.387 OA
ATOM     33  H   UNL     1      -0.292   0.629   0.855  1.00  0.00     0.211 HD
ENDBRANCH  12  32
ENDBRANCH   4   7
ENDBRANCH   2   3
ENDBRANCH   1   2
BRANCH   1  34
ATOM     34  C   UNL     1      -3.459   2.322   0.722  1.00  0.00     0.023 C 
BRANCH  34  35
ATOM     35  C   UNL     1      -3.992   2.248   2.149  1.00  0.00     0.116 C 
BRANCH  35  36
ATOM     36  N   UNL     1      -3.070   2.678   3.190  1.00  0.00    -0.352 N 
ATOM     37  C   UNL     1      -3.418   3.027   4.486  1.00  0.00     0.251 C 
ATOM     38  H   UNL     1      -2.116   2.724   2.953  1.00  0.00     0.163 HD
ATOM     39  O   UNL     1      -2.614   3.415   5.303  1.00  0.00    -0.269 OA
BRANCH  37  40
ATOM     40  C   UNL     1      -4.857   2.941   4.816  1.00  0.00     0.039 A 
ATOM     41  C   UNL     1      -5.592   4.123   4.925  1.00  0.00     0.014 A 
ATOM     42  C   UNL     1      -5.486   1.696   4.768  1.00  0.00     0.014 A 
ATOM     43  C   UNL     1      -6.985   4.062   4.887  1.00  0.00     0.010 A 
ATOM     44  C   UNL     1      -6.869   1.645   4.660  1.00  0.00     0.010 A 
ATOM     45  C   UNL     1      -7.628   2.828   4.696  1.00  0.00    -0.014 A 
BRANCH  45  46
ATOM     46  C   UNL     1      -9.096   2.737   4.502  1.00  0.00     0.031 A 
ATOM     47  C   UNL     1      -9.924   1.983   5.499  1.00  0.00     0.074 A 
ATOM     48  C   UNL     1      -9.658   3.214   3.374  1.00  0.00     0.049 A 
ATOM     49  N   UNL     1     -11.184   1.638   5.439  1.00  0.00    -0.248 NA
ATOM     50  C   UNL     1      -9.225   1.516   6.706  1.00  0.00     0.031 C 
ATOM     51  C   UNL     1      -8.945   3.906   2.298  1.00  0.00     0.029 A 
ATOM     52  N   UNL     1     -10.956   3.161   2.931  1.00  0.00    -0.354 N 
ATOM     53  C   UNL     1     -11.417   0.880   6.578  1.00  0.00     0.074 A 
ATOM     54  C   UNL     1     -10.160   0.782   7.288  1.00  0.00     0.031 C 
ATOM     55  C   UNL     1      -9.815   4.214   1.322  1.00  0.00     0.029 A 
ATOM     56  C   UNL     1     -11.137   3.713   1.686  1.00  0.00     0.049 A 
ATOM     57  H   UNL     1     -11.689   2.765   3.456  1.00  0.00     0.167 HD
ATOM     58  C   UNL     1     -12.579   0.332   7.001  1.00  0.00     0.037 A 
ATOM     59  C   UNL     1     -12.242   3.792   0.919  1.00  0.00     0.037 A 
ATOM     60  C   UNL     1     -13.835   0.478   6.317  1.00  0.00     0.049 A 
ATOM     61  C   UNL     1     -13.536   3.223   1.435  1.00  0.00     0.074 A 
ATOM     62  C   UNL     1     -15.088   0.047   6.712  1.00  0.00     0.029 A 
ATOM     63  N   UNL     1     -13.994   1.110   5.092  1.00  0.00    -0.354 N 
ATOM     64  N   UNL     1     -13.765   2.577   2.552  1.00  0.00    -0.248 NA
ATOM     65  C   UNL     1     -14.726   3.400   0.590  1.00  0.00     0.031 C 
ATOM     66  C   UNL     1     -16.002   0.389   5.709  1.00  0.00     0.029 A 
ATOM     67  C   UNL     1     -15.324   1.067   4.708  1.00  0.00     0.049 A 
ATOM     68  H   UNL     1     -13.269   1.527   4.573  1.00  0.00     0.167 HD
ATOM     69  C   UNL     1     -15.123   2.289   2.556  1.00  0.00     0.074 A 
ATOM     70  C   UNL     1     -15.670   2.838   1.333  1.00  0.00     0.031 C 
ATOM     71  C   UNL     1     -15.850   1.629   3.490  1.00  0.00     0.037 A 
BRANCH  58  72
ATOM     72  C   UNL     1     -12.537  -0.478   8.262  1.00  0.00     0.064 A 
ATOM     73  C   UNL     1     -12.329   0.120   9.515  1.00  0.00     0.173 A 
ATOM     74  C   UNL     1     -12.702  -1.870   8.218  1.00  0.00     0.173 A 
ATOM     75  F   UNL     1     -12.149   1.446   9.609  1.00  0.00    -0.203 F 
ATOM     76  C   UNL     1     -12.246  -0.651  10.671  1.00  0.00     0.198 A 
ATOM     77  C   UNL     1     -12.650  -2.634   9.380  1.00  0.00     0.198 A 
ATOM     78  F   UNL     1     -12.908  -2.490   7.046  1.00  0.00    -0.203 F 
ATOM     79  F   UNL     1     -11.983  -0.066  11.847  1.00  0.00    -0.200 F 
ATOM     80  C   UNL     1     -12.411  -2.026  10.603  1.00  0.00     0.200 A 
ATOM     81  F   UNL     1     -12.819  -3.962   9.314  1.00  0.00    -0.200 F 
ATOM     82  F   UNL     1     -12.327  -2.768  11.716  1.00  0.00    -0.200 F 
ENDBRANCH  58  72
BRANCH  59  83
ATOM     83  C   UNL     1     -12.171   4.454  -0.408  1.00  0.00     0.064 A 
ATOM     84  C   UNL     1     -12.736   5.720  -0.611  1.00  0.00     0.173 A 
ATOM     85  C   UNL     1     -11.519   3.848  -1.492  1.00  0.00     0.173 A 
ATOM     86  F   UNL     1     -13.387   6.330   0.390  1.00  0.00    -0.203 F 
ATOM     87  C   UNL     1     -12.661   6.352  -1.851  1.00  0.00     0.198 A 
ATOM     88  C   UNL     1     -11.424   4.490  -2.725  1.00  0.00     0.198 A 
ATOM     89  F   UNL     1     -10.956   2.639  -1.346  1.00  0.00    -0.203 F 
ATOM     90  F   UNL     1     -13.235   7.550  -2.026  1.00  0.00    -0.200 F 
ATOM     91  C   UNL     1     -11.999   5.740  -2.905  1.00  0.00     0.200 A 
ATOM     92  F   UNL     1     -10.773   3.901  -3.737  1.00  0.00    -0.200 F 
ATOM     93  F   UNL     1     -11.917   6.352  -4.094  1.00  0.00    -0.200 F 
ENDBRANCH  59  83
BRANCH  71  94
ATOM     94  C   UNL     1     -17.322   1.488   3.248  1.00  0.00     0.064 A 
ATOM     95  C   UNL     1     -17.826   0.563   2.324  1.00  0.00     0.173 A 
ATOM     96  C   UNL     1     -18.239   2.232   4.006  1.00  0.00     0.173 A 
ATOM     97  F   UNL     1     -16.987  -0.161   1.567  1.00  0.00    -0.203 F 
ATOM     98  C   UNL     1     -19.198   0.393   2.161  1.00  0.00     0.198 A 
ATOM     99  C   UNL     1     -19.609   2.044   3.856  1.00  0.00     0.198 A 
ATOM    100  F   UNL     1     -17.803   3.126   4.906  1.00  0.00    -0.203 F 
ATOM    101  F   UNL     1     -19.661  -0.479   1.254  1.00  0.00    -0.200 F 
ATOM    102  C   UNL     1     -20.088   1.126   2.933  1.00  0.00     0.200 A 
ATOM    103  F   UNL     1     -20.467   2.744   4.611  1.00  0.00    -0.200 F 
ATOM    104  F   UNL     1     -21.408   0.949   2.786  1.00  0.00    -0.200 F 
ENDBRANCH  71  94
ENDBRANCH  45  46
ENDBRANCH  37  40
ENDBRANCH  35  36
ENDBRANCH  34  35
ENDBRANCH   1  34
TORSDOF 19
