REMARK SMILES CC(C)OCCS(=O)(=O)N1CCC[C@H](C(=O)NCCCCNC(=O)c2ccc(-c3c4nc(c(-c5c(F)c(F)c(F)c(F)c5F)c5ccc([nH]5)c(-c5c(F)c(F)c(F)c(F)c5F)c5nc(c(-c6c(F)c(F)c(F)c(F)c6F)c6ccc3[nH]6)C=C5)C=C4)cc2)C1
REMARK SMILES IDX 18 1 17 2 15 3 16 4 14 6 10 7 11 8 88 9 12 10 13 11 7 12
REMARK SMILES IDX 8 13 9 14 6 15 5 16 4 17 2 18 1 19 3 20 19 21 20 22 21 23
REMARK SMILES IDX 22 24 23 25 24 27 25 28 26 29 87 30 27 31 86 32 28 33 29 34
REMARK SMILES IDX 30 35 80 36 31 37 85 38 79 39 81 40 32 41 84 42 78 43 77 44
REMARK SMILES IDX 33 46 65 47 45 48 64 49 46 50 49 51 63 52 82 53 47 54 48 55
REMARK SMILES IDX 62 57 83 58 50 59 34 60 35 61 43 62 36 63 37 64 41 65 44 66
REMARK SMILES IDX 38 67 39 68 42 69 40 70 66 71 67 72 75 73 68 74 69 75 73 76
REMARK SMILES IDX 76 77 70 78 71 79 74 80 72 81 51 82 52 83 60 84 53 85 54 86
REMARK SMILES IDX 58 87 61 88 55 89 56 90 59 91 57 92
REMARK H PARENT 17 5 22 26 81 45 49 56
REMARK Flexibility Score: inf
ROOT
ATOM      1  C   UNL     1       2.063  -1.039   4.992  1.00  0.00     0.116 C 
ENDROOT
BRANCH   1   2
ATOM      2  N   UNL     1       3.415  -1.553   5.011  1.00  0.00    -0.356 N 
ATOM      3  C   UNL     1       4.378  -1.637   4.062  1.00  0.00     0.224 C 
ATOM      4  O   UNL     1       5.490  -2.007   4.460  1.00  0.00    -0.275 OA
ATOM      5  H   UNL     1       3.690  -1.912   5.886  1.00  0.00     0.163 HD
BRANCH   3   6
ATOM      6  C   UNL     1       4.174  -1.396   2.566  1.00  0.00     0.093 C 
ATOM      7  N   UNL     1       2.165   0.092   1.921  1.00  0.00    -0.201 NA
ATOM      8  C   UNL     1       1.645  -1.079   1.148  1.00  0.00     0.102 C 
ATOM      9  C   UNL     1       3.661  -0.028   2.134  1.00  0.00     0.115 C 
ATOM     10  C   UNL     1       2.032  -2.422   1.757  1.00  0.00     0.018 C 
ATOM     11  C   UNL     1       3.530  -2.576   1.853  1.00  0.00     0.016 C 
BRANCH   7  12
ATOM     12  S   UNL     1       1.807   1.675   1.276  1.00  0.00     0.216 S 
ATOM     13  O   UNL     1       1.851   1.565  -0.165  1.00  0.00    -0.212 OA
ATOM     14  O   UNL     1       2.712   2.585   1.954  1.00  0.00    -0.212 OA
BRANCH  12  15
ATOM     15  C   UNL     1       0.160   2.164   1.835  1.00  0.00     0.182 C 
BRANCH  15  16
ATOM     16  C   UNL     1      -0.873   2.351   0.730  1.00  0.00     0.178 C 
BRANCH  16  17
ATOM     17  O   UNL     1      -2.074   1.589   0.872  1.00  0.00    -0.378 OA
BRANCH  17  18
ATOM     18  C   UNL     1      -2.026   0.176   0.681  1.00  0.00     0.112 C 
ATOM     19  C   UNL     1      -1.155  -0.257  -0.495  1.00  0.00     0.038 C 
ATOM     20  C   UNL     1      -1.755  -0.499   2.025  1.00  0.00     0.038 C 
ENDBRANCH  17  18
ENDBRANCH  16  17
ENDBRANCH  15  16
ENDBRANCH  12  15
ENDBRANCH   7  12
ENDBRANCH   3   6
ENDBRANCH   1   2
BRANCH   1  21
ATOM     21  C   UNL     1       1.012  -2.125   5.235  1.00  0.00     0.023 C 
BRANCH  21  22
ATOM     22  C   UNL     1       0.590  -2.280   6.691  1.00  0.00     0.023 C 
BRANCH  22  23
ATOM     23  C   UNL     1      -0.092  -1.058   7.290  1.00  0.00     0.116 C 
BRANCH  23  24
ATOM     24  N   UNL     1      -1.395  -0.752   6.717  1.00  0.00    -0.352 N 
ATOM     25  C   UNL     1      -2.526  -0.309   7.378  1.00  0.00     0.251 C 
ATOM     26  H   UNL     1      -1.482  -0.877   5.745  1.00  0.00     0.163 HD
ATOM     27  O   UNL     1      -3.580  -0.148   6.790  1.00  0.00    -0.269 OA
BRANCH  25  28
ATOM     28  C   UNL     1      -2.438  -0.092   8.841  1.00  0.00     0.039 A 
ATOM     29  C   UNL     1      -3.336  -0.758   9.677  1.00  0.00     0.014 A 
ATOM     30  C   UNL     1      -1.388   0.656   9.379  1.00  0.00     0.014 A 
ATOM     31  C   UNL     1      -3.119  -0.755  11.056  1.00  0.00     0.010 A 
ATOM     32  C   UNL     1      -1.118   0.572  10.739  1.00  0.00     0.010 A 
ATOM     33  C   UNL     1      -1.975  -0.140  11.593  1.00  0.00    -0.014 A 
BRANCH  33  34
ATOM     34  C   UNL     1      -1.651  -0.230  13.041  1.00  0.00     0.031 A 
ATOM     35  C   UNL     1      -1.547   1.023  13.865  1.00  0.00     0.074 A 
ATOM     36  C   UNL     1      -1.370  -1.426  13.596  1.00  0.00     0.049 A 
ATOM     37  N   UNL     1      -1.187   1.166  15.116  1.00  0.00    -0.248 NA
ATOM     38  C   UNL     1      -1.851   2.291  13.181  1.00  0.00     0.031 C 
ATOM     39  C   UNL     1      -1.366  -2.710  12.892  1.00  0.00     0.029 A 
ATOM     40  N   UNL     1      -1.018  -1.756  14.883  1.00  0.00    -0.354 N 
ATOM     41  C   UNL     1      -1.202   2.533  15.357  1.00  0.00     0.074 A 
ATOM     42  C   UNL     1      -1.542   3.182  14.110  1.00  0.00     0.031 C 
ATOM     43  C   UNL     1      -1.056  -3.688  13.758  1.00  0.00     0.029 A 
ATOM     44  C   UNL     1      -0.803  -3.101  15.070  1.00  0.00     0.049 A 
ATOM     45  H   UNL     1      -0.929  -1.092  15.604  1.00  0.00     0.167 HD
ATOM     46  C   UNL     1      -0.984   3.189  16.521  1.00  0.00     0.037 A 
ATOM     47  C   UNL     1      -0.438  -3.782  16.174  1.00  0.00     0.037 A 
ATOM     48  C   UNL     1      -0.686   2.541  17.770  1.00  0.00     0.049 A 
ATOM     49  C   UNL     1      -0.226  -3.033  17.462  1.00  0.00     0.074 A 
ATOM     50  C   UNL     1      -0.515   3.112  19.019  1.00  0.00     0.029 A 
ATOM     51  N   UNL     1      -0.518   1.173  17.928  1.00  0.00    -0.354 N 
ATOM     52  N   UNL     1      -0.314  -1.746  17.694  1.00  0.00    -0.248 NA
ATOM     53  C   UNL     1       0.126  -3.832  18.644  1.00  0.00     0.031 C 
ATOM     54  C   UNL     1      -0.203   2.094  19.925  1.00  0.00     0.029 A 
ATOM     55  C   UNL     1      -0.230   0.883  19.252  1.00  0.00     0.049 A 
ATOM     56  H   UNL     1      -0.593   0.508  17.206  1.00  0.00     0.167 HD
ATOM     57  C   UNL     1      -0.054  -1.583  19.048  1.00  0.00     0.074 A 
ATOM     58  C   UNL     1       0.178  -2.905  19.591  1.00  0.00     0.031 C 
ATOM     59  C   UNL     1      -0.011  -0.440  19.776  1.00  0.00     0.037 A 
BRANCH  46  60
ATOM     60  C   UNL     1      -1.078   4.687  16.501  1.00  0.00     0.064 A 
ATOM     61  C   UNL     1      -2.305   5.344  16.320  1.00  0.00     0.173 A 
ATOM     62  C   UNL     1       0.065   5.476  16.697  1.00  0.00     0.173 A 
ATOM     63  F   UNL     1      -3.426   4.636  16.114  1.00  0.00    -0.203 F 
ATOM     64  C   UNL     1      -2.379   6.734  16.306  1.00  0.00     0.198 A 
ATOM     65  C   UNL     1      -0.018   6.866  16.715  1.00  0.00     0.198 A 
ATOM     66  F   UNL     1       1.263   4.900  16.879  1.00  0.00    -0.203 F 
ATOM     67  F   UNL     1      -3.554   7.338  16.079  1.00  0.00    -0.200 F 
ATOM     68  C   UNL     1      -1.238   7.494  16.512  1.00  0.00     0.200 A 
ATOM     69  F   UNL     1       1.084   7.599  16.927  1.00  0.00    -0.200 F 
ATOM     70  F   UNL     1      -1.312   8.831  16.507  1.00  0.00    -0.200 F 
ENDBRANCH  46  60
BRANCH  47  71
ATOM     71  C   UNL     1      -0.279  -5.259  16.118  1.00  0.00     0.064 A 
ATOM     72  C   UNL     1      -1.187  -6.107  16.767  1.00  0.00     0.173 A 
ATOM     73  C   UNL     1       0.782  -5.854  15.420  1.00  0.00     0.173 A 
ATOM     74  F   UNL     1      -2.207  -5.586  17.465  1.00  0.00    -0.203 F 
ATOM     75  C   UNL     1      -1.029  -7.492  16.738  1.00  0.00     0.198 A 
ATOM     76  C   UNL     1       0.924  -7.239  15.367  1.00  0.00     0.198 A 
ATOM     77  F   UNL     1       1.676  -5.088  14.777  1.00  0.00    -0.203 F 
ATOM     78  F   UNL     1      -1.887  -8.276  17.405  1.00  0.00    -0.200 F 
ATOM     79  C   UNL     1       0.023  -8.057  16.033  1.00  0.00     0.200 A 
ATOM     80  F   UNL     1       1.933  -7.782  14.673  1.00  0.00    -0.200 F 
ATOM     81  F   UNL     1       0.172  -9.388  16.001  1.00  0.00    -0.200 F 
ENDBRANCH  47  71
BRANCH  59  82
ATOM     82  C   UNL     1       0.266  -0.568  21.246  1.00  0.00     0.064 A 
ATOM     83  C   UNL     1       1.539  -0.903  21.729  1.00  0.00     0.173 A 
ATOM     84  C   UNL     1      -0.744  -0.300  22.183  1.00  0.00     0.173 A 
ATOM     85  F   UNL     1       2.534  -1.181  20.873  1.00  0.00    -0.203 F 
ATOM     86  C   UNL     1       1.784  -0.988  23.097  1.00  0.00     0.198 A 
ATOM     87  C   UNL     1      -0.487  -0.357  23.549  1.00  0.00     0.198 A 
ATOM     88  F   UNL     1      -1.977   0.033  21.771  1.00  0.00    -0.203 F 
ATOM     89  F   UNL     1       2.997  -1.353  23.536  1.00  0.00    -0.200 F 
ATOM     90  C   UNL     1       0.774  -0.707  24.005  1.00  0.00     0.200 A 
ATOM     91  F   UNL     1      -1.460  -0.071  24.425  1.00  0.00    -0.200 F 
ATOM     92  F   UNL     1       1.016  -0.780  25.321  1.00  0.00    -0.200 F 
ENDBRANCH  59  82
ENDBRANCH  33  34
ENDBRANCH  25  28
ENDBRANCH  23  24
ENDBRANCH  22  23
ENDBRANCH  21  22
ENDBRANCH   1  21
TORSDOF 16
