REMARK SMILES O=C(NCCCCNC(=O)c1cc2c(c(S(=O)(=O)Nc3cc(C(F)(F)F)ccc3-n3cccn3)c1)CCC2)c1ccc(-c2c3nc(c(-c4c(F)c(F)c(F)c(F)c4F)c4ccc([nH]4)c(-c4c(F)c(F)c(F)c(F)c4F)c4nc(c(-c5c(F)c(F)c(F)c(F)c5F)c5ccc2[nH]5)C=C4)C=C3)cc1
REMARK SMILES IDX 6 1 5 2 4 3 3 4 1 5 2 6 39 8 40 9 101 10 41 11 100 12 42 13
REMARK SMILES IDX 43 14 44 15 94 16 45 17 99 18 93 19 95 20 46 21 98 22 92 23
REMARK SMILES IDX 91 24 47 26 79 27 59 28 78 29 60 30 63 31 77 32 96 33 61 34
REMARK SMILES IDX 62 35 76 37 97 38 64 39 48 40 49 41 57 42 50 43 51 44 55 45
REMARK SMILES IDX 58 46 52 47 53 48 56 49 54 50 80 51 81 52 89 53 82 54 83 55
REMARK SMILES IDX 87 56 90 57 84 58 85 59 88 60 86 61 65 62 66 63 74 64 67 65
REMARK SMILES IDX 68 66 72 67 75 68 69 69 70 70 73 71 71 72 7 73 8 74 9 75
REMARK SMILES IDX 10 77 11 78 12 79 35 80 13 81 15 82 14 83 38 84 36 85 37 86
REMARK SMILES IDX 16 87 17 88 18 89 19 90 20 92 21 93 29 94 22 95 28 96 27 97
REMARK SMILES IDX 30 98 31 99 34 100 32 101 33 102 23 103 24 104 25 105 26 106
REMARK H PARENT 3 7 95 25 63 36 8 76 19 91
REMARK Flexibility Score: inf
ROOT
ATOM      1  C   UNL     1       4.525   3.263  -0.790  1.00  0.00     0.023 C 
ENDROOT
BRANCH   1   2
ATOM      2  C   UNL     1       4.972   1.815  -1.007  1.00  0.00     0.023 C 
BRANCH   2   3
ATOM      3  C   UNL     1       4.598   0.826   0.100  1.00  0.00     0.116 C 
BRANCH   3   4
ATOM      4  N   UNL     1       3.185   0.791   0.427  1.00  0.00    -0.352 N 
ATOM      5  O   UNL     1       1.059   0.246   0.625  1.00  0.00    -0.269 OA
ATOM      6  C   UNL     1       2.091   0.114  -0.039  1.00  0.00     0.251 C 
ATOM      7  H   UNL     1       2.958   1.404   1.163  1.00  0.00     0.163 HD
BRANCH   6   8
ATOM      8  C   UNL     1       2.036  -0.724  -1.273  1.00  0.00     0.039 A 
ATOM      9  C   UNL     1       3.108  -1.011  -2.115  1.00  0.00     0.014 A 
ATOM     10  C   UNL     1       0.768  -1.239  -1.617  1.00  0.00     0.014 A 
ATOM     11  C   UNL     1       2.914  -1.746  -3.287  1.00  0.00     0.010 A 
ATOM     12  C   UNL     1       0.571  -1.984  -2.781  1.00  0.00     0.010 A 
ATOM     13  C   UNL     1       1.643  -2.220  -3.634  1.00  0.00    -0.014 A 
BRANCH  13  14
ATOM     14  C   UNL     1       1.522  -3.041  -4.842  1.00  0.00     0.031 A 
ATOM     15  C   UNL     1       2.279  -4.330  -4.845  1.00  0.00     0.074 A 
ATOM     16  C   UNL     1       0.690  -2.783  -5.872  1.00  0.00     0.049 A 
ATOM     17  N   UNL     1       3.181  -4.737  -5.682  1.00  0.00    -0.248 NA
ATOM     18  C   UNL     1       2.007  -5.276  -3.752  1.00  0.00     0.031 C 
ATOM     19  C   UNL     1      -0.372  -1.780  -5.957  1.00  0.00     0.029 A 
ATOM     20  N   UNL     1       0.581  -3.456  -7.057  1.00  0.00    -0.354 N 
ATOM     21  C   UNL     1       3.502  -6.042  -5.307  1.00  0.00     0.074 A 
ATOM     22  C   UNL     1       2.805  -6.296  -4.071  1.00  0.00     0.031 C 
ATOM     23  C   UNL     1      -1.140  -2.037  -7.042  1.00  0.00     0.029 A 
ATOM     24  C   UNL     1      -0.542  -3.126  -7.798  1.00  0.00     0.049 A 
ATOM     25  H   UNL     1       1.244  -4.118  -7.359  1.00  0.00     0.167 HD
ATOM     26  C   UNL     1       4.209  -6.884  -6.113  1.00  0.00     0.037 A 
ATOM     27  C   UNL     1      -0.978  -3.737  -8.926  1.00  0.00     0.037 A 
ATOM     28  C   UNL     1       4.938  -6.176  -7.126  1.00  0.00     0.049 A 
ATOM     29  C   UNL     1       0.157  -4.481  -9.519  1.00  0.00     0.074 A 
ATOM     30  C   UNL     1       5.940  -5.225  -7.119  1.00  0.00     0.029 A 
ATOM     31  N   UNL     1       4.475  -6.202  -8.416  1.00  0.00    -0.354 N 
ATOM     32  N   UNL     1       1.190  -3.928 -10.088  1.00  0.00    -0.248 NA
ATOM     33  C   UNL     1       0.311  -5.885  -9.170  1.00  0.00     0.031 C 
ATOM     34  C   UNL     1       5.673  -4.396  -8.247  1.00  0.00     0.029 A 
ATOM     35  C   UNL     1       4.541  -4.913  -8.877  1.00  0.00     0.049 A 
ATOM     36  H   UNL     1       4.158  -6.990  -8.914  1.00  0.00     0.167 HD
ATOM     37  C   UNL     1       2.246  -4.775  -9.796  1.00  0.00     0.074 A 
ATOM     38  C   UNL     1       1.628  -6.013  -9.338  1.00  0.00     0.031 C 
ATOM     39  C   UNL     1       3.521  -4.301  -9.691  1.00  0.00     0.037 A 
BRANCH  26  40
ATOM     40  C   UNL     1       4.037  -8.381  -6.154  1.00  0.00     0.064 A 
ATOM     41  C   UNL     1       4.971  -9.178  -6.848  1.00  0.00     0.173 A 
ATOM     42  C   UNL     1       2.838  -9.028  -5.786  1.00  0.00     0.173 A 
ATOM     43  F   UNL     1       6.133  -8.657  -7.272  1.00  0.00    -0.203 F 
ATOM     44  C   UNL     1       4.697 -10.503  -7.199  1.00  0.00     0.198 A 
ATOM     45  C   UNL     1       2.590 -10.366  -6.093  1.00  0.00     0.198 A 
ATOM     46  F   UNL     1       1.826  -8.363  -5.216  1.00  0.00    -0.203 F 
ATOM     47  F   UNL     1       5.566 -11.184  -7.960  1.00  0.00    -0.200 F 
ATOM     48  C   UNL     1       3.505 -11.095  -6.825  1.00  0.00     0.200 A 
ATOM     49  F   UNL     1       1.421 -10.918  -5.740  1.00  0.00    -0.200 F 
ATOM     50  F   UNL     1       3.217 -12.345  -7.208  1.00  0.00    -0.200 F 
ENDBRANCH  26  40
BRANCH  27  51
ATOM     51  C   UNL     1      -2.367  -3.929  -9.398  1.00  0.00     0.064 A 
ATOM     52  C   UNL     1      -2.646  -4.236 -10.739  1.00  0.00     0.173 A 
ATOM     53  C   UNL     1      -3.423  -4.096  -8.482  1.00  0.00     0.173 A 
ATOM     54  F   UNL     1      -1.682  -4.149 -11.667  1.00  0.00    -0.203 F 
ATOM     55  C   UNL     1      -3.902  -4.706 -11.137  1.00  0.00     0.198 A 
ATOM     56  C   UNL     1      -4.678  -4.557  -8.881  1.00  0.00     0.198 A 
ATOM     57  F   UNL     1      -3.228  -3.908  -7.169  1.00  0.00    -0.203 F 
ATOM     58  F   UNL     1      -4.113  -5.050 -12.415  1.00  0.00    -0.200 F 
ATOM     59  C   UNL     1      -4.913  -4.876 -10.205  1.00  0.00     0.200 A 
ATOM     60  F   UNL     1      -5.636  -4.752  -7.964  1.00  0.00    -0.200 F 
ATOM     61  F   UNL     1      -6.096  -5.385 -10.574  1.00  0.00    -0.200 F 
ENDBRANCH  27  51
BRANCH  39  62
ATOM     62  C   UNL     1       3.802  -2.917 -10.200  1.00  0.00     0.064 A 
ATOM     63  C   UNL     1       3.222  -1.756  -9.662  1.00  0.00     0.173 A 
ATOM     64  C   UNL     1       4.811  -2.754 -11.160  1.00  0.00     0.173 A 
ATOM     65  F   UNL     1       2.328  -1.828  -8.668  1.00  0.00    -0.203 F 
ATOM     66  C   UNL     1       3.606  -0.490 -10.101  1.00  0.00     0.198 A 
ATOM     67  C   UNL     1       5.219  -1.487 -11.568  1.00  0.00     0.198 A 
ATOM     68  F   UNL     1       5.440  -3.827 -11.664  1.00  0.00    -0.203 F 
ATOM     69  F   UNL     1       3.033   0.604  -9.579  1.00  0.00    -0.200 F 
ATOM     70  C   UNL     1       4.610  -0.357 -11.046  1.00  0.00     0.200 A 
ATOM     71  F   UNL     1       6.225  -1.361 -12.444  1.00  0.00    -0.200 F 
ATOM     72  F   UNL     1       5.013   0.862 -11.432  1.00  0.00    -0.200 F 
ENDBRANCH  39  62
ENDBRANCH  13  14
ENDBRANCH   6   8
ENDBRANCH   3   4
ENDBRANCH   2   3
ENDBRANCH   1   2
BRANCH   1  73
ATOM     73  C   UNL     1       4.991   3.939   0.497  1.00  0.00     0.116 C 
BRANCH  73  74
ATOM     74  N   UNL     1       6.429   4.192   0.559  1.00  0.00    -0.352 N 
ATOM     75  C   UNL     1       7.104   5.342   0.942  1.00  0.00     0.251 C 
ATOM     76  H   UNL     1       7.001   3.438   0.290  1.00  0.00     0.163 HD
ATOM     77  O   UNL     1       8.323   5.401   0.874  1.00  0.00    -0.269 OA
BRANCH  75  78
ATOM     78  C   UNL     1       6.329   6.523   1.402  1.00  0.00     0.041 A 
ATOM     79  C   UNL     1       5.341   6.340   2.368  1.00  0.00     0.018 A 
ATOM     80  C   UNL     1       6.495   7.771   0.756  1.00  0.00     0.036 A 
ATOM     81  C   UNL     1       4.370   7.313   2.471  1.00  0.00    -0.043 A 
ATOM     82  C   UNL     1       5.535   8.791   0.925  1.00  0.00     0.092 A 
ATOM     83  C   UNL     1       4.416   8.485   1.694  1.00  0.00    -0.024 A 
ATOM     84  C   UNL     1       3.082   7.196   3.228  1.00  0.00     0.036 C 
ATOM     85  C   UNL     1       3.057   9.112   1.736  1.00  0.00     0.037 C 
ATOM     86  C   UNL     1       2.547   8.620   3.092  1.00  0.00     0.010 C 
BRANCH  82  87
ATOM     87  S   UNL     1       5.639  10.264  -0.077  1.00  0.00     0.262 S 
ATOM     88  O   UNL     1       6.867  10.190  -0.829  1.00  0.00    -0.201 OA
ATOM     89  O   UNL     1       4.372  10.406  -0.780  1.00  0.00    -0.201 OA
BRANCH  87  90
ATOM     90  N   UNL     1       5.825  11.668   0.884  1.00  0.00    -0.277 N 
ATOM     91  H   UNL     1       6.547  12.302   0.669  1.00  0.00     0.180 HD
BRANCH  90  92
ATOM     92  C   UNL     1       4.958  11.945   1.993  1.00  0.00     0.075 A 
ATOM     93  C   UNL     1       3.721  12.569   1.756  1.00  0.00     0.042 A 
ATOM     94  C   UNL     1       5.255  11.479   3.284  1.00  0.00     0.089 A 
ATOM     95  C   UNL     1       2.755  12.673   2.780  1.00  0.00     0.058 A 
ATOM     96  C   UNL     1       4.309  11.607   4.313  1.00  0.00     0.031 A 
ATOM     97  C   UNL     1       3.071  12.205   4.063  1.00  0.00     0.015 A 
BRANCH  94  98
ATOM     98  N   UNL     1       6.477  10.820   3.567  1.00  0.00    -0.239 N 
ATOM     99  C   UNL     1       7.705  11.012   2.974  1.00  0.00     0.115 A 
ATOM    100  N   UNL     1       6.517   9.795   4.457  1.00  0.00    -0.177 NA
ATOM    101  C   UNL     1       8.494   9.950   3.336  1.00  0.00     0.042 A 
ATOM    102  C   UNL     1       7.698   9.215   4.226  1.00  0.00     0.135 A 
ENDBRANCH  94  98
BRANCH  95 103
ATOM    103  C   UNL     1       1.371  13.205   2.477  1.00  0.00     0.416 C 
ATOM    104  F   UNL     1       1.359  14.547   2.264  1.00  0.00    -0.166 F 
ATOM    105  F   UNL     1       0.832  12.639   1.361  1.00  0.00    -0.166 F 
ATOM    106  F   UNL     1       0.472  12.972   3.475  1.00  0.00    -0.166 F 
ENDBRANCH  95 103
ENDBRANCH  90  92
ENDBRANCH  87  90
ENDBRANCH  82  87
ENDBRANCH  75  78
ENDBRANCH  73  74
ENDBRANCH   1  73
TORSDOF 16
