REMARK SMILES CC1=C(CCC(=O)NCCCCNC(=O)c2ccc(-c3c4nc(c(-c5c(F)c(F)c(F)c(F)c5F)c5ccc([nH]5)c(-c5c(F)c(F)c(F)c(F)c5F)c5nc(c(-c6c(F)c(F)c(F)c(F)c6F)c6ccc3[nH]6)C=C5)C=C4)cc2)N=N[C@H]1C
REMARK SMILES IDX 10 1 9 2 8 3 6 4 7 5 5 7 4 8 3 9 1 10 2 11 81 12 79 13 80 14
REMARK SMILES IDX 82 15 11 16 12 17 13 18 14 19 15 21 16 22 17 23 78 24 18 25
REMARK SMILES IDX 77 26 19 27 20 28 21 29 71 30 22 31 76 32 70 33 72 34 23 35
REMARK SMILES IDX 75 36 69 37 68 38 24 40 56 41 36 42 55 43 37 44 40 45 54 46
REMARK SMILES IDX 73 47 38 48 39 49 53 51 74 52 41 53 25 54 26 55 34 56 27 57
REMARK SMILES IDX 28 58 32 59 35 60 29 61 30 62 33 63 31 64 57 65 58 66 66 67
REMARK SMILES IDX 59 68 60 69 64 70 67 71 61 72 62 73 65 74 63 75 42 76 43 77
REMARK SMILES IDX 51 78 44 79 45 80 49 81 52 82 46 83 47 84 50 85 48 86
REMARK H PARENT 8 6 13 20 72 39 40 50
REMARK Flexibility Score: inf
ROOT
ATOM      1  C   UNL     1      -0.327  -2.890   3.691  1.00  0.00     0.023 C 
ENDROOT
BRANCH   1   2
ATOM      2  C   UNL     1       1.195  -2.999   3.538  1.00  0.00     0.116 C 
BRANCH   2   3
ATOM      3  N   UNL     1       1.576  -4.259   2.928  1.00  0.00    -0.356 N 
ATOM      4  C   UNL     1       1.940  -4.534   1.643  1.00  0.00     0.220 C 
ATOM      5  O   UNL     1       2.047  -5.719   1.317  1.00  0.00    -0.275 OA
ATOM      6  H   UNL     1       1.570  -5.034   3.535  1.00  0.00     0.163 HD
BRANCH   4   7
ATOM      7  C   UNL     1       2.275  -3.429   0.652  1.00  0.00     0.106 C 
BRANCH   7   8
ATOM      8  C   UNL     1       1.120  -2.988  -0.258  1.00  0.00     0.068 C 
BRANCH   8   9
ATOM      9  C   UNL     1       0.365  -1.804   0.266  1.00  0.00     0.064 C 
ATOM     10  C   UNL     1       1.694   0.218  -0.595  1.00  0.00     0.044 C 
ATOM     11  C   UNL     1       0.657  -0.502   0.175  1.00  0.00    -0.024 C 
ATOM     12  C   UNL     1      -0.339   0.191   1.042  1.00  0.00     0.153 C 
ATOM     13  N   UNL     1      -0.818  -2.006   0.925  1.00  0.00    -0.160 NA
ATOM     14  N   UNL     1      -1.270  -0.916   1.374  1.00  0.00    -0.181 NA
ATOM     15  C   UNL     1       0.287   0.723   2.331  1.00  0.00     0.040 C 
ENDBRANCH   8   9
ENDBRANCH   7   8
ENDBRANCH   4   7
ENDBRANCH   2   3
ENDBRANCH   1   2
BRANCH   1  16
ATOM     16  C   UNL     1      -0.976  -3.416   4.970  1.00  0.00     0.023 C 
BRANCH  16  17
ATOM     17  C   UNL     1      -0.673  -2.585   6.205  1.00  0.00     0.116 C 
BRANCH  17  18
ATOM     18  N   UNL     1      -1.112  -1.181   6.128  1.00  0.00    -0.352 N 
ATOM     19  C   UNL     1      -0.805  -0.139   7.006  1.00  0.00     0.251 C 
ATOM     20  H   UNL     1      -1.691  -0.949   5.366  1.00  0.00     0.163 HD
ATOM     21  O   UNL     1      -1.442   0.886   7.063  1.00  0.00    -0.269 OA
BRANCH  19  22
ATOM     22  C   UNL     1       0.392  -0.331   7.844  1.00  0.00     0.039 A 
ATOM     23  C   UNL     1       0.387  -0.215   9.238  1.00  0.00     0.014 A 
ATOM     24  C   UNL     1       1.478  -0.850   7.160  1.00  0.00     0.014 A 
ATOM     25  C   UNL     1       1.463  -0.752   9.946  1.00  0.00     0.010 A 
ATOM     26  C   UNL     1       2.347  -1.623   7.863  1.00  0.00     0.010 A 
ATOM     27  C   UNL     1       2.423  -1.490   9.242  1.00  0.00    -0.014 A 
BRANCH  27  28
ATOM     28  C   UNL     1       3.493  -2.238   9.880  1.00  0.00     0.031 A 
ATOM     29  C   UNL     1       3.058  -3.240  10.886  1.00  0.00     0.074 A 
ATOM     30  C   UNL     1       4.744  -2.235   9.365  1.00  0.00     0.049 A 
ATOM     31  N   UNL     1       3.235  -3.189  12.164  1.00  0.00    -0.248 NA
ATOM     32  C   UNL     1       2.209  -4.360  10.453  1.00  0.00     0.031 C 
ATOM     33  C   UNL     1       5.245  -1.577   8.148  1.00  0.00     0.029 A 
ATOM     34  N   UNL     1       5.822  -2.952   9.767  1.00  0.00    -0.354 N 
ATOM     35  C   UNL     1       2.715  -4.375  12.675  1.00  0.00     0.074 A 
ATOM     36  C   UNL     1       1.915  -4.939  11.620  1.00  0.00     0.031 C 
ATOM     37  C   UNL     1       6.421  -2.127   7.781  1.00  0.00     0.029 A 
ATOM     38  C   UNL     1       6.849  -3.024   8.833  1.00  0.00     0.049 A 
ATOM     39  H   UNL     1       5.873  -3.387  10.648  1.00  0.00     0.167 HD
ATOM     40  C   UNL     1       3.209  -4.908  13.831  1.00  0.00     0.037 A 
ATOM     41  C   UNL     1       7.949  -3.811   8.925  1.00  0.00     0.037 A 
ATOM     42  C   UNL     1       4.037  -3.943  14.520  1.00  0.00     0.049 A 
ATOM     43  C   UNL     1       8.093  -4.173  10.365  1.00  0.00     0.074 A 
ATOM     44  C   UNL     1       3.831  -2.660  14.995  1.00  0.00     0.029 A 
ATOM     45  N   UNL     1       5.403  -4.081  14.425  1.00  0.00    -0.354 N 
ATOM     46  N   UNL     1       8.366  -3.300  11.299  1.00  0.00    -0.248 NA
ATOM     47  C   UNL     1       7.414  -5.380  10.820  1.00  0.00     0.031 C 
ATOM     48  C   UNL     1       5.015  -1.948  14.636  1.00  0.00     0.029 A 
ATOM     49  C   UNL     1       5.908  -2.857  14.066  1.00  0.00     0.049 A 
ATOM     50  H   UNL     1       5.920  -4.904  14.584  1.00  0.00     0.167 HD
ATOM     51  C   UNL     1       7.531  -3.636  12.357  1.00  0.00     0.074 A 
ATOM     52  C   UNL     1       7.014  -4.964  12.026  1.00  0.00     0.031 C 
ATOM     53  C   UNL     1       7.082  -2.693  13.240  1.00  0.00     0.037 A 
BRANCH  40  54
ATOM     54  C   UNL     1       3.293  -6.385  14.155  1.00  0.00     0.064 A 
ATOM     55  C   UNL     1       3.785  -6.767  15.423  1.00  0.00     0.173 A 
ATOM     56  C   UNL     1       3.218  -7.422  13.202  1.00  0.00     0.173 A 
ATOM     57  F   UNL     1       3.889  -5.871  16.416  1.00  0.00    -0.203 F 
ATOM     58  C   UNL     1       4.281  -8.050  15.670  1.00  0.00     0.198 A 
ATOM     59  C   UNL     1       3.664  -8.716  13.471  1.00  0.00     0.198 A 
ATOM     60  F   UNL     1       2.820  -7.217  11.944  1.00  0.00    -0.203 F 
ATOM     61  F   UNL     1       4.876  -8.317  16.840  1.00  0.00    -0.200 F 
ATOM     62  C   UNL     1       4.234  -9.019  14.689  1.00  0.00     0.200 A 
ATOM     63  F   UNL     1       3.616  -9.642  12.502  1.00  0.00    -0.200 F 
ATOM     64  F   UNL     1       4.776 -10.226  14.895  1.00  0.00    -0.200 F 
ENDBRANCH  40  54
BRANCH  41  65
ATOM     65  C   UNL     1       8.651  -4.512   7.823  1.00  0.00     0.064 A 
ATOM     66  C   UNL     1       9.930  -5.059   8.006  1.00  0.00     0.173 A 
ATOM     67  C   UNL     1       7.979  -4.884   6.639  1.00  0.00     0.173 A 
ATOM     68  F   UNL     1      10.621  -4.794   9.124  1.00  0.00    -0.203 F 
ATOM     69  C   UNL     1      10.495  -5.937   7.072  1.00  0.00     0.198 A 
ATOM     70  C   UNL     1       8.545  -5.753   5.706  1.00  0.00     0.198 A 
ATOM     71  F   UNL     1       6.721  -4.482   6.405  1.00  0.00    -0.203 F 
ATOM     72  F   UNL     1      11.697  -6.482   7.309  1.00  0.00    -0.200 F 
ATOM     73  C   UNL     1       9.798  -6.290   5.928  1.00  0.00     0.200 A 
ATOM     74  F   UNL     1       7.844  -6.112   4.621  1.00  0.00    -0.200 F 
ATOM     75  F   UNL     1      10.315  -7.174   5.063  1.00  0.00    -0.200 F 
ENDBRANCH  41  65
BRANCH  53  76
ATOM     76  C   UNL     1       7.681  -1.313  13.199  1.00  0.00     0.064 A 
ATOM     77  C   UNL     1       7.612  -0.451  12.090  1.00  0.00     0.173 A 
ATOM     78  C   UNL     1       8.178  -0.774  14.394  1.00  0.00     0.173 A 
ATOM     79  F   UNL     1       7.055  -0.847  10.941  1.00  0.00    -0.203 F 
ATOM     80  C   UNL     1       8.054   0.870  12.165  1.00  0.00     0.198 A 
ATOM     81  C   UNL     1       8.585   0.555  14.478  1.00  0.00     0.198 A 
ATOM     82  F   UNL     1       8.215  -1.527  15.504  1.00  0.00    -0.203 F 
ATOM     83  F   UNL     1       7.978   1.666  11.089  1.00  0.00    -0.200 F 
ATOM     84  C   UNL     1       8.532   1.374  13.362  1.00  0.00     0.200 A 
ATOM     85  F   UNL     1       8.996   1.051  15.653  1.00  0.00    -0.200 F 
ATOM     86  F   UNL     1       8.914   2.655  13.449  1.00  0.00    -0.200 F 
ENDBRANCH  53  76
ENDBRANCH  27  28
ENDBRANCH  19  22
ENDBRANCH  17  18
ENDBRANCH  16  17
ENDBRANCH   1  16
TORSDOF 13
