REMARK SMILES Cc1cc(=O)n2nc(C[N@@H+](C)CC(=O)NCCCCNC(=O)c3ccc(-c4c5nc(c(-c6c(F)c(F)c(F)c(F)c6F)c6ccc([nH]6)c(-c6c(F)c(F)c(F)c(F)c6F)c6nc(c(-c7c(F)c(F)c(F)c(F)c7F)c7ccc4[nH]7)C=C6)C=C5)cc3)sc2n1
REMARK SMILES IDX 17 1 16 2 15 3 13 4 14 5 12 7 10 8 11 9 9 11 8 12 1 13 2 14
REMARK SMILES IDX 3 15 88 16 4 17 87 18 5 19 6 20 86 21 7 22 18 23 19 24 20 25
REMARK SMILES IDX 21 26 22 28 23 29 24 30 85 31 25 32 84 33 26 34 27 35 28 36
REMARK SMILES IDX 78 37 29 38 83 39 77 40 79 41 30 42 82 43 76 44 75 45 31 47
REMARK SMILES IDX 63 48 43 49 62 50 44 51 47 52 61 53 80 54 45 55 46 56 60 58
REMARK SMILES IDX 81 59 48 60 32 61 33 62 41 63 34 64 35 65 39 66 42 67 36 68
REMARK SMILES IDX 37 69 40 70 38 71 64 72 65 73 73 74 66 75 67 76 71 77 74 78
REMARK SMILES IDX 68 79 69 80 72 81 70 82 49 83 50 84 58 85 51 86 52 87 56 88
REMARK SMILES IDX 59 89 53 90 54 91 57 92 55 93
REMARK H PARENT 15 6 10 10 20 27 79 46 47 57
REMARK Flexibility Score: inf
ROOT
ATOM      1  C   UNL     1      -1.589   8.283  -7.532  1.00  0.00     0.023 C 
ENDROOT
BRANCH   1   2
ATOM      2  C   UNL     1      -2.781   7.896  -6.653  1.00  0.00     0.116 C 
BRANCH   2   3
ATOM      3  N   UNL     1      -3.033   6.474  -6.689  1.00  0.00    -0.351 N 
ATOM      4  C   UNL     1      -2.760   5.523  -5.752  1.00  0.00     0.275 C 
ATOM      5  O   UNL     1      -3.014   4.352  -6.043  1.00  0.00    -0.269 OA
ATOM      6  H   UNL     1      -3.465   6.144  -7.509  1.00  0.00     0.163 HD
BRANCH   4   7
ATOM      7  C   UNL     1      -2.185   5.891  -4.381  1.00  0.00     0.363 C 
BRANCH   7   8
ATOM      8  N   UNL     1      -0.733   6.106  -4.336  1.00  0.00    -0.324 N 
ATOM      9  C   UNL     1      -0.254   7.469  -4.368  1.00  0.00     0.333 C 
ATOM     10  H   UNL     1      -0.578   5.862  -3.358  1.00  0.00     0.348 HD
BRANCH   8  11
ATOM     11  C   UNL     1       0.105   5.136  -5.045  1.00  0.00     0.333 C 
BRANCH  11  12
ATOM     12  C   UNL     1       0.273   3.906  -4.188  1.00  0.00     0.172 A 
ATOM     13  C   UNL     1       1.025  -0.214   0.072  1.00  0.00     0.067 C 
ATOM     14  C   UNL     1       0.686   0.471  -1.220  1.00  0.00     0.046 A 
ATOM     15  C   UNL     1       0.064  -0.177  -2.218  1.00  0.00     0.097 A 
ATOM     16  N   UNL     1       1.059   1.794  -1.282  1.00  0.00    -0.224 NA
ATOM     17  C   UNL     1      -0.267   0.545  -3.470  1.00  0.00     0.275 A 
ATOM     18  C   UNL     1       0.749   2.410  -2.370  1.00  0.00     0.215 A 
ATOM     19  O   UNL     1      -0.813  -0.059  -4.388  1.00  0.00    -0.267 OA
ATOM     20  N   UNL     1       0.103   1.872  -3.450  1.00  0.00    -0.167 N 
ATOM     21  S   UNL     1       1.115   4.074  -2.658  1.00  0.00    -0.073 S 
ATOM     22  N   UNL     1      -0.172   2.728  -4.493  1.00  0.00    -0.150 NA
ENDBRANCH  11  12
ENDBRANCH   8  11
ENDBRANCH   7   8
ENDBRANCH   4   7
ENDBRANCH   2   3
ENDBRANCH   1   2
BRANCH   1  23
ATOM     23  C   UNL     1      -1.787   8.187  -9.047  1.00  0.00     0.023 C 
BRANCH  23  24
ATOM     24  C   UNL     1      -2.905   9.051  -9.606  1.00  0.00     0.116 C 
BRANCH  24  25
ATOM     25  N   UNL     1      -2.717  10.476  -9.343  1.00  0.00    -0.352 N 
ATOM     26  C   UNL     1      -3.616  11.492  -9.586  1.00  0.00     0.251 C 
ATOM     27  H   UNL     1      -1.854  10.739  -8.949  1.00  0.00     0.163 HD
ATOM     28  O   UNL     1      -3.239  12.655  -9.720  1.00  0.00    -0.269 OA
BRANCH  26  29
ATOM     29  C   UNL     1      -5.046  11.158  -9.690  1.00  0.00     0.039 A 
ATOM     30  C   UNL     1      -5.830  11.676 -10.718  1.00  0.00     0.014 A 
ATOM     31  C   UNL     1      -5.579  10.253  -8.771  1.00  0.00     0.014 A 
ATOM     32  C   UNL     1      -7.124  11.191 -10.871  1.00  0.00     0.010 A 
ATOM     33  C   UNL     1      -6.807   9.675  -9.003  1.00  0.00     0.010 A 
ATOM     34  C   UNL     1      -7.595  10.151 -10.040  1.00  0.00    -0.014 A 
BRANCH  34  35
ATOM     35  C   UNL     1      -8.834   9.455 -10.387  1.00  0.00     0.031 A 
ATOM     36  C   UNL     1      -8.877   9.044 -11.814  1.00  0.00     0.074 A 
ATOM     37  C   UNL     1      -9.809   9.087  -9.524  1.00  0.00     0.049 A 
ATOM     38  N   UNL     1      -9.502   9.662 -12.758  1.00  0.00    -0.248 NA
ATOM     39  C   UNL     1      -7.998   7.967 -12.296  1.00  0.00     0.031 C 
ATOM     40  C   UNL     1      -9.782   9.140  -8.059  1.00  0.00     0.029 A 
ATOM     41  N   UNL     1     -11.030   8.521  -9.777  1.00  0.00    -0.354 N 
ATOM     42  C   UNL     1      -9.327   8.889 -13.899  1.00  0.00     0.074 A 
ATOM     43  C   UNL     1      -8.231   8.003 -13.614  1.00  0.00     0.031 C 
ATOM     44  C   UNL     1     -10.816   8.429  -7.553  1.00  0.00     0.029 A 
ATOM     45  C   UNL     1     -11.686   8.036  -8.646  1.00  0.00     0.049 A 
ATOM     46  H   UNL     1     -11.412   8.460 -10.682  1.00  0.00     0.167 HD
ATOM     47  C   UNL     1     -10.337   8.828 -14.811  1.00  0.00     0.037 A 
ATOM     48  C   UNL     1     -12.880   7.392  -8.605  1.00  0.00     0.037 A 
ATOM     49  C   UNL     1     -11.312   9.857 -14.539  1.00  0.00     0.049 A 
ATOM     50  C   UNL     1     -13.632   7.795  -9.811  1.00  0.00     0.074 A 
ATOM     51  C   UNL     1     -11.437  11.217 -14.716  1.00  0.00     0.029 A 
ATOM     52  N   UNL     1     -12.215   9.489 -13.581  1.00  0.00    -0.354 N 
ATOM     53  N   UNL     1     -14.101   8.996  -9.992  1.00  0.00    -0.248 NA
ATOM     54  C   UNL     1     -13.605   6.936 -10.990  1.00  0.00     0.031 C 
ATOM     55  C   UNL     1     -12.403  11.661 -13.762  1.00  0.00     0.029 A 
ATOM     56  C   UNL     1     -12.880  10.559 -13.059  1.00  0.00     0.049 A 
ATOM     57  H   UNL     1     -12.367   8.558 -13.299  1.00  0.00     0.167 HD
ATOM     58  C   UNL     1     -14.005   9.181 -11.352  1.00  0.00     0.074 A 
ATOM     59  C   UNL     1     -13.884   7.847 -11.925  1.00  0.00     0.031 C 
ATOM     60  C   UNL     1     -13.658  10.397 -11.857  1.00  0.00     0.037 A 
BRANCH  47  61
ATOM     61  C   UNL     1     -10.774   7.575 -15.550  1.00  0.00     0.064 A 
ATOM     62  C   UNL     1     -11.842   7.680 -16.471  1.00  0.00     0.173 A 
ATOM     63  C   UNL     1     -10.451   6.261 -15.152  1.00  0.00     0.173 A 
ATOM     64  F   UNL     1     -12.253   8.881 -16.908  1.00  0.00    -0.203 F 
ATOM     65  C   UNL     1     -12.579   6.566 -16.885  1.00  0.00     0.198 A 
ATOM     66  C   UNL     1     -11.159   5.147 -15.605  1.00  0.00     0.198 A 
ATOM     67  F   UNL     1      -9.526   6.001 -14.224  1.00  0.00    -0.203 F 
ATOM     68  F   UNL     1     -13.663   6.732 -17.655  1.00  0.00    -0.200 F 
ATOM     69  C   UNL     1     -12.240   5.301 -16.446  1.00  0.00     0.200 A 
ATOM     70  F   UNL     1     -10.833   3.931 -15.145  1.00  0.00    -0.200 F 
ATOM     71  F   UNL     1     -12.979   4.238 -16.790  1.00  0.00    -0.200 F 
ENDBRANCH  47  61
BRANCH  48  72
ATOM     72  C   UNL     1     -13.406   6.335  -7.709  1.00  0.00     0.064 A 
ATOM     73  C   UNL     1     -14.783   6.038  -7.683  1.00  0.00     0.173 A 
ATOM     74  C   UNL     1     -12.548   5.372  -7.151  1.00  0.00     0.173 A 
ATOM     75  F   UNL     1     -15.670   6.896  -8.207  1.00  0.00    -0.203 F 
ATOM     76  C   UNL     1     -15.264   4.814  -7.209  1.00  0.00     0.198 A 
ATOM     77  C   UNL     1     -13.031   4.150  -6.673  1.00  0.00     0.198 A 
ATOM     78  F   UNL     1     -11.220   5.554  -7.164  1.00  0.00    -0.203 F 
ATOM     79  F   UNL     1     -16.571   4.531  -7.295  1.00  0.00    -0.200 F 
ATOM     80  C   UNL     1     -14.384   3.861  -6.727  1.00  0.00     0.200 A 
ATOM     81  F   UNL     1     -12.170   3.221  -6.234  1.00  0.00    -0.200 F 
ATOM     82  F   UNL     1     -14.832   2.653  -6.359  1.00  0.00    -0.200 F 
ENDBRANCH  48  72
BRANCH  60  83
ATOM     83  C   UNL     1     -13.978  11.607 -11.049  1.00  0.00     0.064 A 
ATOM     84  C   UNL     1     -13.346  11.965  -9.849  1.00  0.00     0.173 A 
ATOM     85  C   UNL     1     -14.918  12.497 -11.587  1.00  0.00     0.173 A 
ATOM     86  F   UNL     1     -12.401  11.186  -9.306  1.00  0.00    -0.203 F 
ATOM     87  C   UNL     1     -13.655  13.169  -9.215  1.00  0.00     0.198 A 
ATOM     88  C   UNL     1     -15.199  13.708 -10.971  1.00  0.00     0.198 A 
ATOM     89  F   UNL     1     -15.532  12.203 -12.744  1.00  0.00    -0.203 F 
ATOM     90  F   UNL     1     -13.045  13.500  -8.067  1.00  0.00    -0.200 F 
ATOM     91  C   UNL     1     -14.570  14.043  -9.783  1.00  0.00     0.200 A 
ATOM     92  F   UNL     1     -16.058  14.562 -11.544  1.00  0.00    -0.200 F 
ATOM     93  F   UNL     1     -14.832  15.220  -9.197  1.00  0.00    -0.200 F 
ENDBRANCH  60  83
ENDBRANCH  34  35
ENDBRANCH  26  29
ENDBRANCH  24  25
ENDBRANCH  23  24
ENDBRANCH   1  23
TORSDOF 14
