REMARK SMILES O=C(NCCCCNC(=O)c1ccc2nc(-c3c[nH]nc3-c3ccc(F)cc3F)[nH]c2c1)c1ccc(-c2c3nc(c(-c4c(F)c(F)c(F)c(F)c4F)c4ccc([nH]4)c(-c4c(F)c(F)c(F)c(F)c4F)c4nc(c(-c5c(F)c(F)c(F)c(F)c5F)c5ccc2[nH]5)C=C4)C=C3)cc1
REMARK SMILES IDX 5 1 4 2 3 3 1 4 2 5 33 7 34 8 95 9 35 10 94 11 36 12 37 13
REMARK SMILES IDX 38 14 88 15 39 16 93 17 87 18 89 19 40 20 92 21 86 22 85 23
REMARK SMILES IDX 41 25 73 26 53 27 72 28 54 29 57 30 71 31 90 32 55 33 56 34
REMARK SMILES IDX 70 36 91 37 58 38 42 39 43 40 51 41 44 42 45 43 49 44 52 45
REMARK SMILES IDX 46 46 47 47 50 48 48 49 74 50 75 51 83 52 76 53 77 54 81 55
REMARK SMILES IDX 84 56 78 57 79 58 82 59 80 60 59 61 60 62 68 63 61 64 62 65
REMARK SMILES IDX 66 66 69 67 63 68 64 69 67 70 65 71 6 72 7 73 8 74 9 75
REMARK SMILES IDX 10 77 11 78 12 79 32 80 13 81 31 82 14 83 30 84 15 85 16 86
REMARK SMILES IDX 17 88 18 89 21 90 19 91 20 92 22 94 23 95 28 96 24 97 27 98
REMARK SMILES IDX 29 99 25 100 26 101
REMARK H PARENT 3 6 89 24 57 35 8 76 30 87 19 93
REMARK Flexibility Score: inf
ROOT
ATOM      1  C   UNL     1       4.967   1.754   2.041  1.00  0.00     0.023 C 
ENDROOT
BRANCH   1   2
ATOM      2  C   UNL     1       4.657   0.467   1.288  1.00  0.00     0.116 C 
BRANCH   2   3
ATOM      3  N   UNL     1       3.230   0.210   1.169  1.00  0.00    -0.352 N 
ATOM      4  O   UNL     1       1.258  -0.089   0.112  1.00  0.00    -0.269 OA
ATOM      5  C   UNL     1       2.482  -0.029   0.042  1.00  0.00     0.251 C 
ATOM      6  H   UNL     1       2.730   0.207   2.016  1.00  0.00     0.163 HD
BRANCH   5   7
ATOM      7  C   UNL     1       3.154  -0.184  -1.266  1.00  0.00     0.039 A 
ATOM      8  C   UNL     1       4.288  -0.989  -1.394  1.00  0.00     0.014 A 
ATOM      9  C   UNL     1       2.640   0.488  -2.378  1.00  0.00     0.014 A 
ATOM     10  C   UNL     1       4.989  -1.007  -2.594  1.00  0.00     0.010 A 
ATOM     11  C   UNL     1       3.299   0.402  -3.607  1.00  0.00     0.010 A 
ATOM     12  C   UNL     1       4.495  -0.323  -3.717  1.00  0.00    -0.014 A 
BRANCH  12  13
ATOM     13  C   UNL     1       5.213  -0.438  -5.010  1.00  0.00     0.031 A 
ATOM     14  C   UNL     1       5.878   0.751  -5.641  1.00  0.00     0.074 A 
ATOM     15  C   UNL     1       5.287  -1.647  -5.598  1.00  0.00     0.049 A 
ATOM     16  N   UNL     1       6.558   0.817  -6.759  1.00  0.00    -0.248 NA
ATOM     17  C   UNL     1       5.765   2.036  -4.933  1.00  0.00     0.031 C 
ATOM     18  C   UNL     1       4.674  -2.871  -5.076  1.00  0.00     0.029 A 
ATOM     19  N   UNL     1       5.922  -2.055  -6.742  1.00  0.00    -0.354 N 
ATOM     20  C   UNL     1       6.940   2.144  -6.896  1.00  0.00     0.074 A 
ATOM     21  C   UNL     1       6.398   2.859  -5.760  1.00  0.00     0.031 C 
ATOM     22  C   UNL     1       5.005  -3.900  -5.869  1.00  0.00     0.029 A 
ATOM     23  C   UNL     1       5.799  -3.400  -6.986  1.00  0.00     0.049 A 
ATOM     24  H   UNL     1       6.417  -1.442  -7.333  1.00  0.00     0.167 HD
ATOM     25  C   UNL     1       7.683   2.708  -7.878  1.00  0.00     0.037 A 
ATOM     26  C   UNL     1       6.262  -4.150  -8.002  1.00  0.00     0.037 A 
ATOM     27  C   UNL     1       8.235   1.985  -8.996  1.00  0.00     0.049 A 
ATOM     28  C   UNL     1       7.062  -3.494  -9.089  1.00  0.00     0.074 A 
ATOM     29  C   UNL     1       9.027   2.465 -10.026  1.00  0.00     0.029 A 
ATOM     30  N   UNL     1       8.054   0.630  -9.231  1.00  0.00    -0.354 N 
ATOM     31  N   UNL     1       7.429  -2.241  -9.198  1.00  0.00    -0.248 NA
ATOM     32  C   UNL     1       7.504  -4.351 -10.197  1.00  0.00     0.031 C 
ATOM     33  C   UNL     1       9.289   1.410 -10.905  1.00  0.00     0.029 A 
ATOM     34  C   UNL     1       8.701   0.262 -10.400  1.00  0.00     0.049 A 
ATOM     35  H   UNL     1       7.542   0.020  -8.652  1.00  0.00     0.167 HD
ATOM     36  C   UNL     1       8.150  -2.157 -10.379  1.00  0.00     0.074 A 
ATOM     37  C   UNL     1       8.188  -3.492 -10.941  1.00  0.00     0.031 C 
ATOM     38  C   UNL     1       8.725  -1.070 -10.948  1.00  0.00     0.037 A 
BRANCH  25  39
ATOM     39  C   UNL     1       7.947   4.183  -7.804  1.00  0.00     0.064 A 
ATOM     40  C   UNL     1       7.346   5.059  -8.721  1.00  0.00     0.173 A 
ATOM     41  C   UNL     1       8.857   4.721  -6.882  1.00  0.00     0.173 A 
ATOM     42  F   UNL     1       6.473   4.594  -9.628  1.00  0.00    -0.203 F 
ATOM     43  C   UNL     1       7.657   6.416  -8.727  1.00  0.00     0.198 A 
ATOM     44  C   UNL     1       9.149   6.083  -6.876  1.00  0.00     0.198 A 
ATOM     45  F   UNL     1       9.451   3.927  -5.979  1.00  0.00    -0.203 F 
ATOM     46  F   UNL     1       7.094   7.229  -9.632  1.00  0.00    -0.200 F 
ATOM     47  C   UNL     1       8.556   6.927  -7.803  1.00  0.00     0.200 A 
ATOM     48  F   UNL     1      10.003   6.579  -5.970  1.00  0.00    -0.200 F 
ATOM     49  F   UNL     1       8.852   8.235  -7.806  1.00  0.00    -0.200 F 
ENDBRANCH  25  39
BRANCH  26  50
ATOM     50  C   UNL     1       5.979  -5.607  -8.019  1.00  0.00     0.064 A 
ATOM     51  C   UNL     1       4.678  -6.093  -8.220  1.00  0.00     0.173 A 
ATOM     52  C   UNL     1       6.996  -6.540  -7.781  1.00  0.00     0.173 A 
ATOM     53  F   UNL     1       3.670  -5.237  -8.445  1.00  0.00    -0.203 F 
ATOM     54  C   UNL     1       4.402  -7.455  -8.155  1.00  0.00     0.198 A 
ATOM     55  C   UNL     1       6.723  -7.905  -7.743  1.00  0.00     0.198 A 
ATOM     56  F   UNL     1       8.258  -6.123  -7.600  1.00  0.00    -0.203 F 
ATOM     57  F   UNL     1       3.143  -7.890  -8.307  1.00  0.00    -0.200 F 
ATOM     58  C   UNL     1       5.425  -8.361  -7.920  1.00  0.00     0.200 A 
ATOM     59  F   UNL     1       7.717  -8.780  -7.536  1.00  0.00    -0.200 F 
ATOM     60  F   UNL     1       5.160  -9.673  -7.863  1.00  0.00    -0.200 F 
ENDBRANCH  26  50
BRANCH  38  61
ATOM     61  C   UNL     1       9.453  -1.276 -12.242  1.00  0.00     0.064 A 
ATOM     62  C   UNL     1      10.853  -1.210 -12.290  1.00  0.00     0.173 A 
ATOM     63  C   UNL     1       8.760  -1.477 -13.444  1.00  0.00     0.173 A 
ATOM     64  F   UNL     1      11.559  -1.014 -11.167  1.00  0.00    -0.203 F 
ATOM     65  C   UNL     1      11.533  -1.328 -13.498  1.00  0.00     0.198 A 
ATOM     66  C   UNL     1       9.445  -1.619 -14.648  1.00  0.00     0.198 A 
ATOM     67  F   UNL     1       7.421  -1.561 -13.446  1.00  0.00    -0.203 F 
ATOM     68  F   UNL     1      12.870  -1.235 -13.525  1.00  0.00    -0.200 F 
ATOM     69  C   UNL     1      10.829  -1.535 -14.675  1.00  0.00     0.200 A 
ATOM     70  F   UNL     1       8.765  -1.843 -15.781  1.00  0.00    -0.200 F 
ATOM     71  F   UNL     1      11.486  -1.660 -15.836  1.00  0.00    -0.200 F 
ENDBRANCH  38  61
ENDBRANCH  12  13
ENDBRANCH   5   7
ENDBRANCH   2   3
ENDBRANCH   1   2
BRANCH   1  72
ATOM     72  C   UNL     1       4.482   1.790   3.490  1.00  0.00     0.023 C 
BRANCH  72  73
ATOM     73  C   UNL     1       4.903   0.594   4.339  1.00  0.00     0.116 C 
BRANCH  73  74
ATOM     74  N   UNL     1       6.349   0.457   4.405  1.00  0.00    -0.352 N 
ATOM     75  C   UNL     1       7.159   0.521   5.508  1.00  0.00     0.251 C 
ATOM     76  H   UNL     1       6.804   0.296   3.547  1.00  0.00     0.163 HD
ATOM     77  O   UNL     1       8.379   0.549   5.398  1.00  0.00    -0.269 OA
BRANCH  75  78
ATOM     78  C   UNL     1       6.537   0.570   6.841  1.00  0.00     0.042 A 
ATOM     79  C   UNL     1       5.770  -0.518   7.281  1.00  0.00     0.016 A 
ATOM     80  C   UNL     1       6.731   1.719   7.622  1.00  0.00     0.042 A 
ATOM     81  C   UNL     1       5.158  -0.484   8.536  1.00  0.00     0.031 A 
ATOM     82  C   UNL     1       6.084   1.728   8.858  1.00  0.00     0.067 A 
ATOM     83  C   UNL     1       5.340   0.654   9.334  1.00  0.00     0.089 A 
ATOM     84  N   UNL     1       5.993   2.668   9.855  1.00  0.00    -0.338 N 
ATOM     85  N   UNL     1       4.897   0.895  10.601  1.00  0.00    -0.228 NA
ATOM     86  C   UNL     1       5.308   2.109  10.901  1.00  0.00     0.142 A 
ATOM     87  H   UNL     1       6.356   3.583   9.823  1.00  0.00     0.168 HD
BRANCH  86  88
ATOM     88  C   UNL     1       5.080   2.737  12.221  1.00  0.00     0.063 A 
ATOM     89  C   UNL     1       5.044   4.079  12.510  1.00  0.00     0.117 A 
ATOM     90  C   UNL     1       4.877   2.067  13.459  1.00  0.00     0.106 A 
ATOM     91  N   UNL     1       4.744   4.148  13.841  1.00  0.00    -0.284 N 
ATOM     92  N   UNL     1       4.686   2.953  14.449  1.00  0.00    -0.175 NA
ATOM     93  H   UNL     1       4.584   4.998  14.312  1.00  0.00     0.189 HD
BRANCH  90  94
ATOM     94  C   UNL     1       5.016   0.640  13.715  1.00  0.00     0.039 A 
ATOM     95  C   UNL     1       6.257   0.021  13.475  1.00  0.00     0.016 A 
ATOM     96  C   UNL     1       3.941  -0.139  14.144  1.00  0.00     0.135 A 
ATOM     97  C   UNL     1       6.404  -1.355  13.650  1.00  0.00     0.040 A 
ATOM     98  C   UNL     1       4.085  -1.513  14.327  1.00  0.00     0.079 A 
ATOM     99  F   UNL     1       2.736   0.409  14.363  1.00  0.00    -0.206 F 
ATOM    100  C   UNL     1       5.315  -2.108  14.074  1.00  0.00     0.126 A 
ATOM    101  F   UNL     1       5.456  -3.430  14.234  1.00  0.00    -0.207 F 
ENDBRANCH  90  94
ENDBRANCH  86  88
ENDBRANCH  75  78
ENDBRANCH  73  74
ENDBRANCH  72  73
ENDBRANCH   1  72
TORSDOF 13
