REMARK SMILES CC1(C)[C@H](C(=O)Nc2ccc(C(F)(F)F)nc2)[C@@H]1C(=O)NCCCCNC(=O)c1ccc(-c2c3nc(c(-c4c(F)c(F)c(F)c(F)c4F)c4ccc([nH]4)c(-c4c(F)c(F)c(F)c(F)c4F)c4nc(c(-c5c(F)c(F)c(F)c(F)c5F)c5ccc2[nH]5)C=C4)C=C3)cc1
REMARK SMILES IDX 23 1 22 2 21 3 19 4 20 5 18 7 1 8 2 9 3 10 4 11 5 12 6 13
REMARK SMILES IDX 7 14 8 16 9 17 17 18 10 19 16 20 11 21 12 22 13 23 14 24
REMARK SMILES IDX 15 25 24 26 25 27 26 28 27 29 28 31 29 32 30 33 91 34 31 35
REMARK SMILES IDX 90 36 32 37 33 38 34 39 84 40 35 41 89 42 83 43 85 44 36 45
REMARK SMILES IDX 88 46 82 47 81 48 37 50 69 51 49 52 68 53 50 54 53 55 67 56
REMARK SMILES IDX 86 57 51 58 52 59 66 61 87 62 54 63 38 64 39 65 47 66 40 67
REMARK SMILES IDX 41 68 45 69 48 70 42 71 43 72 46 73 44 74 70 75 71 76 79 77
REMARK SMILES IDX 72 78 73 79 77 80 80 81 74 82 75 83 78 84 76 85 55 86 56 87
REMARK SMILES IDX 64 88 57 89 58 90 62 91 65 92 59 93 60 94 63 95 61 96
REMARK H PARENT 21 6 7 15 26 30 85 49 53 60
REMARK Flexibility Score: inf
ROOT
ATOM      1  C   UNL     1      -5.255   0.773   0.611  1.00  0.00     0.023 C 
ENDROOT
BRANCH   1   2
ATOM      2  C   UNL     1      -3.812   0.920   0.146  1.00  0.00     0.116 C 
BRANCH   2   3
ATOM      3  N   UNL     1      -2.894   1.306   1.201  1.00  0.00    -0.356 N 
ATOM      4  C   UNL     1      -1.593   0.899   1.361  1.00  0.00     0.224 C 
ATOM      5  O   UNL     1      -0.913   1.333   2.285  1.00  0.00    -0.275 OA
ATOM      6  H   UNL     1      -3.243   1.930   1.878  1.00  0.00     0.163 HD
BRANCH   4   7
ATOM      7  C   UNL     1      -1.094  -0.166   0.469  1.00  0.00     0.098 C 
ATOM      8  C   UNL     1       0.862  -1.759  -0.190  1.00  0.00     0.013 C 
ATOM      9  C   UNL     1       0.344  -0.337  -0.036  1.00  0.00    -0.011 C 
ATOM     10  C   UNL     1       1.440   0.590   0.389  1.00  0.00     0.013 C 
ATOM     11  C   UNL     1      -0.778   0.031  -0.991  1.00  0.00     0.098 C 
BRANCH  11  12
ATOM     12  C   UNL     1      -1.037   1.216  -1.875  1.00  0.00     0.228 C 
ATOM     13  O   UNL     1      -1.282   0.957  -3.056  1.00  0.00    -0.274 OA
ATOM     14  N   UNL     1      -1.354   2.489  -1.465  1.00  0.00    -0.324 N 
ATOM     15  H   UNL     1      -2.142   2.875  -1.911  1.00  0.00     0.169 HD
BRANCH  14  16
ATOM     16  C   UNL     1      -0.754   3.326  -0.529  1.00  0.00     0.059 A 
ATOM     17  C   UNL     1       0.616   3.408  -0.382  1.00  0.00     0.030 A 
ATOM     18  C   UNL     1      -1.530   4.169   0.253  1.00  0.00     0.137 A 
ATOM     19  C   UNL     1       1.144   4.109   0.700  1.00  0.00     0.035 A 
ATOM     20  N   UNL     1      -1.058   4.863   1.312  1.00  0.00    -0.250 NA
ATOM     21  C   UNL     1       0.274   4.744   1.587  1.00  0.00     0.144 A 
BRANCH  21  22
ATOM     22  C   UNL     1       0.823   5.280   2.903  1.00  0.00     0.433 C 
ATOM     23  F   UNL     1       1.144   6.604   2.842  1.00  0.00    -0.165 F 
ATOM     24  F   UNL     1      -0.040   5.149   3.951  1.00  0.00    -0.165 F 
ATOM     25  F   UNL     1       1.970   4.646   3.296  1.00  0.00    -0.165 F 
ENDBRANCH  21  22
ENDBRANCH  14  16
ENDBRANCH  11  12
ENDBRANCH   4   7
ENDBRANCH   2   3
ENDBRANCH   1   2
BRANCH   1  26
ATOM     26  C   UNL     1      -5.901   2.038   1.175  1.00  0.00     0.023 C 
BRANCH  26  27
ATOM     27  C   UNL     1      -5.795   3.288   0.309  1.00  0.00     0.116 C 
BRANCH  27  28
ATOM     28  N   UNL     1      -6.397   3.141  -1.005  1.00  0.00    -0.352 N 
ATOM     29  C   UNL     1      -7.330   3.930  -1.634  1.00  0.00     0.251 C 
ATOM     30  H   UNL     1      -6.092   2.360  -1.521  1.00  0.00     0.163 HD
ATOM     31  O   UNL     1      -7.802   3.574  -2.710  1.00  0.00    -0.269 OA
BRANCH  29  32
ATOM     32  C   UNL     1      -7.792   5.192  -1.014  1.00  0.00     0.039 A 
ATOM     33  C   UNL     1      -9.156   5.495  -1.048  1.00  0.00     0.014 A 
ATOM     34  C   UNL     1      -6.896   6.084  -0.419  1.00  0.00     0.014 A 
ATOM     35  C   UNL     1      -9.624   6.668  -0.449  1.00  0.00     0.010 A 
ATOM     36  C   UNL     1      -7.375   7.205   0.257  1.00  0.00     0.010 A 
ATOM     37  C   UNL     1      -8.741   7.523   0.230  1.00  0.00    -0.014 A 
BRANCH  37  38
ATOM     38  C   UNL     1      -9.225   8.777   0.866  1.00  0.00     0.031 A 
ATOM     39  C   UNL     1      -8.734  10.111   0.369  1.00  0.00     0.074 A 
ATOM     40  C   UNL     1     -10.081   8.721   1.905  1.00  0.00     0.049 A 
ATOM     41  N   UNL     1      -9.019  11.315   0.800  1.00  0.00    -0.248 NA
ATOM     42  C   UNL     1      -7.771  10.089  -0.744  1.00  0.00     0.031 C 
ATOM     43  C   UNL     1     -10.597   7.494   2.511  1.00  0.00     0.029 A 
ATOM     44  N   UNL     1     -10.667   9.725   2.637  1.00  0.00    -0.354 N 
ATOM     45  C   UNL     1      -8.264  12.184   0.022  1.00  0.00     0.074 A 
ATOM     46  C   UNL     1      -7.457  11.370  -0.859  1.00  0.00     0.031 C 
ATOM     47  C   UNL     1     -11.446   7.815   3.501  1.00  0.00     0.029 A 
ATOM     48  C   UNL     1     -11.507   9.269   3.624  1.00  0.00     0.049 A 
ATOM     49  H   UNL     1     -10.501  10.680   2.470  1.00  0.00     0.167 HD
ATOM     50  C   UNL     1      -8.265  13.539   0.018  1.00  0.00     0.037 A 
ATOM     51  C   UNL     1     -12.242   9.948   4.526  1.00  0.00     0.037 A 
ATOM     52  C   UNL     1      -9.084  14.348   0.882  1.00  0.00     0.049 A 
ATOM     53  C   UNL     1     -12.220  11.454   4.507  1.00  0.00     0.074 A 
ATOM     54  C   UNL     1      -9.192  15.727   0.927  1.00  0.00     0.029 A 
ATOM     55  N   UNL     1      -9.934  13.848   1.858  1.00  0.00    -0.354 N 
ATOM     56  N   UNL     1     -11.556  12.265   3.720  1.00  0.00    -0.248 NA
ATOM     57  C   UNL     1     -13.067  12.139   5.493  1.00  0.00     0.031 C 
ATOM     58  C   UNL     1     -10.066  16.064   1.966  1.00  0.00     0.029 A 
ATOM     59  C   UNL     1     -10.558  14.893   2.522  1.00  0.00     0.049 A 
ATOM     60  H   UNL     1     -10.075  12.893   2.050  1.00  0.00     0.167 HD
ATOM     61  C   UNL     1     -11.936  13.551   4.085  1.00  0.00     0.074 A 
ATOM     62  C   UNL     1     -12.899  13.410   5.157  1.00  0.00     0.031 C 
ATOM     63  C   UNL     1     -11.529  14.740   3.575  1.00  0.00     0.037 A 
BRANCH  50  64
ATOM     64  C   UNL     1      -7.350  14.231  -0.953  1.00  0.00     0.064 A 
ATOM     65  C   UNL     1      -7.560  14.167  -2.340  1.00  0.00     0.173 A 
ATOM     66  C   UNL     1      -6.264  14.991  -0.493  1.00  0.00     0.173 A 
ATOM     67  F   UNL     1      -8.576  13.444  -2.837  1.00  0.00    -0.203 F 
ATOM     68  C   UNL     1      -6.698  14.805  -3.228  1.00  0.00     0.198 A 
ATOM     69  C   UNL     1      -5.426  15.659  -1.382  1.00  0.00     0.198 A 
ATOM     70  F   UNL     1      -6.019  15.094   0.822  1.00  0.00    -0.203 F 
ATOM     71  F   UNL     1      -6.885  14.677  -4.549  1.00  0.00    -0.200 F 
ATOM     72  C   UNL     1      -5.637  15.557  -2.749  1.00  0.00     0.200 A 
ATOM     73  F   UNL     1      -4.411  16.399  -0.916  1.00  0.00    -0.200 F 
ATOM     74  F   UNL     1      -4.813  16.177  -3.604  1.00  0.00    -0.200 F 
ENDBRANCH  50  64
BRANCH  51  75
ATOM     75  C   UNL     1     -13.090   9.214   5.504  1.00  0.00     0.064 A 
ATOM     76  C   UNL     1     -14.489   9.282   5.440  1.00  0.00     0.173 A 
ATOM     77  C   UNL     1     -12.522   8.448   6.533  1.00  0.00     0.173 A 
ATOM     78  F   UNL     1     -15.081  10.017   4.487  1.00  0.00    -0.203 F 
ATOM     79  C   UNL     1     -15.287   8.638   6.385  1.00  0.00     0.198 A 
ATOM     80  C   UNL     1     -13.321   7.777   7.457  1.00  0.00     0.198 A 
ATOM     81  F   UNL     1     -11.189   8.344   6.636  1.00  0.00    -0.203 F 
ATOM     82  F   UNL     1     -16.619   8.768   6.333  1.00  0.00    -0.200 F 
ATOM     83  C   UNL     1     -14.702   7.882   7.389  1.00  0.00     0.200 A 
ATOM     84  F   UNL     1     -12.753   7.034   8.416  1.00  0.00    -0.200 F 
ATOM     85  F   UNL     1     -15.469   7.263   8.297  1.00  0.00    -0.200 F 
ENDBRANCH  51  75
BRANCH  63  86
ATOM     86  C   UNL     1     -12.175  15.983   4.119  1.00  0.00     0.064 A 
ATOM     87  C   UNL     1     -11.943  16.434   5.427  1.00  0.00     0.173 A 
ATOM     88  C   UNL     1     -13.022  16.751   3.303  1.00  0.00     0.173 A 
ATOM     89  F   UNL     1     -11.151  15.733   6.253  1.00  0.00    -0.203 F 
ATOM     90  C   UNL     1     -12.566  17.582   5.910  1.00  0.00     0.198 A 
ATOM     91  C   UNL     1     -13.612  17.919   3.776  1.00  0.00     0.198 A 
ATOM     92  F   UNL     1     -13.270  16.372   2.040  1.00  0.00    -0.203 F 
ATOM     93  F   UNL     1     -12.381  17.958   7.183  1.00  0.00    -0.200 F 
ATOM     94  C   UNL     1     -13.394  18.327   5.083  1.00  0.00     0.200 A 
ATOM     95  F   UNL     1     -14.396  18.646   2.969  1.00  0.00    -0.200 F 
ATOM     96  F   UNL     1     -13.989  19.434   5.548  1.00  0.00    -0.200 F 
ENDBRANCH  63  86
ENDBRANCH  37  38
ENDBRANCH  29  32
ENDBRANCH  27  28
ENDBRANCH  26  27
ENDBRANCH   1  26
TORSDOF 14
