REMARK SMILES CCC1(CC)C[NH+](C2(C(=O)NCCCCNC(=O)c3ccc(-c4c5nc(c(-c6c(F)c(F)c(F)c(F)c6F)c6ccc([nH]6)c(-c6c(F)c(F)c(F)c(F)c6F)c6nc(c(-c7c(F)c(F)c(F)c(F)c7F)c7ccc4[nH]7)C=C6)C=C5)cc3)CC2)C1
REMARK SMILES IDX 13 1 12 2 11 3 9 4 10 5 8 7 82 8 83 9 7 10 3 11 6 12 84 13
REMARK SMILES IDX 2 15 1 16 4 17 5 18 14 19 15 20 16 21 17 22 18 24 19 25
REMARK SMILES IDX 20 26 81 27 21 28 80 29 22 30 23 31 24 32 74 33 25 34 79 35
REMARK SMILES IDX 73 36 75 37 26 38 78 39 72 40 71 41 27 43 59 44 39 45 58 46
REMARK SMILES IDX 40 47 43 48 57 49 76 50 41 51 42 52 56 54 77 55 44 56 28 57
REMARK SMILES IDX 29 58 37 59 30 60 31 61 35 62 38 63 32 64 33 65 36 66 34 67
REMARK SMILES IDX 60 68 61 69 69 70 62 71 63 72 67 73 70 74 64 75 65 76 68 77
REMARK SMILES IDX 66 78 45 79 46 80 54 81 47 82 48 83 52 84 55 85 49 86 50 87
REMARK SMILES IDX 53 88 51 89
REMARK H PARENT 11 6 7 14 16 23 75 42 43 53
REMARK Flexibility Score: inf
ROOT
ATOM      1  C   UNL     1       2.697  -2.787   7.688  1.00  0.00     0.023 C 
ENDROOT
BRANCH   1   2
ATOM      2  C   UNL     1       2.542  -4.039   6.825  1.00  0.00     0.116 C 
BRANCH   2   3
ATOM      3  N   UNL     1       1.223  -4.139   6.232  1.00  0.00    -0.351 N 
ATOM      4  C   UNL     1       0.701  -3.827   4.995  1.00  0.00     0.281 C 
ATOM      5  O   UNL     1      -0.501  -4.071   4.859  1.00  0.00    -0.268 OA
ATOM      6  H   UNL     1       0.552  -4.511   6.849  1.00  0.00     0.163 HD
BRANCH   4   7
ATOM      7  C   UNL     1       1.514  -3.222   3.833  1.00  0.00     0.177 C 
ATOM      8  C   UNL     1       2.915  -3.747   3.554  1.00  0.00     0.086 C 
ATOM      9  C   UNL     1       2.739  -2.378   4.141  1.00  0.00     0.086 C 
BRANCH   7  10
ATOM     10  N   UNL     1       0.609  -2.863   2.691  1.00  0.00    -0.321 N 
ATOM     11  C   UNL     1       1.185  -1.771   0.935  1.00  0.00     0.068 C 
ATOM     12  C   UNL     1       0.505  -1.456   2.311  1.00  0.00     0.275 C 
ATOM     13  C   UNL     1       0.930  -3.265   1.319  1.00  0.00     0.275 C 
ATOM     14  H   UNL     1      -0.174  -3.333   3.145  1.00  0.00     0.349 HD
BRANCH  11  15
ATOM     15  C   UNL     1       0.335  -1.270  -0.250  1.00  0.00     0.015 C 
ATOM     16  C   UNL     1       0.411   0.244  -0.406  1.00  0.00     0.005 C 
ENDBRANCH  11  15
BRANCH  11  17
ATOM     17  C   UNL     1       2.673  -1.383   0.819  1.00  0.00     0.015 C 
ATOM     18  C   UNL     1       3.335  -1.873  -0.459  1.00  0.00     0.005 C 
ENDBRANCH  11  17
ENDBRANCH   7  10
ENDBRANCH   4   7
ENDBRANCH   2   3
ENDBRANCH   1   2
BRANCH   1  19
ATOM     19  C   UNL     1       1.973  -2.845   9.030  1.00  0.00     0.023 C 
BRANCH  19  20
ATOM     20  C   UNL     1       2.298  -4.061   9.884  1.00  0.00     0.116 C 
BRANCH  20  21
ATOM     21  N   UNL     1       3.723  -4.243  10.117  1.00  0.00    -0.352 N 
ATOM     22  C   UNL     1       4.350  -4.708  11.248  1.00  0.00     0.251 C 
ATOM     23  H   UNL     1       4.314  -4.002   9.367  1.00  0.00     0.163 HD
ATOM     24  O   UNL     1       5.570  -4.709  11.331  1.00  0.00    -0.269 OA
BRANCH  22  25
ATOM     25  C   UNL     1       3.523  -5.168  12.382  1.00  0.00     0.039 A 
ATOM     26  C   UNL     1       3.796  -4.670  13.657  1.00  0.00     0.014 A 
ATOM     27  C   UNL     1       2.455  -6.043  12.173  1.00  0.00     0.014 A 
ATOM     28  C   UNL     1       2.953  -5.003  14.717  1.00  0.00     0.010 A 
ATOM     29  C   UNL     1       1.570  -6.306  13.211  1.00  0.00     0.010 A 
ATOM     30  C   UNL     1       1.813  -5.793  14.494  1.00  0.00    -0.014 A 
BRANCH  30  31
ATOM     31  C   UNL     1       0.869  -6.103  15.594  1.00  0.00     0.031 A 
ATOM     32  C   UNL     1       0.683  -7.524  16.045  1.00  0.00     0.074 A 
ATOM     33  C   UNL     1       0.135  -5.115  16.140  1.00  0.00     0.049 A 
ATOM     34  N   UNL     1      -0.132  -8.007  16.949  1.00  0.00    -0.248 NA
ATOM     35  C   UNL     1       1.500  -8.545  15.368  1.00  0.00     0.031 C 
ATOM     36  C   UNL     1       0.185  -3.706  15.746  1.00  0.00     0.029 A 
ATOM     37  N   UNL     1      -0.806  -5.147  17.139  1.00  0.00    -0.354 N 
ATOM     38  C   UNL     1       0.064  -9.381  16.937  1.00  0.00     0.074 A 
ATOM     39  C   UNL     1       1.030  -9.664  15.898  1.00  0.00     0.031 C 
ATOM     40  C   UNL     1      -0.667  -3.005  16.512  1.00  0.00     0.029 A 
ATOM     41  C   UNL     1      -1.347  -3.918  17.425  1.00  0.00     0.049 A 
ATOM     42  H   UNL     1      -1.067  -5.973  17.607  1.00  0.00     0.167 HD
ATOM     43  C   UNL     1      -0.491 -10.320  17.739  1.00  0.00     0.037 A 
ATOM     44  C   UNL     1      -2.288  -3.570  18.323  1.00  0.00     0.037 A 
ATOM     45  C   UNL     1      -1.430 -10.029  18.790  1.00  0.00     0.049 A 
ATOM     46  C   UNL     1      -2.883  -4.631  19.209  1.00  0.00     0.074 A 
ATOM     47  C   UNL     1      -2.003 -10.899  19.701  1.00  0.00     0.029 A 
ATOM     48  N   UNL     1      -1.935  -8.767  19.069  1.00  0.00    -0.354 N 
ATOM     49  N   UNL     1      -2.634  -5.918  19.242  1.00  0.00    -0.248 NA
ATOM     50  C   UNL     1      -3.883  -4.189  20.190  1.00  0.00     0.031 C 
ATOM     51  C   UNL     1      -2.890 -10.172  20.501  1.00  0.00     0.029 A 
ATOM     52  C   UNL     1      -2.829  -8.839  20.126  1.00  0.00     0.049 A 
ATOM     53  H   UNL     1      -1.694  -7.943  18.588  1.00  0.00     0.167 HD
ATOM     54  C   UNL     1      -3.420  -6.433  20.263  1.00  0.00     0.074 A 
ATOM     55  C   UNL     1      -4.143  -5.317  20.836  1.00  0.00     0.031 C 
ATOM     56  C   UNL     1      -3.533  -7.715  20.689  1.00  0.00     0.037 A 
BRANCH  43  57
ATOM     57  C   UNL     1      -0.093 -11.749  17.513  1.00  0.00     0.064 A 
ATOM     58  C   UNL     1       1.200 -12.209  17.811  1.00  0.00     0.173 A 
ATOM     59  C   UNL     1      -1.022 -12.678  17.021  1.00  0.00     0.173 A 
ATOM     60  F   UNL     1       2.130 -11.359  18.270  1.00  0.00    -0.203 F 
ATOM     61  C   UNL     1       1.555 -13.538  17.596  1.00  0.00     0.198 A 
ATOM     62  C   UNL     1      -0.672 -14.014  16.838  1.00  0.00     0.198 A 
ATOM     63  F   UNL     1      -2.272 -12.293  16.724  1.00  0.00    -0.203 F 
ATOM     64  F   UNL     1       2.810 -13.941  17.838  1.00  0.00    -0.200 F 
ATOM     65  C   UNL     1       0.618 -14.441  17.117  1.00  0.00     0.200 A 
ATOM     66  F   UNL     1      -1.583 -14.888  16.388  1.00  0.00    -0.200 F 
ATOM     67  F   UNL     1       0.959 -15.721  16.918  1.00  0.00    -0.200 F 
ENDBRANCH  43  57
BRANCH  44  68
ATOM     68  C   UNL     1      -2.703  -2.148  18.452  1.00  0.00     0.064 A 
ATOM     69  C   UNL     1      -2.370  -1.403  19.592  1.00  0.00     0.173 A 
ATOM     70  C   UNL     1      -3.440  -1.508  17.445  1.00  0.00     0.173 A 
ATOM     71  F   UNL     1      -1.683  -1.977  20.590  1.00  0.00    -0.203 F 
ATOM     72  C   UNL     1      -2.779  -0.078  19.731  1.00  0.00     0.198 A 
ATOM     73  C   UNL     1      -3.824  -0.174  17.573  1.00  0.00     0.198 A 
ATOM     74  F   UNL     1      -3.778  -2.174  16.332  1.00  0.00    -0.203 F 
ATOM     75  F   UNL     1      -2.489   0.596  20.852  1.00  0.00    -0.200 F 
ATOM     76  C   UNL     1      -3.501   0.537  18.719  1.00  0.00     0.200 A 
ATOM     77  F   UNL     1      -4.508   0.421  16.587  1.00  0.00    -0.200 F 
ATOM     78  F   UNL     1      -3.891   1.812  18.852  1.00  0.00    -0.200 F 
ENDBRANCH  44  68
BRANCH  56  79
ATOM     79  C   UNL     1      -4.441  -7.974  21.856  1.00  0.00     0.064 A 
ATOM     80  C   UNL     1      -5.837  -7.894  21.737  1.00  0.00     0.173 A 
ATOM     81  C   UNL     1      -3.908  -8.344  23.100  1.00  0.00     0.173 A 
ATOM     82  F   UNL     1      -6.395  -7.530  20.573  1.00  0.00    -0.203 F 
ATOM     83  C   UNL     1      -6.662  -8.145  22.829  1.00  0.00     0.198 A 
ATOM     84  C   UNL     1      -4.737  -8.625  24.181  1.00  0.00     0.198 A 
ATOM     85  F   UNL     1      -2.580  -8.443  23.264  1.00  0.00    -0.203 F 
ATOM     86  F   UNL     1      -7.990  -8.011  22.707  1.00  0.00    -0.200 F 
ATOM     87  C   UNL     1      -6.113  -8.517  24.047  1.00  0.00     0.200 A 
ATOM     88  F   UNL     1      -4.205  -9.000  25.353  1.00  0.00    -0.200 F 
ATOM     89  F   UNL     1      -6.911  -8.765  25.096  1.00  0.00    -0.200 F 
ENDBRANCH  56  79
ENDBRANCH  30  31
ENDBRANCH  22  25
ENDBRANCH  20  21
ENDBRANCH  19  20
ENDBRANCH   1  19
TORSDOF 14
