REMARK SMILES Cc1ccc(C)c(Oc2cccc(F)c2C(=O)NCCCCNC(=O)c2ccc(-c3c4nc(c(-c5c(F)c(F)c(F)c(F)c5F)c5ccc([nH]5)c(-c5c(F)c(F)c(F)c(F)c5F)c5nc(c(-c6c(F)c(F)c(F)c(F)c6F)c6ccc3[nH]6)C=C5)C=C4)cc2)c1
REMARK SMILES IDX 20 1 19 2 18 3 16 4 17 5 15 7 9 8 10 9 11 10 13 11 12 12
REMARK SMILES IDX 14 13 8 14 7 15 1 16 2 17 3 18 89 19 4 20 5 21 6 22 21 23
REMARK SMILES IDX 22 24 23 25 24 26 25 28 26 29 27 30 88 31 28 32 87 33 29 34
REMARK SMILES IDX 30 35 31 36 81 37 32 38 86 39 80 40 82 41 33 42 85 43 79 44
REMARK SMILES IDX 78 45 34 47 66 48 46 49 65 50 47 51 50 52 64 53 83 54 48 55
REMARK SMILES IDX 49 56 63 58 84 59 51 60 35 61 36 62 44 63 37 64 38 65 42 66
REMARK SMILES IDX 45 67 39 68 40 69 43 70 41 71 67 72 68 73 76 74 69 75 70 76
REMARK SMILES IDX 74 77 77 78 71 79 72 80 75 81 73 82 52 83 53 84 61 85 54 86
REMARK SMILES IDX 55 87 59 88 62 89 56 90 57 91 60 92 58 93
REMARK H PARENT 18 6 23 27 82 46 50 57
REMARK Flexibility Score: inf
ROOT
ATOM      1  C   UNL     1      -2.792   7.823   2.910  1.00  0.00     0.023 C 
ENDROOT
BRANCH   1   2
ATOM      2  C   UNL     1      -1.625   6.833   2.948  1.00  0.00     0.116 C 
BRANCH   2   3
ATOM      3  N   UNL     1      -1.954   5.417   2.921  1.00  0.00    -0.352 N 
ATOM      4  C   UNL     1      -1.436   4.354   2.195  1.00  0.00     0.258 C 
ATOM      5  O   UNL     1      -1.818   3.232   2.528  1.00  0.00    -0.269 OA
ATOM      6  H   UNL     1      -2.682   5.165   3.534  1.00  0.00     0.163 HD
BRANCH   4   7
ATOM      7  C   UNL     1      -0.543   4.516   1.008  1.00  0.00     0.118 A 
ATOM      8  C   UNL     1      -0.671   3.670  -0.109  1.00  0.00     0.143 A 
ATOM      9  C   UNL     1      -0.045   3.980  -1.332  1.00  0.00     0.048 A 
ATOM     10  C   UNL     1       0.846   5.043  -1.407  1.00  0.00     0.007 A 
ATOM     11  C   UNL     1       0.463   5.478   0.942  1.00  0.00     0.139 A 
ATOM     12  C   UNL     1       1.136   5.761  -0.252  1.00  0.00     0.040 A 
ATOM     13  F   UNL     1       0.873   6.128   2.042  1.00  0.00    -0.206 F 
BRANCH   8  14
ATOM     14  O   UNL     1      -1.377   2.488  -0.038  1.00  0.00    -0.456 OA
BRANCH  14  15
ATOM     15  C   UNL     1      -0.654   1.296  -0.076  1.00  0.00     0.130 A 
ATOM     16  C   UNL     1       2.924  -0.074  -0.144  1.00  0.00     0.044 C 
ATOM     17  C   UNL     1       1.425  -0.008  -0.139  1.00  0.00    -0.047 A 
ATOM     18  C   UNL     1       0.674  -1.183  -0.188  1.00  0.00     0.004 A 
ATOM     19  C   UNL     1       0.753   1.222  -0.067  1.00  0.00     0.050 A 
ATOM     20  C   UNL     1      -0.720  -1.127  -0.161  1.00  0.00     0.007 A 
ATOM     21  C   UNL     1      -1.397   0.105  -0.108  1.00  0.00    -0.008 A 
ATOM     22  C   UNL     1      -2.898   0.081  -0.049  1.00  0.00     0.048 C 
ENDBRANCH  14  15
ENDBRANCH   8  14
ENDBRANCH   4   7
ENDBRANCH   2   3
ENDBRANCH   1   2
BRANCH   1  23
ATOM     23  C   UNL     1      -3.807   7.901   4.058  1.00  0.00     0.023 C 
BRANCH  23  24
ATOM     24  C   UNL     1      -3.323   8.284   5.459  1.00  0.00     0.116 C 
BRANCH  24  25
ATOM     25  N   UNL     1      -2.546   9.536   5.540  1.00  0.00    -0.352 N 
ATOM     26  C   UNL     1      -1.569   9.957   6.447  1.00  0.00     0.251 C 
ATOM     27  H   UNL     1      -2.752  10.188   4.833  1.00  0.00     0.163 HD
ATOM     28  O   UNL     1      -1.320  11.142   6.586  1.00  0.00    -0.269 OA
BRANCH  26  29
ATOM     29  C   UNL     1      -0.794   8.960   7.216  1.00  0.00     0.039 A 
ATOM     30  C   UNL     1      -0.036   9.200   8.368  1.00  0.00     0.014 A 
ATOM     31  C   UNL     1      -0.726   7.710   6.665  1.00  0.00     0.014 A 
ATOM     32  C   UNL     1       0.758   8.156   8.878  1.00  0.00     0.010 A 
ATOM     33  C   UNL     1      -0.446   6.665   7.467  1.00  0.00     0.010 A 
ATOM     34  C   UNL     1       0.576   6.880   8.352  1.00  0.00    -0.014 A 
BRANCH  34  35
ATOM     35  C   UNL     1       1.333   5.673   8.621  1.00  0.00     0.031 A 
ATOM     36  C   UNL     1       0.917   4.937   9.836  1.00  0.00     0.074 A 
ATOM     37  C   UNL     1       2.002   5.040   7.626  1.00  0.00     0.049 A 
ATOM     38  N   UNL     1       1.589   4.773  10.924  1.00  0.00    -0.248 NA
ATOM     39  C   UNL     1      -0.472   4.453   9.916  1.00  0.00     0.031 C 
ATOM     40  C   UNL     1       2.113   5.406   6.205  1.00  0.00     0.029 A 
ATOM     41  N   UNL     1       2.626   3.833   7.665  1.00  0.00    -0.354 N 
ATOM     42  C   UNL     1       0.767   4.023  11.758  1.00  0.00     0.074 A 
ATOM     43  C   UNL     1      -0.552   4.099  11.198  1.00  0.00     0.031 C 
ATOM     44  C   UNL     1       2.587   4.352   5.500  1.00  0.00     0.029 A 
ATOM     45  C   UNL     1       2.931   3.286   6.425  1.00  0.00     0.049 A 
ATOM     46  H   UNL     1       2.846   3.380   8.511  1.00  0.00     0.167 HD
ATOM     47  C   UNL     1       1.277   3.176  12.694  1.00  0.00     0.037 A 
ATOM     48  C   UNL     1       3.363   2.019   6.203  1.00  0.00     0.037 A 
ATOM     49  C   UNL     1       2.694   3.390  12.860  1.00  0.00     0.049 A 
ATOM     50  C   UNL     1       3.855   1.492   7.507  1.00  0.00     0.074 A 
ATOM     51  C   UNL     1       3.464   4.487  13.199  1.00  0.00     0.029 A 
ATOM     52  N   UNL     1       3.555   2.507  12.250  1.00  0.00    -0.354 N 
ATOM     53  N   UNL     1       4.913   1.941   8.124  1.00  0.00    -0.248 NA
ATOM     54  C   UNL     1       2.903   0.774   8.345  1.00  0.00     0.031 C 
ATOM     55  C   UNL     1       4.599   4.420  12.337  1.00  0.00     0.029 A 
ATOM     56  C   UNL     1       4.495   3.252  11.581  1.00  0.00     0.049 A 
ATOM     57  H   UNL     1       3.506   1.524  12.286  1.00  0.00     0.167 HD
ATOM     58  C   UNL     1       4.564   1.945   9.467  1.00  0.00     0.074 A 
ATOM     59  C   UNL     1       3.354   1.130   9.551  1.00  0.00     0.031 C 
ATOM     60  C   UNL     1       5.103   2.853  10.332  1.00  0.00     0.037 A 
BRANCH  47  61
ATOM     61  C   UNL     1       0.580   1.946  13.220  1.00  0.00     0.064 A 
ATOM     62  C   UNL     1      -0.449   1.249  12.548  1.00  0.00     0.173 A 
ATOM     63  C   UNL     1       1.122   1.286  14.339  1.00  0.00     0.173 A 
ATOM     64  F   UNL     1      -0.978   1.682  11.398  1.00  0.00    -0.203 F 
ATOM     65  C   UNL     1      -0.908   0.002  12.968  1.00  0.00     0.198 A 
ATOM     66  C   UNL     1       0.707   0.007  14.717  1.00  0.00     0.198 A 
ATOM     67  F   UNL     1       2.121   1.841  15.041  1.00  0.00    -0.203 F 
ATOM     68  F   UNL     1      -1.884  -0.606  12.280  1.00  0.00    -0.200 F 
ATOM     69  C   UNL     1      -0.309  -0.633  14.033  1.00  0.00     0.200 A 
ATOM     70  F   UNL     1       1.338  -0.628  15.714  1.00  0.00    -0.200 F 
ATOM     71  F   UNL     1      -0.676  -1.878  14.364  1.00  0.00    -0.200 F 
ENDBRANCH  47  61
BRANCH  48  72
ATOM     72  C   UNL     1       3.047   1.115   5.067  1.00  0.00     0.064 A 
ATOM     73  C   UNL     1       1.861   1.257   4.321  1.00  0.00     0.173 A 
ATOM     74  C   UNL     1       3.743  -0.097   4.904  1.00  0.00     0.173 A 
ATOM     75  F   UNL     1       1.107   2.359   4.428  1.00  0.00    -0.203 F 
ATOM     76  C   UNL     1       1.363   0.224   3.527  1.00  0.00     0.198 A 
ATOM     77  C   UNL     1       3.249  -1.125   4.095  1.00  0.00     0.198 A 
ATOM     78  F   UNL     1       4.868  -0.328   5.596  1.00  0.00    -0.203 F 
ATOM     79  F   UNL     1       0.175   0.368   2.927  1.00  0.00    -0.200 F 
ATOM     80  C   UNL     1       2.046  -0.973   3.428  1.00  0.00     0.200 A 
ATOM     81  F   UNL     1       3.905  -2.292   4.019  1.00  0.00    -0.200 F 
ATOM     82  F   UNL     1       1.533  -1.993   2.726  1.00  0.00    -0.200 F 
ENDBRANCH  48  72
BRANCH  60  83
ATOM     83  C   UNL     1       6.257   3.693   9.851  1.00  0.00     0.064 A 
ATOM     84  C   UNL     1       7.438   3.700  10.604  1.00  0.00     0.173 A 
ATOM     85  C   UNL     1       6.169   4.614   8.792  1.00  0.00     0.173 A 
ATOM     86  F   UNL     1       7.564   2.883  11.661  1.00  0.00    -0.203 F 
ATOM     87  C   UNL     1       8.472   4.589  10.319  1.00  0.00     0.198 A 
ATOM     88  C   UNL     1       7.219   5.476   8.484  1.00  0.00     0.198 A 
ATOM     89  F   UNL     1       5.045   4.747   8.083  1.00  0.00    -0.203 F 
ATOM     90  F   UNL     1       9.560   4.615  11.101  1.00  0.00    -0.200 F 
ATOM     91  C   UNL     1       8.366   5.471   9.256  1.00  0.00     0.200 A 
ATOM     92  F   UNL     1       7.101   6.343   7.466  1.00  0.00    -0.200 F 
ATOM     93  F   UNL     1       9.355   6.337   8.996  1.00  0.00    -0.200 F 
ENDBRANCH  60  83
ENDBRANCH  34  35
ENDBRANCH  26  29
ENDBRANCH  24  25
ENDBRANCH  23  24
ENDBRANCH   1  23
TORSDOF 13
