REMARK SMILES CCc1ccc(C(=O)N2Cc3nc[nH]c3C[C@@H]2C(=O)NCCCCNC(=O)c2ccc(-c3c4nc(c(-c5c(F)c(F)c(F)c(F)c5F)c5ccc([nH]5)c(-c5c(F)c(F)c(F)c(F)c5F)c5nc(c(-c6c(F)c(F)c(F)c(F)c6F)c6ccc3[nH]6)C=C5)C=C4)cc2)o1
REMARK SMILES IDX 22 1 21 2 20 3 18 4 19 5 17 7 9 8 10 9 11 10 16 11 12 12
REMARK SMILES IDX 15 13 13 14 14 15 7 17 8 18 6 19 3 20 4 21 91 22 5 23 2 24
REMARK SMILES IDX 1 25 23 26 24 27 25 28 26 29 27 31 28 32 29 33 90 34 30 35
REMARK SMILES IDX 89 36 31 37 32 38 33 39 83 40 34 41 88 42 82 43 84 44 35 45
REMARK SMILES IDX 87 46 81 47 80 48 36 50 68 51 48 52 67 53 49 54 52 55 66 56
REMARK SMILES IDX 85 57 50 58 51 59 65 61 86 62 53 63 37 64 38 65 46 66 39 67
REMARK SMILES IDX 40 68 44 69 47 70 41 71 42 72 45 73 43 74 69 75 70 76 78 77
REMARK SMILES IDX 71 78 72 79 76 80 79 81 73 82 74 83 77 84 75 85 54 86 55 87
REMARK SMILES IDX 63 88 56 89 57 90 61 91 64 92 58 93 59 94 62 95 60 96
REMARK H PARENT 20 6 14 16 25 30 84 49 52 60
REMARK Flexibility Score: inf
ROOT
ATOM      1  C   UNL     1       3.102   6.246   7.546  1.00  0.00     0.023 C 
ENDROOT
BRANCH   1   2
ATOM      2  C   UNL     1       3.593   5.492   6.299  1.00  0.00     0.116 C 
BRANCH   2   3
ATOM      3  N   UNL     1       2.520   4.692   5.742  1.00  0.00    -0.354 N 
ATOM      4  C   UNL     1       1.602   4.987   4.782  1.00  0.00     0.243 C 
ATOM      5  O   UNL     1       0.583   4.289   4.758  1.00  0.00    -0.273 OA
ATOM      6  H   UNL     1       2.443   3.787   6.120  1.00  0.00     0.163 HD
BRANCH   4   7
ATOM      7  C   UNL     1       1.797   6.109   3.729  1.00  0.00     0.181 C 
ATOM      8  N   UNL     1       2.987   5.822   2.863  1.00  0.00    -0.318 N 
ATOM      9  C   UNL     1       3.478   6.857   1.935  1.00  0.00     0.179 C 
ATOM     10  C   UNL     1       3.235   8.218   2.462  1.00  0.00     0.081 A 
ATOM     11  C   UNL     1       1.776   7.510   4.404  1.00  0.00     0.091 C 
ATOM     12  N   UNL     1       3.726   9.371   1.911  1.00  0.00    -0.240 NA
ATOM     13  C   UNL     1       2.456   8.503   3.553  1.00  0.00     0.042 A 
ATOM     14  C   UNL     1       3.292  10.337   2.693  1.00  0.00     0.197 A 
ATOM     15  N   UNL     1       2.524   9.855   3.720  1.00  0.00    -0.348 N 
ATOM     16  H   UNL     1       2.104  10.381   4.438  1.00  0.00     0.167 HD
BRANCH   8  17
ATOM     17  C   UNL     1       3.230   4.531   2.356  1.00  0.00     0.290 C 
ATOM     18  O   UNL     1       4.392   4.139   2.243  1.00  0.00    -0.265 OA
BRANCH  17  19
ATOM     19  C   UNL     1       2.086   3.768   1.886  1.00  0.00     0.191 A 
ATOM     20  C   UNL     1       0.944   1.935   1.458  1.00  0.00     0.104 A 
ATOM     21  C   UNL     1       0.154   2.983   1.044  1.00  0.00     0.046 A 
ATOM     22  O   UNL     1       2.125   2.399   1.954  1.00  0.00    -0.456 OA
ATOM     23  C   UNL     1       0.899   4.156   1.287  1.00  0.00     0.056 A 
BRANCH  20  24
ATOM     24  C   UNL     1       0.743   0.466   1.446  1.00  0.00     0.072 C 
ATOM     25  C   UNL     1       1.146  -0.137   0.110  1.00  0.00     0.012 C 
ENDBRANCH  20  24
ENDBRANCH  17  19
ENDBRANCH   8  17
ENDBRANCH   4   7
ENDBRANCH   2   3
ENDBRANCH   1   2
BRANCH   1  26
ATOM     26  C   UNL     1       2.692   5.366   8.737  1.00  0.00     0.023 C 
BRANCH  26  27
ATOM     27  C   UNL     1       3.836   4.593   9.377  1.00  0.00     0.116 C 
BRANCH  27  28
ATOM     28  N   UNL     1       4.852   5.479   9.929  1.00  0.00    -0.352 N 
ATOM     29  C   UNL     1       6.104   5.154  10.404  1.00  0.00     0.251 C 
ATOM     30  H   UNL     1       4.614   6.434   9.968  1.00  0.00     0.163 HD
ATOM     31  O   UNL     1       6.671   5.881  11.205  1.00  0.00    -0.269 OA
BRANCH  29  32
ATOM     32  C   UNL     1       6.756   3.917   9.935  1.00  0.00     0.039 A 
ATOM     33  C   UNL     1       7.464   3.118  10.834  1.00  0.00     0.014 A 
ATOM     34  C   UNL     1       6.665   3.561   8.587  1.00  0.00     0.014 A 
ATOM     35  C   UNL     1       8.005   1.917  10.385  1.00  0.00     0.010 A 
ATOM     36  C   UNL     1       7.122   2.331   8.160  1.00  0.00     0.010 A 
ATOM     37  C   UNL     1       7.803   1.510   9.052  1.00  0.00    -0.014 A 
BRANCH  37  38
ATOM     38  C   UNL     1       8.099   0.126   8.675  1.00  0.00     0.031 A 
ATOM     39  C   UNL     1       7.389  -0.853   9.542  1.00  0.00     0.074 A 
ATOM     40  C   UNL     1       8.767  -0.255   7.563  1.00  0.00     0.049 A 
ATOM     41  N   UNL     1       7.916  -1.633  10.425  1.00  0.00    -0.248 NA
ATOM     42  C   UNL     1       5.915  -0.843   9.573  1.00  0.00     0.031 C 
ATOM     43  C   UNL     1       9.222   0.610   6.470  1.00  0.00     0.029 A 
ATOM     44  N   UNL     1       9.108  -1.506   7.115  1.00  0.00    -0.354 N 
ATOM     45  C   UNL     1       6.867  -2.400  10.929  1.00  0.00     0.074 A 
ATOM     46  C   UNL     1       5.660  -1.723  10.545  1.00  0.00     0.031 C 
ATOM     47  C   UNL     1       9.566  -0.145   5.402  1.00  0.00     0.029 A 
ATOM     48  C   UNL     1       9.520  -1.546   5.782  1.00  0.00     0.049 A 
ATOM     49  H   UNL     1       9.066  -2.307   7.686  1.00  0.00     0.167 HD
ATOM     50  C   UNL     1       7.105  -3.687  11.307  1.00  0.00     0.037 A 
ATOM     51  C   UNL     1       9.813  -2.643   5.036  1.00  0.00     0.037 A 
ATOM     52  C   UNL     1       8.527  -3.903  11.430  1.00  0.00     0.049 A 
ATOM     53  C   UNL     1      10.103  -3.754   5.965  1.00  0.00     0.074 A 
ATOM     54  C   UNL     1       9.524  -3.593  12.327  1.00  0.00     0.029 A 
ATOM     55  N   UNL     1       9.129  -4.199  10.238  1.00  0.00    -0.354 N 
ATOM     56  N   UNL     1      11.179  -3.810   6.696  1.00  0.00    -0.248 NA
ATOM     57  C   UNL     1       9.035  -4.674   6.342  1.00  0.00     0.031 C 
ATOM     58  C   UNL     1      10.748  -3.621  11.593  1.00  0.00     0.029 A 
ATOM     59  C   UNL     1      10.479  -4.003  10.282  1.00  0.00     0.049 A 
ATOM     60  H   UNL     1       8.645  -4.515   9.441  1.00  0.00     0.167 HD
ATOM     61  C   UNL     1      10.751  -4.406   7.861  1.00  0.00     0.074 A 
ATOM     62  C   UNL     1       9.508  -5.085   7.521  1.00  0.00     0.031 C 
ATOM     63  C   UNL     1      11.243  -3.987   9.060  1.00  0.00     0.037 A 
BRANCH  50  64
ATOM     64  C   UNL     1       6.187  -4.872  11.029  1.00  0.00     0.064 A 
ATOM     65  C   UNL     1       6.630  -6.163  11.402  1.00  0.00     0.173 A 
ATOM     66  C   UNL     1       5.088  -4.856  10.144  1.00  0.00     0.173 A 
ATOM     67  F   UNL     1       7.663  -6.317  12.245  1.00  0.00    -0.203 F 
ATOM     68  C   UNL     1       6.088  -7.329  10.850  1.00  0.00     0.198 A 
ATOM     69  C   UNL     1       4.523  -6.023   9.627  1.00  0.00     0.198 A 
ATOM     70  F   UNL     1       4.570  -3.725   9.657  1.00  0.00    -0.203 F 
ATOM     71  F   UNL     1       6.631  -8.519  11.140  1.00  0.00    -0.200 F 
ATOM     72  C   UNL     1       5.043  -7.257   9.952  1.00  0.00     0.200 A 
ATOM     73  F   UNL     1       3.518  -5.931   8.744  1.00  0.00    -0.200 F 
ATOM     74  F   UNL     1       4.563  -8.364   9.370  1.00  0.00    -0.200 F 
ENDBRANCH  50  64
BRANCH  51  75
ATOM     75  C   UNL     1       9.759  -2.883   3.574  1.00  0.00     0.064 A 
ATOM     76  C   UNL     1      10.497  -3.922   2.976  1.00  0.00     0.173 A 
ATOM     77  C   UNL     1       8.745  -2.305   2.791  1.00  0.00     0.173 A 
ATOM     78  F   UNL     1      11.462  -4.549   3.663  1.00  0.00    -0.203 F 
ATOM     79  C   UNL     1      10.202  -4.390   1.692  1.00  0.00     0.198 A 
ATOM     80  C   UNL     1       8.452  -2.772   1.507  1.00  0.00     0.198 A 
ATOM     81  F   UNL     1       7.953  -1.352   3.302  1.00  0.00    -0.203 F 
ATOM     82  F   UNL     1      10.877  -5.433   1.187  1.00  0.00    -0.200 F 
ATOM     83  C   UNL     1       9.168  -3.826   0.965  1.00  0.00     0.200 A 
ATOM     84  F   UNL     1       7.424  -2.247   0.826  1.00  0.00    -0.200 F 
ATOM     85  F   UNL     1       8.832  -4.325  -0.233  1.00  0.00    -0.200 F 
ENDBRANCH  51  75
BRANCH  63  86
ATOM     86  C   UNL     1      12.598  -3.360   9.063  1.00  0.00     0.064 A 
ATOM     87  C   UNL     1      12.922  -2.138   8.451  1.00  0.00     0.173 A 
ATOM     88  C   UNL     1      13.609  -4.025   9.769  1.00  0.00     0.173 A 
ATOM     89  F   UNL     1      11.989  -1.411   7.820  1.00  0.00    -0.203 F 
ATOM     90  C   UNL     1      14.219  -1.631   8.512  1.00  0.00     0.198 A 
ATOM     91  C   UNL     1      14.890  -3.498   9.861  1.00  0.00     0.198 A 
ATOM     92  F   UNL     1      13.341  -5.181  10.397  1.00  0.00    -0.203 F 
ATOM     93  F   UNL     1      14.520  -0.477   7.900  1.00  0.00    -0.200 F 
ATOM     94  C   UNL     1      15.199  -2.308   9.222  1.00  0.00     0.200 A 
ATOM     95  F   UNL     1      15.821  -4.137  10.582  1.00  0.00    -0.200 F 
ATOM     96  F   UNL     1      16.439  -1.806   9.306  1.00  0.00    -0.200 F 
ENDBRANCH  63  86
ENDBRANCH  37  38
ENDBRANCH  29  32
ENDBRANCH  27  28
ENDBRANCH  26  27
ENDBRANCH   1  26
TORSDOF 14
