REMARK SMILES Cc1csc(C[NH2+]C2(C(=O)NCCCCNC(=O)c3ccc(-c4c5nc(c(-c6c(F)c(F)c(F)c(F)c6F)c6ccc([nH]6)c(-c6c(F)c(F)c(F)c(F)c6F)c6nc(c(-c7c(F)c(F)c(F)c(F)c7F)c7ccc4[nH]7)C=C6)C=C5)cc3)CC2)n1
REMARK SMILES IDX 13 1 12 2 11 3 9 4 10 5 8 7 82 8 83 9 7 10 6 13 5 14 1 15
REMARK SMILES IDX 2 16 3 17 84 18 4 19 14 20 15 21 16 22 17 23 18 25 19 26
REMARK SMILES IDX 20 27 81 28 21 29 80 30 22 31 23 32 24 33 74 34 25 35 79 36
REMARK SMILES IDX 73 37 75 38 26 39 78 40 72 41 71 42 27 44 59 45 39 46 58 47
REMARK SMILES IDX 40 48 43 49 57 50 76 51 41 52 42 53 56 55 77 56 44 57 28 58
REMARK SMILES IDX 29 59 37 60 30 61 31 62 35 63 38 64 32 65 33 66 36 67 34 68
REMARK SMILES IDX 60 69 61 70 69 71 62 72 63 73 67 74 70 75 64 76 65 77 68 78
REMARK SMILES IDX 66 79 45 80 46 81 54 82 47 83 48 84 52 85 55 86 49 87 50 88
REMARK SMILES IDX 53 89 51 90
REMARK H PARENT 11 6 7 11 7 12 16 24 75 43 43 54
REMARK Flexibility Score: inf
ROOT
ATOM      1  C   UNL     1       3.515   6.709   1.872  1.00  0.00     0.023 C 
ENDROOT
BRANCH   1   2
ATOM      2  C   UNL     1       4.240   6.170   0.631  1.00  0.00     0.116 C 
BRANCH   2   3
ATOM      3  N   UNL     1       4.064   4.749   0.423  1.00  0.00    -0.351 N 
ATOM      4  C   UNL     1       2.832   4.142   0.386  1.00  0.00     0.281 C 
ATOM      5  O   UNL     1       2.579   3.400   1.334  1.00  0.00    -0.268 OA
ATOM      6  H   UNL     1       4.865   4.190   0.302  1.00  0.00     0.163 HD
BRANCH   4   7
ATOM      7  C   UNL     1       1.894   4.315  -0.827  1.00  0.00     0.176 C 
ATOM      8  C   UNL     1       2.387   5.084  -2.051  1.00  0.00     0.086 C 
ATOM      9  C   UNL     1       1.366   5.705  -1.150  1.00  0.00     0.086 C 
BRANCH   7  10
ATOM     10  N   UNL     1       0.941   3.170  -1.147  1.00  0.00    -0.328 N 
ATOM     11  H   UNL     1      -0.012   3.532  -1.112  1.00  0.00     0.347 HD
ATOM     12  H   UNL     1       1.208   2.824  -2.068  1.00  0.00     0.347 HD
BRANCH  10  13
ATOM     13  C   UNL     1       1.025   2.021  -0.235  1.00  0.00     0.330 C 
BRANCH  13  14
ATOM     14  C   UNL     1       0.147   0.834  -0.533  1.00  0.00     0.147 A 
ATOM     15  C   UNL     1      -3.062  -0.724  -0.086  1.00  0.00     0.067 C 
ATOM     16  C   UNL     1      -1.619  -0.490  -0.343  1.00  0.00     0.049 A 
ATOM     17  C   UNL     1      -0.635  -1.454  -0.435  1.00  0.00     0.090 A 
ATOM     18  N   UNL     1      -1.168   0.816  -0.447  1.00  0.00    -0.240 NA
ATOM     19  S   UNL     1       0.885  -0.720  -0.700  1.00  0.00    -0.121 S 
ENDBRANCH  13  14
ENDBRANCH  10  13
ENDBRANCH   7  10
ENDBRANCH   4   7
ENDBRANCH   2   3
ENDBRANCH   1   2
BRANCH   1  20
ATOM     20  C   UNL     1       3.780   5.992   3.202  1.00  0.00     0.023 C 
BRANCH  20  21
ATOM     21  C   UNL     1       5.231   5.665   3.524  1.00  0.00     0.116 C 
BRANCH  21  22
ATOM     22  N   UNL     1       6.111   6.813   3.418  1.00  0.00    -0.352 N 
ATOM     23  C   UNL     1       7.190   7.170   4.184  1.00  0.00     0.251 C 
ATOM     24  H   UNL     1       5.900   7.432   2.682  1.00  0.00     0.163 HD
ATOM     25  O   UNL     1       7.755   8.237   3.968  1.00  0.00    -0.269 OA
BRANCH  23  26
ATOM     26  C   UNL     1       7.653   6.306   5.293  1.00  0.00     0.039 A 
ATOM     27  C   UNL     1       8.033   6.928   6.486  1.00  0.00     0.014 A 
ATOM     28  C   UNL     1       7.743   4.916   5.174  1.00  0.00     0.014 A 
ATOM     29  C   UNL     1       8.460   6.157   7.567  1.00  0.00     0.010 A 
ATOM     30  C   UNL     1       8.097   4.141   6.279  1.00  0.00     0.010 A 
ATOM     31  C   UNL     1       8.467   4.755   7.485  1.00  0.00    -0.014 A 
BRANCH  31  32
ATOM     32  C   UNL     1       8.856   3.944   8.668  1.00  0.00     0.031 A 
ATOM     33  C   UNL     1      10.095   3.092   8.646  1.00  0.00     0.074 A 
ATOM     34  C   UNL     1       8.083   3.983   9.771  1.00  0.00     0.049 A 
ATOM     35  N   UNL     1      10.624   2.379   9.609  1.00  0.00    -0.248 NA
ATOM     36  C   UNL     1      10.826   3.012   7.372  1.00  0.00     0.031 C 
ATOM     37  C   UNL     1       6.826   4.723   9.893  1.00  0.00     0.029 A 
ATOM     38  N   UNL     1       8.246   3.400  11.003  1.00  0.00    -0.354 N 
ATOM     39  C   UNL     1      11.746   1.772   9.059  1.00  0.00     0.074 A 
ATOM     40  C   UNL     1      11.785   2.146   7.662  1.00  0.00     0.031 C 
ATOM     41  C   UNL     1       6.356   4.589  11.143  1.00  0.00     0.029 A 
ATOM     42  C   UNL     1       7.260   3.729  11.901  1.00  0.00     0.049 A 
ATOM     43  H   UNL     1       8.998   2.804  11.222  1.00  0.00     0.167 HD
ATOM     44  C   UNL     1      12.675   0.998   9.671  1.00  0.00     0.037 A 
ATOM     45  C   UNL     1       7.107   3.384  13.193  1.00  0.00     0.037 A 
ATOM     46  C   UNL     1      12.635   0.633  11.064  1.00  0.00     0.049 A 
ATOM     47  C   UNL     1       8.154   2.522  13.845  1.00  0.00     0.074 A 
ATOM     48  C   UNL     1      13.549  -0.111  11.790  1.00  0.00     0.029 A 
ATOM     49  N   UNL     1      11.619   0.983  11.943  1.00  0.00    -0.354 N 
ATOM     50  N   UNL     1       9.255   2.023  13.337  1.00  0.00    -0.248 NA
ATOM     51  C   UNL     1       7.943   2.189  15.260  1.00  0.00     0.031 C 
ATOM     52  C   UNL     1      13.060  -0.257  13.093  1.00  0.00     0.029 A 
ATOM     53  C   UNL     1      11.874   0.451  13.198  1.00  0.00     0.049 A 
ATOM     54  H   UNL     1      10.834   1.528  11.710  1.00  0.00     0.167 HD
ATOM     55  C   UNL     1       9.881   1.344  14.374  1.00  0.00     0.074 A 
ATOM     56  C   UNL     1       9.050   1.522  15.547  1.00  0.00     0.031 C 
ATOM     57  C   UNL     1      11.037   0.635  14.357  1.00  0.00     0.037 A 
BRANCH  44  58
ATOM     58  C   UNL     1      13.821   0.496   8.837  1.00  0.00     0.064 A 
ATOM     59  C   UNL     1      14.805   1.365   8.339  1.00  0.00     0.173 A 
ATOM     60  C   UNL     1      13.963  -0.874   8.567  1.00  0.00     0.173 A 
ATOM     61  F   UNL     1      14.713   2.686   8.558  1.00  0.00    -0.203 F 
ATOM     62  C   UNL     1      15.870   0.886   7.580  1.00  0.00     0.198 A 
ATOM     63  C   UNL     1      15.048  -1.353   7.835  1.00  0.00     0.198 A 
ATOM     64  F   UNL     1      13.056  -1.751   9.022  1.00  0.00    -0.203 F 
ATOM     65  F   UNL     1      16.768   1.743   7.073  1.00  0.00    -0.200 F 
ATOM     66  C   UNL     1      15.995  -0.473   7.335  1.00  0.00     0.200 A 
ATOM     67  F   UNL     1      15.175  -2.669   7.613  1.00  0.00    -0.200 F 
ATOM     68  F   UNL     1      17.026  -0.933   6.613  1.00  0.00    -0.200 F 
ENDBRANCH  44  58
BRANCH  45  69
ATOM     69  C   UNL     1       5.939   3.881  13.967  1.00  0.00     0.064 A 
ATOM     70  C   UNL     1       6.106   4.785  15.027  1.00  0.00     0.173 A 
ATOM     71  C   UNL     1       4.636   3.449  13.681  1.00  0.00     0.173 A 
ATOM     72  F   UNL     1       7.334   5.214  15.354  1.00  0.00    -0.203 F 
ATOM     73  C   UNL     1       5.020   5.210  15.790  1.00  0.00     0.198 A 
ATOM     74  C   UNL     1       3.547   3.902  14.422  1.00  0.00     0.198 A 
ATOM     75  F   UNL     1       4.419   2.591  12.673  1.00  0.00    -0.203 F 
ATOM     76  F   UNL     1       5.217   6.025  16.835  1.00  0.00    -0.200 F 
ATOM     77  C   UNL     1       3.741   4.772  15.484  1.00  0.00     0.200 A 
ATOM     78  F   UNL     1       2.310   3.490  14.111  1.00  0.00    -0.200 F 
ATOM     79  F   UNL     1       2.697   5.181  16.218  1.00  0.00    -0.200 F 
ENDBRANCH  45  69
BRANCH  57  80
ATOM     80  C   UNL     1      11.485   0.032  15.660  1.00  0.00     0.064 A 
ATOM     81  C   UNL     1      10.781  -1.018  16.271  1.00  0.00     0.173 A 
ATOM     82  C   UNL     1      12.633   0.515  16.308  1.00  0.00     0.173 A 
ATOM     83  F   UNL     1       9.670  -1.509  15.701  1.00  0.00    -0.203 F 
ATOM     84  C   UNL     1      11.180  -1.524  17.505  1.00  0.00     0.198 A 
ATOM     85  C   UNL     1      13.051  -0.022  17.522  1.00  0.00     0.198 A 
ATOM     86  F   UNL     1      13.350   1.509  15.763  1.00  0.00    -0.203 F 
ATOM     87  F   UNL     1      10.447  -2.473  18.105  1.00  0.00    -0.200 F 
ATOM     88  C   UNL     1      12.316  -1.029  18.127  1.00  0.00     0.200 A 
ATOM     89  F   UNL     1      14.159   0.446  18.113  1.00  0.00    -0.200 F 
ATOM     90  F   UNL     1      12.695  -1.515  19.317  1.00  0.00    -0.200 F 
ENDBRANCH  57  80
ENDBRANCH  31  32
ENDBRANCH  23  26
ENDBRANCH  21  22
ENDBRANCH  20  21
ENDBRANCH   1  20
TORSDOF 14
