REMARK SMILES COc1ccc(NCc2ccc(C(=O)NCCCCNC(=O)c3ccc(-c4c5nc(c(-c6c(F)c(F)c(F)c(F)c6F)c6ccc([nH]6)c(-c6c(F)c(F)c(F)c(F)c6F)c6nc(c(-c7c(F)c(F)c(F)c(F)c7F)c7ccc4[nH]7)C=C6)C=C5)cc3)cn2)cc1Br
REMARK SMILES IDX 16 1 15 2 13 3 14 4 12 6 9 7 10 8 87 9 11 10 86 11 8 12 7 13
REMARK SMILES IDX 6 15 3 16 4 17 89 18 5 19 88 20 90 21 2 22 1 23 17 24 18 25
REMARK SMILES IDX 19 26 20 27 21 28 22 30 23 31 24 32 85 33 25 34 84 35 26 36
REMARK SMILES IDX 27 37 28 38 78 39 29 40 83 41 77 42 79 43 30 44 82 45 76 46
REMARK SMILES IDX 75 47 31 49 63 50 43 51 62 52 44 53 47 54 61 55 80 56 45 57
REMARK SMILES IDX 46 58 60 60 81 61 48 62 32 63 33 64 41 65 34 66 35 67 39 68
REMARK SMILES IDX 42 69 36 70 37 71 40 72 38 73 64 74 65 75 73 76 66 77 67 78
REMARK SMILES IDX 71 79 74 80 68 81 69 82 72 83 70 84 49 85 50 86 58 87 51 88
REMARK SMILES IDX 52 89 56 90 59 91 53 92 54 93 57 94 55 95
REMARK H PARENT 15 5 7 14 20 29 79 48 47 59
REMARK Flexibility Score: inf
ROOT
ATOM      1  C   UNL     1       0.881  -4.118   9.642  1.00  0.00     0.116 C 
ENDROOT
BRANCH   1   2
ATOM      2  N   UNL     1       0.858  -3.310  10.844  1.00  0.00    -0.352 N 
ATOM      3  C   UNL     1       0.875  -1.952  11.041  1.00  0.00     0.252 C 
ATOM      4  O   UNL     1       0.802  -1.554  12.205  1.00  0.00    -0.269 OA
ATOM      5  H   UNL     1       0.824  -3.834  11.676  1.00  0.00     0.163 HD
BRANCH   3   6
ATOM      6  C   UNL     1       0.943  -0.951   9.946  1.00  0.00     0.058 A 
ATOM      7  C   UNL     1       0.960   1.128   8.092  1.00  0.00     0.059 A 
ATOM      8  C   UNL     1       1.406  -0.136   7.719  1.00  0.00     0.026 A 
ATOM      9  N   UNL     1       0.514   1.375   9.349  1.00  0.00    -0.259 NA
ATOM     10  C   UNL     1       1.425  -1.166   8.659  1.00  0.00     0.017 A 
ATOM     11  C   UNL     1       0.518   0.342  10.236  1.00  0.00     0.125 A 
BRANCH   7  12
ATOM     12  C   UNL     1       0.930   2.288   7.111  1.00  0.00     0.169 C 
BRANCH  12  13
ATOM     13  N   UNL     1       1.877   2.120   6.014  1.00  0.00    -0.379 N 
ATOM     14  H   UNL     1       2.831   2.219   6.239  1.00  0.00     0.160 HD
BRANCH  13  15
ATOM     15  C   UNL     1       1.584   1.840   4.696  1.00  0.00     0.036 A 
ATOM     16  C   UNL     1       1.135   1.302   1.950  1.00  0.00     0.133 A 
ATOM     17  C   UNL     1       0.067   1.577   2.803  1.00  0.00     0.050 A 
ATOM     18  C   UNL     1       2.431   1.291   2.461  1.00  0.00     0.062 A 
ATOM     19  C   UNL     1       0.292   1.828   4.163  1.00  0.00     0.029 A 
ATOM     20  C   UNL     1       2.644   1.546   3.823  1.00  0.00     0.045 A 
ATOM     21  Br  UNL     1       3.953   0.997   1.369  1.00  0.00    -0.047 Br
BRANCH  16  22
ATOM     22  O   UNL     1       0.851   1.182   0.617  1.00  0.00    -0.496 OA
ATOM     23  C   UNL     1       0.833  -0.180   0.194  1.00  0.00     0.278 C 
ENDBRANCH  16  22
ENDBRANCH  13  15
ENDBRANCH  12  13
ENDBRANCH   7  12
ENDBRANCH   3   6
ENDBRANCH   1   2
BRANCH   1  24
ATOM     24  C   UNL     1       2.312  -4.535   9.293  1.00  0.00     0.023 C 
BRANCH  24  25
ATOM     25  C   UNL     1       2.833  -5.731  10.095  1.00  0.00     0.023 C 
BRANCH  25  26
ATOM     26  C   UNL     1       2.065  -7.032   9.884  1.00  0.00     0.116 C 
BRANCH  26  27
ATOM     27  N   UNL     1       2.004  -7.449   8.492  1.00  0.00    -0.352 N 
ATOM     28  C   UNL     1       1.914  -8.722   7.983  1.00  0.00     0.251 C 
ATOM     29  H   UNL     1       2.031  -6.723   7.826  1.00  0.00     0.163 HD
ATOM     30  O   UNL     1       1.968  -8.915   6.776  1.00  0.00    -0.269 OA
BRANCH  28  31
ATOM     31  C   UNL     1       1.799  -9.863   8.914  1.00  0.00     0.039 A 
ATOM     32  C   UNL     1       2.666 -10.946   8.753  1.00  0.00     0.014 A 
ATOM     33  C   UNL     1       0.867  -9.849   9.954  1.00  0.00     0.014 A 
ATOM     34  C   UNL     1       2.644 -11.989   9.681  1.00  0.00     0.010 A 
ATOM     35  C   UNL     1       0.891 -10.856  10.914  1.00  0.00     0.010 A 
ATOM     36  C   UNL     1       1.781 -11.933  10.787  1.00  0.00    -0.014 A 
BRANCH  36  37
ATOM     37  C   UNL     1       1.804 -12.990  11.827  1.00  0.00     0.031 A 
ATOM     38  C   UNL     1       0.608 -13.876  12.029  1.00  0.00     0.074 A 
ATOM     39  C   UNL     1       2.879 -13.107  12.630  1.00  0.00     0.049 A 
ATOM     40  N   UNL     1       0.418 -14.819  12.917  1.00  0.00    -0.248 NA
ATOM     41  C   UNL     1      -0.538 -13.653  11.134  1.00  0.00     0.031 C 
ATOM     42  C   UNL     1       4.076 -12.266  12.568  1.00  0.00     0.029 A 
ATOM     43  N   UNL     1       3.134 -13.973  13.663  1.00  0.00    -0.354 N 
ATOM     44  C   UNL     1      -0.869 -15.291  12.696  1.00  0.00     0.074 A 
ATOM     45  C   UNL     1      -1.434 -14.496  11.627  1.00  0.00     0.031 C 
ATOM     46  C   UNL     1       4.946 -12.672  13.506  1.00  0.00     0.029 A 
ATOM     47  C   UNL     1       4.358 -13.778  14.255  1.00  0.00     0.049 A 
ATOM     48  H   UNL     1       2.500 -14.668  13.954  1.00  0.00     0.167 HD
ATOM     49  C   UNL     1      -1.511 -16.311  13.312  1.00  0.00     0.037 A 
ATOM     50  C   UNL     1       4.938 -14.420  15.286  1.00  0.00     0.037 A 
ATOM     51  C   UNL     1      -0.934 -17.117  14.355  1.00  0.00     0.049 A 
ATOM     52  C   UNL     1       4.208 -15.558  15.946  1.00  0.00     0.074 A 
ATOM     53  C   UNL     1      -1.476 -18.217  14.996  1.00  0.00     0.029 A 
ATOM     54  N   UNL     1       0.320 -16.908  14.911  1.00  0.00    -0.354 N 
ATOM     55  N   UNL     1       3.022 -16.047  15.675  1.00  0.00    -0.248 NA
ATOM     56  C   UNL     1       4.900 -16.239  17.048  1.00  0.00     0.031 C 
ATOM     57  C   UNL     1      -0.568 -18.648  15.969  1.00  0.00     0.029 A 
ATOM     58  C   UNL     1       0.560 -17.846  15.902  1.00  0.00     0.049 A 
ATOM     59  H   UNL     1       0.946 -16.198  14.642  1.00  0.00     0.167 HD
ATOM     60  C   UNL     1       2.837 -17.106  16.553  1.00  0.00     0.074 A 
ATOM     61  C   UNL     1       4.039 -17.199  17.355  1.00  0.00     0.031 C 
ATOM     62  C   UNL     1       1.766 -17.927  16.685  1.00  0.00     0.037 A 
BRANCH  49  63
ATOM     63  C   UNL     1      -2.911 -16.618  12.868  1.00  0.00     0.064 A 
ATOM     64  C   UNL     1      -3.174 -17.188  11.613  1.00  0.00     0.173 A 
ATOM     65  C   UNL     1      -3.999 -16.372  13.718  1.00  0.00     0.173 A 
ATOM     66  F   UNL     1      -2.169 -17.431  10.758  1.00  0.00    -0.203 F 
ATOM     67  C   UNL     1      -4.477 -17.474  11.214  1.00  0.00     0.198 A 
ATOM     68  C   UNL     1      -5.298 -16.687  13.328  1.00  0.00     0.198 A 
ATOM     69  F   UNL     1      -3.803 -15.833  14.930  1.00  0.00    -0.203 F 
ATOM     70  F   UNL     1      -4.708 -17.973   9.992  1.00  0.00    -0.200 F 
ATOM     71  C   UNL     1      -5.537 -17.230  12.074  1.00  0.00     0.200 A 
ATOM     72  F   UNL     1      -6.321 -16.461  14.164  1.00  0.00    -0.200 F 
ATOM     73  F   UNL     1      -6.790 -17.511  11.692  1.00  0.00    -0.200 F 
ENDBRANCH  49  63
BRANCH  50  74
ATOM     74  C   UNL     1       6.297 -14.023  15.738  1.00  0.00     0.064 A 
ATOM     75  C   UNL     1       7.399 -14.860  15.517  1.00  0.00     0.173 A 
ATOM     76  C   UNL     1       6.521 -12.807  16.398  1.00  0.00     0.173 A 
ATOM     77  F   UNL     1       7.231 -16.042  14.907  1.00  0.00    -0.203 F 
ATOM     78  C   UNL     1       8.672 -14.505  15.959  1.00  0.00     0.198 A 
ATOM     79  C   UNL     1       7.799 -12.441  16.816  1.00  0.00     0.198 A 
ATOM     80  F   UNL     1       5.500 -11.969  16.628  1.00  0.00    -0.203 F 
ATOM     81  F   UNL     1       9.701 -15.344  15.773  1.00  0.00    -0.200 F 
ATOM     82  C   UNL     1       8.872 -13.294  16.603  1.00  0.00     0.200 A 
ATOM     83  F   UNL     1       7.991 -11.263  17.425  1.00  0.00    -0.200 F 
ATOM     84  F   UNL     1      10.097 -12.951  17.024  1.00  0.00    -0.200 F 
ENDBRANCH  50  74
BRANCH  62  85
ATOM     85  C   UNL     1       1.859 -19.016  17.712  1.00  0.00     0.064 A 
ATOM     86  C   UNL     1       1.786 -18.739  19.085  1.00  0.00     0.173 A 
ATOM     87  C   UNL     1       1.982 -20.357  17.317  1.00  0.00     0.173 A 
ATOM     88  F   UNL     1       1.684 -17.472  19.513  1.00  0.00    -0.203 F 
ATOM     89  C   UNL     1       1.855 -19.763  20.025  1.00  0.00     0.198 A 
ATOM     90  C   UNL     1       2.022 -21.380  18.259  1.00  0.00     0.198 A 
ATOM     91  F   UNL     1       2.050 -20.674  16.015  1.00  0.00    -0.203 F 
ATOM     92  F   UNL     1       1.828 -19.472  21.333  1.00  0.00    -0.200 F 
ATOM     93  C   UNL     1       1.966 -21.083  19.612  1.00  0.00     0.200 A 
ATOM     94  F   UNL     1       2.117 -22.655  17.857  1.00  0.00    -0.200 F 
ATOM     95  F   UNL     1       2.025 -22.068  20.518  1.00  0.00    -0.200 F 
ENDBRANCH  62  85
ENDBRANCH  36  37
ENDBRANCH  28  31
ENDBRANCH  26  27
ENDBRANCH  25  26
ENDBRANCH  24  25
ENDBRANCH   1  24
TORSDOF 15
