REMARK SMILES CC(C)Cc1s/c(=N/C(=O)CCC(=O)Nc2nccs2)[nH]c1C(=O)NCCCCNC(=O)c1ccc(-c2c3nc(c(-c4c(F)c(F)c(F)c(F)c4F)c4ccc([nH]4)c(-c4c(F)c(F)c(F)c(F)c4F)c4nc(c(-c5c(F)c(F)c(F)c(F)c5F)c5ccc2[nH]5)C=C4)C=C3)cc1
REMARK SMILES IDX 26 1 25 2 23 3 24 4 22 6 5 7 6 8 7 9 21 10 8 11 4 13 2 14
REMARK SMILES IDX 1 15 3 16 9 17 10 18 11 19 12 20 13 21 14 22 15 23 16 25
REMARK SMILES IDX 17 26 20 27 18 28 19 29 27 30 28 31 29 32 30 33 31 34 32 36
REMARK SMILES IDX 33 37 34 38 95 39 35 40 94 41 36 42 37 43 38 44 88 45 39 46
REMARK SMILES IDX 93 47 87 48 89 49 40 50 92 51 86 52 85 53 41 55 73 56 53 57
REMARK SMILES IDX 72 58 54 59 57 60 71 61 90 62 55 63 56 64 70 66 91 67 58 68
REMARK SMILES IDX 42 69 43 70 51 71 44 72 45 73 49 74 52 75 46 76 47 77 50 78
REMARK SMILES IDX 48 79 74 80 75 81 83 82 76 83 77 84 81 85 84 86 78 87 79 88
REMARK SMILES IDX 82 89 80 90 59 91 60 92 68 93 61 94 62 95 66 96 69 97 63 98
REMARK SMILES IDX 64 99 67 100 65 101
REMARK H PARENT 25 5 21 12 15 24 30 35 89 54 57 65
REMARK Flexibility Score: inf
ROOT
ATOM      1  C   UNL     1       2.129  -0.099   1.462  1.00  0.00     0.116 C 
ENDROOT
BRANCH   1   2
ATOM      2  N   UNL     1       1.613  -1.417   1.762  1.00  0.00    -0.351 N 
ATOM      3  C   UNL     1       0.555  -2.201   1.528  1.00  0.00     0.268 C 
ATOM      4  O   UNL     1       0.785  -3.385   1.847  1.00  0.00    -0.268 OA
ATOM      5  H   UNL     1       2.258  -1.898   2.329  1.00  0.00     0.163 HD
BRANCH   3   6
ATOM      6  C   UNL     1      -0.820  -1.947   0.953  1.00  0.00     0.119 A 
ATOM      7  C   UNL     1      -1.668  -0.910   0.726  1.00  0.00     0.038 A 
ATOM      8  S   UNL     1      -3.281  -1.530   0.169  1.00  0.00    -0.101 S 
ATOM      9  C   UNL     1      -2.770  -3.208   0.356  1.00  0.00     0.190 A 
ATOM     10  N   UNL     1      -1.455  -3.174   0.685  1.00  0.00    -0.326 N 
ATOM     11  N   UNL     1      -3.631  -4.150   0.222  1.00  0.00    -0.185 NA
ATOM     12  H   UNL     1      -0.942  -4.013   0.737  1.00  0.00     0.169 HD
BRANCH   7  13
ATOM     13  C   UNL     1      -1.634   0.584   0.910  1.00  0.00     0.052 C 
BRANCH  13  14
ATOM     14  C   UNL     1      -0.667   1.381   0.029  1.00  0.00    -0.012 C 
ATOM     15  C   UNL     1      -0.589   0.931  -1.426  1.00  0.00     0.008 C 
ATOM     16  C   UNL     1      -0.929   2.884   0.127  1.00  0.00     0.008 C 
ENDBRANCH  13  14
ENDBRANCH   7  13
BRANCH  11  17
ATOM     17  C   UNL     1      -3.197  -5.438   0.421  1.00  0.00     0.248 C 
ATOM     18  O   UNL     1      -2.028  -5.810   0.336  1.00  0.00    -0.273 OA
BRANCH  17  19
ATOM     19  C   UNL     1      -4.317  -6.418   0.721  1.00  0.00     0.112 C 
BRANCH  19  20
ATOM     20  C   UNL     1      -4.717  -6.471   2.187  1.00  0.00     0.110 C 
BRANCH  20  21
ATOM     21  C   UNL     1      -5.350  -5.179   2.665  1.00  0.00     0.226 C 
ATOM     22  O   UNL     1      -6.544  -4.961   2.432  1.00  0.00    -0.275 OA
ATOM     23  N   UNL     1      -4.651  -4.234   3.349  1.00  0.00    -0.302 N 
ATOM     24  H   UNL     1      -5.160  -3.447   3.651  1.00  0.00     0.172 HD
BRANCH  23  25
ATOM     25  C   UNL     1      -3.326  -4.256   3.661  1.00  0.00     0.189 A 
ATOM     26  N   UNL     1      -2.436  -5.173   3.394  1.00  0.00    -0.229 NA
ATOM     27  S   UNL     1      -2.761  -2.858   4.463  1.00  0.00    -0.105 S 
ATOM     28  C   UNL     1      -1.197  -4.750   3.828  1.00  0.00     0.125 A 
ATOM     29  C   UNL     1      -1.175  -3.513   4.436  1.00  0.00     0.088 A 
ENDBRANCH  23  25
ENDBRANCH  20  21
ENDBRANCH  19  20
ENDBRANCH  17  19
ENDBRANCH  11  17
ENDBRANCH   3   6
ENDBRANCH   1   2
BRANCH   1  30
ATOM     30  C   UNL     1       1.863   0.908   2.587  1.00  0.00     0.023 C 
BRANCH  30  31
ATOM     31  C   UNL     1       2.942   1.990   2.725  1.00  0.00     0.023 C 
BRANCH  31  32
ATOM     32  C   UNL     1       3.217   2.838   1.487  1.00  0.00     0.116 C 
BRANCH  32  33
ATOM     33  N   UNL     1       2.338   3.989   1.350  1.00  0.00    -0.352 N 
ATOM     34  C   UNL     1       2.658   5.255   0.908  1.00  0.00     0.251 C 
ATOM     35  H   UNL     1       1.397   3.846   1.605  1.00  0.00     0.163 HD
ATOM     36  O   UNL     1       1.817   6.150   0.908  1.00  0.00    -0.269 OA
BRANCH  34  37
ATOM     37  C   UNL     1       4.050   5.553   0.494  1.00  0.00     0.039 A 
ATOM     38  C   UNL     1       4.713   6.634   1.083  1.00  0.00     0.014 A 
ATOM     39  C   UNL     1       4.726   4.721  -0.403  1.00  0.00     0.014 A 
ATOM     40  C   UNL     1       6.082   6.811   0.862  1.00  0.00     0.010 A 
ATOM     41  C   UNL     1       6.103   4.860  -0.570  1.00  0.00     0.010 A 
ATOM     42  C   UNL     1       6.800   5.889   0.083  1.00  0.00    -0.014 A 
BRANCH  42  43
ATOM     43  C   UNL     1       8.283   5.954  -0.014  1.00  0.00     0.031 A 
ATOM     44  C   UNL     1       8.952   6.222  -1.332  1.00  0.00     0.074 A 
ATOM     45  C   UNL     1       9.032   5.692   1.077  1.00  0.00     0.049 A 
ATOM     46  N   UNL     1      10.229   6.245  -1.623  1.00  0.00    -0.248 NA
ATOM     47  C   UNL     1       8.070   6.471  -2.482  1.00  0.00     0.031 C 
ATOM     48  C   UNL     1       8.507   5.356   2.402  1.00  0.00     0.029 A 
ATOM     49  N   UNL     1      10.395   5.652   1.242  1.00  0.00    -0.354 N 
ATOM     50  C   UNL     1      10.302   6.499  -2.986  1.00  0.00     0.074 A 
ATOM     51  C   UNL     1       8.942   6.573  -3.475  1.00  0.00     0.031 C 
ATOM     52  C   UNL     1       9.533   5.166   3.248  1.00  0.00     0.029 A 
ATOM     53  C   UNL     1      10.787   5.335   2.521  1.00  0.00     0.049 A 
ATOM     54  H   UNL     1      11.031   5.834   0.514  1.00  0.00     0.167 HD
ATOM     55  C   UNL     1      11.402   6.677  -3.756  1.00  0.00     0.037 A 
ATOM     56  C   UNL     1      12.019   5.192   3.048  1.00  0.00     0.037 A 
ATOM     57  C   UNL     1      12.755   6.629  -3.266  1.00  0.00     0.049 A 
ATOM     58  C   UNL     1      13.224   5.413   2.174  1.00  0.00     0.074 A 
ATOM     59  C   UNL     1      13.933   6.846  -3.960  1.00  0.00     0.029 A 
ATOM     60  N   UNL     1      13.111   6.345  -1.956  1.00  0.00    -0.354 N 
ATOM     61  N   UNL     1      13.277   5.720   0.901  1.00  0.00    -0.248 NA
ATOM     62  C   UNL     1      14.541   5.277   2.812  1.00  0.00     0.031 C 
ATOM     63  C   UNL     1      15.003   6.664  -3.077  1.00  0.00     0.029 A 
ATOM     64  C   UNL     1      14.490   6.371  -1.824  1.00  0.00     0.049 A 
ATOM     65  H   UNL     1      12.477   6.153  -1.228  1.00  0.00     0.167 HD
ATOM     66  C   UNL     1      14.625   5.841   0.593  1.00  0.00     0.074 A 
ATOM     67  C   UNL     1      15.358   5.588   1.816  1.00  0.00     0.031 C 
ATOM     68  C   UNL     1      15.203   6.133  -0.597  1.00  0.00     0.037 A 
BRANCH  55  69
ATOM     69  C   UNL     1      11.188   6.958  -5.214  1.00  0.00     0.064 A 
ATOM     70  C   UNL     1      10.677   8.189  -5.653  1.00  0.00     0.173 A 
ATOM     71  C   UNL     1      11.531   6.005  -6.184  1.00  0.00     0.173 A 
ATOM     72  F   UNL     1      10.323   9.128  -4.764  1.00  0.00    -0.203 F 
ATOM     73  C   UNL     1      10.494   8.445  -7.009  1.00  0.00     0.198 A 
ATOM     74  C   UNL     1      11.372   6.275  -7.541  1.00  0.00     0.198 A 
ATOM     75  F   UNL     1      12.029   4.814  -5.817  1.00  0.00    -0.203 F 
ATOM     76  F   UNL     1       9.962   9.611  -7.402  1.00  0.00    -0.200 F 
ATOM     77  C   UNL     1      10.847   7.491  -7.952  1.00  0.00     0.200 A 
ATOM     78  F   UNL     1      11.724   5.357  -8.451  1.00  0.00    -0.200 F 
ATOM     79  F   UNL     1      10.675   7.742  -9.257  1.00  0.00    -0.200 F 
ENDBRANCH  55  69
BRANCH  56  80
ATOM     80  C   UNL     1      12.181   4.849   4.485  1.00  0.00     0.064 A 
ATOM     81  C   UNL     1      12.678   5.791   5.397  1.00  0.00     0.173 A 
ATOM     82  C   UNL     1      11.862   3.574   4.973  1.00  0.00     0.173 A 
ATOM     83  F   UNL     1      13.017   7.017   4.973  1.00  0.00    -0.203 F 
ATOM     84  C   UNL     1      12.871   5.463   6.737  1.00  0.00     0.198 A 
ATOM     85  C   UNL     1      12.031   3.256   6.319  1.00  0.00     0.198 A 
ATOM     86  F   UNL     1      11.378   2.639   4.142  1.00  0.00    -0.203 F 
ATOM     87  F   UNL     1      13.393   6.368   7.577  1.00  0.00    -0.200 F 
ATOM     88  C   UNL     1      12.544   4.197   7.198  1.00  0.00     0.200 A 
ATOM     89  F   UNL     1      11.701   2.035   6.763  1.00  0.00    -0.200 F 
ATOM     90  F   UNL     1      12.730   3.882   8.487  1.00  0.00    -0.200 F 
ENDBRANCH  56  80
BRANCH  68  91
ATOM     91  C   UNL     1      16.700   6.230  -0.629  1.00  0.00     0.064 A 
ATOM     92  C   UNL     1      17.512   5.090  -0.558  1.00  0.00     0.173 A 
ATOM     93  C   UNL     1      17.326   7.478  -0.774  1.00  0.00     0.173 A 
ATOM     94  F   UNL     1      16.960   3.877  -0.403  1.00  0.00    -0.203 F 
ATOM     95  C   UNL     1      18.899   5.196  -0.612  1.00  0.00     0.198 A 
ATOM     96  C   UNL     1      18.712   7.578  -0.853  1.00  0.00     0.198 A 
ATOM     97  F   UNL     1      16.592   8.598  -0.850  1.00  0.00    -0.203 F 
ATOM     98  F   UNL     1      19.658   4.097  -0.502  1.00  0.00    -0.200 F 
ATOM     99  C   UNL     1      19.497   6.438  -0.767  1.00  0.00     0.200 A 
ATOM    100  F   UNL     1      19.288   8.777  -1.013  1.00  0.00    -0.200 F 
ATOM    101  F   UNL     1      20.832   6.537  -0.825  1.00  0.00    -0.200 F 
ENDBRANCH  68  91
ENDBRANCH  42  43
ENDBRANCH  34  37
ENDBRANCH  32  33
ENDBRANCH  31  32
ENDBRANCH  30  31
ENDBRANCH   1  30
TORSDOF 18
