REMARK SMILES Cc1oc(C)c(C(=O)Nc2cc(C(=O)NCCCCNC(=O)c3ccc(-c4c5nc(c(-c6c(F)c(F)c(F)c(F)c6F)c6ccc([nH]6)c(-c6c(F)c(F)c(F)c(F)c6F)c6nc(c(-c7c(F)c(F)c(F)c(F)c7F)c7ccc4[nH]7)C=C6)C=C5)cc3)ccc2Cl)c1C
REMARK SMILES IDX 17 1 16 2 15 3 13 4 14 5 12 7 10 8 11 9 88 10 87 11 89 12
REMARK SMILES IDX 86 13 9 14 7 15 8 16 6 18 1 19 2 20 3 21 90 22 4 23 91 24
REMARK SMILES IDX 5 25 18 26 19 27 20 28 21 29 22 31 23 32 24 33 85 34 25 35
REMARK SMILES IDX 84 36 26 37 27 38 28 39 78 40 29 41 83 42 77 43 79 44 30 45
REMARK SMILES IDX 82 46 76 47 75 48 31 50 63 51 43 52 62 53 44 54 47 55 61 56
REMARK SMILES IDX 80 57 45 58 46 59 60 61 81 62 48 63 32 64 33 65 41 66 34 67
REMARK SMILES IDX 35 68 39 69 42 70 36 71 37 72 40 73 38 74 64 75 65 76 73 77
REMARK SMILES IDX 66 78 67 79 71 80 74 81 68 82 69 83 72 84 70 85 49 86 50 87
REMARK SMILES IDX 58 88 51 89 52 90 56 91 59 92 53 93 54 94 57 95 55 96
REMARK H PARENT 15 6 9 17 20 30 79 49 47 60
REMARK Flexibility Score: inf
ROOT
ATOM      1  C   UNL     1       0.655   6.554  -1.236  1.00  0.00     0.023 C 
ENDROOT
BRANCH   1   2
ATOM      2  C   UNL     1       1.629   5.670  -0.449  1.00  0.00     0.116 C 
BRANCH   2   3
ATOM      3  N   UNL     1       1.692   6.045   0.951  1.00  0.00    -0.352 N 
ATOM      4  C   UNL     1       0.989   5.661   2.065  1.00  0.00     0.251 C 
ATOM      5  O   UNL     1       1.338   6.163   3.136  1.00  0.00    -0.269 OA
ATOM      6  H   UNL     1       2.385   6.717   1.143  1.00  0.00     0.163 HD
BRANCH   4   7
ATOM      7  C   UNL     1      -0.092   4.627   2.082  1.00  0.00     0.041 A 
ATOM      8  C   UNL     1      -1.080   2.819   3.405  1.00  0.00     0.061 A 
ATOM      9  C   UNL     1      -0.305   3.985   3.317  1.00  0.00     0.041 A 
ATOM     10  C   UNL     1      -1.819   2.401   2.291  1.00  0.00     0.064 A 
ATOM     11  C   UNL     1      -1.702   3.100   1.087  1.00  0.00     0.023 A 
ATOM     12  Cl  UNL     1      -2.954   1.103   2.361  1.00  0.00    -0.082 Cl
ATOM     13  C   UNL     1      -0.827   4.190   0.978  1.00  0.00     0.015 A 
BRANCH   8  14
ATOM     14  N   UNL     1      -0.959   2.096   4.606  1.00  0.00    -0.320 N 
ATOM     15  C   UNL     1      -0.611   0.768   4.796  1.00  0.00     0.259 C 
ATOM     16  O   UNL     1      -0.710   0.310   5.935  1.00  0.00    -0.269 OA
ATOM     17  H   UNL     1      -1.147   2.605   5.427  1.00  0.00     0.170 HD
BRANCH  15  18
ATOM     18  C   UNL     1      -0.085  -0.028   3.685  1.00  0.00     0.084 A 
ATOM     19  C   UNL     1       1.154  -0.948   0.317  1.00  0.00     0.088 C 
ATOM     20  C   UNL     1       0.705  -0.754   1.710  1.00  0.00     0.104 A 
ATOM     21  O   UNL     1       0.158  -1.824   2.336  1.00  0.00    -0.466 OA
ATOM     22  C   UNL     1       0.776   0.316   2.580  1.00  0.00     0.003 A 
ATOM     23  C   UNL     1      -0.229  -1.405   3.573  1.00  0.00     0.114 A 
ATOM     24  C   UNL     1       1.604   1.524   2.352  1.00  0.00     0.049 C 
ATOM     25  C   UNL     1      -0.676  -2.482   4.483  1.00  0.00     0.088 C 
ENDBRANCH  15  18
ENDBRANCH   8  14
ENDBRANCH   4   7
ENDBRANCH   2   3
ENDBRANCH   1   2
BRANCH   1  26
ATOM     26  C   UNL     1       1.136   7.976  -1.558  1.00  0.00     0.023 C 
BRANCH  26  27
ATOM     27  C   UNL     1       2.283   8.067  -2.556  1.00  0.00     0.116 C 
BRANCH  27  28
ATOM     28  N   UNL     1       1.980   7.471  -3.863  1.00  0.00    -0.352 N 
ATOM     29  C   UNL     1       2.865   7.161  -4.890  1.00  0.00     0.251 C 
ATOM     30  H   UNL     1       1.033   7.265  -4.033  1.00  0.00     0.163 HD
ATOM     31  O   UNL     1       2.497   7.017  -6.037  1.00  0.00    -0.269 OA
BRANCH  29  32
ATOM     32  C   UNL     1       4.282   6.984  -4.528  1.00  0.00     0.039 A 
ATOM     33  C   UNL     1       5.327   7.575  -5.242  1.00  0.00     0.014 A 
ATOM     34  C   UNL     1       4.519   6.280  -3.357  1.00  0.00     0.014 A 
ATOM     35  C   UNL     1       6.612   7.529  -4.700  1.00  0.00     0.010 A 
ATOM     36  C   UNL     1       5.717   6.442  -2.725  1.00  0.00     0.010 A 
ATOM     37  C   UNL     1       6.793   6.978  -3.422  1.00  0.00    -0.014 A 
BRANCH  37  38
ATOM     38  C   UNL     1       8.081   6.996  -2.739  1.00  0.00     0.031 A 
ATOM     39  C   UNL     1       8.720   8.332  -2.617  1.00  0.00     0.074 A 
ATOM     40  C   UNL     1       8.536   5.917  -2.060  1.00  0.00     0.049 A 
ATOM     41  N   UNL     1       9.818   8.735  -3.166  1.00  0.00    -0.248 NA
ATOM     42  C   UNL     1       8.005   9.388  -1.882  1.00  0.00     0.031 C 
ATOM     43  C   UNL     1       7.856   4.627  -1.844  1.00  0.00     0.029 A 
ATOM     44  N   UNL     1       9.671   5.775  -1.323  1.00  0.00    -0.354 N 
ATOM     45  C   UNL     1      10.043  10.023  -2.681  1.00  0.00     0.074 A 
ATOM     46  C   UNL     1       8.819  10.434  -2.048  1.00  0.00     0.031 C 
ATOM     47  C   UNL     1       8.462   3.947  -0.850  1.00  0.00     0.029 A 
ATOM     48  C   UNL     1       9.688   4.642  -0.519  1.00  0.00     0.049 A 
ATOM     49  H   UNL     1      10.416   6.419  -1.356  1.00  0.00     0.167 HD
ATOM     50  C   UNL     1      11.310  10.516  -2.594  1.00  0.00     0.037 A 
ATOM     51  C   UNL     1      10.657   4.272   0.346  1.00  0.00     0.037 A 
ATOM     52  C   UNL     1      12.228   9.692  -3.339  1.00  0.00     0.049 A 
ATOM     53  C   UNL     1      11.901   4.937  -0.093  1.00  0.00     0.074 A 
ATOM     54  C   UNL     1      12.525   9.468  -4.665  1.00  0.00     0.029 A 
ATOM     55  N   UNL     1      12.735   8.641  -2.623  1.00  0.00    -0.354 N 
ATOM     56  N   UNL     1      12.484   4.685  -1.233  1.00  0.00    -0.248 NA
ATOM     57  C   UNL     1      12.323   6.165   0.568  1.00  0.00     0.031 C 
ATOM     58  C   UNL     1      13.016   8.128  -4.734  1.00  0.00     0.029 A 
ATOM     59  C   UNL     1      13.036   7.592  -3.447  1.00  0.00     0.049 A 
ATOM     60  H   UNL     1      12.865   8.640  -1.647  1.00  0.00     0.167 HD
ATOM     61  C   UNL     1      13.012   5.900  -1.625  1.00  0.00     0.074 A 
ATOM     62  C   UNL     1      13.044   6.712  -0.415  1.00  0.00     0.031 C 
ATOM     63  C   UNL     1      13.077   6.237  -2.945  1.00  0.00     0.037 A 
BRANCH  50  64
ATOM     64  C   UNL     1      11.826  11.400  -1.473  1.00  0.00     0.064 A 
ATOM     65  C   UNL     1      13.144  11.902  -1.552  1.00  0.00     0.173 A 
ATOM     66  C   UNL     1      11.226  11.484  -0.198  1.00  0.00     0.173 A 
ATOM     67  F   UNL     1      13.822  11.860  -2.710  1.00  0.00    -0.203 F 
ATOM     68  C   UNL     1      13.830  12.368  -0.426  1.00  0.00     0.198 A 
ATOM     69  C   UNL     1      11.896  11.997   0.913  1.00  0.00     0.198 A 
ATOM     70  F   UNL     1      10.019  10.968   0.058  1.00  0.00    -0.203 F 
ATOM     71  F   UNL     1      15.121  12.713  -0.526  1.00  0.00    -0.200 F 
ATOM     72  C   UNL     1      13.208  12.408   0.808  1.00  0.00     0.200 A 
ATOM     73  F   UNL     1      11.283  12.004   2.105  1.00  0.00    -0.200 F 
ATOM     74  F   UNL     1      13.881  12.790   1.901  1.00  0.00    -0.200 F 
ENDBRANCH  50  64
BRANCH  51  75
ATOM     75  C   UNL     1      10.509   3.592   1.649  1.00  0.00     0.064 A 
ATOM     76  C   UNL     1      11.589   2.934   2.254  1.00  0.00     0.173 A 
ATOM     77  C   UNL     1       9.379   3.828   2.456  1.00  0.00     0.173 A 
ATOM     78  F   UNL     1      12.711   2.702   1.556  1.00  0.00    -0.203 F 
ATOM     79  C   UNL     1      11.559   2.571   3.604  1.00  0.00     0.198 A 
ATOM     80  C   UNL     1       9.350   3.465   3.803  1.00  0.00     0.198 A 
ATOM     81  F   UNL     1       8.323   4.503   1.977  1.00  0.00    -0.203 F 
ATOM     82  F   UNL     1      12.636   2.005   4.167  1.00  0.00    -0.200 F 
ATOM     83  C   UNL     1      10.447   2.852   4.381  1.00  0.00     0.200 A 
ATOM     84  F   UNL     1       8.282   3.774   4.552  1.00  0.00    -0.200 F 
ATOM     85  F   UNL     1      10.447   2.572   5.691  1.00  0.00    -0.200 F 
ENDBRANCH  51  75
BRANCH  63  86
ATOM     86  C   UNL     1      13.001   5.120  -3.940  1.00  0.00     0.064 A 
ATOM     87  C   UNL     1      11.839   4.381  -4.213  1.00  0.00     0.173 A 
ATOM     88  C   UNL     1      14.136   4.846  -4.711  1.00  0.00     0.173 A 
ATOM     89  F   UNL     1      10.694   4.639  -3.575  1.00  0.00    -0.203 F 
ATOM     90  C   UNL     1      11.827   3.385  -5.189  1.00  0.00     0.198 A 
ATOM     91  C   UNL     1      14.114   3.874  -5.707  1.00  0.00     0.198 A 
ATOM     92  F   UNL     1      15.260   5.555  -4.524  1.00  0.00    -0.203 F 
ATOM     93  F   UNL     1      10.707   2.684  -5.420  1.00  0.00    -0.200 F 
ATOM     94  C   UNL     1      12.963   3.138  -5.939  1.00  0.00     0.200 A 
ATOM     95  F   UNL     1      15.204   3.668  -6.458  1.00  0.00    -0.200 F 
ATOM     96  F   UNL     1      12.945   2.204  -6.901  1.00  0.00    -0.200 F 
ENDBRANCH  63  86
ENDBRANCH  37  38
ENDBRANCH  29  32
ENDBRANCH  27  28
ENDBRANCH  26  27
ENDBRANCH   1  26
TORSDOF 13
