REMARK SMILES O=C(NCCCCNC(=O)c1ccc(-c2c3nc(c(-c4c(F)c(F)c(F)c(F)c4F)c4ccc([nH]4)c(-c4c(F)c(F)c(F)c(F)c4F)c4nc(c(-c5c(F)c(F)c(F)c(F)c5F)c5ccc2[nH]5)C=C4)C=C3)cc1)C1=Cc2cc(S(F)(F)(F)(F)F)cc(Br)c2O[C@@H]1C(F)(F)F
REMARK SMILES IDX 6 1 5 2 4 3 3 4 1 5 2 6 74 8 75 9 90 10 76 11 89 12 77 13
REMARK SMILES IDX 88 14 78 15 86 16 85 17 87 18 91 19 92 20 93 21 94 22 79 23
REMARK SMILES IDX 80 24 81 25 82 26 83 27 84 28 7 29 8 30 9 31 10 33 11 34
REMARK SMILES IDX 12 35 73 36 13 37 72 38 14 39 15 40 16 41 66 42 17 43 71 44
REMARK SMILES IDX 65 45 67 46 18 47 70 48 64 49 63 50 19 52 51 53 31 54 50 55
REMARK SMILES IDX 32 56 35 57 49 58 68 59 33 60 34 61 48 63 69 64 36 65 20 66
REMARK SMILES IDX 21 67 29 68 22 69 23 70 27 71 30 72 24 73 25 74 28 75 26 76
REMARK SMILES IDX 52 77 53 78 61 79 54 80 55 81 59 82 62 83 56 84 57 85 60 86
REMARK SMILES IDX 58 87 37 88 38 89 46 90 39 91 40 92 44 93 47 94 41 95 42 96
REMARK SMILES IDX 45 97 43 98
REMARK H PARENT 3 7 8 32 67 51 35 62
REMARK Flexibility Score: inf
ROOT
ATOM      1  C   UNL     1       4.512   3.652   0.006  1.00  0.00     0.023 C 
ENDROOT
BRANCH   1   2
ATOM      2  C   UNL     1       5.019   2.294  -0.450  1.00  0.00     0.023 C 
BRANCH   2   3
ATOM      3  C   UNL     1       4.512   1.219   0.498  1.00  0.00     0.116 C 
BRANCH   3   4
ATOM      4  N   UNL     1       3.042   1.219   0.498  1.00  0.00    -0.352 N 
ATOM      5  O   UNL     1       1.036   0.013   0.092  1.00  0.00    -0.270 OA
ATOM      6  C   UNL     1       2.307   0.013   0.092  1.00  0.00     0.251 C 
ATOM      7  H   UNL     1       2.550   2.027   0.769  1.00  0.00     0.163 HD
BRANCH   6   8
ATOM      8  C   UNL     1       3.067  -1.235  -0.327  1.00  0.00     0.067 C 
ATOM      9  C   UNL     1       4.428  -1.235  -0.327  1.00  0.00     0.025 C 
ATOM     10  C   UNL     1       2.307  -2.483  -0.746  1.00  0.00     0.314 C 
ATOM     11  C   UNL     1       5.188   0.013   0.092  1.00  0.00     0.020 A 
ATOM     12  O   UNL     1       3.547   0.270   1.792  1.00  0.00    -0.474 OA
ATOM     13  C   UNL     1       6.295   0.450  -0.616  1.00  0.00     0.036 A 
ATOM     14  C   UNL     1       4.773   0.646   1.183  1.00  0.00     0.142 A 
ATOM     15  C   UNL     1       7.077   1.405   0.076  1.00  0.00     0.109 A 
ATOM     16  C   UNL     1       5.521   1.662   1.729  1.00  0.00     0.062 A 
ATOM     17  C   UNL     1       6.659   2.106   1.114  1.00  0.00     0.044 A 
ATOM     18  Br  UNL     1       4.949   2.486   3.413  1.00  0.00    -0.047 Br
BRANCH  10  19
ATOM     19  C   UNL     1       2.674  -3.634   0.176  1.00  0.00     0.429 C 
ATOM     20  F   UNL     1       2.353  -3.319   1.428  1.00  0.00    -0.167 F 
ATOM     21  F   UNL     1       2.009  -4.726  -0.191  1.00  0.00    -0.167 F 
ATOM     22  F   UNL     1       3.982  -3.864   0.099  1.00  0.00    -0.167 F 
ENDBRANCH  10  19
BRANCH  15  23
ATOM     23  S   UNL     1       8.769   1.685  -0.502  1.00  0.00     0.310 S 
ATOM     24  F   UNL     1       9.341   1.719   0.977  1.00  0.00    -0.094 F 
ATOM     25  F   UNL     1       8.525   3.236  -0.371  1.00  0.00    -0.094 F 
ATOM     26  F   UNL     1      10.221   1.927  -1.004  1.00  0.00    -0.094 F 
ATOM     27  F   UNL     1       9.041   0.129  -0.494  1.00  0.00    -0.094 F 
ATOM     28  F   UNL     1       7.337   1.423   0.113  1.00  0.00    -0.094 F 
ENDBRANCH  15  23
ENDBRANCH   6   8
ENDBRANCH   3   4
ENDBRANCH   2   3
ENDBRANCH   1   2
BRANCH   1  29
ATOM     29  C   UNL     1       5.019   3.936   1.411  1.00  0.00     0.116 C 
BRANCH  29  30
ATOM     30  N   UNL     1       6.489   3.936   1.411  1.00  0.00    -0.352 N 
ATOM     31  C   UNL     1       7.224   5.143   1.816  1.00  0.00     0.251 C 
ATOM     32  H   UNL     1       6.981   3.128   1.139  1.00  0.00     0.163 HD
ATOM     33  O   UNL     1       8.495   5.143   1.816  1.00  0.00    -0.269 OA
BRANCH  31  34
ATOM     34  C   UNL     1       6.464   6.391   2.236  1.00  0.00     0.039 A 
ATOM     35  C   UNL     1       6.919   7.610   1.761  1.00  0.00     0.014 A 
ATOM     36  C   UNL     1       5.425   6.316   3.059  1.00  0.00     0.014 A 
ATOM     37  C   UNL     1       6.386   8.727   2.447  1.00  0.00     0.010 A 
ATOM     38  C   UNL     1       4.867   7.456   3.586  1.00  0.00     0.010 A 
ATOM     39  C   UNL     1       5.307   8.694   3.207  1.00  0.00    -0.014 A 
BRANCH  39  40
ATOM     40  C   UNL     1       4.591   9.965   3.636  1.00  0.00     0.031 A 
ATOM     41  C   UNL     1       4.451  10.279   4.989  1.00  0.00     0.074 A 
ATOM     42  C   UNL     1       4.146  10.772   2.604  1.00  0.00     0.049 A 
ATOM     43  N   UNL     1       3.917  11.382   5.517  1.00  0.00    -0.248 NA
ATOM     44  C   UNL     1       4.892   9.408   6.088  1.00  0.00     0.031 C 
ATOM     45  C   UNL     1       4.292  10.466   1.237  1.00  0.00     0.029 A 
ATOM     46  N   UNL     1       3.498  11.984   2.697  1.00  0.00    -0.354 N 
ATOM     47  C   UNL     1       3.977  11.331   6.849  1.00  0.00     0.074 A 
ATOM     48  C   UNL     1       4.599  10.058   7.236  1.00  0.00     0.031 C 
ATOM     49  C   UNL     1       3.730  11.472   0.517  1.00  0.00     0.029 A 
ATOM     50  C   UNL     1       3.224  12.425   1.422  1.00  0.00     0.049 A 
ATOM     51  H   UNL     1       3.271  12.454   3.532  1.00  0.00     0.167 HD
ATOM     52  C   UNL     1       3.539  12.297   7.756  1.00  0.00     0.037 A 
ATOM     53  C   UNL     1       2.570  13.588   1.048  1.00  0.00     0.037 A 
ATOM     54  C   UNL     1       2.924  13.481   7.381  1.00  0.00     0.049 A 
ATOM     55  C   UNL     1       2.080  14.528   1.958  1.00  0.00     0.074 A 
ATOM     56  C   UNL     1       2.483  14.469   8.283  1.00  0.00     0.029 A 
ATOM     57  N   UNL     1       2.628  13.911   6.106  1.00  0.00    -0.354 N 
ATOM     58  N   UNL     1       2.175  14.495   3.288  1.00  0.00    -0.248 NA
ATOM     59  C   UNL     1       1.357  15.748   1.575  1.00  0.00     0.031 C 
ATOM     60  C   UNL     1       1.921  15.476   7.562  1.00  0.00     0.029 A 
ATOM     61  C   UNL     1       2.001  15.133   6.199  1.00  0.00     0.049 A 
ATOM     62  H   UNL     1       2.830  13.427   5.273  1.00  0.00     0.167 HD
ATOM     63  C   UNL     1       1.604  15.579   3.816  1.00  0.00     0.074 A 
ATOM     64  C   UNL     1       1.062  16.397   2.722  1.00  0.00     0.031 C 
ATOM     65  C   UNL     1       1.516  15.921   5.167  1.00  0.00     0.037 A 
BRANCH  52  66
ATOM     66  C   UNL     1       3.749  12.037   9.239  1.00  0.00     0.064 A 
ATOM     67  C   UNL     1       5.027  11.794   9.714  1.00  0.00     0.173 A 
ATOM     68  C   UNL     1       2.694  11.983  10.043  1.00  0.00     0.173 A 
ATOM     69  F   UNL     1       6.126  12.079   9.020  1.00  0.00    -0.203 F 
ATOM     70  C   UNL     1       5.059  11.214  11.005  1.00  0.00     0.198 A 
ATOM     71  C   UNL     1       2.821  11.535  11.336  1.00  0.00     0.198 A 
ATOM     72  F   UNL     1       1.503  12.367   9.593  1.00  0.00    -0.203 F 
ATOM     73  F   UNL     1       6.186  10.623  11.390  1.00  0.00    -0.200 F 
ATOM     74  C   UNL     1       4.047  11.221  11.853  1.00  0.00     0.200 A 
ATOM     75  F   UNL     1       1.737  11.405  12.094  1.00  0.00    -0.200 F 
ATOM     76  F   UNL     1       4.212  10.936  13.142  1.00  0.00    -0.200 F 
ENDBRANCH  52  66
BRANCH  53  77
ATOM     77  C   UNL     1       2.375  13.856  -0.435  1.00  0.00     0.064 A 
ATOM     78  C   UNL     1       2.984  14.969  -0.992  1.00  0.00     0.173 A 
ATOM     79  C   UNL     1       1.688  13.001  -1.183  1.00  0.00     0.173 A 
ATOM     80  F   UNL     1       3.881  15.706  -0.343  1.00  0.00    -0.203 F 
ATOM     81  C   UNL     1       2.565  15.251  -2.314  1.00  0.00     0.198 A 
ATOM     82  C   UNL     1       1.430  13.277  -2.504  1.00  0.00     0.198 A 
ATOM     83  F   UNL     1       1.244  11.867  -0.648  1.00  0.00    -0.203 F 
ATOM     84  F   UNL     1       2.805  16.468  -2.793  1.00  0.00    -0.200 F 
ATOM     85  C   UNL     1       1.951  14.389  -3.105  1.00  0.00     0.200 A 
ATOM     86  F   UNL     1       0.664  12.449  -3.209  1.00  0.00    -0.200 F 
ATOM     87  F   UNL     1       1.845  14.593  -4.415  1.00  0.00    -0.200 F 
ENDBRANCH  53  77
BRANCH  65  88
ATOM     88  C   UNL     1       0.847  17.238   5.528  1.00  0.00     0.064 A 
ATOM     89  C   UNL     1      -0.463  17.433   5.122  1.00  0.00     0.173 A 
ATOM     90  C   UNL     1       1.513  18.182   6.183  1.00  0.00     0.173 A 
ATOM     91  F   UNL     1      -1.244  16.445   4.696  1.00  0.00    -0.203 F 
ATOM     92  C   UNL     1      -0.893  18.778   5.202  1.00  0.00     0.198 A 
ATOM     93  C   UNL     1       0.974  19.436   6.342  1.00  0.00     0.198 A 
ATOM     94  F   UNL     1       2.713  17.911   6.689  1.00  0.00    -0.203 F 
ATOM     95  F   UNL     1      -1.978  19.122   4.513  1.00  0.00    -0.200 F 
ATOM     96  C   UNL     1      -0.293  19.716   5.912  1.00  0.00     0.200 A 
ATOM     97  F   UNL     1       1.696  20.390   6.922  1.00  0.00    -0.200 F 
ATOM     98  F   UNL     1      -0.890  20.871   6.194  1.00  0.00    -0.200 F 
ENDBRANCH  65  88
ENDBRANCH  39  40
ENDBRANCH  31  34
ENDBRANCH  29  30
ENDBRANCH   1  29
TORSDOF 13
