REMARK SMILES CCNC(=O)c1cccc(-c2ccc(Cl)c(C(=O)NCCCCNC(=O)c3ccc(-c4c5nc(c(-c6c(F)c(F)c(F)c(F)c6F)c6ccc([nH]6)c(-c6c(F)c(F)c(F)c(F)c6F)c6nc(c(-c7c(F)c(F)c(F)c(F)c7F)c7ccc4[nH]7)C=C6)C=C5)cc3)c2)c1
REMARK SMILES IDX 21 1 20 2 19 3 17 4 18 5 16 7 11 8 12 9 90 10 13 11 14 12
REMARK SMILES IDX 15 13 10 14 6 15 7 16 91 17 8 18 9 19 4 20 3 21 5 23 2 24
REMARK SMILES IDX 1 25 22 26 23 27 24 28 25 29 26 31 27 32 28 33 89 34 29 35
REMARK SMILES IDX 88 36 30 37 31 38 32 39 82 40 33 41 87 42 81 43 83 44 34 45
REMARK SMILES IDX 86 46 80 47 79 48 35 50 67 51 47 52 66 53 48 54 51 55 65 56
REMARK SMILES IDX 84 57 49 58 50 59 64 61 85 62 52 63 36 64 37 65 45 66 38 67
REMARK SMILES IDX 39 68 43 69 46 70 40 71 41 72 44 73 42 74 68 75 69 76 77 77
REMARK SMILES IDX 70 78 71 79 75 80 78 81 72 82 73 83 76 84 74 85 53 86 54 87
REMARK SMILES IDX 62 88 55 89 56 90 60 91 63 92 57 93 58 94 61 95 59 96
REMARK H PARENT 19 6 3 22 24 30 83 49 51 60
REMARK Flexibility Score: inf
ROOT
ATOM      1  C   UNL     1      -3.510  -7.721   2.240  1.00  0.00     0.023 C 
ENDROOT
BRANCH   1   2
ATOM      2  C   UNL     1      -3.012  -6.818   1.121  1.00  0.00     0.116 C 
BRANCH   2   3
ATOM      3  N   UNL     1      -3.184  -7.333  -0.233  1.00  0.00    -0.352 N 
ATOM      4  C   UNL     1      -3.539  -6.695  -1.412  1.00  0.00     0.252 C 
ATOM      5  O   UNL     1      -3.483  -7.332  -2.459  1.00  0.00    -0.269 OA
ATOM      6  H   UNL     1      -3.020  -8.299  -0.326  1.00  0.00     0.163 HD
BRANCH   4   7
ATOM      7  C   UNL     1      -3.978  -5.271  -1.415  1.00  0.00     0.059 A 
ATOM      8  C   UNL     1      -3.847  -3.120  -0.248  1.00  0.00    -0.017 A 
ATOM      9  C   UNL     1      -4.941  -2.671  -0.994  1.00  0.00     0.010 A 
ATOM     10  C   UNL     1      -3.308  -4.371  -0.582  1.00  0.00     0.024 A 
ATOM     11  C   UNL     1      -5.516  -3.490  -1.972  1.00  0.00     0.022 A 
ATOM     12  C   UNL     1      -5.066  -4.805  -2.158  1.00  0.00     0.053 A 
ATOM     13  Cl  UNL     1      -5.950  -5.779  -3.275  1.00  0.00    -0.083 Cl
BRANCH   8  14
ATOM     14  C   UNL     1      -3.333  -2.412   0.940  1.00  0.00    -0.018 A 
ATOM     15  C   UNL     1      -1.465  -1.829   2.406  1.00  0.00     0.040 A 
ATOM     16  C   UNL     1      -2.349  -1.309   3.352  1.00  0.00     0.014 A 
ATOM     17  C   UNL     1      -1.962  -2.410   1.236  1.00  0.00     0.022 A 
ATOM     18  C   UNL     1      -3.717  -1.312   3.090  1.00  0.00     0.001 A 
ATOM     19  C   UNL     1      -4.202  -1.846   1.890  1.00  0.00     0.009 A 
BRANCH  15  20
ATOM     20  C   UNL     1      -0.015  -1.847   2.701  1.00  0.00     0.251 C 
ATOM     21  N   UNL     1       0.905  -1.579   1.718  1.00  0.00    -0.352 N 
ATOM     22  H   UNL     1       1.840  -1.766   1.964  1.00  0.00     0.163 HD
ATOM     23  O   UNL     1       0.364  -2.115   3.837  1.00  0.00    -0.269 OA
BRANCH  21  24
ATOM     24  C   UNL     1       0.721  -1.062   0.371  1.00  0.00     0.112 C 
ATOM     25  C   UNL     1       1.440   0.259   0.185  1.00  0.00     0.027 C 
ENDBRANCH  21  24
ENDBRANCH  15  20
ENDBRANCH   8  14
ENDBRANCH   4   7
ENDBRANCH   2   3
ENDBRANCH   1   2
BRANCH   1  26
ATOM     26  C   UNL     1      -2.867  -9.096   2.346  1.00  0.00     0.023 C 
BRANCH  26  27
ATOM     27  C   UNL     1      -1.344  -9.131   2.369  1.00  0.00     0.116 C 
BRANCH  27  28
ATOM     28  N   UNL     1      -0.745  -8.392   3.471  1.00  0.00    -0.352 N 
ATOM     29  C   UNL     1       0.162  -8.804   4.424  1.00  0.00     0.251 C 
ATOM     30  H   UNL     1      -1.031  -7.453   3.547  1.00  0.00     0.163 HD
ATOM     31  O   UNL     1       0.501  -8.046   5.322  1.00  0.00    -0.269 OA
BRANCH  29  32
ATOM     32  C   UNL     1       0.689 -10.187   4.396  1.00  0.00     0.039 A 
ATOM     33  C   UNL     1       0.693 -10.927   5.582  1.00  0.00     0.014 A 
ATOM     34  C   UNL     1       1.142 -10.767   3.209  1.00  0.00     0.014 A 
ATOM     35  C   UNL     1       1.047 -12.278   5.556  1.00  0.00     0.010 A 
ATOM     36  C   UNL     1       1.414 -12.131   3.168  1.00  0.00     0.010 A 
ATOM     37  C   UNL     1       1.355 -12.904   4.338  1.00  0.00    -0.014 A 
BRANCH  37  38
ATOM     38  C   UNL     1       1.589 -14.370   4.258  1.00  0.00     0.031 A 
ATOM     39  C   UNL     1       2.919 -14.901   3.806  1.00  0.00     0.074 A 
ATOM     40  C   UNL     1       0.573 -15.220   4.507  1.00  0.00     0.049 A 
ATOM     41  N   UNL     1       3.284 -16.137   3.578  1.00  0.00    -0.248 NA
ATOM     42  C   UNL     1       3.972 -13.907   3.546  1.00  0.00     0.031 C 
ATOM     43  C   UNL     1      -0.783 -14.829   4.898  1.00  0.00     0.029 A 
ATOM     44  N   UNL     1       0.518 -16.591   4.453  1.00  0.00    -0.354 N 
ATOM     45  C   UNL     1       4.596 -16.067   3.129  1.00  0.00     0.074 A 
ATOM     46  C   UNL     1       4.948 -14.665   3.069  1.00  0.00     0.031 C 
ATOM     47  C   UNL     1      -1.528 -15.932   5.068  1.00  0.00     0.029 A 
ATOM     48  C   UNL     1      -0.718 -17.106   4.762  1.00  0.00     0.049 A 
ATOM     49  H   UNL     1       1.291 -17.152   4.215  1.00  0.00     0.167 HD
ATOM     50  C   UNL     1       5.437 -17.082   2.817  1.00  0.00     0.037 A 
ATOM     51  C   UNL     1      -1.150 -18.381   4.788  1.00  0.00     0.037 A 
ATOM     52  C   UNL     1       5.095 -18.477   2.909  1.00  0.00     0.049 A 
ATOM     53  C   UNL     1      -0.191 -19.490   4.450  1.00  0.00     0.074 A 
ATOM     54  C   UNL     1       5.899 -19.579   2.680  1.00  0.00     0.029 A 
ATOM     55  N   UNL     1       3.843 -18.960   3.261  1.00  0.00    -0.354 N 
ATOM     56  N   UNL     1       1.068 -19.415   4.094  1.00  0.00    -0.248 NA
ATOM     57  C   UNL     1      -0.712 -20.862   4.523  1.00  0.00     0.031 C 
ATOM     58  C   UNL     1       5.123 -20.730   2.854  1.00  0.00     0.029 A 
ATOM     59  C   UNL     1       3.849 -20.346   3.238  1.00  0.00     0.049 A 
ATOM     60  H   UNL     1       3.066 -18.402   3.493  1.00  0.00     0.167 HD
ATOM     61  C   UNL     1       1.497 -20.724   3.930  1.00  0.00     0.074 A 
ATOM     62  C   UNL     1       0.367 -21.576   4.237  1.00  0.00     0.031 C 
ATOM     63  C   UNL     1       2.719 -21.179   3.558  1.00  0.00     0.037 A 
BRANCH  50  64
ATOM     64  C   UNL     1       6.818 -16.718   2.354  1.00  0.00     0.064 A 
ATOM     65  C   UNL     1       7.768 -16.175   3.231  1.00  0.00     0.173 A 
ATOM     66  C   UNL     1       7.207 -16.948   1.026  1.00  0.00     0.173 A 
ATOM     67  F   UNL     1       7.442 -15.925   4.509  1.00  0.00    -0.203 F 
ATOM     68  C   UNL     1       9.047 -15.848   2.790  1.00  0.00     0.198 A 
ATOM     69  C   UNL     1       8.497 -16.648   0.595  1.00  0.00     0.198 A 
ATOM     70  F   UNL     1       6.339 -17.472   0.147  1.00  0.00    -0.203 F 
ATOM     71  F   UNL     1       9.922 -15.284   3.634  1.00  0.00    -0.200 F 
ATOM     72  C   UNL     1       9.412 -16.090   1.474  1.00  0.00     0.200 A 
ATOM     73  F   UNL     1       8.853 -16.895  -0.674  1.00  0.00    -0.200 F 
ATOM     74  F   UNL     1      10.646 -15.781   1.052  1.00  0.00    -0.200 F 
ENDBRANCH  50  64
BRANCH  51  75
ATOM     75  C   UNL     1      -2.553 -18.682   5.178  1.00  0.00     0.064 A 
ATOM     76  C   UNL     1      -2.840 -19.304   6.401  1.00  0.00     0.173 A 
ATOM     77  C   UNL     1      -3.630 -18.361   4.340  1.00  0.00     0.173 A 
ATOM     78  F   UNL     1      -1.840 -19.649   7.226  1.00  0.00    -0.203 F 
ATOM     79  C   UNL     1      -4.149 -19.611   6.763  1.00  0.00     0.198 A 
ATOM     80  C   UNL     1      -4.942 -18.644   4.715  1.00  0.00     0.198 A 
ATOM     81  F   UNL     1      -3.409 -17.762   3.161  1.00  0.00    -0.203 F 
ATOM     82  F   UNL     1      -4.391 -20.245   7.918  1.00  0.00    -0.200 F 
ATOM     83  C   UNL     1      -5.200 -19.276   5.922  1.00  0.00     0.200 A 
ATOM     84  F   UNL     1      -5.956 -18.308   3.906  1.00  0.00    -0.200 F 
ATOM     85  F   UNL     1      -6.460 -19.568   6.272  1.00  0.00    -0.200 F 
ENDBRANCH  51  75
BRANCH  63  86
ATOM     86  C   UNL     1       2.910 -22.666   3.501  1.00  0.00     0.064 A 
ATOM     87  C   UNL     1       2.343 -23.443   2.480  1.00  0.00     0.173 A 
ATOM     88  C   UNL     1       3.708 -23.315   4.456  1.00  0.00     0.173 A 
ATOM     89  F   UNL     1       1.560 -22.871   1.553  1.00  0.00    -0.203 F 
ATOM     90  C   UNL     1       2.550 -24.819   2.431  1.00  0.00     0.198 A 
ATOM     91  C   UNL     1       3.935 -24.686   4.387  1.00  0.00     0.198 A 
ATOM     92  F   UNL     1       4.277 -22.615   5.449  1.00  0.00    -0.203 F 
ATOM     93  F   UNL     1       1.963 -25.548   1.472  1.00  0.00    -0.200 F 
ATOM     94  C   UNL     1       3.351 -25.438   3.379  1.00  0.00     0.200 A 
ATOM     95  F   UNL     1       4.720 -25.280   5.297  1.00  0.00    -0.200 F 
ATOM     96  F   UNL     1       3.555 -26.761   3.325  1.00  0.00    -0.200 F 
ENDBRANCH  63  86
ENDBRANCH  37  38
ENDBRANCH  29  32
ENDBRANCH  27  28
ENDBRANCH  26  27
ENDBRANCH   1  26
TORSDOF 14
