REMARK SMILES COc1ccccc1[C@@H]1CN(C(=O)c2cc(C(C)C)nc(N)n2)C[C@H]1C(=O)NCCCCNC(=O)c1ccc(-c2c3nc(c(-c4c(F)c(F)c(F)c(F)c4F)c4ccc([nH]4)c(-c4c(F)c(F)c(F)c(F)c4F)c4nc(c(-c5c(F)c(F)c(F)c(F)c5F)c5ccc2[nH]5)C=C4)C=C3)cc1
REMARK SMILES IDX 30 1 29 2 28 3 26 4 27 5 25 7 9 8 10 9 11 10 24 11 8 12 3 13
REMARK SMILES IDX 4 14 5 15 7 16 6 17 2 18 1 19 12 20 13 21 14 22 15 23 23 24
REMARK SMILES IDX 16 25 21 26 20 27 17 28 18 29 19 30 22 31 31 34 32 35 33 36
REMARK SMILES IDX 34 37 35 39 36 40 37 41 98 42 38 43 97 44 39 45 40 46 41 47
REMARK SMILES IDX 91 48 42 49 96 50 90 51 92 52 43 53 95 54 89 55 88 56 44 58
REMARK SMILES IDX 76 59 56 60 75 61 57 62 60 63 74 64 93 65 58 66 59 67 73 69
REMARK SMILES IDX 94 70 61 71 45 72 46 73 54 74 47 75 48 76 52 77 55 78 49 79
REMARK SMILES IDX 50 80 53 81 51 82 77 83 78 84 86 85 79 86 80 87 84 88 87 89
REMARK SMILES IDX 81 90 82 91 85 92 83 93 62 94 63 95 71 96 64 97 65 98 69 99
REMARK SMILES IDX 72 100 66 101 67 102 70 103 68 104
REMARK H PARENT 28 6 22 32 22 33 33 38 92 57 60 68
REMARK Flexibility Score: inf
ROOT
ATOM      1  C   UNL     1       6.269  -3.053  -0.642  1.00  0.00     0.023 C 
ENDROOT
BRANCH   1   2
ATOM      2  C   UNL     1       5.649  -1.817  -1.287  1.00  0.00     0.116 C 
BRANCH   2   3
ATOM      3  N   UNL     1       4.455  -2.151  -2.038  1.00  0.00    -0.356 N 
ATOM      4  C   UNL     1       3.158  -1.785  -1.872  1.00  0.00     0.225 C 
ATOM      5  O   UNL     1       2.344  -2.229  -2.686  1.00  0.00    -0.275 OA
ATOM      6  H   UNL     1       4.612  -2.749  -2.805  1.00  0.00     0.163 HD
BRANCH   4   7
ATOM      7  C   UNL     1       2.695  -0.867  -0.756  1.00  0.00     0.107 C 
ATOM      8  C   UNL     1       2.915  -1.418   0.667  1.00  0.00     0.057 C 
ATOM      9  C   UNL     1       3.241  -0.173   1.498  1.00  0.00     0.129 C 
ATOM     10  N   UNL     1       3.937   0.681   0.548  1.00  0.00    -0.336 N 
ATOM     11  C   UNL     1       3.396   0.493  -0.789  1.00  0.00     0.134 C 
BRANCH   8  12
ATOM     12  C   UNL     1       1.827  -2.324   1.198  1.00  0.00    -0.000 A 
ATOM     13  C   UNL     1       0.573  -1.885   1.647  1.00  0.00     0.122 A 
ATOM     14  C   UNL     1      -0.363  -2.787   2.161  1.00  0.00     0.047 A 
ATOM     15  C   UNL     1      -0.070  -4.148   2.222  1.00  0.00     0.004 A 
ATOM     16  C   UNL     1       2.096  -3.707   1.257  1.00  0.00     0.008 A 
ATOM     17  C   UNL     1       1.162  -4.608   1.771  1.00  0.00     0.001 A 
BRANCH  13  18
ATOM     18  O   UNL     1       0.275  -0.554   1.735  1.00  0.00    -0.496 OA
ATOM     19  C   UNL     1      -0.413  -0.065   0.585  1.00  0.00     0.278 C 
ENDBRANCH  13  18
ENDBRANCH   8  12
BRANCH  10  20
ATOM     20  C   UNL     1       4.895   1.651   0.801  1.00  0.00     0.272 C 
ATOM     21  O   UNL     1       5.345   2.380  -0.080  1.00  0.00    -0.267 OA
BRANCH  20  22
ATOM     22  C   UNL     1       5.442   1.754   2.180  1.00  0.00     0.134 A 
ATOM     23  C   UNL     1       6.128   0.681   2.707  1.00  0.00     0.058 A 
ATOM     24  N   UNL     1       5.221   2.913   2.827  1.00  0.00    -0.208 NA
ATOM     25  C   UNL     1       6.538   0.824   4.011  1.00  0.00     0.049 A 
ATOM     26  C   UNL     1       5.697   2.972   4.065  1.00  0.00     0.220 A 
ATOM     27  N   UNL     1       6.330   1.971   4.691  1.00  0.00    -0.218 NA
BRANCH  25  28
ATOM     28  C   UNL     1       7.192  -0.312   4.772  1.00  0.00     0.032 C 
ATOM     29  C   UNL     1       6.215  -1.474   4.969  1.00  0.00     0.014 C 
ATOM     30  C   UNL     1       8.481  -0.789   4.100  1.00  0.00     0.014 C 
ENDBRANCH  25  28
BRANCH  26  31
ATOM     31  N   UNL     1       5.536   4.140   4.748  1.00  0.00    -0.368 N 
ATOM     32  H   UNL     1       5.875   4.223   5.669  1.00  0.00     0.159 HD
ATOM     33  H   UNL     1       5.079   4.901   4.322  1.00  0.00     0.159 HD
ENDBRANCH  26  31
ENDBRANCH  20  22
ENDBRANCH  10  20
ENDBRANCH   4   7
ENDBRANCH   2   3
ENDBRANCH   1   2
BRANCH   1  34
ATOM     34  C   UNL     1       6.800  -4.085  -1.635  1.00  0.00     0.023 C 
BRANCH  34  35
ATOM     35  C   UNL     1       7.742  -3.530  -2.698  1.00  0.00     0.116 C 
BRANCH  35  36
ATOM     36  N   UNL     1       8.879  -2.820  -2.131  1.00  0.00    -0.352 N 
ATOM     37  C   UNL     1      10.216  -2.957  -2.423  1.00  0.00     0.251 C 
ATOM     38  H   UNL     1       8.662  -2.149  -1.443  1.00  0.00     0.163 HD
ATOM     39  O   UNL     1      11.065  -2.378  -1.762  1.00  0.00    -0.269 OA
BRANCH  37  40
ATOM     40  C   UNL     1      10.610  -3.851  -3.529  1.00  0.00     0.039 A 
ATOM     41  C   UNL     1      11.539  -4.862  -3.278  1.00  0.00     0.014 A 
ATOM     42  C   UNL     1      10.004  -3.731  -4.782  1.00  0.00     0.014 A 
ATOM     43  C   UNL     1      11.794  -5.817  -4.263  1.00  0.00     0.010 A 
ATOM     44  C   UNL     1      10.209  -4.719  -5.737  1.00  0.00     0.010 A 
ATOM     45  C   UNL     1      11.092  -5.780  -5.479  1.00  0.00    -0.014 A 
BRANCH  45  46
ATOM     46  C   UNL     1      11.231  -6.862  -6.485  1.00  0.00     0.031 A 
ATOM     47  C   UNL     1      11.799  -6.558  -7.840  1.00  0.00     0.074 A 
ATOM     48  C   UNL     1      10.746  -8.088  -6.208  1.00  0.00     0.049 A 
ATOM     49  N   UNL     1      11.881  -7.330  -8.894  1.00  0.00    -0.248 NA
ATOM     50  C   UNL     1      12.318  -5.197  -8.051  1.00  0.00     0.031 C 
ATOM     51  C   UNL     1      10.118  -8.486  -4.946  1.00  0.00     0.029 A 
ATOM     52  N   UNL     1      10.677  -9.220  -6.982  1.00  0.00    -0.354 N 
ATOM     53  C   UNL     1      12.433  -6.543  -9.895  1.00  0.00     0.074 A 
ATOM     54  C   UNL     1      12.637  -5.224  -9.337  1.00  0.00     0.031 C 
ATOM     55  C   UNL     1       9.729  -9.769  -5.032  1.00  0.00     0.029 A 
ATOM     56  C   UNL     1      10.043 -10.272  -6.366  1.00  0.00     0.049 A 
ATOM     57  H   UNL     1      11.047  -9.273  -7.893  1.00  0.00     0.167 HD
ATOM     58  C   UNL     1      12.752  -6.898 -11.162  1.00  0.00     0.037 A 
ATOM     59  C   UNL     1       9.730 -11.496  -6.832  1.00  0.00     0.037 A 
ATOM     60  C   UNL     1      12.588  -8.223 -11.698  1.00  0.00     0.049 A 
ATOM     61  C   UNL     1      10.114 -11.864  -8.240  1.00  0.00     0.074 A 
ATOM     62  C   UNL     1      12.977  -8.705 -12.935  1.00  0.00     0.029 A 
ATOM     63  N   UNL     1      11.981  -9.275 -11.029  1.00  0.00    -0.354 N 
ATOM     64  N   UNL     1      10.719 -11.138  -9.148  1.00  0.00    -0.248 NA
ATOM     65  C   UNL     1       9.776 -13.223  -8.687  1.00  0.00     0.031 C 
ATOM     66  C   UNL     1      12.564 -10.037 -13.034  1.00  0.00     0.029 A 
ATOM     67  C   UNL     1      11.959 -10.397 -11.841  1.00  0.00     0.049 A 
ATOM     68  H   UNL     1      11.620  -9.231 -10.114  1.00  0.00     0.167 HD
ATOM     69  C   UNL     1      10.853 -11.956 -10.262  1.00  0.00     0.074 A 
ATOM     70  C   UNL     1      10.285 -13.240  -9.910  1.00  0.00     0.031 C 
ATOM     71  C   UNL     1      11.395 -11.669 -11.471  1.00  0.00     0.037 A 
BRANCH  58  72
ATOM     72  C   UNL     1      13.320  -5.844 -12.064  1.00  0.00     0.064 A 
ATOM     73  C   UNL     1      14.628  -5.365 -11.903  1.00  0.00     0.173 A 
ATOM     74  C   UNL     1      12.572  -5.364 -13.150  1.00  0.00     0.173 A 
ATOM     75  F   UNL     1      15.379  -5.785 -10.874  1.00  0.00    -0.203 F 
ATOM     76  C   UNL     1      15.163  -4.434 -12.790  1.00  0.00     0.198 A 
ATOM     77  C   UNL     1      13.119  -4.453 -14.049  1.00  0.00     0.198 A 
ATOM     78  F   UNL     1      11.317  -5.795 -13.349  1.00  0.00    -0.203 F 
ATOM     79  F   UNL     1      16.405  -3.968 -12.601  1.00  0.00    -0.200 F 
ATOM     80  C   UNL     1      14.412  -3.987 -13.867  1.00  0.00     0.200 A 
ATOM     81  F   UNL     1      12.396  -4.031 -15.096  1.00  0.00    -0.200 F 
ATOM     82  F   UNL     1      14.935  -3.105 -14.730  1.00  0.00    -0.200 F 
ENDBRANCH  58  72
BRANCH  59  83
ATOM     83  C   UNL     1       9.006 -12.465  -5.968  1.00  0.00     0.064 A 
ATOM     84  C   UNL     1       9.634 -13.629  -5.504  1.00  0.00     0.173 A 
ATOM     85  C   UNL     1       7.663 -12.264  -5.615  1.00  0.00     0.173 A 
ATOM     86  F   UNL     1      10.911 -13.876  -5.833  1.00  0.00    -0.203 F 
ATOM     87  C   UNL     1       8.939 -14.570  -4.747  1.00  0.00     0.198 A 
ATOM     88  C   UNL     1       6.978 -13.191  -4.833  1.00  0.00     0.198 A 
ATOM     89  F   UNL     1       7.017 -11.164  -6.028  1.00  0.00    -0.203 F 
ATOM     90  F   UNL     1       9.548 -15.701  -4.366  1.00  0.00    -0.200 F 
ATOM     91  C   UNL     1       7.613 -14.349  -4.409  1.00  0.00     0.200 A 
ATOM     92  F   UNL     1       5.700 -12.966  -4.496  1.00  0.00    -0.200 F 
ATOM     93  F   UNL     1       6.944 -15.255  -3.684  1.00  0.00    -0.200 F 
ENDBRANCH  59  83
BRANCH  71  94
ATOM     94  C   UNL     1      11.421 -12.768 -12.490  1.00  0.00     0.064 A 
ATOM     95  C   UNL     1      10.253 -13.194 -13.139  1.00  0.00     0.173 A 
ATOM     96  C   UNL     1      12.634 -13.374 -12.851  1.00  0.00     0.173 A 
ATOM     97  F   UNL     1       9.067 -12.657 -12.816  1.00  0.00    -0.203 F 
ATOM     98  C   UNL     1      10.296 -14.203 -14.098  1.00  0.00     0.198 A 
ATOM     99  C   UNL     1      12.677 -14.361 -13.831  1.00  0.00     0.198 A 
ATOM    100  F   UNL     1      13.779 -12.997 -12.263  1.00  0.00    -0.203 F 
ATOM    101  F   UNL     1       9.162 -14.626 -14.673  1.00  0.00    -0.200 F 
ATOM    102  C   UNL     1      11.508 -14.780 -14.448  1.00  0.00     0.200 A 
ATOM    103  F   UNL     1      13.850 -14.908 -14.177  1.00  0.00    -0.200 F 
ATOM    104  F   UNL     1      11.548 -15.745 -15.377  1.00  0.00    -0.200 F 
ENDBRANCH  71  94
ENDBRANCH  45  46
ENDBRANCH  37  40
ENDBRANCH  35  36
ENDBRANCH  34  35
ENDBRANCH   1  34
TORSDOF 17
