REMARK SMILES O=C(NCCCCNC(=O)c1ccc(C[NH2+][C@@H]2CCCc3sccc32)nc1)c1ccc(-c2c3nc(c(-c4c(F)c(F)c(F)c(F)c4F)c4ccc([nH]4)c(-c4c(F)c(F)c(F)c(F)c4F)c4nc(c(-c5c(F)c(F)c(F)c(F)c5F)c5ccc2[nH]5)C=C4)C=C3)cc1
REMARK SMILES IDX 6 1 5 2 4 3 3 4 1 5 2 6 28 8 29 9 90 10 30 11 89 12 31 13
REMARK SMILES IDX 32 14 33 15 83 16 34 17 88 18 82 19 84 20 35 21 87 22 81 23
REMARK SMILES IDX 80 24 36 26 68 27 48 28 67 29 49 30 52 31 66 32 85 33 50 34
REMARK SMILES IDX 51 35 65 37 86 38 53 39 37 40 38 41 46 42 39 43 40 44 44 45
REMARK SMILES IDX 47 46 41 47 42 48 45 49 43 50 69 51 70 52 78 53 71 54 72 55
REMARK SMILES IDX 76 56 79 57 73 58 74 59 77 60 75 61 54 62 55 63 63 64 56 65
REMARK SMILES IDX 57 66 61 67 64 68 58 69 59 70 62 71 60 72 7 73 8 74 9 75
REMARK SMILES IDX 10 77 11 78 12 79 27 80 13 81 26 82 14 83 15 84 16 85 17 88
REMARK SMILES IDX 18 89 25 90 19 91 21 92 24 93 20 94 22 95 23 96
REMARK H PARENT 3 7 84 25 52 36 8 76 16 86 16 87
REMARK Flexibility Score: inf
ROOT
ATOM      1  C   UNL     1       4.441  -1.600   3.313  1.00  0.00     0.023 C 
ENDROOT
BRANCH   1   2
ATOM      2  C   UNL     1       4.909  -0.533   2.325  1.00  0.00     0.023 C 
BRANCH   2   3
ATOM      3  C   UNL     1       4.561  -0.809   0.868  1.00  0.00     0.116 C 
BRANCH   3   4
ATOM      4  N   UNL     1       3.127  -0.897   0.642  1.00  0.00    -0.352 N 
ATOM      5  O   UNL     1       1.098  -0.239  -0.086  1.00  0.00    -0.269 OA
ATOM      6  C   UNL     1       2.317  -0.120  -0.148  1.00  0.00     0.251 C 
ATOM      7  H   UNL     1       2.669  -1.621   1.129  1.00  0.00     0.163 HD
BRANCH   6   8
ATOM      8  C   UNL     1       2.915   0.880  -1.056  1.00  0.00     0.039 A 
ATOM      9  C   UNL     1       4.002   0.553  -1.871  1.00  0.00     0.014 A 
ATOM     10  C   UNL     1       2.366   2.164  -1.096  1.00  0.00     0.014 A 
ATOM     11  C   UNL     1       4.625   1.542  -2.625  1.00  0.00     0.010 A 
ATOM     12  C   UNL     1       2.944   3.136  -1.914  1.00  0.00     0.010 A 
ATOM     13  C   UNL     1       4.095   2.840  -2.662  1.00  0.00    -0.014 A 
BRANCH  13  14
ATOM     14  C   UNL     1       4.714   3.879  -3.520  1.00  0.00     0.031 A 
ATOM     15  C   UNL     1       5.328   5.106  -2.912  1.00  0.00     0.074 A 
ATOM     16  C   UNL     1       4.680   3.730  -4.857  1.00  0.00     0.049 A 
ATOM     17  N   UNL     1       5.811   6.170  -3.503  1.00  0.00    -0.248 NA
ATOM     18  C   UNL     1       5.397   5.149  -1.445  1.00  0.00     0.031 C 
ATOM     19  C   UNL     1       4.112   2.579  -5.559  1.00  0.00     0.029 A 
ATOM     20  N   UNL     1       5.111   4.557  -5.862  1.00  0.00    -0.354 N 
ATOM     21  C   UNL     1       6.216   7.019  -2.482  1.00  0.00     0.074 A 
ATOM     22  C   UNL     1       5.899   6.357  -1.234  1.00  0.00     0.031 C 
ATOM     23  C   UNL     1       4.229   2.771  -6.880  1.00  0.00     0.029 A 
ATOM     24  C   UNL     1       4.819   4.084  -7.117  1.00  0.00     0.049 A 
ATOM     25  H   UNL     1       5.584   5.405  -5.700  1.00  0.00     0.167 HD
ATOM     26  C   UNL     1       6.801   8.238  -2.583  1.00  0.00     0.037 A 
ATOM     27  C   UNL     1       4.967   4.660  -8.324  1.00  0.00     0.037 A 
ATOM     28  C   UNL     1       7.112   8.883  -3.834  1.00  0.00     0.049 A 
ATOM     29  C   UNL     1       5.572   6.032  -8.412  1.00  0.00     0.074 A 
ATOM     30  C   UNL     1       7.741  10.097  -4.046  1.00  0.00     0.029 A 
ATOM     31  N   UNL     1       6.800   8.371  -5.086  1.00  0.00    -0.354 N 
ATOM     32  N   UNL     1       5.986   6.814  -7.445  1.00  0.00    -0.248 NA
ATOM     33  C   UNL     1       5.733   6.601  -9.756  1.00  0.00     0.031 C 
ATOM     34  C   UNL     1       7.752  10.350  -5.421  1.00  0.00     0.029 A 
ATOM     35  C   UNL     1       7.195   9.261  -6.074  1.00  0.00     0.049 A 
ATOM     36  H   UNL     1       6.363   7.505  -5.250  1.00  0.00     0.167 HD
ATOM     37  C   UNL     1       6.484   7.953  -8.061  1.00  0.00     0.074 A 
ATOM     38  C   UNL     1       6.319   7.760  -9.488  1.00  0.00     0.031 C 
ATOM     39  C   UNL     1       7.035   9.052  -7.492  1.00  0.00     0.037 A 
BRANCH  26  40
ATOM     40  C   UNL     1       7.102   8.971  -1.305  1.00  0.00     0.064 A 
ATOM     41  C   UNL     1       8.081   8.525  -0.404  1.00  0.00     0.173 A 
ATOM     42  C   UNL     1       6.405  10.146  -0.982  1.00  0.00     0.173 A 
ATOM     43  F   UNL     1       8.773   7.404  -0.658  1.00  0.00    -0.203 F 
ATOM     44  C   UNL     1       8.317   9.201   0.792  1.00  0.00     0.198 A 
ATOM     45  C   UNL     1       6.668  10.839   0.197  1.00  0.00     0.198 A 
ATOM     46  F   UNL     1       5.466  10.626  -1.812  1.00  0.00    -0.203 F 
ATOM     47  F   UNL     1       9.209   8.717   1.667  1.00  0.00    -0.200 F 
ATOM     48  C   UNL     1       7.614  10.358   1.089  1.00  0.00     0.200 A 
ATOM     49  F   UNL     1       5.999  11.966   0.474  1.00  0.00    -0.200 F 
ATOM     50  F   UNL     1       7.840  11.005   2.241  1.00  0.00    -0.200 F 
ENDBRANCH  26  40
BRANCH  27  51
ATOM     51  C   UNL     1       4.514   3.927  -9.533  1.00  0.00     0.064 A 
ATOM     52  C   UNL     1       5.437   3.391 -10.439  1.00  0.00     0.173 A 
ATOM     53  C   UNL     1       3.151   3.695  -9.771  1.00  0.00     0.173 A 
ATOM     54  F   UNL     1       6.750   3.599 -10.260  1.00  0.00    -0.203 F 
ATOM     55  C   UNL     1       5.013   2.651 -11.541  1.00  0.00     0.198 A 
ATOM     56  C   UNL     1       2.730   2.931 -10.857  1.00  0.00     0.198 A 
ATOM     57  F   UNL     1       2.229   4.179  -8.926  1.00  0.00    -0.203 F 
ATOM     58  F   UNL     1       5.915   2.167 -12.406  1.00  0.00    -0.200 F 
ATOM     59  C   UNL     1       3.662   2.412 -11.743  1.00  0.00     0.200 A 
ATOM     60  F   UNL     1       1.425   2.685 -11.035  1.00  0.00    -0.200 F 
ATOM     61  F   UNL     1       3.257   1.682 -12.790  1.00  0.00    -0.200 F 
ENDBRANCH  27  51
BRANCH  39  62
ATOM     62  C   UNL     1       7.557  10.121  -8.408  1.00  0.00     0.064 A 
ATOM     63  C   UNL     1       6.700  10.977  -9.114  1.00  0.00     0.173 A 
ATOM     64  C   UNL     1       8.940  10.341  -8.515  1.00  0.00     0.173 A 
ATOM     65  F   UNL     1       5.371  10.798  -9.058  1.00  0.00    -0.203 F 
ATOM     66  C   UNL     1       7.208  12.008  -9.900  1.00  0.00     0.198 A 
ATOM     67  C   UNL     1       9.443  11.390  -9.277  1.00  0.00     0.198 A 
ATOM     68  F   UNL     1       9.802   9.551  -7.857  1.00  0.00    -0.203 F 
ATOM     69  F   UNL     1       6.373  12.796 -10.591  1.00  0.00    -0.200 F 
ATOM     70  C   UNL     1       8.577  12.221  -9.971  1.00  0.00     0.200 A 
ATOM     71  F   UNL     1      10.765  11.603  -9.332  1.00  0.00    -0.200 F 
ATOM     72  F   UNL     1       9.063  13.228 -10.711  1.00  0.00    -0.200 F 
ENDBRANCH  39  62
ENDBRANCH  13  14
ENDBRANCH   6   8
ENDBRANCH   3   4
ENDBRANCH   2   3
ENDBRANCH   1   2
BRANCH   1  73
ATOM     73  C   UNL     1       4.854  -3.027   2.965  1.00  0.00     0.116 C 
BRANCH  73  74
ATOM     74  N   UNL     1       6.298  -3.189   2.910  1.00  0.00    -0.352 N 
ATOM     75  C   UNL     1       7.082  -4.095   3.579  1.00  0.00     0.252 C 
ATOM     76  H   UNL     1       6.776  -2.567   2.315  1.00  0.00     0.163 HD
ATOM     77  O   UNL     1       8.304  -4.005   3.554  1.00  0.00    -0.269 OA
BRANCH  75  78
ATOM     78  C   UNL     1       6.440  -5.169   4.344  1.00  0.00     0.058 A 
ATOM     79  C   UNL     1       5.507  -6.029   3.767  1.00  0.00     0.017 A 
ATOM     80  C   UNL     1       6.751  -5.321   5.683  1.00  0.00     0.125 A 
ATOM     81  C   UNL     1       4.872  -6.971   4.569  1.00  0.00     0.030 A 
ATOM     82  N   UNL     1       6.139  -6.222   6.485  1.00  0.00    -0.255 NA
ATOM     83  C   UNL     1       5.202  -7.031   5.923  1.00  0.00     0.094 A 
BRANCH  83  84
ATOM     84  C   UNL     1       4.537  -8.060   6.817  1.00  0.00     0.318 C 
BRANCH  84  85
ATOM     85  N   UNL     1       5.459  -9.133   7.178  1.00  0.00    -0.335 N 
ATOM     86  H   UNL     1       6.172  -8.753   7.801  1.00  0.00     0.347 HD
ATOM     87  H   UNL     1       5.862  -9.494   6.314  1.00  0.00     0.347 HD
BRANCH  85  88
ATOM     88  C   UNL     1       4.799 -10.243   7.850  1.00  0.00     0.215 C 
ATOM     89  C   UNL     1       5.675 -10.642   9.057  1.00  0.00     0.071 C 
ATOM     90  C   UNL     1       4.622 -11.409   6.904  1.00  0.00     0.023 A 
ATOM     91  C   UNL     1       5.178 -11.951   9.683  1.00  0.00     0.012 C 
ATOM     92  C   UNL     1       4.825 -12.713   7.327  1.00  0.00     0.014 A 
ATOM     93  C   UNL     1       4.208 -11.384   5.531  1.00  0.00     0.022 A 
ATOM     94  C   UNL     1       5.281 -13.122   8.696  1.00  0.00     0.047 C 
ATOM     95  S   UNL     1       4.555 -13.863   6.102  1.00  0.00    -0.148 S 
ATOM     96  C   UNL     1       4.146 -12.644   4.976  1.00  0.00     0.065 A 
ENDBRANCH  85  88
ENDBRANCH  84  85
ENDBRANCH  83  84
ENDBRANCH  75  78
ENDBRANCH  73  74
ENDBRANCH   1  73
TORSDOF 14
