REMARK SMILES O=C(NCCCCNC(=O)c1ccccc1C(=O)Nc1ccc(N2C(=O)[C@H]3[C@@H]4CC[C@@H](C4)[C@@H]3C2=O)cc1)c1ccc(-c2c3nc(c(-c4c(F)c(F)c(F)c(F)c4F)c4ccc([nH]4)c(-c4c(F)c(F)c(F)c(F)c4F)c4nc(c(-c5c(F)c(F)c(F)c(F)c5F)c5ccc2[nH]5)C=C4)C=C3)cc1
REMARK SMILES IDX 6 1 5 2 4 3 3 4 1 5 2 6 38 8 39 9 100 10 40 11 99 12 41 13
REMARK SMILES IDX 42 14 43 15 93 16 44 17 98 18 92 19 94 20 45 21 97 22 91 23
REMARK SMILES IDX 90 24 46 26 78 27 58 28 77 29 59 30 62 31 76 32 95 33 60 34
REMARK SMILES IDX 61 35 75 37 96 38 63 39 47 40 48 41 56 42 49 43 50 44 54 45
REMARK SMILES IDX 57 46 51 47 52 48 55 49 53 50 79 51 80 52 88 53 81 54 82 55
REMARK SMILES IDX 86 56 89 57 83 58 84 59 87 60 85 61 64 62 65 63 73 64 66 65
REMARK SMILES IDX 67 66 71 67 74 68 68 69 69 70 72 71 70 72 7 73 8 74 9 75
REMARK SMILES IDX 10 77 11 78 12 79 16 80 13 81 15 82 14 83 17 84 18 85 19 86
REMARK SMILES IDX 20 88 21 89 37 90 22 91 36 92 23 93 24 94 25 95 34 96 26 97
REMARK SMILES IDX 27 98 33 99 35 100 28 101 31 102 29 103 32 104 30 105
REMARK H PARENT 3 7 94 25 62 36 8 76 19 87
REMARK Flexibility Score: inf
ROOT
ATOM      1  C   UNL     1       3.913   2.817   2.796  1.00  0.00     0.023 C 
ENDROOT
BRANCH   1   2
ATOM      2  C   UNL     1       4.476   2.248   1.488  1.00  0.00     0.023 C 
BRANCH   2   3
ATOM      3  C   UNL     1       4.214   0.760   1.270  1.00  0.00     0.116 C 
BRANCH   3   4
ATOM      4  N   UNL     1       2.821   0.457   0.999  1.00  0.00    -0.352 N 
ATOM      5  O   UNL     1       0.984  -0.013  -0.213  1.00  0.00    -0.269 OA
ATOM      6  C   UNL     1       2.208   0.068  -0.166  1.00  0.00     0.251 C 
ATOM      7  H   UNL     1       2.220   0.544   1.774  1.00  0.00     0.163 HD
BRANCH   6   8
ATOM      8  C   UNL     1       3.002  -0.233  -1.377  1.00  0.00     0.039 A 
ATOM      9  C   UNL     1       4.129  -1.058  -1.328  1.00  0.00     0.014 A 
ATOM     10  C   UNL     1       2.567   0.276  -2.604  1.00  0.00     0.014 A 
ATOM     11  C   UNL     1       4.885  -1.274  -2.479  1.00  0.00     0.010 A 
ATOM     12  C   UNL     1       3.279  -0.008  -3.773  1.00  0.00     0.010 A 
ATOM     13  C   UNL     1       4.456  -0.771  -3.719  1.00  0.00    -0.014 A 
BRANCH  13  14
ATOM     14  C   UNL     1       5.191  -1.122  -4.963  1.00  0.00     0.031 A 
ATOM     15  C   UNL     1       5.858  -0.067  -5.799  1.00  0.00     0.074 A 
ATOM     16  C   UNL     1       5.230  -2.412  -5.351  1.00  0.00     0.049 A 
ATOM     17  N   UNL     1       6.498  -0.195  -6.936  1.00  0.00    -0.248 NA
ATOM     18  C   UNL     1       5.792   1.315  -5.302  1.00  0.00     0.031 C 
ATOM     19  C   UNL     1       4.605  -3.525  -4.634  1.00  0.00     0.029 A 
ATOM     20  N   UNL     1       5.811  -3.007  -6.443  1.00  0.00    -0.354 N 
ATOM     21  C   UNL     1       6.896   1.086  -7.297  1.00  0.00     0.074 A 
ATOM     22  C   UNL     1       6.401   1.983  -6.273  1.00  0.00     0.031 C 
ATOM     23  C   UNL     1       4.856  -4.668  -5.288  1.00  0.00     0.029 A 
ATOM     24  C   UNL     1       5.600  -4.363  -6.505  1.00  0.00     0.049 A 
ATOM     25  H   UNL     1       6.330  -2.510  -7.116  1.00  0.00     0.167 HD
ATOM     26  C   UNL     1       7.615   1.472  -8.379  1.00  0.00     0.037 A 
ATOM     27  C   UNL     1       5.936  -5.259  -7.451  1.00  0.00     0.037 A 
ATOM     28  C   UNL     1       8.107   0.571  -9.393  1.00  0.00     0.049 A 
ATOM     29  C   UNL     1       6.688  -4.793  -8.666  1.00  0.00     0.074 A 
ATOM     30  C   UNL     1       8.886   0.862 -10.500  1.00  0.00     0.029 A 
ATOM     31  N   UNL     1       7.854  -0.793  -9.431  1.00  0.00    -0.354 N 
ATOM     32  N   UNL     1       7.110  -3.589  -8.966  1.00  0.00    -0.248 NA
ATOM     33  C   UNL     1       7.010  -5.811  -9.675  1.00  0.00     0.031 C 
ATOM     34  C   UNL     1       9.047  -0.312 -11.243  1.00  0.00     0.029 A 
ATOM     35  C   UNL     1       8.430  -1.349 -10.564  1.00  0.00     0.049 A 
ATOM     36  H   UNL     1       7.342  -1.292  -8.755  1.00  0.00     0.167 HD
ATOM     37  C   UNL     1       7.767  -3.708 -10.183  1.00  0.00     0.074 A 
ATOM     38  C   UNL     1       7.705  -5.105 -10.556  1.00  0.00     0.031 C 
ATOM     39  C   UNL     1       8.365  -2.744 -10.925  1.00  0.00     0.037 A 
BRANCH  26  40
ATOM     40  C   UNL     1       7.901   2.939  -8.547  1.00  0.00     0.064 A 
ATOM     41  C   UNL     1       8.784   3.624  -7.698  1.00  0.00     0.173 A 
ATOM     42  C   UNL     1       7.330   3.657  -9.610  1.00  0.00     0.173 A 
ATOM     43  F   UNL     1       9.354   2.989  -6.663  1.00  0.00    -0.203 F 
ATOM     44  C   UNL     1       9.063   4.975  -7.891  1.00  0.00     0.198 A 
ATOM     45  C   UNL     1       7.636   4.999  -9.820  1.00  0.00     0.198 A 
ATOM     46  F   UNL     1       6.487   3.050 -10.460  1.00  0.00    -0.203 F 
ATOM     47  F   UNL     1       9.875   5.618  -7.041  1.00  0.00    -0.200 F 
ATOM     48  C   UNL     1       8.496   5.659  -8.956  1.00  0.00     0.200 A 
ATOM     49  F   UNL     1       7.101   5.653 -10.861  1.00  0.00    -0.200 F 
ATOM     50  F   UNL     1       8.776   6.956  -9.147  1.00  0.00    -0.200 F 
ENDBRANCH  26  40
BRANCH  27  51
ATOM     51  C   UNL     1       5.546  -6.685  -7.292  1.00  0.00     0.064 A 
ATOM     52  C   UNL     1       6.513  -7.683  -7.106  1.00  0.00     0.173 A 
ATOM     53  C   UNL     1       4.200  -7.080  -7.325  1.00  0.00     0.173 A 
ATOM     54  F   UNL     1       7.814  -7.359  -7.086  1.00  0.00    -0.203 F 
ATOM     55  C   UNL     1       6.150  -9.022  -6.984  1.00  0.00     0.198 A 
ATOM     56  C   UNL     1       3.836  -8.415  -7.167  1.00  0.00     0.198 A 
ATOM     57  F   UNL     1       3.235  -6.165  -7.495  1.00  0.00    -0.203 F 
ATOM     58  F   UNL     1       7.097  -9.961  -6.860  1.00  0.00    -0.200 F 
ATOM     59  C   UNL     1       4.812  -9.386  -7.007  1.00  0.00     0.200 A 
ATOM     60  F   UNL     1       2.541  -8.759  -7.170  1.00  0.00    -0.200 F 
ATOM     61  F   UNL     1       4.463 -10.674  -6.884  1.00  0.00    -0.200 F 
ENDBRANCH  27  51
BRANCH  39  62
ATOM     62  C   UNL     1       9.035  -3.171 -12.200  1.00  0.00     0.064 A 
ATOM     63  C   UNL     1       8.298  -3.591 -13.317  1.00  0.00     0.173 A 
ATOM     64  C   UNL     1      10.433  -3.124 -12.317  1.00  0.00     0.173 A 
ATOM     65  F   UNL     1       6.960  -3.672 -13.253  1.00  0.00    -0.203 F 
ATOM     66  C   UNL     1       8.937  -3.972 -14.495  1.00  0.00     0.198 A 
ATOM     67  C   UNL     1      11.066  -3.471 -13.507  1.00  0.00     0.198 A 
ATOM     68  F   UNL     1      11.185  -2.725 -11.280  1.00  0.00    -0.203 F 
ATOM     69  F   UNL     1       8.215  -4.419 -15.532  1.00  0.00    -0.200 F 
ATOM     70  C   UNL     1      10.319  -3.902 -14.592  1.00  0.00     0.200 A 
ATOM     71  F   UNL     1      12.400  -3.388 -13.603  1.00  0.00    -0.200 F 
ATOM     72  F   UNL     1      10.931  -4.258 -15.730  1.00  0.00    -0.200 F 
ENDBRANCH  39  62
ENDBRANCH  13  14
ENDBRANCH   6   8
ENDBRANCH   3   4
ENDBRANCH   2   3
ENDBRANCH   1   2
BRANCH   1  73
ATOM     73  C   UNL     1       4.543   2.244   4.065  1.00  0.00     0.116 C 
BRANCH  73  74
ATOM     74  N   UNL     1       5.942   2.599   4.197  1.00  0.00    -0.352 N 
ATOM     75  C   UNL     1       6.760   2.519   5.291  1.00  0.00     0.252 C 
ATOM     76  H   UNL     1       6.365   2.950   3.380  1.00  0.00     0.163 HD
ATOM     77  O   UNL     1       7.875   3.041   5.254  1.00  0.00    -0.269 OA
BRANCH  75  78
ATOM     78  C   UNL     1       6.304   1.939   6.569  1.00  0.00     0.052 A 
ATOM     79  C   UNL     1       6.486   2.832   7.653  1.00  0.00     0.014 A 
ATOM     80  C   UNL     1       5.718   0.684   6.790  1.00  0.00     0.052 A 
ATOM     81  C   UNL     1       5.994   2.547   8.923  1.00  0.00     0.001 A 
ATOM     82  C   UNL     1       5.190   0.440   8.083  1.00  0.00     0.014 A 
ATOM     83  C   UNL     1       5.312   1.360   9.129  1.00  0.00     0.001 A 
BRANCH  80  84
ATOM     84  C   UNL     1       5.453  -0.423   5.820  1.00  0.00     0.256 C 
ATOM     85  O   UNL     1       4.400  -1.056   5.965  1.00  0.00    -0.269 OA
ATOM     86  N   UNL     1       6.205  -0.765   4.720  1.00  0.00    -0.322 N 
ATOM     87  H   UNL     1       5.802  -1.471   4.165  1.00  0.00     0.170 HD
BRANCH  86  88
ATOM     88  C   UNL     1       7.428  -0.300   4.243  1.00  0.00     0.041 A 
ATOM     89  C   UNL     1       7.481   0.035   2.886  1.00  0.00     0.028 A 
ATOM     90  C   UNL     1       8.530  -0.084   5.058  1.00  0.00     0.028 A 
ATOM     91  C   UNL     1       8.504   0.851   2.414  1.00  0.00     0.029 A 
ATOM     92  C   UNL     1       9.628   0.609   4.542  1.00  0.00     0.029 A 
ATOM     93  C   UNL     1       9.564   1.173   3.256  1.00  0.00     0.052 A 
BRANCH  93  94
ATOM     94  N   UNL     1      10.473   2.187   2.913  1.00  0.00    -0.250 N 
ATOM     95  C   UNL     1      11.840   2.111   3.188  1.00  0.00     0.237 C 
ATOM     96  C   UNL     1      10.070   3.488   2.541  1.00  0.00     0.237 C 
ATOM     97  O   UNL     1      12.557   1.139   3.353  1.00  0.00    -0.274 OA
ATOM     98  C   UNL     1      12.203   3.531   3.417  1.00  0.00     0.095 C 
ATOM     99  C   UNL     1      11.376   4.198   2.331  1.00  0.00     0.095 C 
ATOM    100  O   UNL     1       8.961   3.938   2.311  1.00  0.00    -0.274 OA
ATOM    101  C   UNL     1      13.505   4.329   3.382  1.00  0.00     0.002 C 
ATOM    102  C   UNL     1      11.916   5.623   2.411  1.00  0.00     0.002 C 
ATOM    103  C   UNL     1      13.287   5.429   4.443  1.00  0.00     0.005 C 
ATOM    104  C   UNL     1      13.391   5.233   2.132  1.00  0.00     0.009 C 
ATOM    105  C   UNL     1      12.067   6.195   3.851  1.00  0.00     0.005 C 
ENDBRANCH  93  94
ENDBRANCH  86  88
ENDBRANCH  80  84
ENDBRANCH  75  78
ENDBRANCH  73  74
ENDBRANCH   1  73
TORSDOF 14
