REMARK SMILES CC(C)[N@@H+](C)Cc1cc2c(cc1Cl)C=C(C(=O)NCCCCNC(=O)c1ccc(-c3c4nc(c(-c5c(F)c(F)c(F)c(F)c5F)c5ccc([nH]5)c(-c5c(F)c(F)c(F)c(F)c5F)c5nc(c(-c6c(F)c(F)c(F)c(F)c6F)c6ccc3[nH]6)C=C5)C=C4)cc1)[C@@H](C(F)(F)F)O2
REMARK SMILES IDX 20 1 19 2 18 3 16 4 17 5 15 7 7 8 8 9 12 10 9 11 11 12 13 13
REMARK SMILES IDX 10 14 94 15 14 16 89 17 6 18 4 19 5 20 2 22 1 23 3 24 90 25
REMARK SMILES IDX 91 26 92 27 93 28 21 29 22 30 23 31 24 32 25 34 26 35 27 36
REMARK SMILES IDX 88 37 28 38 87 39 29 40 30 41 31 42 81 43 32 44 86 45 80 46
REMARK SMILES IDX 82 47 33 48 85 49 79 50 78 51 34 53 66 54 46 55 65 56 47 57
REMARK SMILES IDX 50 58 64 59 83 60 48 61 49 62 63 64 84 65 51 66 35 67 36 68
REMARK SMILES IDX 44 69 37 70 38 71 42 72 45 73 39 74 40 75 43 76 41 77 67 78
REMARK SMILES IDX 68 79 76 80 69 81 70 82 74 83 77 84 71 85 72 86 75 87 73 88
REMARK SMILES IDX 52 89 53 90 61 91 54 92 55 93 59 94 62 95 56 96 57 97 60 98
REMARK SMILES IDX 58 99
REMARK H PARENT 18 6 4 21 23 33 82 52 50 63
REMARK Flexibility Score: inf
ROOT
ATOM      1  C   UNL     1      -2.801  10.773   1.542  1.00  0.00     0.023 C 
ENDROOT
BRANCH   1   2
ATOM      2  C   UNL     1      -2.373  10.484   0.106  1.00  0.00     0.116 C 
BRANCH   2   3
ATOM      3  N   UNL     1      -0.946  10.245   0.007  1.00  0.00    -0.352 N 
ATOM      4  C   UNL     1      -0.145   9.170  -0.174  1.00  0.00     0.251 C 
ATOM      5  O   UNL     1       1.064   9.418  -0.227  1.00  0.00    -0.270 OA
ATOM      6  H   UNL     1      -0.428  11.078   0.092  1.00  0.00     0.163 HD
BRANCH   4   7
ATOM      7  C   UNL     1      -0.615   7.761  -0.292  1.00  0.00     0.067 C 
ATOM      8  C   UNL     1      -0.789   2.715  -0.453  1.00  0.00     0.029 A 
ATOM      9  C   UNL     1      -1.633   3.722   0.052  1.00  0.00     0.058 A 
ATOM     10  C   UNL     1       0.365   3.120  -1.147  1.00  0.00     0.050 A 
ATOM     11  C   UNL     1      -1.280   5.063  -0.047  1.00  0.00     0.128 A 
ATOM     12  C   UNL     1       0.745   4.469  -1.192  1.00  0.00     0.033 A 
ATOM     13  Cl  UNL     1       1.383   2.016  -1.999  1.00  0.00    -0.084 Cl
ATOM     14  C   UNL     1      -0.066   5.442  -0.616  1.00  0.00     0.019 A 
ATOM     15  O   UNL     1      -2.159   5.980   0.461  1.00  0.00    -0.475 OA
ATOM     16  C   UNL     1       0.334   6.843  -0.554  1.00  0.00     0.025 C 
ATOM     17  C   UNL     1      -2.039   7.307  -0.130  1.00  0.00     0.314 C 
BRANCH   8  18
ATOM     18  C   UNL     1      -1.175   1.267  -0.221  1.00  0.00     0.300 C 
BRANCH  18  19
ATOM     19  N   UNL     1      -0.954   0.708   1.125  1.00  0.00    -0.332 N 
ATOM     20  C   UNL     1      -1.734   1.334   2.185  1.00  0.00     0.333 C 
ATOM     21  H   UNL     1      -1.348  -0.219   0.960  1.00  0.00     0.348 HD
BRANCH  19  22
ATOM     22  C   UNL     1       0.412   0.358   1.547  1.00  0.00     0.177 C 
ATOM     23  C   UNL     1       1.098  -0.621   0.589  1.00  0.00     0.075 C 
ATOM     24  C   UNL     1       1.331   1.532   1.899  1.00  0.00     0.075 C 
ENDBRANCH  19  22
ENDBRANCH  18  19
ENDBRANCH   8  18
BRANCH  17  25
ATOM     25  C   UNL     1      -2.826   7.378  -1.458  1.00  0.00     0.429 C 
ATOM     26  F   UNL     1      -4.161   7.326  -1.221  1.00  0.00    -0.167 F 
ATOM     27  F   UNL     1      -2.599   8.536  -2.126  1.00  0.00    -0.167 F 
ATOM     28  F   UNL     1      -2.527   6.375  -2.311  1.00  0.00    -0.167 F 
ENDBRANCH  17  25
ENDBRANCH   4   7
ENDBRANCH   2   3
ENDBRANCH   1   2
BRANCH   1  29
ATOM     29  C   UNL     1      -2.625  12.231   1.967  1.00  0.00     0.023 C 
BRANCH  29  30
ATOM     30  C   UNL     1      -3.316  13.256   1.072  1.00  0.00     0.116 C 
BRANCH  30  31
ATOM     31  N   UNL     1      -4.731  12.996   0.841  1.00  0.00    -0.352 N 
ATOM     32  C   UNL     1      -5.708  13.910   0.508  1.00  0.00     0.251 C 
ATOM     33  H   UNL     1      -5.023  12.060   0.932  1.00  0.00     0.163 HD
ATOM     34  O   UNL     1      -6.879  13.581   0.399  1.00  0.00    -0.269 OA
BRANCH  32  35
ATOM     35  C   UNL     1      -5.302  15.320   0.350  1.00  0.00     0.039 A 
ATOM     36  C   UNL     1      -4.269  15.649  -0.529  1.00  0.00     0.014 A 
ATOM     37  C   UNL     1      -5.860  16.281   1.195  1.00  0.00     0.014 A 
ATOM     38  C   UNL     1      -3.672  16.898  -0.434  1.00  0.00     0.010 A 
ATOM     39  C   UNL     1      -5.305  17.561   1.234  1.00  0.00     0.010 A 
ATOM     40  C   UNL     1      -4.168  17.857   0.466  1.00  0.00    -0.014 A 
BRANCH  40  41
ATOM     41  C   UNL     1      -3.451  19.148   0.618  1.00  0.00     0.031 A 
ATOM     42  C   UNL     1      -2.747  19.484   1.905  1.00  0.00     0.074 A 
ATOM     43  C   UNL     1      -3.376  19.983  -0.435  1.00  0.00     0.049 A 
ATOM     44  N   UNL     1      -2.070  20.561   2.217  1.00  0.00    -0.248 NA
ATOM     45  C   UNL     1      -2.808  18.485   2.984  1.00  0.00     0.031 C 
ATOM     46  C   UNL     1      -3.995  19.749  -1.739  1.00  0.00     0.029 A 
ATOM     47  N   UNL     1      -2.723  21.179  -0.584  1.00  0.00    -0.354 N 
ATOM     48  C   UNL     1      -1.648  20.380   3.528  1.00  0.00     0.074 A 
ATOM     49  C   UNL     1      -2.157  19.098   3.964  1.00  0.00     0.031 C 
ATOM     50  C   UNL     1      -3.648  20.739  -2.573  1.00  0.00     0.029 A 
ATOM     51  C   UNL     1      -2.835  21.708  -1.846  1.00  0.00     0.049 A 
ATOM     52  H   UNL     1      -2.222  21.616   0.142  1.00  0.00     0.167 HD
ATOM     53  C   UNL     1      -0.896  21.206   4.293  1.00  0.00     0.037 A 
ATOM     54  C   UNL     1      -2.347  22.854  -2.356  1.00  0.00     0.037 A 
ATOM     55  C   UNL     1      -0.360  22.465   3.844  1.00  0.00     0.049 A 
ATOM     56  C   UNL     1      -1.543  23.765  -1.474  1.00  0.00     0.074 A 
ATOM     57  C   UNL     1       0.428  23.364   4.542  1.00  0.00     0.029 A 
ATOM     58  N   UNL     1      -0.547  22.995   2.577  1.00  0.00    -0.354 N 
ATOM     59  N   UNL     1      -1.171  23.591  -0.230  1.00  0.00    -0.248 NA
ATOM     60  C   UNL     1      -1.107  25.038  -2.062  1.00  0.00     0.031 C 
ATOM     61  C   UNL     1       0.692  24.454   3.707  1.00  0.00     0.029 A 
ATOM     62  C   UNL     1       0.098  24.217   2.478  1.00  0.00     0.049 A 
ATOM     63  H   UNL     1      -1.063  22.568   1.855  1.00  0.00     0.167 HD
ATOM     64  C   UNL     1      -0.457  24.729   0.115  1.00  0.00     0.074 A 
ATOM     65  C   UNL     1      -0.425  25.576  -1.059  1.00  0.00     0.031 C 
ATOM     66  C   UNL     1       0.113  25.047   1.302  1.00  0.00     0.037 A 
BRANCH  53  67
ATOM     67  C   UNL     1      -0.603  20.790   5.703  1.00  0.00     0.064 A 
ATOM     68  C   UNL     1       0.351  19.804   5.992  1.00  0.00     0.173 A 
ATOM     69  C   UNL     1      -1.220  21.445   6.779  1.00  0.00     0.173 A 
ATOM     70  F   UNL     1       0.959  19.140   4.998  1.00  0.00    -0.203 F 
ATOM     71  C   UNL     1       0.674  19.487   7.310  1.00  0.00     0.198 A 
ATOM     72  C   UNL     1      -0.880  21.140   8.094  1.00  0.00     0.198 A 
ATOM     73  F   UNL     1      -2.136  22.399   6.554  1.00  0.00    -0.203 F 
ATOM     74  F   UNL     1       1.574  18.527   7.565  1.00  0.00    -0.200 F 
ATOM     75  C   UNL     1       0.065  20.161   8.359  1.00  0.00     0.200 A 
ATOM     76  F   UNL     1      -1.462  21.799   9.106  1.00  0.00    -0.200 F 
ATOM     77  F   UNL     1       0.390  19.866   9.625  1.00  0.00    -0.200 F 
ENDBRANCH  53  67
BRANCH  54  78
ATOM     78  C   UNL     1      -2.617  23.197  -3.774  1.00  0.00     0.064 A 
ATOM     79  C   UNL     1      -1.593  23.164  -4.728  1.00  0.00     0.173 A 
ATOM     80  C   UNL     1      -3.908  23.535  -4.208  1.00  0.00     0.173 A 
ATOM     81  F   UNL     1      -0.340  22.866  -4.355  1.00  0.00    -0.203 F 
ATOM     82  C   UNL     1      -1.848  23.460  -6.065  1.00  0.00     0.198 A 
ATOM     83  C   UNL     1      -4.167  23.805  -5.549  1.00  0.00     0.198 A 
ATOM     84  F   UNL     1      -4.921  23.576  -3.331  1.00  0.00    -0.203 F 
ATOM     85  F   UNL     1      -0.846  23.448  -6.955  1.00  0.00    -0.200 F 
ATOM     86  C   UNL     1      -3.136  23.771  -6.476  1.00  0.00     0.200 A 
ATOM     87  F   UNL     1      -5.415  24.090  -5.943  1.00  0.00    -0.200 F 
ATOM     88  F   UNL     1      -3.384  24.042  -7.764  1.00  0.00    -0.200 F 
ENDBRANCH  54  78
BRANCH  66  89
ATOM     89  C   UNL     1       0.818  26.365   1.392  1.00  0.00     0.064 A 
ATOM     90  C   UNL     1       0.101  27.566   1.496  1.00  0.00     0.173 A 
ATOM     91  C   UNL     1       2.218  26.425   1.434  1.00  0.00     0.173 A 
ATOM     92  F   UNL     1      -1.240  27.557   1.446  1.00  0.00    -0.203 F 
ATOM     93  C   UNL     1       0.763  28.783   1.625  1.00  0.00     0.198 A 
ATOM     94  C   UNL     1       2.876  27.641   1.586  1.00  0.00     0.198 A 
ATOM     95  F   UNL     1       2.946  25.301   1.345  1.00  0.00    -0.203 F 
ATOM     96  F   UNL     1       0.060  29.922   1.692  1.00  0.00    -0.200 F 
ATOM     97  C   UNL     1       2.149  28.819   1.677  1.00  0.00     0.200 A 
ATOM     98  F   UNL     1       4.215  27.675   1.647  1.00  0.00    -0.200 F 
ATOM     99  F   UNL     1       2.784  29.991   1.812  1.00  0.00    -0.200 F 
ENDBRANCH  66  89
ENDBRANCH  40  41
ENDBRANCH  32  35
ENDBRANCH  30  31
ENDBRANCH  29  30
ENDBRANCH   1  29
TORSDOF 15
