REMARK SMILES O=C(NC[C@@H]1CC[C@H](C(=O)NCCCCNC(=O)c2ccc(-c3c4nc(c(-c5c(F)c(F)c(F)c(F)c5F)c5ccc([nH]5)c(-c5c(F)c(F)c(F)c(F)c5F)c5nc(c(-c6c(F)c(F)c(F)c(F)c6F)c6ccc3[nH]6)C=C5)C=C4)cc2)O1)Nc1ncccn1
REMARK SMILES IDX 13 1 12 2 11 3 9 4 10 5 8 7 5 8 6 9 82 10 7 11 4 12 3 13
REMARK SMILES IDX 1 14 2 15 83 16 84 19 85 20 89 21 86 22 88 23 87 24 14 25
REMARK SMILES IDX 15 26 16 27 17 28 18 30 19 31 20 32 81 33 21 34 80 35 22 36
REMARK SMILES IDX 23 37 24 38 74 39 25 40 79 41 73 42 75 43 26 44 78 45 72 46
REMARK SMILES IDX 71 47 27 49 59 50 39 51 58 52 40 53 43 54 57 55 76 56 41 57
REMARK SMILES IDX 42 58 56 60 77 61 44 62 28 63 29 64 37 65 30 66 31 67 35 68
REMARK SMILES IDX 38 69 32 70 33 71 36 72 34 73 60 74 61 75 69 76 62 77 63 78
REMARK SMILES IDX 67 79 70 80 64 81 65 82 68 83 66 84 45 85 46 86 54 87 47 88
REMARK SMILES IDX 48 89 52 90 55 91 49 92 50 93 53 94 51 95
REMARK H PARENT 11 6 3 17 83 18 16 29 75 48 43 59
REMARK Flexibility Score: inf
ROOT
ATOM      1  C   UNL     1       2.654   4.896   1.413  1.00  0.00     0.023 C 
ENDROOT
BRANCH   1   2
ATOM      2  C   UNL     1       2.422   3.764   0.420  1.00  0.00     0.116 C 
BRANCH   2   3
ATOM      3  N   UNL     1       1.897   4.230  -0.841  1.00  0.00    -0.354 N 
ATOM      4  C   UNL     1       2.461   4.270  -2.082  1.00  0.00     0.249 C 
ATOM      5  O   UNL     1       1.782   4.766  -2.988  1.00  0.00    -0.272 OA
ATOM      6  H   UNL     1       0.976   4.577  -0.798  1.00  0.00     0.163 HD
BRANCH   4   7
ATOM      7  C   UNL     1       3.877   3.718  -2.379  1.00  0.00     0.207 C 
ATOM      8  C   UNL     1       5.113   1.931  -1.460  1.00  0.00     0.138 C 
ATOM      9  C   UNL     1       5.653   3.204  -0.819  1.00  0.00     0.037 C 
ATOM     10  O   UNL     1       3.957   2.304  -2.231  1.00  0.00    -0.363 OA
ATOM     11  C   UNL     1       5.018   4.340  -1.597  1.00  0.00     0.045 C 
BRANCH   8  12
ATOM     12  C   UNL     1       4.705   0.800  -0.480  1.00  0.00     0.149 C 
BRANCH  12  13
ATOM     13  N   UNL     1       3.252   0.725  -0.367  1.00  0.00    -0.335 N 
ATOM     14  O   UNL     1       1.191  -0.024  -0.404  1.00  0.00    -0.248 OA
ATOM     15  C   UNL     1       2.381  -0.307  -0.291  1.00  0.00     0.321 C 
ATOM     16  N   UNL     1       2.905  -1.537  -0.107  1.00  0.00    -0.276 N 
ATOM     17  H   UNL     1       2.816   1.607  -0.342  1.00  0.00     0.165 HD
ATOM     18  H   UNL     1       3.828  -1.601   0.230  1.00  0.00     0.175 HD
BRANCH  16  19
ATOM     19  C   UNL     1       2.222  -2.717  -0.365  1.00  0.00     0.230 A 
ATOM     20  N   UNL     1       2.825  -3.832   0.077  1.00  0.00    -0.221 NA
ATOM     21  N   UNL     1       1.086  -2.709  -1.076  1.00  0.00    -0.221 NA
ATOM     22  C   UNL     1       2.198  -4.995  -0.193  1.00  0.00     0.117 A 
ATOM     23  C   UNL     1       0.509  -3.893  -1.335  1.00  0.00     0.117 A 
ATOM     24  C   UNL     1       1.026  -5.087  -0.906  1.00  0.00     0.040 A 
ENDBRANCH  16  19
ENDBRANCH  12  13
ENDBRANCH   8  12
ENDBRANCH   4   7
ENDBRANCH   2   3
ENDBRANCH   1   2
BRANCH   1  25
ATOM     25  C   UNL     1       1.413   5.288   2.211  1.00  0.00     0.023 C 
BRANCH  25  26
ATOM     26  C   UNL     1       0.765   4.160   3.010  1.00  0.00     0.116 C 
BRANCH  26  27
ATOM     27  N   UNL     1       1.676   3.475   3.916  1.00  0.00    -0.352 N 
ATOM     28  C   UNL     1       1.405   2.952   5.162  1.00  0.00     0.251 C 
ATOM     29  H   UNL     1       2.603   3.373   3.599  1.00  0.00     0.163 HD
ATOM     30  O   UNL     1       2.290   2.461   5.846  1.00  0.00    -0.269 OA
BRANCH  28  31
ATOM     31  C   UNL     1       0.024   3.047   5.679  1.00  0.00     0.039 A 
ATOM     32  C   UNL     1      -0.191   3.666   6.912  1.00  0.00     0.014 A 
ATOM     33  C   UNL     1      -1.052   2.608   4.903  1.00  0.00     0.014 A 
ATOM     34  C   UNL     1      -1.496   3.927   7.329  1.00  0.00     0.010 A 
ATOM     35  C   UNL     1      -2.348   2.933   5.287  1.00  0.00     0.010 A 
ATOM     36  C   UNL     1      -2.582   3.605   6.497  1.00  0.00    -0.014 A 
BRANCH  36  37
ATOM     37  C   UNL     1      -3.969   3.983   6.863  1.00  0.00     0.031 A 
ATOM     38  C   UNL     1      -4.995   2.919   7.124  1.00  0.00     0.074 A 
ATOM     39  C   UNL     1      -4.322   5.284   6.885  1.00  0.00     0.049 A 
ATOM     40  N   UNL     1      -6.272   3.045   7.384  1.00  0.00    -0.248 NA
ATOM     41  C   UNL     1      -4.530   1.525   7.054  1.00  0.00     0.031 C 
ATOM     42  C   UNL     1      -3.431   6.408   6.593  1.00  0.00     0.029 A 
ATOM     43  N   UNL     1      -5.529   5.879   7.152  1.00  0.00    -0.354 N 
ATOM     44  C   UNL     1      -6.763   1.752   7.492  1.00  0.00     0.074 A 
ATOM     45  C   UNL     1      -5.661   0.855   7.219  1.00  0.00     0.031 C 
ATOM     46  C   UNL     1      -4.115   7.556   6.720  1.00  0.00     0.029 A 
ATOM     47  C   UNL     1      -5.499   7.250   7.069  1.00  0.00     0.049 A 
ATOM     48  H   UNL     1      -6.341   5.371   7.382  1.00  0.00     0.167 HD
ATOM     49  C   UNL     1      -8.015   1.349   7.812  1.00  0.00     0.037 A 
ATOM     50  C   UNL     1      -6.479   8.155   7.250  1.00  0.00     0.037 A 
ATOM     51  C   UNL     1      -9.103   2.242   8.111  1.00  0.00     0.049 A 
ATOM     52  C   UNL     1      -7.859   7.681   7.615  1.00  0.00     0.074 A 
ATOM     53  C   UNL     1     -10.391   1.932   8.508  1.00  0.00     0.029 A 
ATOM     54  N   UNL     1      -9.026   3.626   8.043  1.00  0.00    -0.354 N 
ATOM     55  N   UNL     1      -8.295   6.457   7.785  1.00  0.00    -0.248 NA
ATOM     56  C   UNL     1      -8.883   8.716   7.818  1.00  0.00     0.031 C 
ATOM     57  C   UNL     1     -11.105   3.127   8.647  1.00  0.00     0.029 A 
ATOM     58  C   UNL     1     -10.250   4.183   8.377  1.00  0.00     0.049 A 
ATOM     59  H   UNL     1      -8.222   4.136   7.794  1.00  0.00     0.167 HD
ATOM     60  C   UNL     1      -9.631   6.574   8.143  1.00  0.00     0.074 A 
ATOM     61  C   UNL     1      -9.932   7.990   8.177  1.00  0.00     0.031 C 
ATOM     62  C   UNL     1     -10.528   5.595   8.417  1.00  0.00     0.037 A 
BRANCH  49  63
ATOM     63  C   UNL     1      -8.272  -0.128   7.867  1.00  0.00     0.064 A 
ATOM     64  C   UNL     1      -7.736  -0.927   8.889  1.00  0.00     0.173 A 
ATOM     65  C   UNL     1      -9.084  -0.748   6.906  1.00  0.00     0.173 A 
ATOM     66  F   UNL     1      -6.943  -0.385   9.825  1.00  0.00    -0.203 F 
ATOM     67  C   UNL     1      -7.981  -2.297   8.930  1.00  0.00     0.198 A 
ATOM     68  C   UNL     1      -9.350  -2.113   6.966  1.00  0.00     0.198 A 
ATOM     69  F   UNL     1      -9.625  -0.028   5.911  1.00  0.00    -0.203 F 
ATOM     70  F   UNL     1      -7.419  -3.048   9.887  1.00  0.00    -0.200 F 
ATOM     71  C   UNL     1      -8.792  -2.888   7.973  1.00  0.00     0.200 A 
ATOM     72  F   UNL     1     -10.144  -2.681   6.048  1.00  0.00    -0.200 F 
ATOM     73  F   UNL     1      -9.032  -4.205   8.017  1.00  0.00    -0.200 F 
ENDBRANCH  49  63
BRANCH  50  74
ATOM     74  C   UNL     1      -6.184   9.605   7.124  1.00  0.00     0.064 A 
ATOM     75  C   UNL     1      -6.167  10.433   8.255  1.00  0.00     0.173 A 
ATOM     76  C   UNL     1      -5.920  10.194   5.879  1.00  0.00     0.173 A 
ATOM     77  F   UNL     1      -6.435   9.919   9.464  1.00  0.00    -0.203 F 
ATOM     78  C   UNL     1      -5.917  11.799   8.144  1.00  0.00     0.198 A 
ATOM     79  C   UNL     1      -5.645  11.556   5.772  1.00  0.00     0.198 A 
ATOM     80  F   UNL     1      -5.920   9.445   4.768  1.00  0.00    -0.203 F 
ATOM     81  F   UNL     1      -5.950  12.575   9.236  1.00  0.00    -0.200 F 
ATOM     82  C   UNL     1      -5.651  12.359   6.904  1.00  0.00     0.200 A 
ATOM     83  F   UNL     1      -5.376  12.092   4.574  1.00  0.00    -0.200 F 
ATOM     84  F   UNL     1      -5.409  13.672   6.798  1.00  0.00    -0.200 F 
ENDBRANCH  50  74
BRANCH  62  85
ATOM     85  C   UNL     1     -11.910   6.023   8.814  1.00  0.00     0.064 A 
ATOM     86  C   UNL     1     -12.816   6.543   7.878  1.00  0.00     0.173 A 
ATOM     87  C   UNL     1     -12.346   5.870  10.138  1.00  0.00     0.173 A 
ATOM     88  F   UNL     1     -12.439   6.723   6.603  1.00  0.00    -0.203 F 
ATOM     89  C   UNL     1     -14.102   6.915   8.259  1.00  0.00     0.198 A 
ATOM     90  C   UNL     1     -13.642   6.217  10.510  1.00  0.00     0.198 A 
ATOM     91  F   UNL     1     -11.519   5.371  11.069  1.00  0.00    -0.203 F 
ATOM     92  F   UNL     1     -14.937   7.451   7.358  1.00  0.00    -0.200 F 
ATOM     93  C   UNL     1     -14.516   6.746   9.572  1.00  0.00     0.200 A 
ATOM     94  F   UNL     1     -14.044   6.042  11.776  1.00  0.00    -0.200 F 
ATOM     95  F   UNL     1     -15.757   7.098   9.936  1.00  0.00    -0.200 F 
ENDBRANCH  62  85
ENDBRANCH  36  37
ENDBRANCH  28  31
ENDBRANCH  26  27
ENDBRANCH  25  26
ENDBRANCH   1  25
TORSDOF 14
