REMARK SMILES CC[C@@H](C)[C@H](NC(=O)/C=C/c1ccnn1C)C(=O)NCCCCNC(=O)c1ccc(-c2c3nc(c(-c4c(F)c(F)c(F)c(F)c4F)c4ccc([nH]4)c(-c4c(F)c(F)c(F)c(F)c4F)c4nc(c(-c5c(F)c(F)c(F)c(F)c5F)c5ccc2[nH]5)C=C4)C=C3)cc1
REMARK SMILES IDX 21 1 20 2 19 3 17 4 18 5 5 7 3 8 4 9 2 10 1 11 6 12 7 13
REMARK SMILES IDX 8 15 9 16 10 17 11 18 12 19 15 20 13 21 14 22 16 23 22 24
REMARK SMILES IDX 23 25 24 26 25 27 26 29 27 30 28 31 89 32 29 33 88 34 30 35
REMARK SMILES IDX 31 36 32 37 82 38 33 39 87 40 81 41 83 42 34 43 86 44 80 45
REMARK SMILES IDX 79 46 35 48 67 49 47 50 66 51 48 52 51 53 65 54 84 55 49 56
REMARK SMILES IDX 50 57 64 59 85 60 52 61 36 62 37 63 45 64 38 65 39 66 43 67
REMARK SMILES IDX 46 68 40 69 41 70 44 71 42 72 68 73 69 74 77 75 70 76 71 77
REMARK SMILES IDX 75 78 78 79 72 80 73 81 76 82 74 83 53 84 54 85 62 86 55 87
REMARK SMILES IDX 56 88 60 89 63 90 57 91 58 92 61 93 59 94
REMARK H PARENT 19 6 6 14 24 28 83 47 51 58
REMARK Flexibility Score: inf
ROOT
ATOM      1  C   UNL     1       4.381  -2.959   2.546  1.00  0.00     0.023 C 
ENDROOT
BRANCH   1   2
ATOM      2  C   UNL     1       3.652  -3.853   1.557  1.00  0.00     0.116 C 
BRANCH   2   3
ATOM      3  N   UNL     1       2.446  -4.434   2.105  1.00  0.00    -0.354 N 
ATOM      4  C   UNL     1       1.139  -4.340   1.730  1.00  0.00     0.242 C 
ATOM      5  O   UNL     1       0.364  -5.157   2.241  1.00  0.00    -0.273 OA
ATOM      6  H   UNL     1       2.597  -5.003   2.895  1.00  0.00     0.163 HD
BRANCH   4   7
ATOM      7  C   UNL     1       0.634  -3.388   0.611  1.00  0.00     0.174 C 
BRANCH   7   8
ATOM      8  C   UNL     1       0.791  -4.037  -0.804  1.00  0.00     0.018 C 
ATOM      9  C   UNL     1       2.210  -3.993  -1.384  1.00  0.00     0.010 C 
BRANCH   8  10
ATOM     10  C   UNL     1      -0.229  -3.435  -1.795  1.00  0.00     0.002 C 
ATOM     11  C   UNL     1      -0.167  -4.032  -3.197  1.00  0.00     0.004 C 
ENDBRANCH   8  10
ENDBRANCH   7   8
BRANCH   7  12
ATOM     12  N   UNL     1       1.194  -2.038   0.726  1.00  0.00    -0.340 N 
ATOM     13  C   UNL     1       0.720  -0.803   0.972  1.00  0.00     0.244 C 
ATOM     14  H   UNL     1       2.168  -2.034   0.587  1.00  0.00     0.164 HD
ATOM     15  O   UNL     1       1.564   0.062   1.225  1.00  0.00    -0.270 OA
BRANCH  13  16
ATOM     16  C   UNL     1      -0.694  -0.377   0.945  1.00  0.00     0.073 C 
ATOM     17  C   UNL     1      -1.793  -1.001   0.509  1.00  0.00     0.033 C 
BRANCH  17  18
ATOM     18  C   UNL     1      -3.063  -0.368   0.538  1.00  0.00     0.061 A 
ATOM     19  C   UNL     1      -4.262  -0.778   1.085  1.00  0.00     0.050 A 
ATOM     20  N   UNL     1      -3.343   0.824  -0.100  1.00  0.00    -0.269 N 
ATOM     21  C   UNL     1      -5.184   0.227   0.757  1.00  0.00     0.136 A 
ATOM     22  N   UNL     1      -4.631   1.206   0.043  1.00  0.00    -0.181 NA
ATOM     23  C   UNL     1      -2.491   1.670  -0.906  1.00  0.00     0.174 C 
ENDBRANCH  17  18
ENDBRANCH  13  16
ENDBRANCH   7  12
ENDBRANCH   4   7
ENDBRANCH   2   3
ENDBRANCH   1   2
BRANCH   1  24
ATOM     24  C   UNL     1       5.203  -3.718   3.583  1.00  0.00     0.023 C 
BRANCH  24  25
ATOM     25  C   UNL     1       6.144  -4.777   3.017  1.00  0.00     0.116 C 
BRANCH  25  26
ATOM     26  N   UNL     1       6.995  -4.289   1.940  1.00  0.00    -0.352 N 
ATOM     27  C   UNL     1       8.319  -4.553   1.699  1.00  0.00     0.251 C 
ATOM     28  H   UNL     1       6.559  -3.685   1.296  1.00  0.00     0.163 HD
ATOM     29  O   UNL     1       8.913  -3.977   0.792  1.00  0.00    -0.269 OA
BRANCH  27  30
ATOM     30  C   UNL     1       9.037  -5.503   2.570  1.00  0.00     0.039 A 
ATOM     31  C   UNL     1      10.275  -5.125   3.091  1.00  0.00     0.014 A 
ATOM     32  C   UNL     1       8.470  -6.734   2.910  1.00  0.00     0.014 A 
ATOM     33  C   UNL     1      10.912  -5.957   4.010  1.00  0.00     0.010 A 
ATOM     34  C   UNL     1       9.062  -7.517   3.895  1.00  0.00     0.010 A 
ATOM     35  C   UNL     1      10.291  -7.138   4.453  1.00  0.00    -0.014 A 
BRANCH  35  36
ATOM     36  C   UNL     1      10.924  -7.967   5.508  1.00  0.00     0.031 A 
ATOM     37  C   UNL     1      11.366  -9.373   5.214  1.00  0.00     0.074 A 
ATOM     38  C   UNL     1      11.079  -7.453   6.744  1.00  0.00     0.049 A 
ATOM     39  N   UNL     1      11.973 -10.229   5.997  1.00  0.00    -0.248 NA
ATOM     40  C   UNL     1      11.064  -9.900   3.874  1.00  0.00     0.031 C 
ATOM     41  C   UNL     1      10.616  -6.131   7.173  1.00  0.00     0.029 A 
ATOM     42  N   UNL     1      11.674  -7.975   7.864  1.00  0.00    -0.354 N 
ATOM     43  C   UNL     1      12.133 -11.384   5.244  1.00  0.00     0.074 A 
ATOM     44  C   UNL     1      11.489 -11.151   3.970  1.00  0.00     0.031 C 
ATOM     45  C   UNL     1      10.979  -5.931   8.450  1.00  0.00     0.029 A 
ATOM     46  C   UNL     1      11.673  -7.118   8.938  1.00  0.00     0.049 A 
ATOM     47  H   UNL     1      12.064  -8.878   7.896  1.00  0.00     0.167 HD
ATOM     48  C   UNL     1      12.790 -12.522   5.570  1.00  0.00     0.037 A 
ATOM     49  C   UNL     1      12.181  -7.271  10.175  1.00  0.00     0.037 A 
ATOM     50  C   UNL     1      13.434 -12.748   6.838  1.00  0.00     0.049 A 
ATOM     51  C   UNL     1      12.916  -8.541  10.508  1.00  0.00     0.074 A 
ATOM     52  C   UNL     1      14.155 -13.852   7.256  1.00  0.00     0.029 A 
ATOM     53  N   UNL     1      13.430 -11.849   7.895  1.00  0.00    -0.354 N 
ATOM     54  N   UNL     1      13.132  -9.595   9.757  1.00  0.00    -0.248 NA
ATOM     55  C   UNL     1      13.494  -8.636  11.854  1.00  0.00     0.031 C 
ATOM     56  C   UNL     1      14.550 -13.641   8.582  1.00  0.00     0.029 A 
ATOM     57  C   UNL     1      14.124 -12.381   8.971  1.00  0.00     0.049 A 
ATOM     58  H   UNL     1      12.999 -10.965   7.883  1.00  0.00     0.167 HD
ATOM     59  C   UNL     1      13.885 -10.467  10.531  1.00  0.00     0.074 A 
ATOM     60  C   UNL     1      14.118  -9.803  11.797  1.00  0.00     0.031 C 
ATOM     61  C   UNL     1      14.338 -11.709  10.227  1.00  0.00     0.037 A 
BRANCH  48  62
ATOM     62  C   UNL     1      12.860 -13.603   4.529  1.00  0.00     0.064 A 
ATOM     63  C   UNL     1      13.618 -13.442   3.358  1.00  0.00     0.173 A 
ATOM     64  C   UNL     1      12.199 -14.826   4.717  1.00  0.00     0.173 A 
ATOM     65  F   UNL     1      14.258 -12.287   3.122  1.00  0.00    -0.203 F 
ATOM     66  C   UNL     1      13.688 -14.453   2.403  1.00  0.00     0.198 A 
ATOM     67  C   UNL     1      12.299 -15.847   3.775  1.00  0.00     0.198 A 
ATOM     68  F   UNL     1      11.463 -15.035   5.819  1.00  0.00    -0.203 F 
ATOM     69  F   UNL     1      14.377 -14.255   1.270  1.00  0.00    -0.200 F 
ATOM     70  C   UNL     1      13.036 -15.657   2.616  1.00  0.00     0.200 A 
ATOM     71  F   UNL     1      11.678 -17.016   3.989  1.00  0.00    -0.200 F 
ATOM     72  F   UNL     1      13.113 -16.633   1.702  1.00  0.00    -0.200 F 
ENDBRANCH  48  62
BRANCH  49  73
ATOM     73  C   UNL     1      12.039  -6.184  11.180  1.00  0.00     0.064 A 
ATOM     74  C   UNL     1      13.152  -5.464  11.635  1.00  0.00     0.173 A 
ATOM     75  C   UNL     1      10.786  -5.853  11.718  1.00  0.00     0.173 A 
ATOM     76  F   UNL     1      14.375  -5.754  11.164  1.00  0.00    -0.203 F 
ATOM     77  C   UNL     1      13.024  -4.478  12.611  1.00  0.00     0.198 A 
ATOM     78  C   UNL     1      10.654  -4.844  12.669  1.00  0.00     0.198 A 
ATOM     79  F   UNL     1       9.687  -6.505  11.310  1.00  0.00    -0.203 F 
ATOM     80  F   UNL     1      14.113  -3.847  13.070  1.00  0.00    -0.200 F 
ATOM     81  C   UNL     1      11.774  -4.165  13.124  1.00  0.00     0.200 A 
ATOM     82  F   UNL     1       9.442  -4.533  13.148  1.00  0.00    -0.200 F 
ATOM     83  F   UNL     1      11.650  -3.217  14.062  1.00  0.00    -0.200 F 
ENDBRANCH  49  73
BRANCH  61  84
ATOM     84  C   UNL     1      15.147 -12.414  11.279  1.00  0.00     0.064 A 
ATOM     85  C   UNL     1      14.567 -12.866  12.474  1.00  0.00     0.173 A 
ATOM     86  C   UNL     1      16.518 -12.643  11.088  1.00  0.00     0.173 A 
ATOM     87  F   UNL     1      13.262 -12.661  12.711  1.00  0.00    -0.203 F 
ATOM     88  C   UNL     1      15.338 -13.479  13.457  1.00  0.00     0.198 A 
ATOM     89  C   UNL     1      17.279 -13.289  12.058  1.00  0.00     0.198 A 
ATOM     90  F   UNL     1      17.122 -12.240   9.960  1.00  0.00    -0.203 F 
ATOM     91  F   UNL     1      14.775 -13.839  14.620  1.00  0.00    -0.200 F 
ATOM     92  C   UNL     1      16.692 -13.694  13.247  1.00  0.00     0.200 A 
ATOM     93  F   UNL     1      18.584 -13.510  11.847  1.00  0.00    -0.200 F 
ATOM     94  F   UNL     1      17.433 -14.281  14.196  1.00  0.00    -0.200 F 
ENDBRANCH  61  84
ENDBRANCH  35  36
ENDBRANCH  27  30
ENDBRANCH  25  26
ENDBRANCH  24  25
ENDBRANCH   1  24
TORSDOF 16
