REMARK SMILES O=C(NCCCCNC(=O)[C@H]1[C@@H]2CC[C@@H](C2)[C@@H]1C(=O)Nc1ccc([N+](=O)[O-])cc1)c1ccc(-c2c3nc(c(-c4c(F)c(F)c(F)c(F)c4F)c4ccc([nH]4)c(-c4c(F)c(F)c(F)c(F)c4F)c4nc(c(-c5c(F)c(F)c(F)c(F)c5F)c5ccc2[nH]5)C=C4)C=C3)cc1
REMARK SMILES IDX 6 1 5 2 4 3 3 4 1 5 2 6 30 8 31 9 92 10 32 11 91 12 33 13
REMARK SMILES IDX 34 14 35 15 85 16 36 17 90 18 84 19 86 20 37 21 89 22 83 23
REMARK SMILES IDX 82 24 38 26 70 27 50 28 69 29 51 30 54 31 68 32 87 33 52 34
REMARK SMILES IDX 53 35 67 37 88 38 55 39 39 40 40 41 48 42 41 43 42 44 46 45
REMARK SMILES IDX 49 46 43 47 44 48 47 49 45 50 71 51 72 52 80 53 73 54 74 55
REMARK SMILES IDX 78 56 81 57 75 58 76 59 79 60 77 61 56 62 57 63 65 64 58 65
REMARK SMILES IDX 59 66 63 67 66 68 60 69 61 70 64 71 62 72 7 73 8 74 9 75
REMARK SMILES IDX 10 77 11 78 12 79 17 80 13 81 16 82 15 83 14 84 18 85 19 86
REMARK SMILES IDX 20 87 21 89 22 90 29 91 23 92 28 93 24 94 25 95 26 96 27 97
REMARK H PARENT 3 7 86 25 54 36 8 76 20 88
REMARK Flexibility Score: inf
ROOT
ATOM      1  C   UNL     1       4.321  -3.258  -2.298  1.00  0.00     0.023 C 
ENDROOT
BRANCH   1   2
ATOM      2  C   UNL     1       4.789  -2.665  -0.970  1.00  0.00     0.023 C 
BRANCH   2   3
ATOM      3  C   UNL     1       4.542  -1.171  -0.804  1.00  0.00     0.116 C 
BRANCH   3   4
ATOM      4  N   UNL     1       3.135  -0.807  -0.880  1.00  0.00    -0.352 N 
ATOM      5  O   UNL     1       1.194   0.122  -0.186  1.00  0.00    -0.269 OA
ATOM      6  C   UNL     1       2.408   0.008  -0.046  1.00  0.00     0.251 C 
ATOM      7  H   UNL     1       2.635  -1.199  -1.632  1.00  0.00     0.163 HD
BRANCH   6   8
ATOM      8  C   UNL     1       3.095   0.718   1.053  1.00  0.00     0.039 A 
ATOM      9  C   UNL     1       4.292   1.397   0.820  1.00  0.00     0.014 A 
ATOM     10  C   UNL     1       2.552   0.668   2.340  1.00  0.00     0.014 A 
ATOM     11  C   UNL     1       5.030   1.876   1.895  1.00  0.00     0.010 A 
ATOM     12  C   UNL     1       3.255   1.229   3.410  1.00  0.00     0.010 A 
ATOM     13  C   UNL     1       4.521   1.796   3.203  1.00  0.00    -0.014 A 
BRANCH  13  14
ATOM     14  C   UNL     1       5.332   2.333   4.326  1.00  0.00     0.031 A 
ATOM     15  C   UNL     1       5.877   1.427   5.396  1.00  0.00     0.074 A 
ATOM     16  C   UNL     1       5.619   3.648   4.345  1.00  0.00     0.049 A 
ATOM     17  N   UNL     1       6.651   1.722   6.411  1.00  0.00    -0.248 NA
ATOM     18  C   UNL     1       5.499   0.007   5.326  1.00  0.00     0.031 C 
ATOM     19  C   UNL     1       5.136   4.627   3.369  1.00  0.00     0.029 A 
ATOM     20  N   UNL     1       6.407   4.383   5.192  1.00  0.00    -0.354 N 
ATOM     21  C   UNL     1       6.829   0.537   7.113  1.00  0.00     0.074 A 
ATOM     22  C   UNL     1       6.067  -0.481   6.421  1.00  0.00     0.031 C 
ATOM     23  C   UNL     1       5.686   5.820   3.635  1.00  0.00     0.029 A 
ATOM     24  C   UNL     1       6.515   5.703   4.830  1.00  0.00     0.049 A 
ATOM     25  H   UNL     1       6.852   4.002   5.983  1.00  0.00     0.167 HD
ATOM     26  C   UNL     1       7.568   0.319   8.229  1.00  0.00     0.037 A 
ATOM     27  C   UNL     1       7.204   6.710   5.397  1.00  0.00     0.037 A 
ATOM     28  C   UNL     1       8.354   1.326   8.894  1.00  0.00     0.049 A 
ATOM     29  C   UNL     1       8.020   6.436   6.627  1.00  0.00     0.074 A 
ATOM     30  C   UNL     1       9.176   1.190   9.999  1.00  0.00     0.029 A 
ATOM     31  N   UNL     1       8.415   2.659   8.514  1.00  0.00    -0.354 N 
ATOM     32  N   UNL     1       8.210   5.303   7.258  1.00  0.00    -0.248 NA
ATOM     33  C   UNL     1       8.715   7.583   7.225  1.00  0.00     0.031 C 
ATOM     34  C   UNL     1       9.703   2.448  10.312  1.00  0.00     0.029 A 
ATOM     35  C   UNL     1       9.244   3.360   9.376  1.00  0.00     0.049 A 
ATOM     36  H   UNL     1       7.940   3.050   7.745  1.00  0.00     0.167 HD
ATOM     37  C   UNL     1       9.058   5.595   8.315  1.00  0.00     0.074 A 
ATOM     38  C   UNL     1       9.362   7.009   8.229  1.00  0.00     0.031 C 
ATOM     39  C   UNL     1       9.538   4.766   9.274  1.00  0.00     0.037 A 
BRANCH  26  40
ATOM     40  C   UNL     1       7.550  -1.062   8.818  1.00  0.00     0.064 A 
ATOM     41  C   UNL     1       8.218  -2.135   8.210  1.00  0.00     0.173 A 
ATOM     42  C   UNL     1       6.896  -1.302  10.036  1.00  0.00     0.173 A 
ATOM     43  F   UNL     1       8.850  -1.960   7.040  1.00  0.00    -0.203 F 
ATOM     44  C   UNL     1       8.213  -3.402   8.788  1.00  0.00     0.198 A 
ATOM     45  C   UNL     1       6.913  -2.565  10.624  1.00  0.00     0.198 A 
ATOM     46  F   UNL     1       6.247  -0.309  10.663  1.00  0.00    -0.203 F 
ATOM     47  F   UNL     1       8.824  -4.422   8.169  1.00  0.00    -0.200 F 
ATOM     48  C   UNL     1       7.566  -3.615   9.997  1.00  0.00     0.200 A 
ATOM     49  F   UNL     1       6.298  -2.765  11.798  1.00  0.00    -0.200 F 
ATOM     50  F   UNL     1       7.568  -4.833  10.555  1.00  0.00    -0.200 F 
ENDBRANCH  26  40
BRANCH  27  51
ATOM     51  C   UNL     1       7.164   8.063   4.788  1.00  0.00     0.064 A 
ATOM     52  C   UNL     1       8.292   8.598   4.152  1.00  0.00     0.173 A 
ATOM     53  C   UNL     1       5.995   8.837   4.811  1.00  0.00     0.173 A 
ATOM     54  F   UNL     1       9.437   7.901   4.122  1.00  0.00    -0.203 F 
ATOM     55  C   UNL     1       8.256   9.864   3.572  1.00  0.00     0.198 A 
ATOM     56  C   UNL     1       5.952  10.091   4.206  1.00  0.00     0.198 A 
ATOM     57  F   UNL     1       4.888   8.365   5.403  1.00  0.00    -0.203 F 
ATOM     58  F   UNL     1       9.358  10.368   3.001  1.00  0.00    -0.200 F 
ATOM     59  C   UNL     1       7.084  10.605   3.592  1.00  0.00     0.200 A 
ATOM     60  F   UNL     1       4.814  10.797   4.214  1.00  0.00    -0.200 F 
ATOM     61  F   UNL     1       7.047  11.819   3.025  1.00  0.00    -0.200 F 
ENDBRANCH  27  51
BRANCH  39  62
ATOM     62  C   UNL     1      10.465   5.367  10.288  1.00  0.00     0.064 A 
ATOM     63  C   UNL     1       9.995   6.224  11.295  1.00  0.00     0.173 A 
ATOM     64  C   UNL     1      11.836   5.071  10.261  1.00  0.00     0.173 A 
ATOM     65  F   UNL     1       8.695   6.551  11.350  1.00  0.00    -0.203 F 
ATOM     66  C   UNL     1      10.870   6.785  12.220  1.00  0.00     0.198 A 
ATOM     67  C   UNL     1      12.703   5.613  11.205  1.00  0.00     0.198 A 
ATOM     68  F   UNL     1      12.333   4.254   9.321  1.00  0.00    -0.203 F 
ATOM     69  F   UNL     1      10.408   7.642  13.142  1.00  0.00    -0.200 F 
ATOM     70  C   UNL     1      12.222   6.476  12.178  1.00  0.00     0.200 A 
ATOM     71  F   UNL     1      14.008   5.307  11.168  1.00  0.00    -0.200 F 
ATOM     72  F   UNL     1      13.062   7.019  13.069  1.00  0.00    -0.200 F 
ENDBRANCH  39  62
ENDBRANCH  13  14
ENDBRANCH   6   8
ENDBRANCH   3   4
ENDBRANCH   2   3
ENDBRANCH   1   2
BRANCH   1  73
ATOM     73  C   UNL     1       4.844  -2.536  -3.537  1.00  0.00     0.116 C 
BRANCH  73  74
ATOM     74  N   UNL     1       6.293  -2.607  -3.627  1.00  0.00    -0.356 N 
ATOM     75  C   UNL     1       7.088  -3.193  -4.563  1.00  0.00     0.224 C 
ATOM     76  H   UNL     1       6.776  -2.161  -2.895  1.00  0.00     0.163 HD
ATOM     77  O   UNL     1       8.306  -3.169  -4.382  1.00  0.00    -0.275 OA
BRANCH  75  78
ATOM     78  C   UNL     1       6.467  -3.840  -5.786  1.00  0.00     0.094 C 
ATOM     79  C   UNL     1       7.178  -3.378  -7.085  1.00  0.00     0.002 C 
ATOM     80  C   UNL     1       6.662  -5.387  -5.792  1.00  0.00     0.094 C 
ATOM     81  C   UNL     1       6.244  -3.691  -8.268  1.00  0.00     0.005 C 
ATOM     82  C   UNL     1       8.261  -4.430  -7.285  1.00  0.00     0.009 C 
ATOM     83  C   UNL     1       7.270  -5.590  -7.206  1.00  0.00     0.002 C 
ATOM     84  C   UNL     1       6.262  -5.223  -8.311  1.00  0.00     0.005 C 
BRANCH  80  85
ATOM     85  C   UNL     1       5.344  -6.097  -5.452  1.00  0.00     0.228 C 
ATOM     86  O   UNL     1       4.447  -5.513  -4.835  1.00  0.00    -0.274 OA
ATOM     87  N   UNL     1       5.094  -7.388  -5.823  1.00  0.00    -0.326 N 
ATOM     88  H   UNL     1       4.189  -7.719  -5.619  1.00  0.00     0.169 HD
BRANCH  87  89
ATOM     89  C   UNL     1       5.938  -8.303  -6.450  1.00  0.00     0.041 A 
ATOM     90  C   UNL     1       5.465  -8.921  -7.610  1.00  0.00     0.033 A 
ATOM     91  C   UNL     1       7.231  -8.558  -5.988  1.00  0.00     0.033 A 
ATOM     92  C   UNL     1       6.337  -9.669  -8.402  1.00  0.00     0.088 A 
ATOM     93  C   UNL     1       8.102  -9.333  -6.759  1.00  0.00     0.088 A 
ATOM     94  C   UNL     1       7.664  -9.846  -7.987  1.00  0.00     0.269 A 
BRANCH  94  95
ATOM     95  N   UNL     1       8.616 -10.525  -8.875  1.00  0.00     0.062 N 
ATOM     96  O   UNL     1       8.198 -10.917  -9.974  1.00  0.00    -0.258 OA
ATOM     97  O   UNL     1       9.784 -10.646  -8.482  1.00  0.00    -0.258 OA
ENDBRANCH  94  95
ENDBRANCH  87  89
ENDBRANCH  80  85
ENDBRANCH  75  78
ENDBRANCH  73  74
ENDBRANCH   1  73
TORSDOF 14
