REMARK SMILES Cc1nnc(S[C@@H](C)CCO)c(C(=O)NCCCCNC(=O)c2ccc(-c3c4nc(c(-c5c(F)c(F)c(F)c(F)c5F)c5ccc([nH]5)c(-c5c(F)c(F)c(F)c(F)c5F)c5nc(c(-c6c(F)c(F)c(F)c(F)c6F)c6ccc3[nH]6)C=C5)C=C4)cc2)c1C
REMARK SMILES IDX 16 1 15 2 13 3 14 4 12 6 1 7 2 8 3 9 86 10 4 11 87 12 5 13
REMARK SMILES IDX 6 14 7 15 8 16 9 17 10 18 11 19 17 21 18 22 19 23 20 24
REMARK SMILES IDX 21 25 22 27 23 28 24 29 85 30 25 31 84 32 26 33 27 34 28 35
REMARK SMILES IDX 78 36 29 37 83 38 77 39 79 40 30 41 82 42 76 43 75 44 31 46
REMARK SMILES IDX 63 47 43 48 62 49 44 50 47 51 61 52 80 53 45 54 46 55 60 57
REMARK SMILES IDX 81 58 48 59 32 60 33 61 41 62 34 63 35 64 39 65 42 66 36 67
REMARK SMILES IDX 37 68 40 69 38 70 64 71 65 72 73 73 66 74 67 75 71 76 74 77
REMARK SMILES IDX 68 78 69 79 72 80 70 81 49 82 50 83 58 84 51 85 52 86 56 87
REMARK SMILES IDX 59 88 53 89 54 90 57 91 55 92
REMARK H PARENT 15 5 11 20 20 26 79 45 47 56
REMARK Flexibility Score: inf
ROOT
ATOM      1  C   UNL     1      -2.176   0.632   3.130  1.00  0.00     0.116 C 
ENDROOT
BRANCH   1   2
ATOM      2  N   UNL     1      -1.694  -0.411   4.017  1.00  0.00    -0.352 N 
ATOM      3  C   UNL     1      -0.654  -1.314   3.862  1.00  0.00     0.254 C 
ATOM      4  O   UNL     1      -0.140  -1.747   4.888  1.00  0.00    -0.269 OA
ATOM      5  H   UNL     1      -2.187  -0.491   4.866  1.00  0.00     0.163 HD
BRANCH   3   6
ATOM      6  C   UNL     1      -0.173  -1.797   2.545  1.00  0.00     0.078 A 
ATOM      7  C   UNL     1       1.304  -0.571  -0.789  1.00  0.00     0.069 C 
ATOM      8  C   UNL     1       0.689  -1.386   0.311  1.00  0.00     0.064 A 
ATOM      9  N   UNL     1       0.567  -2.689   0.027  1.00  0.00    -0.155 NA
ATOM     10  C   UNL     1       0.346  -0.889   1.573  1.00  0.00    -0.012 A 
ATOM     11  N   UNL     1       0.201  -3.567   1.005  1.00  0.00    -0.143 NA
ATOM     12  C   UNL     1       0.619   0.565   1.855  1.00  0.00     0.047 C 
ATOM     13  C   UNL     1      -0.106  -3.175   2.268  1.00  0.00     0.132 A 
BRANCH  13  14
ATOM     14  S   UNL     1      -0.007  -4.645   3.276  1.00  0.00    -0.101 SA
BRANCH  14  15
ATOM     15  C   UNL     1      -1.231  -4.740   4.637  1.00  0.00     0.052 C 
ATOM     16  C   UNL     1      -0.563  -4.421   5.978  1.00  0.00     0.020 C 
BRANCH  15  17
ATOM     17  C   UNL     1      -2.623  -4.144   4.413  1.00  0.00     0.043 C 
BRANCH  17  18
ATOM     18  C   UNL     1      -3.529  -5.052   3.578  1.00  0.00     0.157 C 
BRANCH  18  19
ATOM     19  O   UNL     1      -3.883  -6.219   4.314  1.00  0.00    -0.396 OA
ATOM     20  H   UNL     1      -3.080  -6.712   4.544  1.00  0.00     0.210 HD
ENDBRANCH  18  19
ENDBRANCH  17  18
ENDBRANCH  15  17
ENDBRANCH  14  15
ENDBRANCH  13  14
ENDBRANCH   3   6
ENDBRANCH   1   2
BRANCH   1  21
ATOM     21  C   UNL     1      -3.645   1.025   3.259  1.00  0.00     0.023 C 
BRANCH  21  22
ATOM     22  C   UNL     1      -4.163   1.472   4.625  1.00  0.00     0.023 C 
BRANCH  22  23
ATOM     23  C   UNL     1      -3.317   2.458   5.421  1.00  0.00     0.116 C 
BRANCH  23  24
ATOM     24  N   UNL     1      -2.971   3.682   4.715  1.00  0.00    -0.352 N 
ATOM     25  C   UNL     1      -3.121   4.991   5.127  1.00  0.00     0.251 C 
ATOM     26  H   UNL     1      -2.576   3.560   3.821  1.00  0.00     0.163 HD
ATOM     27  O   UNL     1      -2.757   5.920   4.430  1.00  0.00    -0.269 OA
BRANCH  25  28
ATOM     28  C   UNL     1      -3.791   5.244   6.417  1.00  0.00     0.039 A 
ATOM     29  C   UNL     1      -5.006   5.932   6.412  1.00  0.00     0.014 A 
ATOM     30  C   UNL     1      -3.274   4.700   7.596  1.00  0.00     0.014 A 
ATOM     31  C   UNL     1      -5.758   5.995   7.584  1.00  0.00     0.010 A 
ATOM     32  C   UNL     1      -4.056   4.709   8.745  1.00  0.00     0.010 A 
ATOM     33  C   UNL     1      -5.306   5.349   8.745  1.00  0.00    -0.014 A 
BRANCH  33  34
ATOM     34  C   UNL     1      -6.113   5.369   9.987  1.00  0.00     0.031 A 
ATOM     35  C   UNL     1      -5.618   6.156  11.164  1.00  0.00     0.074 A 
ATOM     36  C   UNL     1      -7.256   4.662  10.064  1.00  0.00     0.049 A 
ATOM     37  N   UNL     1      -6.139   6.277  12.357  1.00  0.00    -0.248 NA
ATOM     38  C   UNL     1      -4.356   6.891  10.980  1.00  0.00     0.031 C 
ATOM     39  C   UNL     1      -7.820   3.842   8.990  1.00  0.00     0.029 A 
ATOM     40  N   UNL     1      -8.152   4.519  11.095  1.00  0.00    -0.354 N 
ATOM     41  C   UNL     1      -5.273   7.103  13.059  1.00  0.00     0.074 A 
ATOM     42  C   UNL     1      -4.158   7.396  12.188  1.00  0.00     0.031 C 
ATOM     43  C   UNL     1      -8.981   3.308   9.408  1.00  0.00     0.029 A 
ATOM     44  C   UNL     1      -9.229   3.724  10.786  1.00  0.00     0.049 A 
ATOM     45  H   UNL     1      -8.034   4.948  11.973  1.00  0.00     0.167 HD
ATOM     46  C   UNL     1      -5.416   7.604  14.307  1.00  0.00     0.037 A 
ATOM     47  C   UNL     1     -10.295   3.379  11.534  1.00  0.00     0.037 A 
ATOM     48  C   UNL     1      -6.535   7.323  15.163  1.00  0.00     0.049 A 
ATOM     49  C   UNL     1     -10.403   3.912  12.939  1.00  0.00     0.074 A 
ATOM     50  C   UNL     1      -6.784   7.794  16.439  1.00  0.00     0.029 A 
ATOM     51  N   UNL     1      -7.596   6.498  14.822  1.00  0.00    -0.354 N 
ATOM     52  N   UNL     1      -9.599   4.725  13.579  1.00  0.00    -0.248 NA
ATOM     53  C   UNL     1     -11.569   3.479  13.724  1.00  0.00     0.031 C 
ATOM     54  C   UNL     1      -7.983   7.229  16.883  1.00  0.00     0.029 A 
ATOM     55  C   UNL     1      -8.499   6.438  15.869  1.00  0.00     0.049 A 
ATOM     56  H   UNL     1      -7.693   6.027  13.963  1.00  0.00     0.167 HD
ATOM     57  C   UNL     1     -10.172   4.926  14.827  1.00  0.00     0.074 A 
ATOM     58  C   UNL     1     -11.399   4.156  14.852  1.00  0.00     0.031 C 
ATOM     59  C   UNL     1      -9.723   5.678  15.861  1.00  0.00     0.037 A 
BRANCH  46  60
ATOM     60  C   UNL     1      -4.348   8.530  14.803  1.00  0.00     0.064 A 
ATOM     61  C   UNL     1      -4.215   9.827  14.284  1.00  0.00     0.173 A 
ATOM     62  C   UNL     1      -3.469   8.135  15.821  1.00  0.00     0.173 A 
ATOM     63  F   UNL     1      -5.020  10.244  13.295  1.00  0.00    -0.203 F 
ATOM     64  C   UNL     1      -3.228  10.688  14.753  1.00  0.00     0.198 A 
ATOM     65  C   UNL     1      -2.500   9.008  16.306  1.00  0.00     0.198 A 
ATOM     66  F   UNL     1      -3.554   6.904  16.348  1.00  0.00    -0.203 F 
ATOM     67  F   UNL     1      -3.093  11.907  14.212  1.00  0.00    -0.200 F 
ATOM     68  C   UNL     1      -2.377  10.281  15.769  1.00  0.00     0.200 A 
ATOM     69  F   UNL     1      -1.683   8.618  17.294  1.00  0.00    -0.200 F 
ATOM     70  F   UNL     1      -1.432  11.115  16.226  1.00  0.00    -0.200 F 
ENDBRANCH  46  60
BRANCH  47  71
ATOM     71  C   UNL     1     -11.368   2.526  10.960  1.00  0.00     0.064 A 
ATOM     72  C   UNL     1     -12.633   3.062  10.679  1.00  0.00     0.173 A 
ATOM     73  C   UNL     1     -11.163   1.166  10.688  1.00  0.00     0.173 A 
ATOM     74  F   UNL     1     -12.885   4.353  10.942  1.00  0.00    -0.203 F 
ATOM     75  C   UNL     1     -13.656   2.269  10.164  1.00  0.00     0.198 A 
ATOM     76  C   UNL     1     -12.180   0.378  10.151  1.00  0.00     0.198 A 
ATOM     77  F   UNL     1      -9.971   0.603  10.938  1.00  0.00    -0.203 F 
ATOM     78  F   UNL     1     -14.866   2.799   9.941  1.00  0.00    -0.200 F 
ATOM     79  C   UNL     1     -13.427   0.928   9.895  1.00  0.00     0.200 A 
ATOM     80  F   UNL     1     -11.952  -0.916   9.883  1.00  0.00    -0.200 F 
ATOM     81  F   UNL     1     -14.409   0.165   9.397  1.00  0.00    -0.200 F 
ENDBRANCH  47  71
BRANCH  59  82
ATOM     82  C   UNL     1     -10.568   5.734  17.098  1.00  0.00     0.064 A 
ATOM     83  C   UNL     1     -10.627   4.656  17.991  1.00  0.00     0.173 A 
ATOM     84  C   UNL     1     -11.251   6.913  17.437  1.00  0.00     0.173 A 
ATOM     85  F   UNL     1     -10.000   3.506  17.703  1.00  0.00    -0.203 F 
ATOM     86  C   UNL     1     -11.347   4.753  19.179  1.00  0.00     0.198 A 
ATOM     87  C   UNL     1     -11.947   7.015  18.637  1.00  0.00     0.198 A 
ATOM     88  F   UNL     1     -11.216   7.974  16.617  1.00  0.00    -0.203 F 
ATOM     89  F   UNL     1     -11.412   3.702  20.008  1.00  0.00    -0.200 F 
ATOM     90  C   UNL     1     -11.996   5.935  19.505  1.00  0.00     0.200 A 
ATOM     91  F   UNL     1     -12.560   8.162  18.958  1.00  0.00    -0.200 F 
ATOM     92  F   UNL     1     -12.671   6.033  20.659  1.00  0.00    -0.200 F 
ENDBRANCH  59  82
ENDBRANCH  33  34
ENDBRANCH  25  28
ENDBRANCH  23  24
ENDBRANCH  22  23
ENDBRANCH  21  22
ENDBRANCH   1  21
TORSDOF 16
