REMARK SMILES CC(C)n1cncc1[C@@H](NC(=O)OC(C)(C)C)C(=O)NCCCCNC(=O)c1ccc(-c2c3nc(c(-c4c(F)c(F)c(F)c(F)c4F)c4ccc([nH]4)c(-c4c(F)c(F)c(F)c(F)c4F)c4nc(c(-c5c(F)c(F)c(F)c(F)c5F)c5ccc2[nH]5)C=C4)C=C3)cc1
REMARK SMILES IDX 22 1 21 2 20 3 18 4 19 5 9 7 8 8 4 9 5 10 6 11 7 12 2 13
REMARK SMILES IDX 1 14 3 15 10 16 11 17 12 19 13 20 14 21 15 22 16 23 17 24
REMARK SMILES IDX 23 25 24 26 25 27 26 28 27 30 28 31 29 32 90 33 30 34 89 35
REMARK SMILES IDX 31 36 32 37 33 38 83 39 34 40 88 41 82 42 84 43 35 44 87 45
REMARK SMILES IDX 81 46 80 47 36 49 68 50 48 51 67 52 49 53 52 54 66 55 85 56
REMARK SMILES IDX 50 57 51 58 65 60 86 61 53 62 37 63 38 64 46 65 39 66 40 67
REMARK SMILES IDX 44 68 47 69 41 70 42 71 45 72 43 73 69 74 70 75 78 76 71 77
REMARK SMILES IDX 72 78 76 79 79 80 73 81 74 82 77 83 75 84 54 85 55 86 63 87
REMARK SMILES IDX 56 88 57 89 61 90 64 91 58 92 59 93 62 94 60 95
REMARK H PARENT 20 6 10 18 25 29 84 48 52 59
REMARK Flexibility Score: inf
ROOT
ATOM      1  C   UNL     1      -5.101   2.809   1.622  1.00  0.00     0.023 C 
ENDROOT
BRANCH   1   2
ATOM      2  C   UNL     1      -4.348   4.051   1.149  1.00  0.00     0.116 C 
BRANCH   2   3
ATOM      3  N   UNL     1      -3.141   4.283   1.907  1.00  0.00    -0.354 N 
ATOM      4  C   UNL     1      -1.837   4.257   1.505  1.00  0.00     0.248 C 
ATOM      5  O   UNL     1      -0.984   4.449   2.383  1.00  0.00    -0.272 OA
ATOM      6  H   UNL     1      -3.280   4.492   2.859  1.00  0.00     0.163 HD
BRANCH   4   7
ATOM      7  C   UNL     1      -1.381   3.904   0.051  1.00  0.00     0.223 C 
BRANCH   7   8
ATOM      8  C   UNL     1      -1.625   2.434  -0.192  1.00  0.00     0.070 A 
ATOM      9  N   UNL     1      -0.723   1.398  -0.028  1.00  0.00    -0.330 N 
ATOM     10  C   UNL     1      -1.455   0.237  -0.068  1.00  0.00     0.199 A 
ATOM     11  N   UNL     1      -2.672   0.440  -0.505  1.00  0.00    -0.245 NA
ATOM     12  C   UNL     1      -2.763   1.788  -0.653  1.00  0.00     0.137 A 
BRANCH   9  13
ATOM     13  C   UNL     1       0.738   1.477   0.035  1.00  0.00     0.082 C 
ATOM     14  C   UNL     1       1.414   0.099   0.130  1.00  0.00     0.031 C 
ATOM     15  C   UNL     1       1.311   2.183  -1.203  1.00  0.00     0.031 C 
ENDBRANCH   9  13
ENDBRANCH   7   8
BRANCH   7  16
ATOM     16  N   UNL     1      -1.949   4.582  -1.100  1.00  0.00    -0.304 N 
ATOM     17  C   UNL     1      -2.365   5.862  -1.192  1.00  0.00     0.408 C 
ATOM     18  H   UNL     1      -2.043   4.039  -1.916  1.00  0.00     0.168 HD
ATOM     19  O   UNL     1      -2.596   6.361  -2.295  1.00  0.00    -0.225 OA
BRANCH  17  20
ATOM     20  O   UNL     1      -2.621   6.431   0.001  1.00  0.00    -0.444 OA
BRANCH  20  21
ATOM     21  C   UNL     1      -3.494   7.581   0.058  1.00  0.00     0.106 C 
ATOM     22  C   UNL     1      -2.804   8.804  -0.532  1.00  0.00     0.056 C 
ATOM     23  C   UNL     1      -4.814   7.282  -0.658  1.00  0.00     0.056 C 
ATOM     24  C   UNL     1      -3.770   7.833   1.552  1.00  0.00     0.056 C 
ENDBRANCH  20  21
ENDBRANCH  17  20
ENDBRANCH   7  16
ENDBRANCH   4   7
ENDBRANCH   2   3
ENDBRANCH   1   2
BRANCH   1  25
ATOM     25  C   UNL     1      -5.957   3.022   2.878  1.00  0.00     0.023 C 
BRANCH  25  26
ATOM     26  C   UNL     1      -7.106   4.012   2.712  1.00  0.00     0.116 C 
BRANCH  26  27
ATOM     27  N   UNL     1      -8.082   3.624   1.685  1.00  0.00    -0.352 N 
ATOM     28  C   UNL     1      -9.160   4.358   1.205  1.00  0.00     0.251 C 
ATOM     29  H   UNL     1      -7.957   2.732   1.287  1.00  0.00     0.163 HD
ATOM     30  O   UNL     1     -10.121   3.816   0.675  1.00  0.00    -0.269 OA
BRANCH  28  31
ATOM     31  C   UNL     1      -9.095   5.827   1.295  1.00  0.00     0.039 A 
ATOM     32  C   UNL     1     -10.180   6.653   1.605  1.00  0.00     0.014 A 
ATOM     33  C   UNL     1      -7.841   6.372   1.082  1.00  0.00     0.014 A 
ATOM     34  C   UNL     1      -9.960   8.029   1.739  1.00  0.00     0.010 A 
ATOM     35  C   UNL     1      -7.591   7.651   1.474  1.00  0.00     0.010 A 
ATOM     36  C   UNL     1      -8.650   8.518   1.664  1.00  0.00    -0.014 A 
BRANCH  36  37
ATOM     37  C   UNL     1      -8.265   9.902   1.903  1.00  0.00     0.031 A 
ATOM     38  C   UNL     1      -8.594  10.389   3.260  1.00  0.00     0.074 A 
ATOM     39  C   UNL     1      -7.422  10.563   1.073  1.00  0.00     0.049 A 
ATOM     40  N   UNL     1      -9.421  11.334   3.554  1.00  0.00    -0.248 NA
ATOM     41  C   UNL     1      -8.078   9.659   4.428  1.00  0.00     0.031 C 
ATOM     42  C   UNL     1      -6.837  10.107  -0.191  1.00  0.00     0.029 A 
ATOM     43  N   UNL     1      -6.821  11.774   1.240  1.00  0.00    -0.354 N 
ATOM     44  C   UNL     1      -9.366  11.468   4.935  1.00  0.00     0.074 A 
ATOM     45  C   UNL     1      -8.703  10.290   5.425  1.00  0.00     0.031 C 
ATOM     46  C   UNL     1      -5.797  10.900  -0.539  1.00  0.00     0.029 A 
ATOM     47  C   UNL     1      -5.758  12.027   0.368  1.00  0.00     0.049 A 
ATOM     48  H   UNL     1      -7.112  12.421   1.923  1.00  0.00     0.167 HD
ATOM     49  C   UNL     1      -9.619  12.675   5.513  1.00  0.00     0.037 A 
ATOM     50  C   UNL     1      -4.938  13.112   0.375  1.00  0.00     0.037 A 
ATOM     51  C   UNL     1     -10.304  13.550   4.587  1.00  0.00     0.049 A 
ATOM     52  C   UNL     1      -5.671  14.190   1.076  1.00  0.00     0.074 A 
ATOM     53  C   UNL     1     -11.501  13.488   3.899  1.00  0.00     0.029 A 
ATOM     54  N   UNL     1      -9.560  14.506   3.938  1.00  0.00    -0.354 N 
ATOM     55  N   UNL     1      -6.761  14.726   0.601  1.00  0.00    -0.248 NA
ATOM     56  C   UNL     1      -5.490  14.285   2.515  1.00  0.00     0.031 C 
ATOM     57  C   UNL     1     -11.214  14.027   2.607  1.00  0.00     0.029 A 
ATOM     58  C   UNL     1      -9.891  14.465   2.607  1.00  0.00     0.049 A 
ATOM     59  H   UNL     1      -8.906  15.112   4.354  1.00  0.00     0.167 HD
ATOM     60  C   UNL     1      -7.604  14.824   1.697  1.00  0.00     0.074 A 
ATOM     61  C   UNL     1      -6.744  14.593   2.860  1.00  0.00     0.031 C 
ATOM     62  C   UNL     1      -8.960  14.770   1.546  1.00  0.00     0.037 A 
BRANCH  49  63
ATOM     63  C   UNL     1      -8.894  13.203   6.730  1.00  0.00     0.064 A 
ATOM     64  C   UNL     1      -9.289  14.450   7.257  1.00  0.00     0.173 A 
ATOM     65  C   UNL     1      -7.658  12.713   7.205  1.00  0.00     0.173 A 
ATOM     66  F   UNL     1     -10.447  15.015   6.882  1.00  0.00    -0.203 F 
ATOM     67  C   UNL     1      -8.460  15.193   8.101  1.00  0.00     0.198 A 
ATOM     68  C   UNL     1      -6.857  13.434   8.088  1.00  0.00     0.198 A 
ATOM     69  F   UNL     1      -7.112  11.576   6.761  1.00  0.00    -0.203 F 
ATOM     70  F   UNL     1      -8.818  16.433   8.459  1.00  0.00    -0.200 F 
ATOM     71  C   UNL     1      -7.238  14.690   8.505  1.00  0.00     0.200 A 
ATOM     72  F   UNL     1      -5.670  12.932   8.457  1.00  0.00    -0.200 F 
ATOM     73  F   UNL     1      -6.409  15.429   9.252  1.00  0.00    -0.200 F 
ENDBRANCH  49  63
BRANCH  50  74
ATOM     74  C   UNL     1      -3.465  13.155   0.193  1.00  0.00     0.064 A 
ATOM     75  C   UNL     1      -2.789  14.316  -0.212  1.00  0.00     0.173 A 
ATOM     76  C   UNL     1      -2.661  12.121   0.706  1.00  0.00     0.173 A 
ATOM     77  F   UNL     1      -3.484  15.393  -0.607  1.00  0.00    -0.203 F 
ATOM     78  C   UNL     1      -1.391  14.417  -0.144  1.00  0.00     0.198 A 
ATOM     79  C   UNL     1      -1.266  12.204   0.740  1.00  0.00     0.198 A 
ATOM     80  F   UNL     1      -3.230  11.060   1.296  1.00  0.00    -0.203 F 
ATOM     81  F   UNL     1      -0.785  15.566  -0.475  1.00  0.00    -0.200 F 
ATOM     82  C   UNL     1      -0.630  13.356   0.320  1.00  0.00     0.200 A 
ATOM     83  F   UNL     1      -0.551  11.188   1.245  1.00  0.00    -0.200 F 
ATOM     84  F   UNL     1       0.702  13.464   0.418  1.00  0.00    -0.200 F 
ENDBRANCH  50  74
BRANCH  62  85
ATOM     85  C   UNL     1      -9.516  14.818   0.145  1.00  0.00     0.064 A 
ATOM     86  C   UNL     1      -9.327  13.810  -0.819  1.00  0.00     0.173 A 
ATOM     87  C   UNL     1     -10.401  15.851  -0.182  1.00  0.00     0.173 A 
ATOM     88  F   UNL     1      -8.573  12.739  -0.557  1.00  0.00    -0.203 F 
ATOM     89  C   UNL     1      -9.966  13.854  -2.059  1.00  0.00     0.198 A 
ATOM     90  C   UNL     1     -11.063  15.878  -1.407  1.00  0.00     0.198 A 
ATOM     91  F   UNL     1     -10.665  16.813   0.716  1.00  0.00    -0.203 F 
ATOM     92  F   UNL     1      -9.763  12.878  -2.957  1.00  0.00    -0.200 F 
ATOM     93  C   UNL     1     -10.840  14.886  -2.348  1.00  0.00     0.200 A 
ATOM     94  F   UNL     1     -11.945  16.854  -1.663  1.00  0.00    -0.200 F 
ATOM     95  F   UNL     1     -11.489  14.911  -3.521  1.00  0.00    -0.200 F 
ENDBRANCH  62  85
ENDBRANCH  36  37
ENDBRANCH  28  31
ENDBRANCH  26  27
ENDBRANCH  25  26
ENDBRANCH   1  25
TORSDOF 16
