REMARK SMILES CNc1cc(-c2cncc(SCC(=O)NCCCCNC(=O)c3ccc(-c4c5nc(c(-c6c(F)c(F)c(F)c(F)c6F)c6ccc([nH]6)c(-c6c(F)c(F)c(F)c(F)c6F)c6nc(c(-c7c(F)c(F)c(F)c(F)c7F)c7ccc4[nH]7)C=C6)C=C5)cc3)n2)c2cc[nH]c2n1
REMARK SMILES IDX 16 1 15 2 13 3 14 4 12 6 11 7 10 8 6 9 7 10 86 11 8 12 9 13
REMARK SMILES IDX 5 14 3 15 4 16 92 17 91 18 87 19 90 20 88 21 89 22 2 24 1 25
REMARK SMILES IDX 17 27 18 28 19 29 20 30 21 31 22 33 23 34 24 35 85 36 25 37
REMARK SMILES IDX 84 38 26 39 27 40 28 41 78 42 29 43 83 44 77 45 79 46 30 47
REMARK SMILES IDX 82 48 76 49 75 50 31 52 63 53 43 54 62 55 44 56 47 57 61 58
REMARK SMILES IDX 80 59 45 60 46 61 60 63 81 64 48 65 32 66 33 67 41 68 34 69
REMARK SMILES IDX 35 70 39 71 42 72 36 73 37 74 40 75 38 76 64 77 65 78 73 79
REMARK SMILES IDX 66 80 67 81 71 82 74 83 68 84 69 85 72 86 70 87 49 88 50 89
REMARK SMILES IDX 58 90 51 91 52 92 56 93 59 94 53 95 54 96 57 97 55 98
REMARK H PARENT 15 5 90 23 2 26 20 32 79 51 47 62
REMARK Flexibility Score: inf
ROOT
ATOM      1  C   UNL     1      -5.303  -8.625  -0.734  1.00  0.00     0.116 C 
ENDROOT
BRANCH   1   2
ATOM      2  N   UNL     1      -4.144  -8.017  -1.355  1.00  0.00    -0.355 N 
ATOM      3  C   UNL     1      -3.097  -7.340  -0.803  1.00  0.00     0.230 C 
ATOM      4  O   UNL     1      -2.188  -7.015  -1.572  1.00  0.00    -0.274 OA
ATOM      5  H   UNL     1      -4.106  -8.106  -2.335  1.00  0.00     0.163 HD
BRANCH   3   6
ATOM      6  C   UNL     1      -2.966  -7.140   0.696  1.00  0.00     0.176 C 
BRANCH   6   7
ATOM      7  S   UNL     1      -4.357  -6.293   1.503  1.00  0.00    -0.095 SA
BRANCH   7   8
ATOM      8  C   UNL     1      -4.358  -4.703   0.710  1.00  0.00     0.116 A 
ATOM      9  C   UNL     1      -3.377  -3.097  -0.618  1.00  0.00     0.091 A 
ATOM     10  C   UNL     1      -4.463  -2.254  -0.381  1.00  0.00     0.140 A 
ATOM     11  N   UNL     1      -3.316  -4.340  -0.067  1.00  0.00    -0.238 NA
ATOM     12  N   UNL     1      -5.514  -2.602   0.396  1.00  0.00    -0.260 NA
ATOM     13  C   UNL     1      -5.430  -3.841   0.935  1.00  0.00     0.146 A 
BRANCH   9  14
ATOM     14  C   UNL     1      -2.246  -2.670  -1.429  1.00  0.00     0.016 A 
ATOM     15  C   UNL     1      -0.344  -1.213  -1.858  1.00  0.00     0.128 A 
ATOM     16  C   UNL     1      -1.391  -1.624  -1.036  1.00  0.00     0.058 A 
ATOM     17  N   UNL     1      -0.112  -1.737  -3.073  1.00  0.00    -0.213 NA
ATOM     18  C   UNL     1      -0.927  -2.749  -3.410  1.00  0.00     0.140 A 
ATOM     19  C   UNL     1      -1.982  -3.271  -2.673  1.00  0.00     0.028 A 
ATOM     20  N   UNL     1      -0.830  -3.452  -4.578  1.00  0.00    -0.346 N 
ATOM     21  C   UNL     1      -2.532  -4.327  -3.456  1.00  0.00     0.030 A 
ATOM     22  C   UNL     1      -1.800  -4.419  -4.621  1.00  0.00     0.085 A 
ATOM     23  H   UNL     1      -0.163  -3.289  -5.283  1.00  0.00     0.167 HD
BRANCH  15  24
ATOM     24  N   UNL     1       0.547  -0.232  -1.490  1.00  0.00    -0.373 N 
ATOM     25  C   UNL     1       0.934   0.014  -0.125  1.00  0.00     0.141 C 
ATOM     26  H   UNL     1       0.942   0.330  -2.196  1.00  0.00     0.161 HD
ENDBRANCH  15  24
ENDBRANCH   9  14
ENDBRANCH   7   8
ENDBRANCH   6   7
ENDBRANCH   3   6
ENDBRANCH   1   2
BRANCH   1  27
ATOM     27  C   UNL     1      -6.582  -7.854  -1.061  1.00  0.00     0.023 C 
BRANCH  27  28
ATOM     28  C   UNL     1      -6.965  -7.852  -2.545  1.00  0.00     0.023 C 
BRANCH  28  29
ATOM     29  C   UNL     1      -7.147  -9.229  -3.174  1.00  0.00     0.116 C 
BRANCH  29  30
ATOM     30  N   UNL     1      -8.194 -10.010  -2.535  1.00  0.00    -0.352 N 
ATOM     31  C   UNL     1      -9.216 -10.727  -3.107  1.00  0.00     0.251 C 
ATOM     32  H   UNL     1      -8.166 -10.028  -1.551  1.00  0.00     0.163 HD
ATOM     33  O   UNL     1     -10.096 -11.215  -2.403  1.00  0.00    -0.269 OA
BRANCH  31  34
ATOM     34  C   UNL     1      -9.278 -10.886  -4.576  1.00  0.00     0.039 A 
ATOM     35  C   UNL     1     -10.501 -10.692  -5.223  1.00  0.00     0.014 A 
ATOM     36  C   UNL     1      -8.139 -11.215  -5.315  1.00  0.00     0.014 A 
ATOM     37  C   UNL     1     -10.566 -10.759  -6.617  1.00  0.00     0.010 A 
ATOM     38  C   UNL     1      -8.189 -11.206  -6.707  1.00  0.00     0.010 A 
ATOM     39  C   UNL     1      -9.403 -10.976  -7.373  1.00  0.00    -0.014 A 
BRANCH  39  40
ATOM     40  C   UNL     1      -9.435 -10.951  -8.858  1.00  0.00     0.031 A 
ATOM     41  C   UNL     1      -9.083 -12.182  -9.647  1.00  0.00     0.074 A 
ATOM     42  C   UNL     1      -9.716  -9.799  -9.499  1.00  0.00     0.049 A 
ATOM     43  N   UNL     1      -8.988 -12.336 -10.944  1.00  0.00    -0.248 NA
ATOM     44  C   UNL     1      -8.771 -13.395  -8.875  1.00  0.00     0.031 C 
ATOM     45  C   UNL     1     -10.026  -8.525  -8.849  1.00  0.00     0.029 A 
ATOM     46  N   UNL     1      -9.775  -9.510 -10.840  1.00  0.00    -0.354 N 
ATOM     47  C   UNL     1      -8.592 -13.653 -11.140  1.00  0.00     0.074 A 
ATOM     48  C   UNL     1      -8.413 -14.240  -9.830  1.00  0.00     0.031 C 
ATOM     49  C   UNL     1     -10.262  -7.597  -9.790  1.00  0.00     0.029 A 
ATOM     50  C   UNL     1     -10.078  -8.197 -11.108  1.00  0.00     0.049 A 
ATOM     51  H   UNL     1      -9.614 -10.180 -11.543  1.00  0.00     0.167 HD
ATOM     52  C   UNL     1      -8.415 -14.317 -12.307  1.00  0.00     0.037 A 
ATOM     53  C   UNL     1     -10.183  -7.546 -12.283  1.00  0.00     0.037 A 
ATOM     54  C   UNL     1      -8.615 -13.734 -13.609  1.00  0.00     0.049 A 
ATOM     55  C   UNL     1      -9.971  -8.305 -13.565  1.00  0.00     0.074 A 
ATOM     56  C   UNL     1      -8.525 -14.343 -14.849  1.00  0.00     0.029 A 
ATOM     57  N   UNL     1      -8.937 -12.405 -13.840  1.00  0.00    -0.354 N 
ATOM     58  N   UNL     1      -9.671  -9.569 -13.739  1.00  0.00    -0.248 NA
ATOM     59  C   UNL     1     -10.119  -7.547 -14.815  1.00  0.00     0.031 C 
ATOM     60  C   UNL     1      -8.733 -13.370 -15.831  1.00  0.00     0.029 A 
ATOM     61  C   UNL     1      -9.019 -12.168 -15.204  1.00  0.00     0.049 A 
ATOM     62  H   UNL     1      -9.085 -11.729 -13.139  1.00  0.00     0.167 HD
ATOM     63  C   UNL     1      -9.624  -9.765 -15.113  1.00  0.00     0.074 A 
ATOM     64  C   UNL     1      -9.943  -8.493 -15.727  1.00  0.00     0.031 C 
ATOM     65  C   UNL     1      -9.343 -10.898 -15.803  1.00  0.00     0.037 A 
BRANCH  52  66
ATOM     66  C   UNL     1      -7.981 -15.753 -12.234  1.00  0.00     0.064 A 
ATOM     67  C   UNL     1      -8.831 -16.759 -11.749  1.00  0.00     0.173 A 
ATOM     68  C   UNL     1      -6.713 -16.137 -12.698  1.00  0.00     0.173 A 
ATOM     69  F   UNL     1     -10.050 -16.447 -11.285  1.00  0.00    -0.203 F 
ATOM     70  C   UNL     1      -8.418 -18.088 -11.703  1.00  0.00     0.198 A 
ATOM     71  C   UNL     1      -6.315 -17.471 -12.682  1.00  0.00     0.198 A 
ATOM     72  F   UNL     1      -5.861 -15.218 -13.178  1.00  0.00    -0.203 F 
ATOM     73  F   UNL     1      -9.229 -19.022 -11.188  1.00  0.00    -0.200 F 
ATOM     74  C   UNL     1      -7.164 -18.444 -12.177  1.00  0.00     0.200 A 
ATOM     75  F   UNL     1      -5.110 -17.815 -13.155  1.00  0.00    -0.200 F 
ATOM     76  F   UNL     1      -6.772 -19.725 -12.142  1.00  0.00    -0.200 F 
ENDBRANCH  52  66
BRANCH  53  77
ATOM     77  C   UNL     1     -10.521  -6.098 -12.301  1.00  0.00     0.064 A 
ATOM     78  C   UNL     1     -11.753  -5.650 -12.797  1.00  0.00     0.173 A 
ATOM     79  C   UNL     1      -9.618  -5.132 -11.831  1.00  0.00     0.173 A 
ATOM     80  F   UNL     1     -12.642  -6.532 -13.277  1.00  0.00    -0.203 F 
ATOM     81  C   UNL     1     -12.061  -4.291 -12.844  1.00  0.00     0.198 A 
ATOM     82  C   UNL     1      -9.940  -3.776 -11.849  1.00  0.00     0.198 A 
ATOM     83  F   UNL     1      -8.427  -5.507 -11.342  1.00  0.00    -0.203 F 
ATOM     84  F   UNL     1     -13.225  -3.888 -13.370  1.00  0.00    -0.200 F 
ATOM     85  C   UNL     1     -11.156  -3.356 -12.364  1.00  0.00     0.200 A 
ATOM     86  F   UNL     1      -9.069  -2.878 -11.369  1.00  0.00    -0.200 F 
ATOM     87  F   UNL     1     -11.454  -2.051 -12.405  1.00  0.00    -0.200 F 
ENDBRANCH  53  77
BRANCH  65  88
ATOM     88  C   UNL     1      -9.405 -10.827 -17.303  1.00  0.00     0.064 A 
ATOM     89  C   UNL     1      -8.449 -10.124 -18.050  1.00  0.00     0.173 A 
ATOM     90  C   UNL     1     -10.412 -11.510 -18.003  1.00  0.00     0.173 A 
ATOM     91  F   UNL     1      -7.474  -9.442 -17.430  1.00  0.00    -0.203 F 
ATOM     92  C   UNL     1      -8.516 -10.083 -19.441  1.00  0.00     0.198 A 
ATOM     93  C   UNL     1     -10.455 -11.496 -19.394  1.00  0.00     0.198 A 
ATOM     94  F   UNL     1     -11.346 -12.205 -17.337  1.00  0.00    -0.203 F 
ATOM     95  F   UNL     1      -7.622  -9.361 -20.131  1.00  0.00    -0.200 F 
ATOM     96  C   UNL     1      -9.513 -10.776 -20.111  1.00  0.00     0.200 A 
ATOM     97  F   UNL     1     -11.409 -12.180 -20.040  1.00  0.00    -0.200 F 
ATOM     98  F   UNL     1      -9.569 -10.743 -21.450  1.00  0.00    -0.200 F 
ENDBRANCH  65  88
ENDBRANCH  39  40
ENDBRANCH  31  34
ENDBRANCH  29  30
ENDBRANCH  28  29
ENDBRANCH  27  28
ENDBRANCH   1  27
TORSDOF 15
