REMARK SMILES CN1N=C(CC(=O)NCCCCNC(=O)c2ccc(-c3c4nc(c(-c5c(F)c(F)c(F)c(F)c5F)c5ccc([nH]5)c(-c5c(F)c(F)c(F)c(F)c5F)c5nc(c(-c6c(F)c(F)c(F)c(F)c6F)c6ccc3[nH]6)C=C5)C=C4)cc2)CC1=O
REMARK SMILES IDX 11 1 10 2 9 3 8 4 6 5 7 6 5 8 4 9 1 10 2 11 3 12 80 13 79 14
REMARK SMILES IDX 81 15 12 16 13 17 14 18 15 20 16 21 17 22 78 23 18 24 77 25
REMARK SMILES IDX 19 26 20 27 21 28 71 29 22 30 76 31 70 32 72 33 23 34 75 35
REMARK SMILES IDX 69 36 68 37 24 39 56 40 36 41 55 42 37 43 40 44 54 45 73 46
REMARK SMILES IDX 38 47 39 48 53 50 74 51 41 52 25 53 26 54 34 55 27 56 28 57
REMARK SMILES IDX 32 58 35 59 29 60 30 61 33 62 31 63 57 64 58 65 66 66 59 67
REMARK SMILES IDX 60 68 64 69 67 70 61 71 62 72 65 73 63 74 42 75 43 76 51 77
REMARK SMILES IDX 44 78 45 79 49 80 52 81 46 82 47 83 50 84 48 85
REMARK H PARENT 8 7 13 19 72 38 40 49
REMARK Flexibility Score: inf
ROOT
ATOM      1  C   UNL     1       5.032   0.257   3.841  1.00  0.00     0.023 C 
ENDROOT
BRANCH   1   2
ATOM      2  C   UNL     1       3.712  -0.516   3.872  1.00  0.00     0.023 C 
BRANCH   2   3
ATOM      3  C   UNL     1       2.956  -0.421   5.196  1.00  0.00     0.116 C 
BRANCH   3   4
ATOM      4  N   UNL     1       2.431   0.909   5.422  1.00  0.00    -0.356 N 
ATOM      5  C   UNL     1       1.163   1.375   5.226  1.00  0.00     0.225 C 
ATOM      6  O   UNL     1       0.927   2.557   5.477  1.00  0.00    -0.275 OA
ATOM      7  H   UNL     1       3.077   1.568   5.765  1.00  0.00     0.163 HD
BRANCH   5   8
ATOM      8  C   UNL     1       0.074   0.423   4.804  1.00  0.00     0.153 C 
BRANCH   8   9
ATOM      9  C   UNL     1       0.231  -0.147   3.435  1.00  0.00     0.057 C 
ATOM     10  C   UNL     1       0.877   0.085  -0.001  1.00  0.00     0.177 C 
ATOM     11  N   UNL     1       0.545  -0.349   1.331  1.00  0.00    -0.237 N 
ATOM     12  N   UNL     1       0.493   0.549   2.372  1.00  0.00    -0.179 NA
ATOM     13  C   UNL     1       0.319  -1.671   1.698  1.00  0.00     0.248 C 
ATOM     14  C   UNL     1       0.068  -1.617   3.172  1.00  0.00     0.156 C 
ATOM     15  O   UNL     1       0.337  -2.675   1.006  1.00  0.00    -0.273 OA
ENDBRANCH   8   9
ENDBRANCH   5   8
ENDBRANCH   3   4
ENDBRANCH   2   3
ENDBRANCH   1   2
BRANCH   1  16
ATOM     16  C   UNL     1       6.034  -0.140   4.917  1.00  0.00     0.116 C 
BRANCH  16  17
ATOM     17  N   UNL     1       6.412  -1.544   4.854  1.00  0.00    -0.352 N 
ATOM     18  C   UNL     1       7.658  -2.105   4.994  1.00  0.00     0.251 C 
ATOM     19  H   UNL     1       5.676  -2.176   4.688  1.00  0.00     0.163 HD
ATOM     20  O   UNL     1       7.829  -3.300   4.781  1.00  0.00    -0.269 OA
BRANCH  18  21
ATOM     21  C   UNL     1       8.801  -1.248   5.371  1.00  0.00     0.039 A 
ATOM     22  C   UNL     1       9.993  -1.356   4.651  1.00  0.00     0.014 A 
ATOM     23  C   UNL     1       8.686  -0.321   6.410  1.00  0.00     0.014 A 
ATOM     24  C   UNL     1      11.049  -0.487   4.931  1.00  0.00     0.010 A 
ATOM     25  C   UNL     1       9.706   0.598   6.630  1.00  0.00     0.010 A 
ATOM     26  C   UNL     1      10.900   0.521   5.897  1.00  0.00    -0.014 A 
BRANCH  26  27
ATOM     27  C   UNL     1      11.983   1.502   6.161  1.00  0.00     0.031 A 
ATOM     28  C   UNL     1      12.637   1.559   7.513  1.00  0.00     0.074 A 
ATOM     29  C   UNL     1      12.334   2.383   5.205  1.00  0.00     0.049 A 
ATOM     30  N   UNL     1      13.558   2.377   7.956  1.00  0.00    -0.248 NA
ATOM     31  C   UNL     1      12.171   0.584   8.512  1.00  0.00     0.031 C 
ATOM     32  C   UNL     1      11.744   2.459   3.867  1.00  0.00     0.029 A 
ATOM     33  N   UNL     1      13.267   3.389   5.213  1.00  0.00    -0.354 N 
ATOM     34  C   UNL     1      13.766   2.027   9.284  1.00  0.00     0.074 A 
ATOM     35  C   UNL     1      12.835   0.965   9.592  1.00  0.00     0.031 C 
ATOM     36  C   UNL     1      12.351   3.434   3.174  1.00  0.00     0.029 A 
ATOM     37  C   UNL     1      13.340   4.083   4.030  1.00  0.00     0.049 A 
ATOM     38  H   UNL     1      13.831   3.595   5.994  1.00  0.00     0.167 HD
ATOM     39  C   UNL     1      14.669   2.531  10.159  1.00  0.00     0.037 A 
ATOM     40  C   UNL     1      14.114   5.127   3.678  1.00  0.00     0.037 A 
ATOM     41  C   UNL     1      15.606   3.577   9.840  1.00  0.00     0.049 A 
ATOM     42  C   UNL     1      15.094   5.684   4.676  1.00  0.00     0.074 A 
ATOM     43  C   UNL     1      16.606   4.111  10.633  1.00  0.00     0.029 A 
ATOM     44  N   UNL     1      15.650   4.256   8.630  1.00  0.00    -0.354 N 
ATOM     45  N   UNL     1      15.339   5.294   5.903  1.00  0.00    -0.248 NA
ATOM     46  C   UNL     1      15.908   6.825   4.235  1.00  0.00     0.031 C 
ATOM     47  C   UNL     1      17.209   5.158   9.929  1.00  0.00     0.029 A 
ATOM     48  C   UNL     1      16.636   5.229   8.669  1.00  0.00     0.049 A 
ATOM     49  H   UNL     1      15.066   4.074   7.859  1.00  0.00     0.167 HD
ATOM     50  C   UNL     1      16.358   6.115   6.369  1.00  0.00     0.074 A 
ATOM     51  C   UNL     1      16.692   7.018   5.286  1.00  0.00     0.031 C 
ATOM     52  C   UNL     1      16.964   6.118   7.582  1.00  0.00     0.037 A 
BRANCH  39  53
ATOM     53  C   UNL     1      14.675   1.965  11.552  1.00  0.00     0.064 A 
ATOM     54  C   UNL     1      15.060   0.640  11.813  1.00  0.00     0.173 A 
ATOM     55  C   UNL     1      14.306   2.764  12.645  1.00  0.00     0.173 A 
ATOM     56  F   UNL     1      15.413  -0.172  10.806  1.00  0.00    -0.203 F 
ATOM     57  C   UNL     1      15.032   0.126  13.107  1.00  0.00     0.198 A 
ATOM     58  C   UNL     1      14.316   2.258  13.942  1.00  0.00     0.198 A 
ATOM     59  F   UNL     1      13.936   4.040  12.456  1.00  0.00    -0.203 F 
ATOM     60  F   UNL     1      15.338  -1.161  13.322  1.00  0.00    -0.200 F 
ATOM     61  C   UNL     1      14.666   0.937  14.171  1.00  0.00     0.200 A 
ATOM     62  F   UNL     1      13.978   3.048  14.970  1.00  0.00    -0.200 F 
ATOM     63  F   UNL     1      14.642   0.441  15.416  1.00  0.00    -0.200 F 
ENDBRANCH  39  53
BRANCH  40  64
ATOM     64  C   UNL     1      14.018   5.693   2.306  1.00  0.00     0.064 A 
ATOM     65  C   UNL     1      15.075   5.550   1.395  1.00  0.00     0.173 A 
ATOM     66  C   UNL     1      12.876   6.383   1.875  1.00  0.00     0.173 A 
ATOM     67  F   UNL     1      16.197   4.916   1.767  1.00  0.00    -0.203 F 
ATOM     68  C   UNL     1      15.002   6.093   0.114  1.00  0.00     0.198 A 
ATOM     69  C   UNL     1      12.791   6.898   0.583  1.00  0.00     0.198 A 
ATOM     70  F   UNL     1      11.835   6.543   2.704  1.00  0.00    -0.203 F 
ATOM     71  F   UNL     1      16.045   5.982  -0.719  1.00  0.00    -0.200 F 
ATOM     72  C   UNL     1      13.857   6.761  -0.293  1.00  0.00     0.200 A 
ATOM     73  F   UNL     1      11.677   7.529   0.187  1.00  0.00    -0.200 F 
ATOM     74  F   UNL     1      13.784   7.277  -1.528  1.00  0.00    -0.200 F 
ENDBRANCH  40  64
BRANCH  52  75
ATOM     75  C   UNL     1      18.086   7.096   7.793  1.00  0.00     0.064 A 
ATOM     76  C   UNL     1      17.859   8.477   7.884  1.00  0.00     0.173 A 
ATOM     77  C   UNL     1      19.404   6.638   7.946  1.00  0.00     0.173 A 
ATOM     78  F   UNL     1      16.620   8.970   7.731  1.00  0.00    -0.203 F 
ATOM     79  C   UNL     1      18.913   9.364   8.091  1.00  0.00     0.198 A 
ATOM     80  C   UNL     1      20.449   7.523   8.189  1.00  0.00     0.198 A 
ATOM     81  F   UNL     1      19.677   5.326   7.875  1.00  0.00    -0.203 F 
ATOM     82  F   UNL     1      18.680  10.684   8.120  1.00  0.00    -0.200 F 
ATOM     83  C   UNL     1      20.205   8.886   8.252  1.00  0.00     0.200 A 
ATOM     84  F   UNL     1      21.694   7.057   8.363  1.00  0.00    -0.200 F 
ATOM     85  F   UNL     1      21.216   9.741   8.462  1.00  0.00    -0.200 F 
ENDBRANCH  52  75
ENDBRANCH  26  27
ENDBRANCH  18  21
ENDBRANCH  16  17
ENDBRANCH   1  16
TORSDOF 12
