REMARK SMILES C[C@@H](C(=O)NCCCCNC(=O)c1ccc(-c2c3nc(c(-c4c(F)c(F)c(F)c(F)c4F)c4ccc([nH]4)c(-c4c(F)c(F)c(F)c(F)c4F)c4nc(c(-c5c(F)c(F)c(F)c(F)c5F)c5ccc2[nH]5)C=C4)C=C3)cc1)c1ccc(Cc2cccs2)cc1F
REMARK SMILES IDX 7 1 6 2 5 3 3 4 4 5 2 7 1 8 76 9 77 10 87 11 78 12 86 13
REMARK SMILES IDX 88 14 79 15 80 16 81 17 82 18 85 19 83 20 84 21 8 22 9 23
REMARK SMILES IDX 10 24 11 25 12 27 13 28 14 29 75 30 15 31 74 32 16 33 17 34
REMARK SMILES IDX 18 35 68 36 19 37 73 38 67 39 69 40 20 41 72 42 66 43 65 44
REMARK SMILES IDX 21 46 53 47 33 48 52 49 34 50 37 51 51 52 70 53 35 54 36 55
REMARK SMILES IDX 50 57 71 58 38 59 22 60 23 61 31 62 24 63 25 64 29 65 32 66
REMARK SMILES IDX 26 67 27 68 30 69 28 70 54 71 55 72 63 73 56 74 57 75 61 76
REMARK SMILES IDX 64 77 58 78 59 79 62 80 60 81 39 82 40 83 48 84 41 85 42 86
REMARK SMILES IDX 46 87 49 88 43 89 44 90 47 91 45 92
REMARK H PARENT 5 6 10 26 69 45 37 56
REMARK Flexibility Score: inf
ROOT
ATOM      1  C   UNL     1       4.355   0.975  -0.604  1.00  0.00     0.023 C 
ENDROOT
BRANCH   1   2
ATOM      2  C   UNL     1       3.459   1.801   0.326  1.00  0.00     0.116 C 
BRANCH   2   3
ATOM      3  N   UNL     1       2.404   2.463  -0.417  1.00  0.00    -0.356 N 
ATOM      4  C   UNL     1       1.088   2.123  -0.569  1.00  0.00     0.227 C 
ATOM      5  O   UNL     1       0.467   2.724  -1.448  1.00  0.00    -0.274 OA
ATOM      6  H   UNL     1       2.677   3.286  -0.884  1.00  0.00     0.163 HD
BRANCH   4   7
ATOM      7  C   UNL     1       0.453   1.053   0.345  1.00  0.00     0.108 C 
ATOM      8  C   UNL     1       0.897  -0.324  -0.164  1.00  0.00     0.023 C 
BRANCH   7   9
ATOM      9  C   UNL     1      -1.067   1.194   0.498  1.00  0.00    -0.000 A 
ATOM     10  C   UNL     1      -1.665   2.466   0.543  1.00  0.00     0.008 A 
ATOM     11  C   UNL     1      -1.925   0.093   0.640  1.00  0.00     0.127 A 
ATOM     12  C   UNL     1      -3.056   2.617   0.607  1.00  0.00     0.004 A 
ATOM     13  C   UNL     1      -3.311   0.236   0.727  1.00  0.00     0.043 A 
ATOM     14  F   UNL     1      -1.446  -1.157   0.692  1.00  0.00    -0.207 F 
ATOM     15  C   UNL     1      -3.897   1.501   0.679  1.00  0.00    -0.040 A 
BRANCH  15  16
ATOM     16  C   UNL     1      -5.401   1.653   0.678  1.00  0.00     0.082 C 
BRANCH  16  17
ATOM     17  C   UNL     1      -5.962   2.147   1.980  1.00  0.00     0.009 A 
ATOM     18  C   UNL     1      -5.908   3.423   2.509  1.00  0.00     0.016 A 
ATOM     19  S   UNL     1      -6.843   1.087   2.999  1.00  0.00    -0.149 S 
ATOM     20  C   UNL     1      -6.593   3.527   3.753  1.00  0.00     0.012 A 
ATOM     21  C   UNL     1      -7.158   2.330   4.129  1.00  0.00     0.065 A 
ENDBRANCH  16  17
ENDBRANCH  15  16
ENDBRANCH   7   9
ENDBRANCH   4   7
ENDBRANCH   2   3
ENDBRANCH   1   2
BRANCH   1  22
ATOM     22  C   UNL     1       5.135   1.787  -1.639  1.00  0.00     0.023 C 
BRANCH  22  23
ATOM     23  C   UNL     1       6.117   2.790  -1.055  1.00  0.00     0.116 C 
BRANCH  23  24
ATOM     24  N   UNL     1       7.157   2.164  -0.252  1.00  0.00    -0.352 N 
ATOM     25  C   UNL     1       8.501   2.453  -0.224  1.00  0.00     0.251 C 
ATOM     26  H   UNL     1       6.861   1.442   0.348  1.00  0.00     0.163 HD
ATOM     27  O   UNL     1       9.282   1.760   0.420  1.00  0.00    -0.269 OA
BRANCH  25  28
ATOM     28  C   UNL     1       8.997   3.595  -1.015  1.00  0.00     0.039 A 
ATOM     29  C   UNL     1      10.047   3.394  -1.915  1.00  0.00     0.014 A 
ATOM     30  C   UNL     1       8.373   4.840  -0.911  1.00  0.00     0.014 A 
ATOM     31  C   UNL     1      10.421   4.429  -2.774  1.00  0.00     0.010 A 
ATOM     32  C   UNL     1       8.701   5.844  -1.812  1.00  0.00     0.010 A 
ATOM     33  C   UNL     1       9.723   5.645  -2.755  1.00  0.00    -0.014 A 
BRANCH  33  34
ATOM     34  C   UNL     1      10.027   6.743  -3.704  1.00  0.00     0.031 A 
ATOM     35  C   UNL     1      10.521   8.057  -3.175  1.00  0.00     0.074 A 
ATOM     36  C   UNL     1       9.734   6.603  -5.010  1.00  0.00     0.049 A 
ATOM     37  N   UNL     1      10.653   9.204  -3.791  1.00  0.00    -0.248 NA
ATOM     38  C   UNL     1      10.874   8.094  -1.748  1.00  0.00     0.031 C 
ATOM     39  C   UNL     1       9.204   5.390  -5.633  1.00  0.00     0.029 A 
ATOM     40  N   UNL     1       9.806   7.505  -6.042  1.00  0.00    -0.354 N 
ATOM     41  C   UNL     1      11.062  10.105  -2.818  1.00  0.00     0.074 A 
ATOM     42  C   UNL     1      11.123   9.382  -1.567  1.00  0.00     0.031 C 
ATOM     43  C   UNL     1       8.995   5.623  -6.939  1.00  0.00     0.029 A 
ATOM     44  C   UNL     1       9.336   7.012  -7.234  1.00  0.00     0.049 A 
ATOM     45  H   UNL     1      10.161   8.417  -5.937  1.00  0.00     0.167 HD
ATOM     46  C   UNL     1      11.368  11.416  -2.961  1.00  0.00     0.037 A 
ATOM     47  C   UNL     1       9.176   7.620  -8.425  1.00  0.00     0.037 A 
ATOM     48  C   UNL     1      11.347  12.117  -4.217  1.00  0.00     0.049 A 
ATOM     49  C   UNL     1       9.558   9.066  -8.571  1.00  0.00     0.074 A 
ATOM     50  C   UNL     1      11.720  13.422  -4.485  1.00  0.00     0.029 A 
ATOM     51  N   UNL     1      10.929  11.564  -5.420  1.00  0.00    -0.354 N 
ATOM     52  N   UNL     1       9.999   9.899  -7.659  1.00  0.00    -0.248 NA
ATOM     53  C   UNL     1       9.424   9.658  -9.909  1.00  0.00     0.031 C 
ATOM     54  C   UNL     1      11.494  13.670  -5.843  1.00  0.00     0.029 A 
ATOM     55  C   UNL     1      11.020  12.507  -6.430  1.00  0.00     0.049 A 
ATOM     56  H   UNL     1      10.614  10.639  -5.537  1.00  0.00     0.167 HD
ATOM     57  C   UNL     1      10.219  11.102  -8.315  1.00  0.00     0.074 A 
ATOM     58  C   UNL     1       9.867  10.891  -9.704  1.00  0.00     0.031 C 
ATOM     59  C   UNL     1      10.675  12.274  -7.810  1.00  0.00     0.037 A 
BRANCH  46  60
ATOM     60  C   UNL     1      11.742  12.173  -1.721  1.00  0.00     0.064 A 
ATOM     61  C   UNL     1      12.948  11.933  -1.044  1.00  0.00     0.173 A 
ATOM     62  C   UNL     1      10.880  13.150  -1.201  1.00  0.00     0.173 A 
ATOM     63  F   UNL     1      13.799  10.999  -1.493  1.00  0.00    -0.203 F 
ATOM     64  C   UNL     1      13.257  12.614   0.131  1.00  0.00     0.198 A 
ATOM     65  C   UNL     1      11.208  13.851  -0.043  1.00  0.00     0.198 A 
ATOM     66  F   UNL     1       9.717  13.422  -1.812  1.00  0.00    -0.203 F 
ATOM     67  F   UNL     1      14.384  12.321   0.795  1.00  0.00    -0.200 F 
ATOM     68  C   UNL     1      12.389  13.574   0.628  1.00  0.00     0.200 A 
ATOM     69  F   UNL     1      10.373  14.786   0.431  1.00  0.00    -0.200 F 
ATOM     70  F   UNL     1      12.686  14.225   1.761  1.00  0.00    -0.200 F 
ENDBRANCH  46  60
BRANCH  47  71
ATOM     71  C   UNL     1       8.643   6.845  -9.573  1.00  0.00     0.064 A 
ATOM     72  C   UNL     1       9.487   6.436 -10.615  1.00  0.00     0.173 A 
ATOM     73  C   UNL     1       7.295   6.463  -9.634  1.00  0.00     0.173 A 
ATOM     74  F   UNL     1      10.779   6.794 -10.608  1.00  0.00    -0.203 F 
ATOM     75  C   UNL     1       9.001   5.679 -11.678  1.00  0.00     0.198 A 
ATOM     76  C   UNL     1       6.815   5.687 -10.686  1.00  0.00     0.198 A 
ATOM     77  F   UNL     1       6.451   6.824  -8.656  1.00  0.00    -0.203 F 
ATOM     78  F   UNL     1       9.823   5.322 -12.674  1.00  0.00    -0.200 F 
ATOM     79  C   UNL     1       7.667   5.298 -11.709  1.00  0.00     0.200 A 
ATOM     80  F   UNL     1       5.530   5.309 -10.706  1.00  0.00    -0.200 F 
ATOM     81  F   UNL     1       7.204   4.557 -12.725  1.00  0.00    -0.200 F 
ENDBRANCH  47  71
BRANCH  59  82
ATOM     82  C   UNL     1      10.860  13.413  -8.768  1.00  0.00     0.064 A 
ATOM     83  C   UNL     1       9.768  14.139  -9.264  1.00  0.00     0.173 A 
ATOM     84  C   UNL     1      12.149  13.823  -9.137  1.00  0.00     0.173 A 
ATOM     85  F   UNL     1       8.516  13.775  -8.950  1.00  0.00    -0.203 F 
ATOM     86  C   UNL     1       9.962  15.230 -10.107  1.00  0.00     0.198 A 
ATOM     87  C   UNL     1      12.340  14.929  -9.961  1.00  0.00     0.198 A 
ATOM     88  F   UNL     1      13.225  13.163  -8.683  1.00  0.00    -0.203 F 
ATOM     89  F   UNL     1       8.905  15.893 -10.595  1.00  0.00    -0.200 F 
ATOM     90  C   UNL     1      11.247  15.629 -10.447  1.00  0.00     0.200 A 
ATOM     91  F   UNL     1      13.582  15.320 -10.279  1.00  0.00    -0.200 F 
ATOM     92  F   UNL     1      11.431  16.688 -11.248  1.00  0.00    -0.200 F 
ENDBRANCH  59  82
ENDBRANCH  33  34
ENDBRANCH  25  28
ENDBRANCH  23  24
ENDBRANCH  22  23
ENDBRANCH   1  22
TORSDOF 14
