REMARK SMILES C[C@@H](C(=O)NCCCCNC(=O)c1ccc(-c2c3nc(c(-c4c(F)c(F)c(F)c(F)c4F)c4ccc([nH]4)c(-c4c(F)c(F)c(F)c(F)c4F)c4nc(c(-c5c(F)c(F)c(F)c(F)c5F)c5ccc2[nH]5)C=C4)C=C3)cc1)c1ccc2c3cc(Cl)ccc3n(C(=O)c3ccc(Cl)cc3)c2c1
REMARK SMILES IDX 7 1 6 2 5 3 3 4 4 5 2 7 1 8 76 9 77 10 98 11 78 12 97 13
REMARK SMILES IDX 79 14 87 15 80 16 86 17 81 18 85 19 82 20 84 21 83 22 88 23
REMARK SMILES IDX 89 24 90 25 91 26 96 27 92 28 95 29 93 30 94 31 8 32 9 33
REMARK SMILES IDX 10 34 11 35 12 37 13 38 14 39 75 40 15 41 74 42 16 43 17 44
REMARK SMILES IDX 18 45 68 46 19 47 73 48 67 49 69 50 20 51 72 52 66 53 65 54
REMARK SMILES IDX 21 56 53 57 33 58 52 59 34 60 37 61 51 62 70 63 35 64 36 65
REMARK SMILES IDX 50 67 71 68 38 69 22 70 23 71 31 72 24 73 25 74 29 75 32 76
REMARK SMILES IDX 26 77 27 78 30 79 28 80 54 81 55 82 63 83 56 84 57 85 61 86
REMARK SMILES IDX 64 87 58 88 59 89 62 90 60 91 39 92 40 93 48 94 41 95 42 96
REMARK SMILES IDX 46 97 49 98 43 99 44 100 47 101 45 102
REMARK H PARENT 5 6 10 36 69 55 37 66
REMARK Flexibility Score: inf
ROOT
ATOM      1  C   UNL     1       4.395   1.159   0.116  1.00  0.00     0.023 C 
ENDROOT
BRANCH   1   2
ATOM      2  C   UNL     1       3.631   1.105   1.442  1.00  0.00     0.116 C 
BRANCH   2   3
ATOM      3  N   UNL     1       2.707   2.214   1.543  1.00  0.00    -0.356 N 
ATOM      4  C   UNL     1       1.369   2.274   1.284  1.00  0.00     0.227 C 
ATOM      5  O   UNL     1       0.906   3.412   1.206  1.00  0.00    -0.274 OA
ATOM      6  H   UNL     1       3.108   3.060   1.848  1.00  0.00     0.163 HD
BRANCH   4   7
ATOM      7  C   UNL     1       0.563   0.973   1.143  1.00  0.00     0.105 C 
ATOM      8  C   UNL     1       0.836   0.265  -0.190  1.00  0.00     0.023 C 
BRANCH   7   9
ATOM      9  C   UNL     1      -0.958   1.066   1.291  1.00  0.00    -0.034 A 
ATOM     10  C   UNL     1      -1.701   2.204   0.986  1.00  0.00     0.005 A 
ATOM     11  C   UNL     1      -1.645  -0.120   1.622  1.00  0.00     0.032 A 
ATOM     12  C   UNL     1      -3.096   2.166   0.946  1.00  0.00     0.011 A 
ATOM     13  C   UNL     1      -3.055  -0.160   1.595  1.00  0.00     0.057 A 
ATOM     14  C   UNL     1      -3.776   0.964   1.212  1.00  0.00     0.008 A 
ATOM     15  N   UNL     1      -3.961  -1.208   1.846  1.00  0.00    -0.276 N 
ATOM     16  C   UNL     1      -5.144   0.607   1.189  1.00  0.00     0.009 A 
ATOM     17  C   UNL     1      -5.261  -0.697   1.690  1.00  0.00     0.057 A 
ATOM     18  C   UNL     1      -6.293   1.341   0.829  1.00  0.00     0.031 A 
ATOM     19  C   UNL     1      -6.536  -1.212   1.996  1.00  0.00     0.029 A 
ATOM     20  C   UNL     1      -7.548   0.798   1.068  1.00  0.00     0.041 A 
ATOM     21  C   UNL     1      -7.670  -0.446   1.674  1.00  0.00     0.023 A 
ATOM     22  Cl  UNL     1      -8.950   1.704   0.652  1.00  0.00    -0.084 Cl
BRANCH  15  23
ATOM     23  C   UNL     1      -3.541  -2.513   2.233  1.00  0.00     0.262 C 
ATOM     24  O   UNL     1      -2.430  -2.580   2.769  1.00  0.00    -0.268 OA
BRANCH  23  25
ATOM     25  C   UNL     1      -4.211  -3.836   2.049  1.00  0.00     0.040 A 
ATOM     26  C   UNL     1      -3.654  -4.927   2.753  1.00  0.00     0.015 A 
ATOM     27  C   UNL     1      -5.231  -4.095   1.129  1.00  0.00     0.015 A 
ATOM     28  C   UNL     1      -4.105  -6.234   2.558  1.00  0.00     0.021 A 
ATOM     29  C   UNL     1      -5.708  -5.407   0.957  1.00  0.00     0.021 A 
ATOM     30  C   UNL     1      -5.139  -6.468   1.663  1.00  0.00     0.041 A 
ATOM     31  Cl  UNL     1      -5.692  -8.076   1.405  1.00  0.00    -0.084 Cl
ENDBRANCH  23  25
ENDBRANCH  15  23
ENDBRANCH   7   9
ENDBRANCH   4   7
ENDBRANCH   2   3
ENDBRANCH   1   2
BRANCH   1  32
ATOM     32  C   UNL     1       5.158   2.463  -0.129  1.00  0.00     0.023 C 
BRANCH  32  33
ATOM     33  C   UNL     1       6.094   2.874   0.996  1.00  0.00     0.116 C 
BRANCH  33  34
ATOM     34  N   UNL     1       7.092   1.858   1.284  1.00  0.00    -0.352 N 
ATOM     35  C   UNL     1       8.449   1.999   1.443  1.00  0.00     0.251 C 
ATOM     36  H   UNL     1       6.748   0.940   1.377  1.00  0.00     0.163 HD
ATOM     37  O   UNL     1       9.169   1.016   1.522  1.00  0.00    -0.269 OA
BRANCH  35  38
ATOM     38  C   UNL     1       9.032   3.357   1.486  1.00  0.00     0.039 A 
ATOM     39  C   UNL     1      10.164   3.623   0.715  1.00  0.00     0.014 A 
ATOM     40  C   UNL     1       8.451   4.362   2.264  1.00  0.00     0.014 A 
ATOM     41  C   UNL     1      10.680   4.919   0.677  1.00  0.00     0.010 A 
ATOM     42  C   UNL     1       8.917   5.668   2.162  1.00  0.00     0.010 A 
ATOM     43  C   UNL     1      10.039   5.959   1.372  1.00  0.00    -0.014 A 
BRANCH  43  44
ATOM     44  C   UNL     1      10.531   7.356   1.281  1.00  0.00     0.031 A 
ATOM     45  C   UNL     1      11.044   8.057   2.507  1.00  0.00     0.074 A 
ATOM     46  C   UNL     1      10.462   8.010   0.105  1.00  0.00     0.049 A 
ATOM     47  N   UNL     1      11.466   9.289   2.641  1.00  0.00    -0.248 NA
ATOM     48  C   UNL     1      11.061   7.279   3.756  1.00  0.00     0.031 C 
ATOM     49  C   UNL     1       9.940   7.452  -1.143  1.00  0.00     0.029 A 
ATOM     50  N   UNL     1      10.825   9.290  -0.230  1.00  0.00    -0.354 N 
ATOM     51  C   UNL     1      11.787   9.434   3.984  1.00  0.00     0.074 A 
ATOM     52  C   UNL     1      11.455   8.187   4.636  1.00  0.00     0.031 C 
ATOM     53  C   UNL     1      10.040   8.375  -2.113  1.00  0.00     0.029 A 
ATOM     54  C   UNL     1      10.592   9.602  -1.547  1.00  0.00     0.049 A 
ATOM     55  H   UNL     1      11.216   9.925   0.413  1.00  0.00     0.167 HD
ATOM     56  C   UNL     1      12.333  10.504   4.611  1.00  0.00     0.037 A 
ATOM     57  C   UNL     1      10.792  10.751  -2.220  1.00  0.00     0.037 A 
ATOM     58  C   UNL     1      12.675  11.737   3.953  1.00  0.00     0.049 A 
ATOM     59  C   UNL     1      11.379  11.932  -1.493  1.00  0.00     0.074 A 
ATOM     60  C   UNL     1      13.286  12.859   4.487  1.00  0.00     0.029 A 
ATOM     61  N   UNL     1      12.429  12.015   2.616  1.00  0.00    -0.354 N 
ATOM     62  N   UNL     1      11.751  12.033  -0.240  1.00  0.00    -0.248 NA
ATOM     63  C   UNL     1      11.581  13.157  -2.279  1.00  0.00     0.031 C 
ATOM     64  C   UNL     1      13.356  13.835   3.489  1.00  0.00     0.029 A 
ATOM     65  C   UNL     1      12.848  13.301   2.315  1.00  0.00     0.049 A 
ATOM     66  H   UNL     1      12.018  11.390   1.976  1.00  0.00     0.167 HD
ATOM     67  C   UNL     1      12.255  13.318  -0.093  1.00  0.00     0.074 A 
ATOM     68  C   UNL     1      12.159  13.953  -1.391  1.00  0.00     0.031 C 
ATOM     69  C   UNL     1      12.751  13.919   1.016  1.00  0.00     0.037 A 
BRANCH  56  70
ATOM     70  C   UNL     1      12.592  10.387   6.086  1.00  0.00     0.064 A 
ATOM     71  C   UNL     1      13.578   9.527   6.596  1.00  0.00     0.173 A 
ATOM     72  C   UNL     1      11.871  11.171   7.000  1.00  0.00     0.173 A 
ATOM     73  F   UNL     1      14.288   8.747   5.768  1.00  0.00    -0.203 F 
ATOM     74  C   UNL     1      13.809   9.433   7.966  1.00  0.00     0.198 A 
ATOM     75  C   UNL     1      12.129  11.099   8.367  1.00  0.00     0.198 A 
ATOM     76  F   UNL     1      10.922  12.014   6.568  1.00  0.00    -0.203 F 
ATOM     77  F   UNL     1      14.717   8.565   8.432  1.00  0.00    -0.200 F 
ATOM     78  C   UNL     1      13.091  10.225   8.849  1.00  0.00     0.200 A 
ATOM     79  F   UNL     1      11.445  11.877   9.217  1.00  0.00    -0.200 F 
ATOM     80  F   UNL     1      13.321  10.140  10.167  1.00  0.00    -0.200 F 
ENDBRANCH  56  70
BRANCH  57  81
ATOM     81  C   UNL     1      10.450  10.838  -3.664  1.00  0.00     0.064 A 
ATOM     82  C   UNL     1      11.452  10.978  -4.635  1.00  0.00     0.173 A 
ATOM     83  C   UNL     1       9.119  10.794  -4.104  1.00  0.00     0.173 A 
ATOM     84  F   UNL     1      12.739  11.045  -4.263  1.00  0.00    -0.203 F 
ATOM     85  C   UNL     1      11.135  11.096  -5.987  1.00  0.00     0.198 A 
ATOM     86  C   UNL     1       8.805  10.879  -5.459  1.00  0.00     0.198 A 
ATOM     87  F   UNL     1       8.123  10.655  -3.218  1.00  0.00    -0.203 F 
ATOM     88  F   UNL     1      12.110  11.282  -6.887  1.00  0.00    -0.200 F 
ATOM     89  C   UNL     1       9.812  11.041  -6.398  1.00  0.00     0.200 A 
ATOM     90  F   UNL     1       7.527  10.809  -5.854  1.00  0.00    -0.200 F 
ATOM     91  F   UNL     1       9.508  11.152  -7.698  1.00  0.00    -0.200 F 
ENDBRANCH  57  81
BRANCH  69  92
ATOM     92  C   UNL     1      13.264  15.323   0.869  1.00  0.00     0.064 A 
ATOM     93  C   UNL     1      12.399  16.406   0.652  1.00  0.00     0.173 A 
ATOM     94  C   UNL     1      14.636  15.593   0.986  1.00  0.00     0.173 A 
ATOM     95  F   UNL     1      11.080  16.201   0.518  1.00  0.00    -0.203 F 
ATOM     96  C   UNL     1      12.893  17.703   0.527  1.00  0.00     0.198 A 
ATOM     97  C   UNL     1      15.122  16.894   0.896  1.00  0.00     0.198 A 
ATOM     98  F   UNL     1      15.506  14.595   1.202  1.00  0.00    -0.203 F 
ATOM     99  F   UNL     1      12.054  18.714   0.265  1.00  0.00    -0.200 F 
ATOM    100  C   UNL     1      14.252  17.946   0.658  1.00  0.00     0.200 A 
ATOM    101  F   UNL     1      16.434  17.129   1.039  1.00  0.00    -0.200 F 
ATOM    102  F   UNL     1      14.724  19.196   0.546  1.00  0.00    -0.200 F 
ENDBRANCH  69  92
ENDBRANCH  43  44
ENDBRANCH  35  38
ENDBRANCH  33  34
ENDBRANCH  32  33
ENDBRANCH   1  32
TORSDOF 14
