REMARK SMILES COC(=O)c1cccc(-c2cnc(Cl)cc2C(=O)NCCCCNC(=O)c2ccc(-c3c4nc(c(-c5c(F)c(F)c(F)c(F)c5F)c5ccc([nH]5)c(-c5c(F)c(F)c(F)c(F)c5F)c5nc(c(-c6c(F)c(F)c(F)c(F)c6F)c6ccc3[nH]6)C=C5)C=C4)cc2)c1
REMARK SMILES IDX 21 1 20 2 19 3 17 4 18 5 16 7 10 8 11 9 12 10 15 11 13 12
REMARK SMILES IDX 14 13 9 14 5 15 6 16 90 17 7 18 8 19 3 20 4 21 2 22 1 23
REMARK SMILES IDX 22 24 23 25 24 26 25 27 26 29 27 30 28 31 89 32 29 33 88 34
REMARK SMILES IDX 30 35 31 36 32 37 82 38 33 39 87 40 81 41 83 42 34 43 86 44
REMARK SMILES IDX 80 45 79 46 35 48 67 49 47 50 66 51 48 52 51 53 65 54 84 55
REMARK SMILES IDX 49 56 50 57 64 59 85 60 52 61 36 62 37 63 45 64 38 65 39 66
REMARK SMILES IDX 43 67 46 68 40 69 41 70 44 71 42 72 68 73 69 74 77 75 70 76
REMARK SMILES IDX 71 77 75 78 78 79 72 80 73 81 76 82 74 83 53 84 54 85 62 86
REMARK SMILES IDX 55 87 56 88 60 89 63 90 57 91 58 92 61 93 59 94
REMARK H PARENT 19 6 24 28 83 47 51 58
REMARK Flexibility Score: inf
ROOT
ATOM      1  C   UNL     1      -6.697  -0.937  -3.173  1.00  0.00     0.023 C 
ENDROOT
BRANCH   1   2
ATOM      2  C   UNL     1      -6.182  -1.969  -4.177  1.00  0.00     0.116 C 
BRANCH   2   3
ATOM      3  N   UNL     1      -4.736  -2.031  -4.151  1.00  0.00    -0.352 N 
ATOM      4  C   UNL     1      -3.782  -2.789  -3.527  1.00  0.00     0.252 C 
ATOM      5  O   UNL     1      -2.636  -2.466  -3.841  1.00  0.00    -0.269 OA
ATOM      6  H   UNL     1      -4.333  -1.349  -4.736  1.00  0.00     0.163 HD
BRANCH   4   7
ATOM      7  C   UNL     1      -4.032  -3.940  -2.582  1.00  0.00     0.052 A 
ATOM      8  C   UNL     1      -2.956  -4.766  -2.151  1.00  0.00     0.013 A 
ATOM      9  C   UNL     1      -3.286  -5.904  -1.401  1.00  0.00     0.122 A 
ATOM     10  N   UNL     1      -4.534  -6.262  -1.038  1.00  0.00    -0.244 NA
ATOM     11  C   UNL     1      -5.313  -4.256  -2.123  1.00  0.00     0.055 A 
ATOM     12  C   UNL     1      -5.507  -5.415  -1.394  1.00  0.00     0.129 A 
ATOM     13  Cl  UNL     1      -7.079  -5.877  -0.884  1.00  0.00    -0.062 Cl
BRANCH   8  14
ATOM     14  C   UNL     1      -1.525  -4.498  -2.381  1.00  0.00    -0.015 A 
ATOM     15  C   UNL     1       0.424  -3.050  -2.102  1.00  0.00     0.060 A 
ATOM     16  C   UNL     1       1.182  -3.917  -2.895  1.00  0.00     0.016 A 
ATOM     17  C   UNL     1      -0.913  -3.360  -1.821  1.00  0.00     0.024 A 
ATOM     18  C   UNL     1       0.607  -5.080  -3.406  1.00  0.00     0.002 A 
ATOM     19  C   UNL     1      -0.737  -5.365  -3.156  1.00  0.00     0.009 A 
BRANCH  15  20
ATOM     20  C   UNL     1       1.052  -1.787  -1.634  1.00  0.00     0.337 C 
ATOM     21  O   UNL     1       2.066  -1.317  -2.122  1.00  0.00    -0.246 OA
BRANCH  20  22
ATOM     22  O   UNL     1       0.354  -1.268  -0.591  1.00  0.00    -0.465 OA
ATOM     23  C   UNL     1       0.886  -0.044  -0.081  1.00  0.00     0.282 C 
ENDBRANCH  20  22
ENDBRANCH  15  20
ENDBRANCH   8  14
ENDBRANCH   4   7
ENDBRANCH   2   3
ENDBRANCH   1   2
BRANCH   1  24
ATOM     24  C   UNL     1      -6.504   0.518  -3.621  1.00  0.00     0.023 C 
BRANCH  24  25
ATOM     25  C   UNL     1      -7.155   0.878  -4.953  1.00  0.00     0.116 C 
BRANCH  25  26
ATOM     26  N   UNL     1      -8.582   0.590  -5.000  1.00  0.00    -0.352 N 
ATOM     27  C   UNL     1      -9.553   1.254  -5.711  1.00  0.00     0.251 C 
ATOM     28  H   UNL     1      -8.887  -0.173  -4.457  1.00  0.00     0.163 HD
ATOM     29  O   UNL     1     -10.737   0.965  -5.590  1.00  0.00    -0.269 OA
BRANCH  27  30
ATOM     30  C   UNL     1      -9.139   2.356  -6.599  1.00  0.00     0.039 A 
ATOM     31  C   UNL     1      -9.691   3.625  -6.411  1.00  0.00     0.014 A 
ATOM     32  C   UNL     1      -8.146   2.141  -7.556  1.00  0.00     0.014 A 
ATOM     33  C   UNL     1      -9.191   4.704  -7.142  1.00  0.00     0.010 A 
ATOM     34  C   UNL     1      -7.605   3.227  -8.232  1.00  0.00     0.010 A 
ATOM     35  C   UNL     1      -8.120   4.519  -8.029  1.00  0.00    -0.014 A 
BRANCH  35  36
ATOM     36  C   UNL     1      -7.517   5.646  -8.783  1.00  0.00     0.031 A 
ATOM     37  C   UNL     1      -7.584   5.641 -10.285  1.00  0.00     0.074 A 
ATOM     38  C   UNL     1      -6.823   6.602  -8.135  1.00  0.00     0.049 A 
ATOM     39  N   UNL     1      -6.967   6.407 -11.146  1.00  0.00    -0.248 NA
ATOM     40  C   UNL     1      -8.433   4.607 -10.901  1.00  0.00     0.031 C 
ATOM     41  C   UNL     1      -6.661   6.696  -6.683  1.00  0.00     0.029 A 
ATOM     42  N   UNL     1      -6.096   7.662  -8.618  1.00  0.00    -0.354 N 
ATOM     43  C   UNL     1      -7.322   5.926 -12.398  1.00  0.00     0.074 A 
ATOM     44  C   UNL     1      -8.179   4.780 -12.189  1.00  0.00     0.031 C 
ATOM     45  C   UNL     1      -5.884   7.754  -6.395  1.00  0.00     0.029 A 
ATOM     46  C   UNL     1      -5.455   8.384  -7.640  1.00  0.00     0.049 A 
ATOM     47  H   UNL     1      -6.039   7.884  -9.576  1.00  0.00     0.167 HD
ATOM     48  C   UNL     1      -6.974   6.409 -13.614  1.00  0.00     0.037 A 
ATOM     49  C   UNL     1      -4.599   9.420  -7.741  1.00  0.00     0.037 A 
ATOM     50  C   UNL     1      -6.163   7.579 -13.813  1.00  0.00     0.049 A 
ATOM     51  C   UNL     1      -4.238   9.941  -9.109  1.00  0.00     0.074 A 
ATOM     52  C   UNL     1      -5.814   8.191 -15.003  1.00  0.00     0.029 A 
ATOM     53  N   UNL     1      -5.582   8.318 -12.793  1.00  0.00    -0.354 N 
ATOM     54  N   UNL     1      -4.628   9.516 -10.286  1.00  0.00    -0.248 NA
ATOM     55  C   UNL     1      -3.320  11.089  -9.164  1.00  0.00     0.031 C 
ATOM     56  C   UNL     1      -4.984   9.275 -14.707  1.00  0.00     0.029 A 
ATOM     57  C   UNL     1      -4.863   9.372 -13.330  1.00  0.00     0.049 A 
ATOM     58  H   UNL     1      -5.667   8.122 -11.832  1.00  0.00     0.167 HD
ATOM     59  C   UNL     1      -4.044  10.369 -11.213  1.00  0.00     0.074 A 
ATOM     60  C   UNL     1      -3.272  11.337 -10.465  1.00  0.00     0.031 C 
ATOM     61  C   UNL     1      -4.140  10.353 -12.565  1.00  0.00     0.037 A 
BRANCH  48  62
ATOM     62  C   UNL     1      -7.468   5.682 -14.829  1.00  0.00     0.064 A 
ATOM     63  C   UNL     1      -8.818   5.717 -15.209  1.00  0.00     0.173 A 
ATOM     64  C   UNL     1      -6.567   5.001 -15.662  1.00  0.00     0.173 A 
ATOM     65  F   UNL     1      -9.720   6.344 -14.440  1.00  0.00    -0.203 F 
ATOM     66  C   UNL     1      -9.250   5.083 -16.371  1.00  0.00     0.198 A 
ATOM     67  C   UNL     1      -6.998   4.395 -16.838  1.00  0.00     0.198 A 
ATOM     68  F   UNL     1      -5.265   4.942 -15.345  1.00  0.00    -0.203 F 
ATOM     69  F   UNL     1     -10.550   5.099 -16.697  1.00  0.00    -0.200 F 
ATOM     70  C   UNL     1      -8.339   4.432 -17.190  1.00  0.00     0.200 A 
ATOM     71  F   UNL     1      -6.114   3.779 -17.635  1.00  0.00    -0.200 F 
ATOM     72  F   UNL     1      -8.754   3.839 -18.317  1.00  0.00    -0.200 F 
ENDBRANCH  48  62
BRANCH  49  73
ATOM     73  C   UNL     1      -4.017  10.040  -6.521  1.00  0.00     0.064 A 
ATOM     74  C   UNL     1      -4.345  11.353  -6.153  1.00  0.00     0.173 A 
ATOM     75  C   UNL     1      -3.090   9.354  -5.721  1.00  0.00     0.173 A 
ATOM     76  F   UNL     1      -5.211  12.059  -6.896  1.00  0.00    -0.203 F 
ATOM     77  C   UNL     1      -3.743  11.969  -5.058  1.00  0.00     0.198 A 
ATOM     78  C   UNL     1      -2.512   9.960  -4.607  1.00  0.00     0.198 A 
ATOM     79  F   UNL     1      -2.745   8.094  -6.023  1.00  0.00    -0.203 F 
ATOM     80  F   UNL     1      -4.027  13.246  -4.770  1.00  0.00    -0.200 F 
ATOM     81  C   UNL     1      -2.828  11.271  -4.284  1.00  0.00     0.200 A 
ATOM     82  F   UNL     1      -1.641   9.277  -3.853  1.00  0.00    -0.200 F 
ATOM     83  F   UNL     1      -2.243  11.865  -3.235  1.00  0.00    -0.200 F 
ENDBRANCH  49  73
BRANCH  61  84
ATOM     84  C   UNL     1      -3.466  11.454 -13.328  1.00  0.00     0.064 A 
ATOM     85  C   UNL     1      -2.075  11.498 -13.491  1.00  0.00     0.173 A 
ATOM     86  C   UNL     1      -4.238  12.428 -13.979  1.00  0.00     0.173 A 
ATOM     87  F   UNL     1      -1.294  10.596 -12.877  1.00  0.00    -0.203 F 
ATOM     88  C   UNL     1      -1.480  12.485 -14.271  1.00  0.00     0.198 A 
ATOM     89  C   UNL     1      -3.642  13.395 -14.782  1.00  0.00     0.198 A 
ATOM     90  F   UNL     1      -5.575  12.423 -13.861  1.00  0.00    -0.203 F 
ATOM     91  F   UNL     1      -0.145  12.528 -14.390  1.00  0.00    -0.200 F 
ATOM     92  C   UNL     1      -2.264  13.425 -14.925  1.00  0.00     0.200 A 
ATOM     93  F   UNL     1      -4.403  14.291 -15.426  1.00  0.00    -0.200 F 
ATOM     94  F   UNL     1      -1.689  14.361 -15.693  1.00  0.00    -0.200 F 
ENDBRANCH  61  84
ENDBRANCH  35  36
ENDBRANCH  27  30
ENDBRANCH  25  26
ENDBRANCH  24  25
ENDBRANCH   1  24
TORSDOF 14
