REMARK SMILES COC[C@@H](C)N(C)C(=O)N1CCC(CC(=O)NCCCCNC(=O)c2ccc(-c3c4nc(c(-c5c(F)c(F)c(F)c(F)c5F)c5ccc([nH]5)c(-c5c(F)c(F)c(F)c(F)c5F)c5nc(c(-c6c(F)c(F)c(F)c(F)c6F)c6ccc3[nH]6)C=C5)C=C4)cc2)CC1
REMARK SMILES IDX 18 1 17 2 15 3 16 4 14 6 13 7 8 8 9 9 10 10 11 11 89 12
REMARK SMILES IDX 12 13 88 14 6 15 7 16 4 17 5 18 3 19 2 20 1 21 19 22 20 23
REMARK SMILES IDX 21 24 22 25 23 26 24 28 25 29 26 30 87 31 27 32 86 33 28 34
REMARK SMILES IDX 29 35 30 36 80 37 31 38 85 39 79 40 81 41 32 42 84 43 78 44
REMARK SMILES IDX 77 45 33 47 65 48 45 49 64 50 46 51 49 52 63 53 82 54 47 55
REMARK SMILES IDX 48 56 62 58 83 59 50 60 34 61 35 62 43 63 36 64 37 65 41 66
REMARK SMILES IDX 44 67 38 68 39 69 42 70 40 71 66 72 67 73 75 74 68 75 69 76
REMARK SMILES IDX 73 77 76 78 70 79 71 80 74 81 72 82 51 83 52 84 60 85 53 86
REMARK SMILES IDX 54 87 58 88 61 89 55 90 56 91 59 92 57 93
REMARK H PARENT 17 5 22 27 81 46 49 57
REMARK Flexibility Score: inf
ROOT
ATOM      1  C   UNL     1       7.516   0.233   6.638  1.00  0.00     0.116 C 
ENDROOT
BRANCH   1   2
ATOM      2  N   UNL     1       7.411  -0.017   8.067  1.00  0.00    -0.356 N 
ATOM      3  C   UNL     1       6.519  -0.773   8.771  1.00  0.00     0.220 C 
ATOM      4  O   UNL     1       6.602  -0.774  10.001  1.00  0.00    -0.275 OA
ATOM      5  H   UNL     1       8.094   0.433   8.615  1.00  0.00     0.163 HD
BRANCH   3   6
ATOM      6  C   UNL     1       5.443  -1.586   8.063  1.00  0.00     0.103 C 
BRANCH   6   7
ATOM      7  C   UNL     1       4.077  -0.871   7.968  1.00  0.00     0.002 C 
ATOM      8  C   UNL     1       1.917   0.128   4.808  1.00  0.00     0.320 C 
ATOM      9  O   UNL     1       2.907   0.286   4.096  1.00  0.00    -0.248 OA
ATOM     10  N   UNL     1       2.006   0.152   6.188  1.00  0.00    -0.325 N 
ATOM     11  C   UNL     1       2.898   1.097   6.813  1.00  0.00     0.121 C 
ATOM     12  C   UNL     1       1.723  -1.041   6.975  1.00  0.00     0.121 C 
ATOM     13  C   UNL     1       4.207   0.437   7.190  1.00  0.00     0.026 C 
ATOM     14  C   UNL     1       3.023  -1.786   7.314  1.00  0.00     0.026 C 
BRANCH   8  15
ATOM     15  N   UNL     1       0.634  -0.024   4.299  1.00  0.00    -0.323 N 
ATOM     16  C   UNL     1      -0.555   0.223   5.104  1.00  0.00     0.149 C 
BRANCH  15  17
ATOM     17  C   UNL     1       0.422  -0.246   2.852  1.00  0.00     0.109 C 
ATOM     18  C   UNL     1       1.018  -1.585   2.413  1.00  0.00     0.033 C 
BRANCH  17  19
ATOM     19  C   UNL     1       0.912   0.947   1.997  1.00  0.00     0.184 C 
BRANCH  19  20
ATOM     20  O   UNL     1       0.231   1.058   0.741  1.00  0.00    -0.383 OA
ATOM     21  C   UNL     1       0.847   0.336  -0.315  1.00  0.00     0.194 C 
ENDBRANCH  19  20
ENDBRANCH  17  19
ENDBRANCH  15  17
ENDBRANCH   8  15
ENDBRANCH   6   7
ENDBRANCH   3   6
ENDBRANCH   1   2
BRANCH   1  22
ATOM     22  C   UNL     1       7.046   1.644   6.269  1.00  0.00     0.023 C 
BRANCH  22  23
ATOM     23  C   UNL     1       8.092   2.737   6.396  1.00  0.00     0.023 C 
BRANCH  23  24
ATOM     24  C   UNL     1       9.193   2.657   5.360  1.00  0.00     0.116 C 
BRANCH  24  25
ATOM     25  N   UNL     1       8.713   2.766   3.987  1.00  0.00    -0.352 N 
ATOM     26  C   UNL     1       9.236   3.509   2.953  1.00  0.00     0.251 C 
ATOM     27  H   UNL     1       7.910   2.239   3.772  1.00  0.00     0.163 HD
ATOM     28  O   UNL     1       8.675   3.570   1.870  1.00  0.00    -0.269 OA
BRANCH  26  29
ATOM     29  C   UNL     1      10.474   4.274   3.198  1.00  0.00     0.039 A 
ATOM     30  C   UNL     1      10.514   5.628   2.858  1.00  0.00     0.014 A 
ATOM     31  C   UNL     1      11.550   3.672   3.853  1.00  0.00     0.014 A 
ATOM     32  C   UNL     1      11.607   6.398   3.253  1.00  0.00     0.010 A 
ATOM     33  C   UNL     1      12.577   4.461   4.344  1.00  0.00     0.010 A 
ATOM     34  C   UNL     1      12.624   5.829   4.037  1.00  0.00    -0.014 A 
BRANCH  34  35
ATOM     35  C   UNL     1      13.782   6.625   4.510  1.00  0.00     0.031 A 
ATOM     36  C   UNL     1      15.166   6.232   4.071  1.00  0.00     0.074 A 
ATOM     37  C   UNL     1      13.600   7.636   5.380  1.00  0.00     0.049 A 
ATOM     38  N   UNL     1      16.324   6.704   4.456  1.00  0.00    -0.248 NA
ATOM     39  C   UNL     1      15.262   5.128   3.100  1.00  0.00     0.031 C 
ATOM     40  C   UNL     1      12.311   8.076   5.918  1.00  0.00     0.029 A 
ATOM     41  N   UNL     1      14.509   8.477   5.972  1.00  0.00    -0.354 N 
ATOM     42  C   UNL     1      17.276   5.939   3.796  1.00  0.00     0.074 A 
ATOM     43  C   UNL     1      16.569   4.928   3.044  1.00  0.00     0.031 C 
ATOM     44  C   UNL     1      12.509   9.126   6.733  1.00  0.00     0.029 A 
ATOM     45  C   UNL     1      13.938   9.409   6.804  1.00  0.00     0.049 A 
ATOM     46  H   UNL     1      15.479   8.417   5.815  1.00  0.00     0.167 HD
ATOM     47  C   UNL     1      18.621   6.090   3.786  1.00  0.00     0.037 A 
ATOM     48  C   UNL     1      14.512  10.382   7.537  1.00  0.00     0.037 A 
ATOM     49  C   UNL     1      19.316   7.129   4.494  1.00  0.00     0.049 A 
ATOM     50  C   UNL     1      16.009  10.541   7.491  1.00  0.00     0.074 A 
ATOM     51  C   UNL     1      20.672   7.399   4.521  1.00  0.00     0.029 A 
ATOM     52  N   UNL     1      18.698   8.083   5.288  1.00  0.00    -0.354 N 
ATOM     53  N   UNL     1      16.897   9.841   6.826  1.00  0.00    -0.248 NA
ATOM     54  C   UNL     1      16.583  11.631   8.292  1.00  0.00     0.031 C 
ATOM     55  C   UNL     1      20.878   8.506   5.350  1.00  0.00     0.029 A 
ATOM     56  C   UNL     1      19.646   8.946   5.810  1.00  0.00     0.049 A 
ATOM     57  H   UNL     1      17.730   8.139   5.457  1.00  0.00     0.167 HD
ATOM     58  C   UNL     1      18.125  10.427   7.098  1.00  0.00     0.074 A 
ATOM     59  C   UNL     1      17.868  11.546   7.980  1.00  0.00     0.031 C 
ATOM     60  C   UNL     1      19.358  10.071   6.660  1.00  0.00     0.037 A 
BRANCH  47  61
ATOM     61  C   UNL     1      19.417   5.125   2.959  1.00  0.00     0.064 A 
ATOM     62  C   UNL     1      19.370   5.152   1.556  1.00  0.00     0.173 A 
ATOM     63  C   UNL     1      20.248   4.175   3.570  1.00  0.00     0.173 A 
ATOM     64  F   UNL     1      18.575   6.030   0.925  1.00  0.00    -0.203 F 
ATOM     65  C   UNL     1      20.103   4.245   0.796  1.00  0.00     0.198 A 
ATOM     66  C   UNL     1      21.004   3.289   2.805  1.00  0.00     0.198 A 
ATOM     67  F   UNL     1      20.330   4.106   4.907  1.00  0.00    -0.203 F 
ATOM     68  F   UNL     1      19.999   4.256  -0.540  1.00  0.00    -0.200 F 
ATOM     69  C   UNL     1      20.924   3.319   1.421  1.00  0.00     0.200 A 
ATOM     70  F   UNL     1      21.805   2.400   3.409  1.00  0.00    -0.200 F 
ATOM     71  F   UNL     1      21.634   2.450   0.688  1.00  0.00    -0.200 F 
ENDBRANCH  47  61
BRANCH  48  72
ATOM     72  C   UNL     1      13.676  11.310   8.342  1.00  0.00     0.064 A 
ATOM     73  C   UNL     1      13.551  12.658   7.977  1.00  0.00     0.173 A 
ATOM     74  C   UNL     1      13.011  10.884   9.500  1.00  0.00     0.173 A 
ATOM     75  F   UNL     1      14.186  13.118   6.889  1.00  0.00    -0.203 F 
ATOM     76  C   UNL     1      12.817  13.551   8.755  1.00  0.00     0.198 A 
ATOM     77  C   UNL     1      12.254  11.772  10.263  1.00  0.00     0.198 A 
ATOM     78  F   UNL     1      13.093   9.603   9.890  1.00  0.00    -0.203 F 
ATOM     79  F   UNL     1      12.761  14.845   8.412  1.00  0.00    -0.200 F 
ATOM     80  C   UNL     1      12.167  13.107   9.896  1.00  0.00     0.200 A 
ATOM     81  F   UNL     1      11.617  11.337  11.359  1.00  0.00    -0.200 F 
ATOM     82  F   UNL     1      11.466  13.967  10.647  1.00  0.00    -0.200 F 
ENDBRANCH  48  72
BRANCH  60  83
ATOM     83  C   UNL     1      20.510  10.931   7.082  1.00  0.00     0.064 A 
ATOM     84  C   UNL     1      21.012  10.900   8.390  1.00  0.00     0.173 A 
ATOM     85  C   UNL     1      21.148  11.762   6.149  1.00  0.00     0.173 A 
ATOM     86  F   UNL     1      20.424  10.131   9.320  1.00  0.00    -0.203 F 
ATOM     87  C   UNL     1      22.099  11.688   8.756  1.00  0.00     0.198 A 
ATOM     88  C   UNL     1      22.252  12.528   6.511  1.00  0.00     0.198 A 
ATOM     89  F   UNL     1      20.709  11.820   4.882  1.00  0.00    -0.203 F 
ATOM     90  F   UNL     1      22.536  11.676  10.023  1.00  0.00    -0.200 F 
ATOM     91  C   UNL     1      22.722  12.495   7.815  1.00  0.00     0.200 A 
ATOM     92  F   UNL     1      22.861  13.297   5.598  1.00  0.00    -0.200 F 
ATOM     93  F   UNL     1      23.773  13.247   8.168  1.00  0.00    -0.200 F 
ENDBRANCH  60  83
ENDBRANCH  34  35
ENDBRANCH  26  29
ENDBRANCH  24  25
ENDBRANCH  23  24
ENDBRANCH  22  23
ENDBRANCH   1  22
TORSDOF 16
