REMARK SMILES NC(=O)[C@H]1CN(C(=O)CSc2ccccc2C(=O)NCCCCNC(=O)c2ccc(-c3c4nc(c(-c5c(F)c(F)c(F)c(F)c5F)c5ccc([nH]5)c(-c5c(F)c(F)c(F)c(F)c5F)c5nc(c(-c6c(F)c(F)c(F)c(F)c6F)c6ccc3[nH]6)C=C5)C=C4)cc2)c2ccccc2O1
REMARK SMILES IDX 20 1 19 2 17 3 18 4 16 6 11 7 12 8 13 9 15 10 14 11 10 12
REMARK SMILES IDX 9 13 7 14 8 15 6 16 4 17 5 18 96 19 95 20 90 21 94 22 91 23
REMARK SMILES IDX 93 24 92 25 2 26 1 27 3 30 21 31 22 32 23 33 24 34 25 35
REMARK SMILES IDX 26 37 27 38 28 39 89 40 29 41 88 42 30 43 31 44 32 45 82 46
REMARK SMILES IDX 33 47 87 48 81 49 83 50 34 51 86 52 80 53 79 54 35 56 67 57
REMARK SMILES IDX 47 58 66 59 48 60 51 61 65 62 84 63 49 64 50 65 64 67 85 68
REMARK SMILES IDX 52 69 36 70 37 71 45 72 38 73 39 74 43 75 46 76 40 77 41 78
REMARK SMILES IDX 44 79 42 80 68 81 69 82 77 83 70 84 71 85 75 86 78 87 72 88
REMARK SMILES IDX 73 89 76 90 74 91 53 92 54 93 62 94 55 95 56 96 60 97 63 98
REMARK SMILES IDX 57 99 58 100 61 101 59 102
REMARK H PARENT 19 5 1 28 1 29 24 36 83 55 51 66
REMARK Flexibility Score: inf
ROOT
ATOM      1  C   UNL     1      -2.475  -0.925   3.572  1.00  0.00     0.116 C 
ENDROOT
BRANCH   1   2
ATOM      2  N   UNL     1      -3.074  -0.758   2.283  1.00  0.00    -0.352 N 
ATOM      3  C   UNL     1      -3.058   0.153   1.271  1.00  0.00     0.252 C 
ATOM      4  O   UNL     1      -3.758  -0.229   0.320  1.00  0.00    -0.269 OA
ATOM      5  H   UNL     1      -3.665  -1.515   2.067  1.00  0.00     0.163 HD
BRANCH   3   6
ATOM      6  C   UNL     1      -2.328   1.470   1.124  1.00  0.00     0.053 A 
ATOM      7  C   UNL     1      -1.660   2.315   2.038  1.00  0.00     0.020 A 
ATOM      8  C   UNL     1      -1.185   3.577   1.582  1.00  0.00     0.016 A 
ATOM      9  C   UNL     1      -1.326   4.010   0.266  1.00  0.00     0.001 A 
ATOM     10  C   UNL     1      -2.430   1.948  -0.219  1.00  0.00     0.015 A 
ATOM     11  C   UNL     1      -1.953   3.189  -0.643  1.00  0.00     0.001 A 
BRANCH   7  12
ATOM     12  S   UNL     1      -1.520   2.184   3.816  1.00  0.00    -0.115 SA
BRANCH  12  13
ATOM     13  C   UNL     1       0.212   1.654   4.153  1.00  0.00     0.175 C 
BRANCH  13  14
ATOM     14  C   UNL     1       1.217   1.728   3.011  1.00  0.00     0.237 C 
ATOM     15  O   UNL     1       1.549   2.844   2.600  1.00  0.00    -0.274 OA
BRANCH  14  16
ATOM     16  N   UNL     1       1.779   0.529   2.545  1.00  0.00    -0.304 N 
ATOM     17  C   UNL     1       1.246  -1.645   1.506  1.00  0.00     0.281 C 
ATOM     18  C   UNL     1       1.204  -0.806   2.774  1.00  0.00     0.181 C 
ATOM     19  O   UNL     1       2.599  -1.856   1.102  1.00  0.00    -0.477 OA
ATOM     20  C   UNL     1       3.351  -0.707   1.100  1.00  0.00     0.144 A 
ATOM     21  C   UNL     1       2.998   0.481   1.777  1.00  0.00     0.086 A 
ATOM     22  C   UNL     1       4.545  -0.805   0.380  1.00  0.00     0.049 A 
ATOM     23  C   UNL     1       3.905   1.547   1.726  1.00  0.00     0.030 A 
ATOM     24  C   UNL     1       5.420   0.274   0.329  1.00  0.00     0.004 A 
ATOM     25  C   UNL     1       5.104   1.445   1.010  1.00  0.00     0.002 A 
BRANCH  17  26
ATOM     26  C   UNL     1       0.609  -3.038   1.621  1.00  0.00     0.260 C 
ATOM     27  N   UNL     1       0.110  -3.464   2.817  1.00  0.00    -0.366 N 
ATOM     28  H   UNL     1      -0.298  -4.356   2.890  1.00  0.00     0.159 HD
ATOM     29  H   UNL     1       0.159  -2.878   3.607  1.00  0.00     0.159 HD
ATOM     30  O   UNL     1       0.538  -3.815   0.668  1.00  0.00    -0.271 OA
ENDBRANCH  17  26
ENDBRANCH  14  16
ENDBRANCH  13  14
ENDBRANCH  12  13
ENDBRANCH   7  12
ENDBRANCH   3   6
ENDBRANCH   1   2
BRANCH   1  31
ATOM     31  C   UNL     1      -3.483  -0.798   4.708  1.00  0.00     0.023 C 
BRANCH  31  32
ATOM     32  C   UNL     1      -3.958  -2.145   5.263  1.00  0.00     0.023 C 
BRANCH  32  33
ATOM     33  C   UNL     1      -2.857  -3.118   5.686  1.00  0.00     0.116 C 
BRANCH  33  34
ATOM     34  N   UNL     1      -1.797  -2.522   6.487  1.00  0.00    -0.352 N 
ATOM     35  C   UNL     1      -0.913  -3.167   7.323  1.00  0.00     0.251 C 
ATOM     36  H   UNL     1      -1.702  -1.544   6.424  1.00  0.00     0.163 HD
ATOM     37  O   UNL     1      -0.082  -2.544   7.965  1.00  0.00    -0.269 OA
BRANCH  35  38
ATOM     38  C   UNL     1      -1.029  -4.632   7.458  1.00  0.00     0.039 A 
ATOM     39  C   UNL     1      -1.364  -5.164   8.704  1.00  0.00     0.014 A 
ATOM     40  C   UNL     1      -0.916  -5.452   6.334  1.00  0.00     0.014 A 
ATOM     41  C   UNL     1      -1.673  -6.521   8.806  1.00  0.00     0.010 A 
ATOM     42  C   UNL     1      -1.276  -6.793   6.428  1.00  0.00     0.010 A 
ATOM     43  C   UNL     1      -1.676  -7.333   7.660  1.00  0.00    -0.014 A 
BRANCH  43  44
ATOM     44  C   UNL     1      -2.145  -8.739   7.722  1.00  0.00     0.031 A 
ATOM     45  C   UNL     1      -1.191  -9.869   7.472  1.00  0.00     0.074 A 
ATOM     46  C   UNL     1      -3.453  -8.991   7.928  1.00  0.00     0.049 A 
ATOM     47  N   UNL     1      -1.427 -11.155   7.428  1.00  0.00    -0.248 NA
ATOM     48  C   UNL     1       0.209  -9.504   7.210  1.00  0.00     0.031 C 
ATOM     49  C   UNL     1      -4.489  -7.975   8.125  1.00  0.00     0.029 A 
ATOM     50  N   UNL     1      -4.136 -10.179   7.993  1.00  0.00    -0.354 N 
ATOM     51  C   UNL     1      -0.211 -11.751   7.126  1.00  0.00     0.074 A 
ATOM     52  C   UNL     1       0.751 -10.685   6.947  1.00  0.00     0.031 C 
ATOM     53  C   UNL     1      -5.672  -8.584   8.307  1.00  0.00     0.029 A 
ATOM     54  C   UNL     1      -5.484 -10.028   8.211  1.00  0.00     0.049 A 
ATOM     55  H   UNL     1      -3.702 -11.056   7.892  1.00  0.00     0.167 HD
ATOM     56  C   UNL     1       0.081 -13.070   7.030  1.00  0.00     0.037 A 
ATOM     57  C   UNL     1      -6.457 -10.952   8.320  1.00  0.00     0.037 A 
ATOM     58  C   UNL     1      -0.871 -14.130   7.231  1.00  0.00     0.049 A 
ATOM     59  C   UNL     1      -6.104 -12.410   8.212  1.00  0.00     0.074 A 
ATOM     60  C   UNL     1      -0.655 -15.497   7.223  1.00  0.00     0.029 A 
ATOM     61  N   UNL     1      -2.223 -13.940   7.473  1.00  0.00    -0.354 N 
ATOM     62  N   UNL     1      -4.935 -12.964   8.008  1.00  0.00    -0.248 NA
ATOM     63  C   UNL     1      -7.207 -13.371   8.357  1.00  0.00     0.031 C 
ATOM     64  C   UNL     1      -1.884 -16.136   7.423  1.00  0.00     0.029 A 
ATOM     65  C   UNL     1      -2.858 -15.166   7.596  1.00  0.00     0.049 A 
ATOM     66  H   UNL     1      -2.667 -13.064   7.546  1.00  0.00     0.167 HD
ATOM     67  C   UNL     1      -5.155 -14.335   8.025  1.00  0.00     0.074 A 
ATOM     68  C   UNL     1      -6.568 -14.529   8.273  1.00  0.00     0.031 C 
ATOM     69  C   UNL     1      -4.265 -15.342   7.850  1.00  0.00     0.037 A 
BRANCH  56  70
ATOM     70  C   UNL     1       1.497 -13.440   6.702  1.00  0.00     0.064 A 
ATOM     71  C   UNL     1       2.531 -13.275   7.635  1.00  0.00     0.173 A 
ATOM     72  C   UNL     1       1.818 -13.997   5.455  1.00  0.00     0.173 A 
ATOM     73  F   UNL     1       2.276 -12.734   8.836  1.00  0.00    -0.203 F 
ATOM     74  C   UNL     1       3.841 -13.628   7.322  1.00  0.00     0.198 A 
ATOM     75  C   UNL     1       3.124 -14.375   5.156  1.00  0.00     0.198 A 
ATOM     76  F   UNL     1       0.864 -14.181   4.530  1.00  0.00    -0.203 F 
ATOM     77  F   UNL     1       4.820 -13.418   8.212  1.00  0.00    -0.200 F 
ATOM     78  C   UNL     1       4.135 -14.183   6.086  1.00  0.00     0.200 A 
ATOM     79  F   UNL     1       3.406 -14.921   3.965  1.00  0.00    -0.200 F 
ATOM     80  F   UNL     1       5.396 -14.527   5.788  1.00  0.00    -0.200 F 
ENDBRANCH  56  70
BRANCH  57  81
ATOM     81  C   UNL     1      -7.858 -10.528   8.576  1.00  0.00     0.064 A 
ATOM     82  C   UNL     1      -8.459 -10.756   9.821  1.00  0.00     0.173 A 
ATOM     83  C   UNL     1      -8.623  -9.896   7.586  1.00  0.00     0.173 A 
ATOM     84  F   UNL     1      -7.771 -11.376  10.792  1.00  0.00    -0.203 F 
ATOM     85  C   UNL     1      -9.780 -10.386  10.061  1.00  0.00     0.198 A 
ATOM     86  C   UNL     1      -9.936  -9.503   7.835  1.00  0.00     0.198 A 
ATOM     87  F   UNL     1      -8.090  -9.649   6.380  1.00  0.00    -0.203 F 
ATOM     88  F   UNL     1     -10.344 -10.653  11.247  1.00  0.00    -0.200 F 
ATOM     89  C   UNL     1     -10.516  -9.756   9.069  1.00  0.00     0.200 A 
ATOM     90  F   UNL     1     -10.641  -8.883   6.879  1.00  0.00    -0.200 F 
ATOM     91  F   UNL     1     -11.787  -9.397   9.301  1.00  0.00    -0.200 F 
ENDBRANCH  57  81
BRANCH  69  92
ATOM     92  C   UNL     1      -4.787 -16.744   7.948  1.00  0.00     0.064 A 
ATOM     93  C   UNL     1      -5.569 -17.309   6.931  1.00  0.00     0.173 A 
ATOM     94  C   UNL     1      -4.466 -17.546   9.055  1.00  0.00     0.173 A 
ATOM     95  F   UNL     1      -5.916 -16.577   5.861  1.00  0.00    -0.203 F 
ATOM     96  C   UNL     1      -6.028 -18.620   7.026  1.00  0.00     0.198 A 
ATOM     97  C   UNL     1      -4.906 -18.864   9.135  1.00  0.00     0.198 A 
ATOM     98  F   UNL     1      -3.717 -17.052  10.052  1.00  0.00    -0.203 F 
ATOM     99  F   UNL     1      -6.809 -19.126   6.062  1.00  0.00    -0.200 F 
ATOM    100  C   UNL     1      -5.691 -19.398   8.124  1.00  0.00     0.200 A 
ATOM    101  F   UNL     1      -4.570 -19.617  10.191  1.00  0.00    -0.200 F 
ATOM    102  F   UNL     1      -6.128 -20.661   8.211  1.00  0.00    -0.200 F 
ENDBRANCH  69  92
ENDBRANCH  43  44
ENDBRANCH  35  38
ENDBRANCH  33  34
ENDBRANCH  32  33
ENDBRANCH  31  32
ENDBRANCH   1  31
TORSDOF 16
