REMARK SMILES Cc1cc(C(=O)NCCCCNC(=O)c2ccc(-c3c4nc(c(-c5c(F)c(F)c(F)c(F)c5F)c5ccc([nH]5)c(-c5c(F)c(F)c(F)c(F)c5F)c5nc(c(-c6c(F)c(F)c(F)c(F)c6F)c6ccc3[nH]6)C=C5)C=C4)cc2)ccc1NS(=O)(=O)c1ccc2c(c1)CCC2
REMARK SMILES IDX 9 1 8 2 7 3 5 4 6 5 4 7 1 8 2 9 3 10 80 11 79 12 78 13 81 14
REMARK SMILES IDX 82 16 83 17 84 18 85 19 86 20 90 21 87 22 89 23 88 24 91 25
REMARK SMILES IDX 93 26 92 27 10 28 11 29 12 30 13 31 14 33 15 34 16 35 77 36
REMARK SMILES IDX 17 37 76 38 18 39 19 40 20 41 70 42 21 43 75 44 69 45 71 46
REMARK SMILES IDX 22 47 74 48 68 49 67 50 23 52 55 53 35 54 54 55 36 56 39 57
REMARK SMILES IDX 53 58 72 59 37 60 38 61 52 63 73 64 40 65 24 66 25 67 33 68
REMARK SMILES IDX 26 69 27 70 31 71 34 72 28 73 29 74 32 75 30 76 56 77 57 78
REMARK SMILES IDX 65 79 58 80 59 81 63 82 66 83 60 84 61 85 64 86 62 87 41 88
REMARK SMILES IDX 42 89 50 90 43 91 44 92 48 93 51 94 45 95 46 96 49 97 47 98
REMARK H PARENT 7 6 81 15 12 32 71 51 39 62
REMARK Flexibility Score: inf
ROOT
ATOM      1  C   UNL     1      -4.457  -1.108  -1.677  1.00  0.00     0.023 C 
ENDROOT
BRANCH   1   2
ATOM      2  C   UNL     1      -3.901  -1.184  -0.248  1.00  0.00     0.116 C 
BRANCH   2   3
ATOM      3  N   UNL     1      -3.053  -2.339   0.018  1.00  0.00    -0.352 N 
ATOM      4  C   UNL     1      -1.738  -2.437   0.420  1.00  0.00     0.251 C 
ATOM      5  O   UNL     1      -1.231  -3.549   0.545  1.00  0.00    -0.269 OA
ATOM      6  H   UNL     1      -3.500  -3.207  -0.114  1.00  0.00     0.163 HD
BRANCH   4   7
ATOM      7  C   UNL     1      -0.897  -1.230   0.612  1.00  0.00     0.040 A 
ATOM      8  C   UNL     1       2.502  -0.069  -0.602  1.00  0.00     0.046 C 
ATOM      9  C   UNL     1       1.102  -0.016  -0.055  1.00  0.00    -0.026 A 
ATOM     10  C   UNL     1       0.376  -1.215   0.033  1.00  0.00     0.019 A 
ATOM     11  C   UNL     1       0.488   1.173   0.371  1.00  0.00     0.052 A 
ATOM     12  C   UNL     1      -0.627   1.092   1.208  1.00  0.00     0.028 A 
ATOM     13  C   UNL     1      -1.325  -0.115   1.327  1.00  0.00     0.016 A 
BRANCH  11  14
ATOM     14  N   UNL     1       0.872   2.382  -0.282  1.00  0.00    -0.279 N 
ATOM     15  H   UNL     1       1.585   2.295  -0.956  1.00  0.00     0.180 HD
BRANCH  14  16
ATOM     16  S   UNL     1       0.275   3.921  -0.060  1.00  0.00     0.261 S 
ATOM     17  O   UNL     1       0.392   4.243   1.353  1.00  0.00    -0.201 OA
ATOM     18  O   UNL     1       0.918   4.728  -1.067  1.00  0.00    -0.201 OA
BRANCH  16  19
ATOM     19  C   UNL     1      -1.469   3.940  -0.442  1.00  0.00     0.088 A 
ATOM     20  C   UNL     1      -2.175   2.794  -0.844  1.00  0.00     0.022 A 
ATOM     21  C   UNL     1      -2.152   5.124  -0.130  1.00  0.00     0.026 A 
ATOM     22  C   UNL     1      -3.568   2.756  -0.724  1.00  0.00     0.005 A 
ATOM     23  C   UNL     1      -3.532   5.081  -0.059  1.00  0.00    -0.043 A 
ATOM     24  C   UNL     1      -4.223   3.886  -0.270  1.00  0.00    -0.045 A 
ATOM     25  C   UNL     1      -4.486   6.185   0.271  1.00  0.00     0.036 C 
ATOM     26  C   UNL     1      -5.671   4.040   0.083  1.00  0.00     0.036 C 
ATOM     27  C   UNL     1      -5.650   5.374   0.851  1.00  0.00     0.010 C 
ENDBRANCH  16  19
ENDBRANCH  14  16
ENDBRANCH  11  14
ENDBRANCH   4   7
ENDBRANCH   2   3
ENDBRANCH   1   2
BRANCH   1  28
ATOM     28  C   UNL     1      -5.336  -2.271  -2.130  1.00  0.00     0.023 C 
BRANCH  28  29
ATOM     29  C   UNL     1      -6.655  -2.430  -1.379  1.00  0.00     0.116 C 
BRANCH  29  30
ATOM     30  N   UNL     1      -7.771  -1.650  -1.907  1.00  0.00    -0.352 N 
ATOM     31  C   UNL     1      -9.081  -1.565  -1.460  1.00  0.00     0.251 C 
ATOM     32  H   UNL     1      -7.561  -1.102  -2.698  1.00  0.00     0.163 HD
ATOM     33  O   UNL     1      -9.892  -0.883  -2.080  1.00  0.00    -0.269 OA
BRANCH  31  34
ATOM     34  C   UNL     1      -9.473  -2.167  -0.159  1.00  0.00     0.039 A 
ATOM     35  C   UNL     1     -10.265  -1.402   0.710  1.00  0.00     0.014 A 
ATOM     36  C   UNL     1      -8.895  -3.346   0.296  1.00  0.00     0.014 A 
ATOM     37  C   UNL     1     -10.223  -1.659   2.078  1.00  0.00     0.010 A 
ATOM     38  C   UNL     1      -8.753  -3.532   1.655  1.00  0.00     0.010 A 
ATOM     39  C   UNL     1      -9.342  -2.631   2.546  1.00  0.00    -0.014 A 
BRANCH  39  40
ATOM     40  C   UNL     1      -8.803  -2.636   3.904  1.00  0.00     0.031 A 
ATOM     41  C   UNL     1      -9.064  -3.753   4.835  1.00  0.00     0.074 A 
ATOM     42  C   UNL     1      -7.885  -1.692   4.214  1.00  0.00     0.049 A 
ATOM     43  N   UNL     1      -8.835  -3.716   6.104  1.00  0.00    -0.248 NA
ATOM     44  C   UNL     1      -9.665  -5.006   4.401  1.00  0.00     0.031 C 
ATOM     45  C   UNL     1      -6.915  -1.716   5.305  1.00  0.00     0.029 A 
ATOM     46  N   UNL     1      -7.765  -0.399   3.671  1.00  0.00    -0.354 N 
ATOM     47  C   UNL     1      -8.969  -4.996   6.598  1.00  0.00     0.074 A 
ATOM     48  C   UNL     1      -9.577  -5.735   5.517  1.00  0.00     0.031 C 
ATOM     49  C   UNL     1      -6.503  -0.461   5.547  1.00  0.00     0.029 A 
ATOM     50  C   UNL     1      -7.330   0.418   4.738  1.00  0.00     0.049 A 
ATOM     51  H   UNL     1      -7.946  -0.123   2.744  1.00  0.00     0.167 HD
ATOM     52  C   UNL     1      -8.416  -5.295   7.813  1.00  0.00     0.037 A 
ATOM     53  C   UNL     1      -8.120   1.411   5.242  1.00  0.00     0.037 A 
ATOM     54  C   UNL     1      -7.918  -4.083   8.469  1.00  0.00     0.049 A 
ATOM     55  C   UNL     1      -8.440   1.263   6.710  1.00  0.00     0.074 A 
ATOM     56  C   UNL     1      -6.650  -3.542   8.612  1.00  0.00     0.029 A 
ATOM     57  N   UNL     1      -8.814  -3.086   8.844  1.00  0.00    -0.354 N 
ATOM     58  N   UNL     1      -8.349   0.138   7.363  1.00  0.00    -0.248 NA
ATOM     59  C   UNL     1      -8.935   2.356   7.543  1.00  0.00     0.031 C 
ATOM     60  C   UNL     1      -6.791  -2.191   9.019  1.00  0.00     0.029 A 
ATOM     61  C   UNL     1      -8.141  -1.916   9.143  1.00  0.00     0.049 A 
ATOM     62  H   UNL     1      -9.791  -3.198   8.890  1.00  0.00     0.167 HD
ATOM     63  C   UNL     1      -8.788   0.321   8.647  1.00  0.00     0.074 A 
ATOM     64  C   UNL     1      -9.121   1.731   8.719  1.00  0.00     0.031 C 
ATOM     65  C   UNL     1      -8.862  -0.714   9.533  1.00  0.00     0.037 A 
BRANCH  52  66
ATOM     66  C   UNL     1      -8.043  -6.698   8.282  1.00  0.00     0.064 A 
ATOM     67  C   UNL     1      -7.038  -6.884   9.261  1.00  0.00     0.173 A 
ATOM     68  C   UNL     1      -8.555  -7.900   7.758  1.00  0.00     0.173 A 
ATOM     69  F   UNL     1      -6.537  -5.856   9.957  1.00  0.00    -0.203 F 
ATOM     70  C   UNL     1      -6.504  -8.141   9.575  1.00  0.00     0.198 A 
ATOM     71  C   UNL     1      -7.997  -9.153   8.039  1.00  0.00     0.198 A 
ATOM     72  F   UNL     1      -9.660  -7.928   7.011  1.00  0.00    -0.203 F 
ATOM     73  F   UNL     1      -5.535  -8.242  10.495  1.00  0.00    -0.200 F 
ATOM     74  C   UNL     1      -6.958  -9.273   8.934  1.00  0.00     0.200 A 
ATOM     75  F   UNL     1      -8.486 -10.245   7.433  1.00  0.00    -0.200 F 
ATOM     76  F   UNL     1      -6.424 -10.471   9.201  1.00  0.00    -0.200 F 
ENDBRANCH  52  66
BRANCH  53  77
ATOM     77  C   UNL     1      -9.047   1.999   4.240  1.00  0.00     0.064 A 
ATOM     78  C   UNL     1      -8.505   2.697   3.144  1.00  0.00     0.173 A 
ATOM     79  C   UNL     1     -10.382   1.585   4.148  1.00  0.00     0.173 A 
ATOM     80  F   UNL     1      -7.228   3.110   3.179  1.00  0.00    -0.203 F 
ATOM     81  C   UNL     1      -9.231   2.877   1.969  1.00  0.00     0.198 A 
ATOM     82  C   UNL     1     -11.109   1.775   2.971  1.00  0.00     0.198 A 
ATOM     83  F   UNL     1     -10.948   0.893   5.146  1.00  0.00    -0.203 F 
ATOM     84  F   UNL     1      -8.652   3.457   0.908  1.00  0.00    -0.200 F 
ATOM     85  C   UNL     1     -10.524   2.391   1.874  1.00  0.00     0.200 A 
ATOM     86  F   UNL     1     -12.347   1.272   2.864  1.00  0.00    -0.200 F 
ATOM     87  F   UNL     1     -11.189   2.475   0.714  1.00  0.00    -0.200 F 
ENDBRANCH  53  77
BRANCH  65  88
ATOM     88  C   UNL     1      -9.548  -0.674  10.875  1.00  0.00     0.064 A 
ATOM     89  C   UNL     1     -10.672   0.122  11.152  1.00  0.00     0.173 A 
ATOM     90  C   UNL     1      -9.171  -1.578  11.896  1.00  0.00     0.173 A 
ATOM     91  F   UNL     1     -11.195   0.936  10.226  1.00  0.00    -0.203 F 
ATOM     92  C   UNL     1     -11.335   0.059  12.381  1.00  0.00     0.198 A 
ATOM     93  C   UNL     1      -9.869  -1.677  13.099  1.00  0.00     0.198 A 
ATOM     94  F   UNL     1      -8.130  -2.410  11.743  1.00  0.00    -0.203 F 
ATOM     95  F   UNL     1     -12.381   0.866  12.611  1.00  0.00    -0.200 F 
ATOM     96  C   UNL     1     -10.943  -0.848  13.348  1.00  0.00     0.200 A 
ATOM     97  F   UNL     1      -9.508  -2.597  14.005  1.00  0.00    -0.200 F 
ATOM     98  F   UNL     1     -11.612  -0.938  14.505  1.00  0.00    -0.200 F 
ENDBRANCH  65  88
ENDBRANCH  39  40
ENDBRANCH  31  34
ENDBRANCH  29  30
ENDBRANCH  28  29
ENDBRANCH   1  28
TORSDOF 14
