REMARK SMILES O=C(NCc1ccc(C(=O)NCCCCNC(=O)c2ccc(-c3c4nc(c(-c5c(F)c(F)c(F)c(F)c5F)c5ccc([nH]5)c(-c5c(F)c(F)c(F)c(F)c5F)c5nc(c(-c6c(F)c(F)c(F)c(F)c6F)c6ccc3[nH]6)C=C5)C=C4)cc2)cc1)Nc1ccccc1Br
REMARK SMILES IDX 13 1 12 2 11 3 9 4 10 5 8 7 5 8 6 9 83 10 7 11 82 12 4 13
REMARK SMILES IDX 3 14 1 15 2 16 84 17 85 20 86 21 90 22 87 23 89 24 91 25
REMARK SMILES IDX 88 26 14 27 15 28 16 29 17 30 18 32 19 33 20 34 81 35 21 36
REMARK SMILES IDX 80 37 22 38 23 39 24 40 74 41 25 42 79 43 73 44 75 45 26 46
REMARK SMILES IDX 78 47 72 48 71 49 27 51 59 52 39 53 58 54 40 55 43 56 57 57
REMARK SMILES IDX 76 58 41 59 42 60 56 62 77 63 44 64 28 65 29 66 37 67 30 68
REMARK SMILES IDX 31 69 35 70 38 71 32 72 33 73 36 74 34 75 60 76 61 77 69 78
REMARK SMILES IDX 62 79 63 80 67 81 70 82 64 83 65 84 68 85 66 86 45 87 46 88
REMARK SMILES IDX 54 89 47 90 48 91 52 92 55 93 49 94 50 95 53 96 51 97
REMARK H PARENT 11 6 3 18 84 19 16 31 75 50 43 61
REMARK Flexibility Score: inf
ROOT
ATOM      1  C   UNL     1       4.838   3.820   6.024  1.00  0.00     0.023 C 
ENDROOT
BRANCH   1   2
ATOM      2  C   UNL     1       6.142   3.056   5.782  1.00  0.00     0.116 C 
BRANCH   2   3
ATOM      3  N   UNL     1       6.134   1.800   6.503  1.00  0.00    -0.352 N 
ATOM      4  C   UNL     1       5.831   0.522   6.105  1.00  0.00     0.251 C 
ATOM      5  O   UNL     1       5.938  -0.374   6.943  1.00  0.00    -0.269 OA
ATOM      6  H   UNL     1       6.392   1.876   7.450  1.00  0.00     0.163 HD
BRANCH   4   7
ATOM      7  C   UNL     1       5.440   0.170   4.710  1.00  0.00     0.039 A 
ATOM      8  C   UNL     1       4.816  -0.655   2.081  1.00  0.00    -0.029 A 
ATOM      9  C   UNL     1       5.436  -1.538   2.971  1.00  0.00     0.006 A 
ATOM     10  C   UNL     1       4.481   0.628   2.527  1.00  0.00     0.006 A 
ATOM     11  C   UNL     1       5.747  -1.126   4.271  1.00  0.00     0.014 A 
ATOM     12  C   UNL     1       4.763   1.023   3.836  1.00  0.00     0.014 A 
BRANCH   8  13
ATOM     13  C   UNL     1       4.487  -1.070   0.672  1.00  0.00     0.153 C 
BRANCH  13  14
ATOM     14  N   UNL     1       3.057  -1.048   0.457  1.00  0.00    -0.334 N 
ATOM     15  O   UNL     1       1.059  -0.327  -0.184  1.00  0.00    -0.248 OA
ATOM     16  C   UNL     1       2.277  -0.198  -0.262  1.00  0.00     0.319 C 
ATOM     17  N   UNL     1       2.933   0.694  -1.064  1.00  0.00    -0.307 N 
ATOM     18  H   UNL     1       2.564  -1.772   0.908  1.00  0.00     0.165 HD
ATOM     19  H   UNL     1       3.913   0.620  -1.123  1.00  0.00     0.171 HD
BRANCH  17  20
ATOM     20  C   UNL     1       2.306   1.716  -1.816  1.00  0.00     0.057 A 
ATOM     21  C   UNL     1       2.789   1.890  -3.123  1.00  0.00     0.027 A 
ATOM     22  C   UNL     1       1.264   2.546  -1.368  1.00  0.00     0.041 A 
ATOM     23  C   UNL     1       2.185   2.794  -3.998  1.00  0.00     0.002 A 
ATOM     24  C   UNL     1       0.658   3.449  -2.254  1.00  0.00     0.018 A 
ATOM     25  Br  UNL     1       0.749   2.701   0.459  1.00  0.00    -0.049 Br
ATOM     26  C   UNL     1       1.105   3.558  -3.571  1.00  0.00     0.001 A 
ENDBRANCH  17  20
ENDBRANCH  13  14
ENDBRANCH   8  13
ENDBRANCH   4   7
ENDBRANCH   2   3
ENDBRANCH   1   2
BRANCH   1  27
ATOM     27  C   UNL     1       4.774   4.536   7.375  1.00  0.00     0.023 C 
BRANCH  27  28
ATOM     28  C   UNL     1       5.827   5.618   7.572  1.00  0.00     0.116 C 
BRANCH  28  29
ATOM     29  N   UNL     1       5.789   6.650   6.550  1.00  0.00    -0.352 N 
ATOM     30  C   UNL     1       6.101   7.984   6.664  1.00  0.00     0.251 C 
ATOM     31  H   UNL     1       5.500   6.354   5.656  1.00  0.00     0.163 HD
ATOM     32  O   UNL     1       5.908   8.749   5.733  1.00  0.00    -0.269 OA
BRANCH  30  33
ATOM     33  C   UNL     1       6.637   8.489   7.945  1.00  0.00     0.039 A 
ATOM     34  C   UNL     1       6.083   9.650   8.489  1.00  0.00     0.014 A 
ATOM     35  C   UNL     1       7.664   7.816   8.611  1.00  0.00     0.014 A 
ATOM     36  C   UNL     1       6.528  10.108   9.729  1.00  0.00     0.010 A 
ATOM     37  C   UNL     1       8.050   8.228   9.882  1.00  0.00     0.010 A 
ATOM     38  C   UNL     1       7.495   9.385  10.448  1.00  0.00    -0.014 A 
BRANCH  38  39
ATOM     39  C   UNL     1       7.947   9.841  11.786  1.00  0.00     0.031 A 
ATOM     40  C   UNL     1       9.373  10.269  11.994  1.00  0.00     0.074 A 
ATOM     41  C   UNL     1       7.084   9.829  12.819  1.00  0.00     0.049 A 
ATOM     42  N   UNL     1       9.963  10.680  13.088  1.00  0.00    -0.248 NA
ATOM     43  C   UNL     1      10.263  10.198  10.824  1.00  0.00     0.031 C 
ATOM     44  C   UNL     1       5.692   9.380  12.754  1.00  0.00     0.029 A 
ATOM     45  N   UNL     1       7.252  10.201  14.129  1.00  0.00    -0.354 N 
ATOM     46  C   UNL     1      11.288  10.905  12.740  1.00  0.00     0.074 A 
ATOM     47  C   UNL     1      11.433  10.525  11.352  1.00  0.00     0.031 C 
ATOM     48  C   UNL     1       5.125   9.533  13.961  1.00  0.00     0.029 A 
ATOM     49  C   UNL     1       6.119  10.059  14.891  1.00  0.00     0.049 A 
ATOM     50  H   UNL     1       8.104  10.539  14.488  1.00  0.00     0.167 HD
ATOM     51  C   UNL     1      12.288  11.412  13.501  1.00  0.00     0.037 A 
ATOM     52  C   UNL     1       5.908  10.326  16.194  1.00  0.00     0.037 A 
ATOM     53  C   UNL     1      12.133  11.809  14.876  1.00  0.00     0.049 A 
ATOM     54  C   UNL     1       7.033  10.897  17.014  1.00  0.00     0.074 A 
ATOM     55  C   UNL     1      13.068  12.380  15.721  1.00  0.00     0.029 A 
ATOM     56  N   UNL     1      10.963  11.673  15.609  1.00  0.00    -0.354 N 
ATOM     57  N   UNL     1       8.262  11.177  16.655  1.00  0.00    -0.248 NA
ATOM     58  C   UNL     1       6.734  11.205  18.419  1.00  0.00     0.031 C 
ATOM     59  C   UNL     1      12.478  12.546  16.978  1.00  0.00     0.029 A 
ATOM     60  C   UNL     1      11.157  12.134  16.901  1.00  0.00     0.049 A 
ATOM     61  H   UNL     1      10.119  11.303  15.262  1.00  0.00     0.167 HD
ATOM     62  C   UNL     1       8.872  11.724  17.776  1.00  0.00     0.074 A 
ATOM     63  C   UNL     1       7.871  11.753  18.822  1.00  0.00     0.031 C 
ATOM     64  C   UNL     1      10.146  12.165  17.927  1.00  0.00     0.037 A 
BRANCH  51  65
ATOM     65  C   UNL     1      13.637  11.569  12.858  1.00  0.00     0.064 A 
ATOM     66  C   UNL     1      13.866  12.515  11.847  1.00  0.00     0.173 A 
ATOM     67  C   UNL     1      14.722  10.784  13.277  1.00  0.00     0.173 A 
ATOM     68  F   UNL     1      12.860  13.281  11.399  1.00  0.00    -0.203 F 
ATOM     69  C   UNL     1      15.120  12.647  11.257  1.00  0.00     0.198 A 
ATOM     70  C   UNL     1      15.984  10.943  12.709  1.00  0.00     0.198 A 
ATOM     71  F   UNL     1      14.562   9.868  14.243  1.00  0.00    -0.203 F 
ATOM     72  F   UNL     1      15.299  13.518  10.255  1.00  0.00    -0.200 F 
ATOM     73  C   UNL     1      16.180  11.867  11.694  1.00  0.00     0.200 A 
ATOM     74  F   UNL     1      17.010  10.197  13.142  1.00  0.00    -0.200 F 
ATOM     75  F   UNL     1      17.388  11.999  11.130  1.00  0.00    -0.200 F 
ENDBRANCH  51  65
BRANCH  52  76
ATOM     76  C   UNL     1       4.568  10.094  16.794  1.00  0.00     0.064 A 
ATOM     77  C   UNL     1       3.765  11.169  17.202  1.00  0.00     0.173 A 
ATOM     78  C   UNL     1       4.066   8.799  16.983  1.00  0.00     0.173 A 
ATOM     79  F   UNL     1       4.209  12.427  17.059  1.00  0.00    -0.203 F 
ATOM     80  C   UNL     1       2.526  10.957  17.802  1.00  0.00     0.198 A 
ATOM     81  C   UNL     1       2.813   8.588  17.555  1.00  0.00     0.198 A 
ATOM     82  F   UNL     1       4.790   7.736  16.604  1.00  0.00    -0.203 F 
ATOM     83  F   UNL     1       1.805  12.001  18.232  1.00  0.00    -0.200 F 
ATOM     84  C   UNL     1       2.049   9.667  17.974  1.00  0.00     0.200 A 
ATOM     85  F   UNL     1       2.348   7.340  17.705  1.00  0.00    -0.200 F 
ATOM     86  F   UNL     1       0.856   9.463  18.550  1.00  0.00    -0.200 F 
ENDBRANCH  52  76
BRANCH  64  87
ATOM     87  C   UNL     1      10.512  12.760  19.257  1.00  0.00     0.064 A 
ATOM     88  C   UNL     1      10.620  11.977  20.415  1.00  0.00     0.173 A 
ATOM     89  C   UNL     1      10.776  14.135  19.367  1.00  0.00     0.173 A 
ATOM     90  F   UNL     1      10.367  10.661  20.367  1.00  0.00    -0.203 F 
ATOM     91  C   UNL     1      10.939  12.554  21.642  1.00  0.00     0.198 A 
ATOM     92  C   UNL     1      11.129  14.702  20.588  1.00  0.00     0.198 A 
ATOM     93  F   UNL     1      10.696  14.928  18.288  1.00  0.00    -0.203 F 
ATOM     94  F   UNL     1      10.974  11.796  22.747  1.00  0.00    -0.200 F 
ATOM     95  C   UNL     1      11.198  13.914  21.726  1.00  0.00     0.200 A 
ATOM     96  F   UNL     1      11.395  16.013  20.663  1.00  0.00    -0.200 F 
ATOM     97  F   UNL     1      11.506  14.467  22.907  1.00  0.00    -0.200 F 
ENDBRANCH  64  87
ENDBRANCH  38  39
ENDBRANCH  30  33
ENDBRANCH  28  29
ENDBRANCH  27  28
ENDBRANCH   1  27
TORSDOF 14
