REMARK SMILES Cc1ccc(Nc2c(F)cccc2I)c(CC(=O)NCCCCNC(=O)c2ccc(-c3c4nc(c(-c5c(F)c(F)c(F)c(F)c5F)c5ccc([nH]5)c(-c5c(F)c(F)c(F)c(F)c5F)c5nc(c(-c6c(F)c(F)c(F)c(F)c6F)c6ccc3[nH]6)C=C5)C=C4)cc2)c1
REMARK SMILES IDX 21 1 20 2 19 3 17 4 18 5 16 7 15 8 1 9 2 10 3 11 90 12 4 13
REMARK SMILES IDX 5 14 6 15 7 17 8 18 13 19 9 20 10 21 12 22 14 23 11 24 22 25
REMARK SMILES IDX 23 26 24 27 25 28 26 30 27 31 28 32 89 33 29 34 88 35 30 36
REMARK SMILES IDX 31 37 32 38 82 39 33 40 87 41 81 42 83 43 34 44 86 45 80 46
REMARK SMILES IDX 79 47 35 49 67 50 47 51 66 52 48 53 51 54 65 55 84 56 49 57
REMARK SMILES IDX 50 58 64 60 85 61 52 62 36 63 37 64 45 65 38 66 39 67 43 68
REMARK SMILES IDX 46 69 40 70 41 71 44 72 42 73 68 74 69 75 77 76 70 77 71 78
REMARK SMILES IDX 75 79 78 80 72 81 73 82 76 83 74 84 53 85 54 86 62 87 55 88
REMARK SMILES IDX 56 89 60 90 63 91 57 92 58 93 61 94 59 95
REMARK H PARENT 19 6 6 16 24 29 83 48 51 59
REMARK Flexibility Score: inf
ROOT
ATOM      1  C   UNL     1      -0.148   1.134  -3.154  1.00  0.00     0.023 C 
ENDROOT
BRANCH   1   2
ATOM      2  C   UNL     1      -0.528   2.561  -2.727  1.00  0.00     0.116 C 
BRANCH   2   3
ATOM      3  N   UNL     1      -1.930   2.716  -2.375  1.00  0.00    -0.356 N 
ATOM      4  C   UNL     1      -2.542   2.651  -1.159  1.00  0.00     0.224 C 
ATOM      5  O   UNL     1      -3.770   2.766  -1.119  1.00  0.00    -0.275 OA
ATOM      6  H   UNL     1      -2.531   2.896  -3.134  1.00  0.00     0.163 HD
BRANCH   4   7
ATOM      7  C   UNL     1      -1.755   2.437   0.118  1.00  0.00     0.137 C 
BRANCH   7   8
ATOM      8  C   UNL     1      -1.074   1.089   0.202  1.00  0.00    -0.015 A 
ATOM      9  C   UNL     1       2.568  -0.071   0.305  1.00  0.00     0.044 C 
ATOM     10  C   UNL     1       1.069  -0.094   0.295  1.00  0.00    -0.051 A 
ATOM     11  C   UNL     1       0.384  -1.300   0.185  1.00  0.00     0.005 A 
ATOM     12  C   UNL     1       0.332   1.090   0.346  1.00  0.00     0.009 A 
ATOM     13  C   UNL     1      -1.013  -1.317   0.099  1.00  0.00     0.026 A 
ATOM     14  C   UNL     1      -1.772  -0.135   0.081  1.00  0.00     0.042 A 
BRANCH  14  15
ATOM     15  N   UNL     1      -3.176  -0.174  -0.054  1.00  0.00    -0.352 N 
ATOM     16  H   UNL     1      -3.601   0.701  -0.208  1.00  0.00     0.167 HD
BRANCH  15  17
ATOM     17  C   UNL     1      -4.073  -1.268  -0.004  1.00  0.00     0.088 A 
ATOM     18  C   UNL     1      -4.027  -2.219   1.030  1.00  0.00     0.147 A 
ATOM     19  C   UNL     1      -5.014  -1.487  -1.030  1.00  0.00     0.040 A 
ATOM     20  F   UNL     1      -3.173  -2.068   2.054  1.00  0.00    -0.205 F 
ATOM     21  C   UNL     1      -4.872  -3.330   1.053  1.00  0.00     0.041 A 
ATOM     22  C   UNL     1      -5.864  -2.603  -1.014  1.00  0.00     0.017 A 
ATOM     23  I   UNL     1      -5.179  -0.204  -2.688  1.00  0.00    -0.042 I 
ATOM     24  C   UNL     1      -5.791  -3.524   0.028  1.00  0.00     0.004 A 
ENDBRANCH  15  17
ENDBRANCH  14  15
ENDBRANCH   7   8
ENDBRANCH   4   7
ENDBRANCH   2   3
ENDBRANCH   1   2
BRANCH   1  25
ATOM     25  C   UNL     1      -0.958   0.543  -4.308  1.00  0.00     0.023 C 
BRANCH  25  26
ATOM     26  C   UNL     1      -0.677   1.187  -5.655  1.00  0.00     0.116 C 
BRANCH  26  27
ATOM     27  N   UNL     1       0.397   0.564  -6.418  1.00  0.00    -0.352 N 
ATOM     28  C   UNL     1       0.999   0.993  -7.592  1.00  0.00     0.251 C 
ATOM     29  H   UNL     1       0.745  -0.281  -6.050  1.00  0.00     0.163 HD
ATOM     30  O   UNL     1       1.844   0.309  -8.144  1.00  0.00    -0.269 OA
BRANCH  28  31
ATOM     31  C   UNL     1       0.712   2.363  -8.089  1.00  0.00     0.039 A 
ATOM     32  C   UNL     1       1.804   3.185  -8.393  1.00  0.00     0.014 A 
ATOM     33  C   UNL     1      -0.570   2.900  -8.017  1.00  0.00     0.014 A 
ATOM     34  C   UNL     1       1.648   4.567  -8.337  1.00  0.00     0.010 A 
ATOM     35  C   UNL     1      -0.706   4.264  -7.854  1.00  0.00     0.010 A 
ATOM     36  C   UNL     1       0.423   5.085  -7.925  1.00  0.00    -0.014 A 
BRANCH  36  37
ATOM     37  C   UNL     1       0.263   6.434  -7.396  1.00  0.00     0.031 A 
ATOM     38  C   UNL     1      -0.465   7.463  -8.161  1.00  0.00     0.074 A 
ATOM     39  C   UNL     1       0.689   6.699  -6.138  1.00  0.00     0.049 A 
ATOM     40  N   UNL     1      -0.476   8.712  -7.842  1.00  0.00    -0.248 NA
ATOM     41  C   UNL     1      -1.186   7.183  -9.401  1.00  0.00     0.031 C 
ATOM     42  C   UNL     1       0.351   7.848  -5.298  1.00  0.00     0.029 A 
ATOM     43  N   UNL     1       1.740   6.069  -5.446  1.00  0.00    -0.354 N 
ATOM     44  C   UNL     1      -1.416   9.331  -8.623  1.00  0.00     0.074 A 
ATOM     45  C   UNL     1      -1.724   8.380  -9.660  1.00  0.00     0.031 C 
ATOM     46  C   UNL     1       1.340   8.040  -4.412  1.00  0.00     0.029 A 
ATOM     47  C   UNL     1       2.404   7.118  -4.759  1.00  0.00     0.049 A 
ATOM     48  H   UNL     1       1.966   5.110  -5.440  1.00  0.00     0.167 HD
ATOM     49  C   UNL     1      -1.909  10.531  -8.213  1.00  0.00     0.037 A 
ATOM     50  C   UNL     1       3.675   7.479  -5.103  1.00  0.00     0.037 A 
ATOM     51  C   UNL     1      -1.038  11.147  -7.210  1.00  0.00     0.049 A 
ATOM     52  C   UNL     1       3.825   8.909  -5.590  1.00  0.00     0.074 A 
ATOM     53  C   UNL     1      -1.113  11.430  -5.859  1.00  0.00     0.029 A 
ATOM     54  N   UNL     1       0.280  11.380  -7.572  1.00  0.00    -0.354 N 
ATOM     55  N   UNL     1       2.838   9.748  -5.746  1.00  0.00    -0.248 NA
ATOM     56  C   UNL     1       5.102   9.464  -6.041  1.00  0.00     0.031 C 
ATOM     57  C   UNL     1       0.203  11.777  -5.409  1.00  0.00     0.029 A 
ATOM     58  C   UNL     1       1.060  11.739  -6.494  1.00  0.00     0.049 A 
ATOM     59  H   UNL     1       0.619  11.300  -8.493  1.00  0.00     0.167 HD
ATOM     60  C   UNL     1       3.301  10.888  -6.346  1.00  0.00     0.074 A 
ATOM     61  C   UNL     1       4.725  10.664  -6.513  1.00  0.00     0.031 C 
ATOM     62  C   UNL     1       2.487  11.920  -6.708  1.00  0.00     0.037 A 
BRANCH  49  63
ATOM     63  C   UNL     1      -3.236  11.112  -8.645  1.00  0.00     0.064 A 
ATOM     64  C   UNL     1      -3.599  12.420  -8.259  1.00  0.00     0.173 A 
ATOM     65  C   UNL     1      -4.249  10.395  -9.322  1.00  0.00     0.173 A 
ATOM     66  F   UNL     1      -2.747  13.205  -7.585  1.00  0.00    -0.203 F 
ATOM     67  C   UNL     1      -4.862  12.959  -8.532  1.00  0.00     0.198 A 
ATOM     68  C   UNL     1      -5.487  10.956  -9.646  1.00  0.00     0.198 A 
ATOM     69  F   UNL     1      -4.119   9.103  -9.640  1.00  0.00    -0.203 F 
ATOM     70  F   UNL     1      -5.173  14.185  -8.088  1.00  0.00    -0.200 F 
ATOM     71  C   UNL     1      -5.800  12.233  -9.238  1.00  0.00     0.200 A 
ATOM     72  F   UNL     1      -6.384  10.228 -10.327  1.00  0.00    -0.200 F 
ATOM     73  F   UNL     1      -7.007  12.749  -9.504  1.00  0.00    -0.200 F 
ENDBRANCH  49  63
BRANCH  50  74
ATOM     74  C   UNL     1       4.492   6.326  -5.571  1.00  0.00     0.064 A 
ATOM     75  C   UNL     1       4.689   5.242  -4.692  1.00  0.00     0.173 A 
ATOM     76  C   UNL     1       4.756   6.113  -6.928  1.00  0.00     0.173 A 
ATOM     77  F   UNL     1       4.448   5.390  -3.379  1.00  0.00    -0.203 F 
ATOM     78  C   UNL     1       5.010   3.973  -5.167  1.00  0.00     0.198 A 
ATOM     79  C   UNL     1       5.102   4.845  -7.397  1.00  0.00     0.198 A 
ATOM     80  F   UNL     1       4.564   7.094  -7.821  1.00  0.00    -0.203 F 
ATOM     81  F   UNL     1       5.064   2.936  -4.319  1.00  0.00    -0.200 F 
ATOM     82  C   UNL     1       5.191   3.770  -6.524  1.00  0.00     0.200 A 
ATOM     83  F   UNL     1       5.247   4.643  -8.714  1.00  0.00    -0.200 F 
ATOM     84  F   UNL     1       5.406   2.535  -6.997  1.00  0.00    -0.200 F 
ENDBRANCH  50  74
BRANCH  62  85
ATOM     85  C   UNL     1       2.999  13.180  -7.349  1.00  0.00     0.064 A 
ATOM     86  C   UNL     1       4.125  13.863  -6.862  1.00  0.00     0.173 A 
ATOM     87  C   UNL     1       2.312  13.797  -8.416  1.00  0.00     0.173 A 
ATOM     88  F   UNL     1       4.811  13.391  -5.810  1.00  0.00    -0.203 F 
ATOM     89  C   UNL     1       4.566  15.056  -7.439  1.00  0.00     0.198 A 
ATOM     90  C   UNL     1       2.724  15.016  -8.955  1.00  0.00     0.198 A 
ATOM     91  F   UNL     1       1.243  13.223  -8.985  1.00  0.00    -0.203 F 
ATOM     92  F   UNL     1       5.680  15.644  -6.981  1.00  0.00    -0.200 F 
ATOM     93  C   UNL     1       3.859  15.638  -8.476  1.00  0.00     0.200 A 
ATOM     94  F   UNL     1       2.017  15.576  -9.948  1.00  0.00    -0.200 F 
ATOM     95  F   UNL     1       4.273  16.792  -9.016  1.00  0.00    -0.200 F 
ENDBRANCH  62  85
ENDBRANCH  36  37
ENDBRANCH  28  31
ENDBRANCH  26  27
ENDBRANCH  25  26
ENDBRANCH   1  25
TORSDOF 14
