REMARK SMILES COc1ncccc1NS(=O)(=O)c1ccc(Br)c(C(=O)NCCCCNC(=O)c2ccc(-c3c4nc(c(-c5c(F)c(F)c(F)c(F)c5F)c5ccc([nH]5)c(-c5c(F)c(F)c(F)c(F)c5F)c5nc(c(-c6c(F)c(F)c(F)c(F)c6F)c6ccc3[nH]6)C=C5)C=C4)cc2)c1
REMARK SMILES IDX 22 1 21 2 19 3 20 4 18 6 13 7 14 8 92 9 15 10 16 11 17 12
REMARK SMILES IDX 10 13 11 14 12 15 9 16 8 18 3 19 4 20 5 21 7 22 6 23 2 24
REMARK SMILES IDX 1 25 23 26 24 27 25 28 26 29 27 30 28 32 29 33 30 34 91 35
REMARK SMILES IDX 31 36 90 37 32 38 33 39 34 40 84 41 35 42 89 43 83 44 85 45
REMARK SMILES IDX 36 46 88 47 82 48 81 49 37 51 69 52 49 53 68 54 50 55 53 56
REMARK SMILES IDX 67 57 86 58 51 59 52 60 66 62 87 63 54 64 38 65 39 66 47 67
REMARK SMILES IDX 40 68 41 69 45 70 48 71 42 72 43 73 46 74 44 75 70 76 71 77
REMARK SMILES IDX 79 78 72 79 73 80 77 81 80 82 74 83 75 84 78 85 76 86 55 87
REMARK SMILES IDX 56 88 64 89 57 90 58 91 62 92 65 93 59 94 60 95 63 96 61 97
REMARK H PARENT 21 5 9 17 26 31 85 50 53 61
REMARK Flexibility Score: inf
ROOT
ATOM      1  C   UNL     1      -4.156   3.781   1.639  1.00  0.00     0.116 C 
ENDROOT
BRANCH   1   2
ATOM      2  N   UNL     1      -2.776   4.152   1.429  1.00  0.00    -0.352 N 
ATOM      3  C   UNL     1      -1.565   3.564   1.232  1.00  0.00     0.252 C 
ATOM      4  O   UNL     1      -0.677   4.385   0.962  1.00  0.00    -0.269 OA
ATOM      5  H   UNL     1      -2.683   5.132   1.427  1.00  0.00     0.163 HD
BRANCH   3   6
ATOM      6  C   UNL     1      -1.155   2.130   1.377  1.00  0.00     0.055 A 
ATOM      7  C   UNL     1       0.911   0.746   1.631  1.00  0.00     0.088 A 
ATOM      8  C   UNL     1       0.135  -0.391   1.704  1.00  0.00     0.023 A 
ATOM      9  C   UNL     1       0.255   1.988   1.538  1.00  0.00     0.037 A 
ATOM     10  C   UNL     1      -1.246  -0.293   1.529  1.00  0.00     0.018 A 
ATOM     11  C   UNL     1      -1.884   0.941   1.294  1.00  0.00     0.030 A 
ATOM     12  Br  UNL     1      -3.642   0.710   0.639  1.00  0.00    -0.050 Br
BRANCH   7  13
ATOM     13  S   UNL     1       2.686   0.804   1.446  1.00  0.00     0.262 S 
ATOM     14  O   UNL     1       3.153   1.820   2.368  1.00  0.00    -0.201 OA
ATOM     15  O   UNL     1       2.920   0.958   0.024  1.00  0.00    -0.201 OA
BRANCH  13  16
ATOM     16  N   UNL     1       3.522  -0.604   1.889  1.00  0.00    -0.274 N 
ATOM     17  H   UNL     1       4.458  -0.532   2.186  1.00  0.00     0.180 HD
BRANCH  16  18
ATOM     18  C   UNL     1       2.904  -1.891   1.842  1.00  0.00     0.111 A 
ATOM     19  C   UNL     1       2.466  -2.526   0.675  1.00  0.00     0.238 A 
ATOM     20  N   UNL     1       1.823  -3.716   0.676  1.00  0.00    -0.220 NA
ATOM     21  C   UNL     1       1.621  -4.301   1.879  1.00  0.00     0.115 A 
ATOM     22  C   UNL     1       2.699  -2.534   3.061  1.00  0.00     0.034 A 
ATOM     23  C   UNL     1       2.043  -3.760   3.083  1.00  0.00     0.023 A 
BRANCH  19  24
ATOM     24  O   UNL     1       2.728  -1.924  -0.531  1.00  0.00    -0.480 OA
ATOM     25  C   UNL     1       1.635  -1.980  -1.446  1.00  0.00     0.280 C 
ENDBRANCH  19  24
ENDBRANCH  16  18
ENDBRANCH  13  16
ENDBRANCH   7  13
ENDBRANCH   3   6
ENDBRANCH   1   2
BRANCH   1  26
ATOM     26  C   UNL     1      -4.460   3.198   3.017  1.00  0.00     0.023 C 
BRANCH  26  27
ATOM     27  C   UNL     1      -5.514   3.999   3.788  1.00  0.00     0.023 C 
BRANCH  27  28
ATOM     28  C   UNL     1      -6.851   4.168   3.072  1.00  0.00     0.116 C 
BRANCH  28  29
ATOM     29  N   UNL     1      -7.553   2.925   2.796  1.00  0.00    -0.352 N 
ATOM     30  C   UNL     1      -8.897   2.792   2.515  1.00  0.00     0.251 C 
ATOM     31  H   UNL     1      -7.018   2.099   2.811  1.00  0.00     0.163 HD
ATOM     32  O   UNL     1      -9.418   1.692   2.370  1.00  0.00    -0.269 OA
BRANCH  30  33
ATOM     33  C   UNL     1      -9.711   4.022   2.452  1.00  0.00     0.039 A 
ATOM     34  C   UNL     1     -10.742   4.199   3.377  1.00  0.00     0.014 A 
ATOM     35  C   UNL     1      -9.354   5.048   1.573  1.00  0.00     0.014 A 
ATOM     36  C   UNL     1     -11.360   5.447   3.480  1.00  0.00     0.010 A 
ATOM     37  C   UNL     1      -9.919   6.308   1.729  1.00  0.00     0.010 A 
ATOM     38  C   UNL     1     -10.919   6.523   2.691  1.00  0.00    -0.014 A 
BRANCH  38  39
ATOM     39  C   UNL     1     -11.479   7.886   2.867  1.00  0.00     0.031 A 
ATOM     40  C   UNL     1     -12.240   8.533   1.745  1.00  0.00     0.074 A 
ATOM     41  C   UNL     1     -11.236   8.569   4.003  1.00  0.00     0.049 A 
ATOM     42  N   UNL     1     -12.744   9.739   1.673  1.00  0.00    -0.248 NA
ATOM     43  C   UNL     1     -12.430   7.729   0.528  1.00  0.00     0.031 C 
ATOM     44  C   UNL     1     -10.455   8.075   5.138  1.00  0.00     0.029 A 
ATOM     45  N   UNL     1     -11.611   9.833   4.385  1.00  0.00    -0.354 N 
ATOM     46  C   UNL     1     -13.291   9.842   0.402  1.00  0.00     0.074 A 
ATOM     47  C   UNL     1     -13.010   8.600  -0.284  1.00  0.00     0.031 C 
ATOM     48  C   UNL     1     -10.430   9.014   6.098  1.00  0.00     0.029 A 
ATOM     49  C   UNL     1     -11.167  10.186   5.636  1.00  0.00     0.049 A 
ATOM     50  H   UNL     1     -12.149  10.430   3.817  1.00  0.00     0.167 HD
ATOM     51  C   UNL     1     -13.988  10.870  -0.136  1.00  0.00     0.037 A 
ATOM     52  C   UNL     1     -11.337  11.327   6.331  1.00  0.00     0.037 A 
ATOM     53  C   UNL     1     -14.300  12.089   0.562  1.00  0.00     0.049 A 
ATOM     54  C   UNL     1     -12.140  12.444   5.721  1.00  0.00     0.074 A 
ATOM     55  C   UNL     1     -15.060  13.161   0.130  1.00  0.00     0.029 A 
ATOM     56  N   UNL     1     -13.866  12.394   1.843  1.00  0.00    -0.354 N 
ATOM     57  N   UNL     1     -12.719  12.501   4.546  1.00  0.00    -0.248 NA
ATOM     58  C   UNL     1     -12.321  13.653   6.537  1.00  0.00     0.031 C 
ATOM     59  C   UNL     1     -15.060  14.130   1.139  1.00  0.00     0.029 A 
ATOM     60  C   UNL     1     -14.333  13.645   2.214  1.00  0.00     0.049 A 
ATOM     61  H   UNL     1     -13.310  11.809   2.406  1.00  0.00     0.167 HD
ATOM     62  C   UNL     1     -13.354  13.734   4.492  1.00  0.00     0.074 A 
ATOM     63  C   UNL     1     -13.100  14.390   5.758  1.00  0.00     0.031 C 
ATOM     64  C   UNL     1     -14.081  14.274   3.484  1.00  0.00     0.037 A 
BRANCH  51  65
ATOM     65  C   UNL     1     -14.474  10.711  -1.546  1.00  0.00     0.064 A 
ATOM     66  C   UNL     1     -15.506   9.816  -1.869  1.00  0.00     0.173 A 
ATOM     67  C   UNL     1     -13.920  11.476  -2.583  1.00  0.00     0.173 A 
ATOM     68  F   UNL     1     -16.058   9.051  -0.915  1.00  0.00    -0.203 F 
ATOM     69  C   UNL     1     -15.943   9.671  -3.183  1.00  0.00     0.198 A 
ATOM     70  C   UNL     1     -14.380  11.349  -3.891  1.00  0.00     0.198 A 
ATOM     71  F   UNL     1     -12.934  12.349  -2.327  1.00  0.00    -0.203 F 
ATOM     72  F   UNL     1     -16.894   8.772  -3.474  1.00  0.00    -0.200 F 
ATOM     73  C   UNL     1     -15.385  10.441  -4.191  1.00  0.00     0.200 A 
ATOM     74  F   UNL     1     -13.847  12.102  -4.863  1.00  0.00    -0.200 F 
ATOM     75  F   UNL     1     -15.810  10.303  -5.454  1.00  0.00    -0.200 F 
ENDBRANCH  51  65
BRANCH  52  76
ATOM     76  C   UNL     1     -10.770  11.459   7.698  1.00  0.00     0.064 A 
ATOM     77  C   UNL     1     -11.606  11.467   8.823  1.00  0.00     0.173 A 
ATOM     78  C   UNL     1      -9.390  11.584   7.909  1.00  0.00     0.173 A 
ATOM     79  F   UNL     1     -12.935  11.370   8.669  1.00  0.00    -0.203 F 
ATOM     80  C   UNL     1     -11.086  11.617  10.107  1.00  0.00     0.198 A 
ATOM     81  C   UNL     1      -8.868  11.709   9.196  1.00  0.00     0.198 A 
ATOM     82  F   UNL     1      -8.547  11.577   6.867  1.00  0.00    -0.203 F 
ATOM     83  F   UNL     1     -11.912  11.665  11.161  1.00  0.00    -0.200 F 
ATOM     84  C   UNL     1      -9.717  11.733  10.293  1.00  0.00     0.200 A 
ATOM     85  F   UNL     1      -7.543  11.809   9.373  1.00  0.00    -0.200 F 
ATOM     86  F   UNL     1      -9.216  11.875  11.527  1.00  0.00    -0.200 F 
ENDBRANCH  52  76
BRANCH  64  87
ATOM     87  C   UNL     1     -14.684  15.627   3.721  1.00  0.00     0.064 A 
ATOM     88  C   UNL     1     -13.902  16.790   3.724  1.00  0.00     0.173 A 
ATOM     89  C   UNL     1     -16.070  15.762   3.899  1.00  0.00     0.173 A 
ATOM     90  F   UNL     1     -12.571  16.708   3.574  1.00  0.00    -0.203 F 
ATOM     91  C   UNL     1     -14.483  18.040   3.917  1.00  0.00     0.198 A 
ATOM     92  C   UNL     1     -16.650  17.016   4.064  1.00  0.00     0.198 A 
ATOM     93  F   UNL     1     -16.861  14.679   3.897  1.00  0.00    -0.203 F 
ATOM     94  F   UNL     1     -13.712  19.136   3.957  1.00  0.00    -0.200 F 
ATOM     95  C   UNL     1     -15.856  18.153   4.079  1.00  0.00     0.200 A 
ATOM     96  F   UNL     1     -17.978  17.125   4.210  1.00  0.00    -0.200 F 
ATOM     97  F   UNL     1     -16.413  19.359   4.256  1.00  0.00    -0.200 F 
ENDBRANCH  64  87
ENDBRANCH  38  39
ENDBRANCH  30  33
ENDBRANCH  28  29
ENDBRANCH  27  28
ENDBRANCH  26  27
ENDBRANCH   1  26
TORSDOF 15
