REMARK SMILES C[C@@]([NH2+]CCC1CC1)(C(=O)NCCCCNC(=O)c1ccc(-c2c3nc(c(-c4c(F)c(F)c(F)c(F)c4F)c4ccc([nH]4)c(-c4c(F)c(F)c(F)c(F)c4F)c4nc(c(-c5c(F)c(F)c(F)c(F)c5F)c5ccc2[nH]5)C=C4)C=C3)cc1)C(F)(F)F
REMARK SMILES IDX 12 1 11 2 9 3 10 4 2 6 1 7 3 8 4 11 5 12 6 13 7 14 8 15
REMARK SMILES IDX 82 16 83 17 84 18 85 19 13 20 14 21 15 22 16 23 17 24 18 26
REMARK SMILES IDX 19 27 20 28 81 29 21 30 80 31 22 32 23 33 24 34 74 35 25 36
REMARK SMILES IDX 79 37 73 38 75 39 26 40 78 41 72 42 71 43 27 45 59 46 39 47
REMARK SMILES IDX 58 48 40 49 43 50 57 51 76 52 41 53 42 54 56 56 77 57 44 58
REMARK SMILES IDX 28 59 29 60 37 61 30 62 31 63 35 64 38 65 32 66 33 67 36 68
REMARK SMILES IDX 34 69 60 70 61 71 69 72 62 73 63 74 67 75 70 76 64 77 65 78
REMARK SMILES IDX 68 79 66 80 45 81 46 82 54 83 47 84 48 85 52 86 55 87 49 88
REMARK SMILES IDX 50 89 53 90 51 91
REMARK H PARENT 11 5 3 9 3 10 16 25 75 44 43 55
REMARK Flexibility Score: inf
ROOT
ATOM      1  C   UNL     1      -1.136   0.238  -2.243  1.00  0.00     0.116 C 
ENDROOT
BRANCH   1   2
ATOM      2  N   UNL     1      -1.712   0.763  -1.019  1.00  0.00    -0.350 N 
ATOM      3  C   UNL     1      -1.127   1.220   0.129  1.00  0.00     0.290 C 
ATOM      4  O   UNL     1      -1.909   1.553   1.023  1.00  0.00    -0.267 OA
ATOM      5  H   UNL     1      -2.696   0.797  -1.015  1.00  0.00     0.163 HD
BRANCH   3   6
ATOM      6  C   UNL     1       0.405   1.323   0.290  1.00  0.00     0.268 C 
ATOM      7  C   UNL     1       1.033  -0.087   0.258  1.00  0.00     0.101 C 
BRANCH   6   8
ATOM      8  N   UNL     1       1.029   2.069  -0.861  1.00  0.00    -0.326 N 
ATOM      9  H   UNL     1       0.894   1.507  -1.701  1.00  0.00     0.347 HD
ATOM     10  H   UNL     1       2.003   2.208  -0.590  1.00  0.00     0.347 HD
BRANCH   8  11
ATOM     11  C   UNL     1       0.513   3.413  -1.138  1.00  0.00     0.261 C 
BRANCH  11  12
ATOM     12  C   UNL     1       1.174   4.596  -0.414  1.00  0.00     0.065 C 
BRANCH  12  13
ATOM     13  C   UNL     1       2.666   4.503  -0.254  1.00  0.00    -0.006 C 
ATOM     14  C   UNL     1       3.586   4.056  -1.365  1.00  0.00     0.004 C 
ATOM     15  C   UNL     1       3.554   5.498  -0.960  1.00  0.00     0.004 C 
ENDBRANCH  12  13
ENDBRANCH  11  12
ENDBRANCH   8  11
ENDBRANCH   6   8
BRANCH   6  16
ATOM     16  C   UNL     1       0.686   1.888   1.709  1.00  0.00     0.453 C 
ATOM     17  F   UNL     1       0.309   1.036   2.690  1.00  0.00    -0.164 F 
ATOM     18  F   UNL     1       2.029   2.074   1.864  1.00  0.00    -0.164 F 
ATOM     19  F   UNL     1       0.108   3.083   1.946  1.00  0.00    -0.164 F 
ENDBRANCH   6  16
ENDBRANCH   3   6
ENDBRANCH   1   2
BRANCH   1  20
ATOM     20  C   UNL     1      -1.352  -1.271  -2.344  1.00  0.00     0.023 C 
BRANCH  20  21
ATOM     21  C   UNL     1      -2.813  -1.689  -2.524  1.00  0.00     0.023 C 
BRANCH  21  22
ATOM     22  C   UNL     1      -3.502  -1.115  -3.757  1.00  0.00     0.116 C 
BRANCH  22  23
ATOM     23  N   UNL     1      -2.846  -1.489  -5.000  1.00  0.00    -0.352 N 
ATOM     24  C   UNL     1      -3.412  -1.897  -6.185  1.00  0.00     0.251 C 
ATOM     25  H   UNL     1      -1.863  -1.443  -4.992  1.00  0.00     0.163 HD
ATOM     26  O   UNL     1      -2.711  -2.304  -7.101  1.00  0.00    -0.269 OA
BRANCH  24  27
ATOM     27  C   UNL     1      -4.883  -1.874  -6.330  1.00  0.00     0.039 A 
ATOM     28  C   UNL     1      -5.527  -3.007  -6.832  1.00  0.00     0.014 A 
ATOM     29  C   UNL     1      -5.621  -0.751  -5.947  1.00  0.00     0.014 A 
ATOM     30  C   UNL     1      -6.921  -3.039  -6.887  1.00  0.00     0.010 A 
ATOM     31  C   UNL     1      -7.011  -0.811  -5.936  1.00  0.00     0.010 A 
ATOM     32  C   UNL     1      -7.675  -1.956  -6.404  1.00  0.00    -0.014 A 
BRANCH  32  33
ATOM     33  C   UNL     1      -9.158  -2.002  -6.377  1.00  0.00     0.031 A 
ATOM     34  C   UNL     1      -9.957  -1.044  -7.213  1.00  0.00     0.074 A 
ATOM     35  C   UNL     1      -9.782  -2.860  -5.547  1.00  0.00     0.049 A 
ATOM     36  N   UNL     1     -11.255  -0.875  -7.268  1.00  0.00    -0.248 NA
ATOM     37  C   UNL     1      -9.196  -0.133  -8.082  1.00  0.00     0.031 C 
ATOM     38  C   UNL     1      -9.116  -3.804  -4.648  1.00  0.00     0.029 A 
ATOM     39  N   UNL     1     -11.119  -3.067  -5.314  1.00  0.00    -0.354 N 
ATOM     40  C   UNL     1     -11.462   0.164  -8.164  1.00  0.00     0.074 A 
ATOM     41  C   UNL     1     -10.158   0.627  -8.586  1.00  0.00     0.031 C 
ATOM     42  C   UNL     1     -10.045  -4.500  -3.975  1.00  0.00     0.029 A 
ATOM     43  C   UNL     1     -11.370  -4.029  -4.366  1.00  0.00     0.049 A 
ATOM     44  H   UNL     1     -11.830  -2.574  -5.782  1.00  0.00     0.167 HD
ATOM     45  C   UNL     1     -12.635   0.670  -8.614  1.00  0.00     0.037 A 
ATOM     46  C   UNL     1     -12.537  -4.474  -3.864  1.00  0.00     0.037 A 
ATOM     47  C   UNL     1     -13.931   0.193  -8.209  1.00  0.00     0.049 A 
ATOM     48  C   UNL     1     -13.826  -3.895  -4.380  1.00  0.00     0.074 A 
ATOM     49  C   UNL     1     -15.178   0.603  -8.647  1.00  0.00     0.029 A 
ATOM     50  N   UNL     1     -14.145  -0.802  -7.266  1.00  0.00    -0.354 N 
ATOM     51  N   UNL     1     -14.012  -2.958  -5.278  1.00  0.00    -0.248 NA
ATOM     52  C   UNL     1     -15.070  -4.441  -3.817  1.00  0.00     0.031 C 
ATOM     53  C   UNL     1     -16.148  -0.115  -7.939  1.00  0.00     0.029 A 
ATOM     54  C   UNL     1     -15.505  -1.007  -7.096  1.00  0.00     0.049 A 
ATOM     55  H   UNL     1     -13.436  -1.291  -6.789  1.00  0.00     0.167 HD
ATOM     56  C   UNL     1     -15.387  -2.821  -5.408  1.00  0.00     0.074 A 
ATOM     57  C   UNL     1     -15.989  -3.782  -4.508  1.00  0.00     0.031 C 
ATOM     58  C   UNL     1     -16.088  -1.974  -6.202  1.00  0.00     0.037 A 
BRANCH  45  59
ATOM     59  C   UNL     1     -12.569   1.796  -9.605  1.00  0.00     0.064 A 
ATOM     60  C   UNL     1     -12.118   1.592 -10.918  1.00  0.00     0.173 A 
ATOM     61  C   UNL     1     -12.990   3.086  -9.249  1.00  0.00     0.173 A 
ATOM     62  F   UNL     1     -11.692   0.380 -11.306  1.00  0.00    -0.203 F 
ATOM     63  C   UNL     1     -12.064   2.644 -11.829  1.00  0.00     0.198 A 
ATOM     64  C   UNL     1     -12.963   4.129 -10.172  1.00  0.00     0.198 A 
ATOM     65  F   UNL     1     -13.434   3.335  -8.009  1.00  0.00    -0.203 F 
ATOM     66  F   UNL     1     -11.581   2.435 -13.062  1.00  0.00    -0.200 F 
ATOM     67  C   UNL     1     -12.493   3.909 -11.458  1.00  0.00     0.200 A 
ATOM     68  F   UNL     1     -13.390   5.348  -9.816  1.00  0.00    -0.200 F 
ATOM     69  F   UNL     1     -12.446   4.919 -12.338  1.00  0.00    -0.200 F 
ENDBRANCH  45  59
BRANCH  46  70
ATOM     70  C   UNL     1     -12.541  -5.540  -2.829  1.00  0.00     0.064 A 
ATOM     71  C   UNL     1     -13.007  -6.829  -3.124  1.00  0.00     0.173 A 
ATOM     72  C   UNL     1     -12.085  -5.295  -1.525  1.00  0.00     0.173 A 
ATOM     73  F   UNL     1     -13.472  -7.107  -4.351  1.00  0.00    -0.203 F 
ATOM     74  C   UNL     1     -13.036  -7.825  -2.151  1.00  0.00     0.198 A 
ATOM     75  C   UNL     1     -12.088  -6.300  -0.560  1.00  0.00     0.198 A 
ATOM     76  F   UNL     1     -11.624  -4.080  -1.193  1.00  0.00    -0.203 F 
ATOM     77  F   UNL     1     -13.530  -9.035  -2.449  1.00  0.00    -0.200 F 
ATOM     78  C   UNL     1     -12.572  -7.562  -0.871  1.00  0.00     0.200 A 
ATOM     79  F   UNL     1     -11.625  -6.045   0.671  1.00  0.00    -0.200 F 
ATOM     80  F   UNL     1     -12.597  -8.521   0.064  1.00  0.00    -0.200 F 
ENDBRANCH  46  70
BRANCH  58  81
ATOM     81  C   UNL     1     -17.585  -2.073  -6.159  1.00  0.00     0.064 A 
ATOM     82  C   UNL     1     -18.322  -1.623  -5.054  1.00  0.00     0.173 A 
ATOM     83  C   UNL     1     -18.293  -2.586  -7.257  1.00  0.00     0.173 A 
ATOM     84  F   UNL     1     -17.690  -1.138  -3.974  1.00  0.00    -0.203 F 
ATOM     85  C   UNL     1     -19.711  -1.706  -5.039  1.00  0.00     0.198 A 
ATOM     86  C   UNL     1     -19.684  -2.640  -7.250  1.00  0.00     0.198 A 
ATOM     87  F   UNL     1     -17.636  -3.023  -8.341  1.00  0.00    -0.203 F 
ATOM     88  F   UNL     1     -20.392  -1.313  -3.953  1.00  0.00    -0.200 F 
ATOM     89  C   UNL     1     -20.391  -2.207  -6.139  1.00  0.00     0.200 A 
ATOM     90  F   UNL     1     -20.340  -3.111  -8.320  1.00  0.00    -0.200 F 
ATOM     91  F   UNL     1     -21.729  -2.279  -6.126  1.00  0.00    -0.200 F 
ENDBRANCH  58  81
ENDBRANCH  32  33
ENDBRANCH  24  27
ENDBRANCH  22  23
ENDBRANCH  21  22
ENDBRANCH  20  21
ENDBRANCH   1  20
TORSDOF 16
