REMARK SMILES COc1ccccc1C(=O)N1[C@@H](C(=O)NCCCCNC(=O)c2ccc(-c3c4nc(c(-c5c(F)c(F)c(F)c(F)c5F)c5ccc([nH]5)c(-c5c(F)c(F)c(F)c(F)c5F)c5nc(c(-c6c(F)c(F)c(F)c(F)c6F)c6ccc3[nH]6)C=C5)C=C4)cc2)COC12CC[NH+](Cc1ccccc1)CC2
REMARK SMILES IDX 17 1 16 2 15 3 13 4 14 5 12 7 11 8 88 9 86 10 87 11 89 12
REMARK SMILES IDX 100 13 90 14 99 15 91 16 9 18 10 19 8 20 3 21 4 22 5 23 7 24
REMARK SMILES IDX 6 25 2 26 1 27 92 28 93 29 94 30 98 31 95 32 97 33 96 34
REMARK SMILES IDX 18 35 19 36 20 37 21 38 22 40 23 41 24 42 85 43 25 44 84 45
REMARK SMILES IDX 26 46 27 47 28 48 78 49 29 50 83 51 77 52 79 53 30 54 82 55
REMARK SMILES IDX 76 56 75 57 31 59 63 60 43 61 62 62 44 63 47 64 61 65 80 66
REMARK SMILES IDX 45 67 46 68 60 70 81 71 48 72 32 73 33 74 41 75 34 76 35 77
REMARK SMILES IDX 39 78 42 79 36 80 37 81 40 82 38 83 64 84 65 85 73 86 66 87
REMARK SMILES IDX 67 88 71 89 74 90 68 91 69 92 72 93 70 94 49 95 50 96 58 97
REMARK SMILES IDX 51 98 52 99 56 100 59 101 53 102 54 103 57 104 55 105
REMARK H PARENT 15 6 91 17 20 39 79 58 47 69
REMARK Flexibility Score: inf
ROOT
ATOM      1  C   UNL     1      -0.682   2.500   2.563  1.00  0.00     0.023 C 
ENDROOT
BRANCH   1   2
ATOM      2  C   UNL     1       0.245   1.717   1.646  1.00  0.00     0.116 C 
BRANCH   2   3
ATOM      3  N   UNL     1       0.948   2.517   0.672  1.00  0.00    -0.354 N 
ATOM      4  C   UNL     1       2.151   2.285   0.063  1.00  0.00     0.245 C 
ATOM      5  O   UNL     1       2.462   3.080  -0.833  1.00  0.00    -0.273 OA
ATOM      6  H   UNL     1       0.496   3.351   0.407  1.00  0.00     0.163 HD
BRANCH   4   7
ATOM      7  C   UNL     1       3.104   1.123   0.444  1.00  0.00     0.203 C 
ATOM      8  N   UNL     1       2.627  -0.215   0.112  1.00  0.00    -0.295 N 
ATOM      9  C   UNL     1       2.505  -1.019   1.338  1.00  0.00     0.155 C 
ATOM     10  C   UNL     1       3.406   1.056   1.918  1.00  0.00     0.198 C 
ATOM     11  O   UNL     1       2.598  -0.034   2.404  1.00  0.00    -0.352 OA
ATOM     12  C   UNL     1       1.191  -1.793   1.481  1.00  0.00     0.120 C 
ATOM     13  C   UNL     1       3.679  -1.969   1.604  1.00  0.00     0.120 C 
ATOM     14  C   UNL     1       1.076  -2.515   2.820  1.00  0.00     0.267 C 
ATOM     15  C   UNL     1       3.500  -2.653   2.977  1.00  0.00     0.267 C 
ATOM     16  N   UNL     1       2.226  -3.346   3.152  1.00  0.00    -0.331 N 
ATOM     17  H   UNL     1       2.163  -3.484   4.160  1.00  0.00     0.348 HD
BRANCH   8  18
ATOM     18  C   UNL     1       2.833  -0.658  -1.191  1.00  0.00     0.260 C 
ATOM     19  O   UNL     1       3.711  -0.154  -1.897  1.00  0.00    -0.269 OA
BRANCH  18  20
ATOM     20  C   UNL     1       1.973  -1.671  -1.859  1.00  0.00     0.082 A 
ATOM     21  C   UNL     1       0.575  -1.679  -1.789  1.00  0.00     0.131 A 
ATOM     22  C   UNL     1      -0.181  -2.608  -2.521  1.00  0.00     0.047 A 
ATOM     23  C   UNL     1       0.441  -3.441  -3.446  1.00  0.00     0.004 A 
ATOM     24  C   UNL     1       2.581  -2.501  -2.819  1.00  0.00     0.018 A 
ATOM     25  C   UNL     1       1.820  -3.363  -3.620  1.00  0.00     0.001 A 
BRANCH  21  26
ATOM     26  O   UNL     1      -0.134  -0.745  -1.081  1.00  0.00    -0.496 OA
ATOM     27  C   UNL     1      -0.366   0.396  -1.915  1.00  0.00     0.278 C 
ENDBRANCH  21  26
ENDBRANCH  18  20
ENDBRANCH   8  18
BRANCH  16  28
ATOM     28  C   UNL     1       2.161  -4.753   2.743  1.00  0.00     0.299 C 
BRANCH  28  29
ATOM     29  C   UNL     1       2.718  -5.100   1.382  1.00  0.00     0.006 A 
ATOM     30  C   UNL     1       1.880  -5.238   0.271  1.00  0.00     0.009 A 
ATOM     31  C   UNL     1       4.105  -5.256   1.204  1.00  0.00     0.009 A 
ATOM     32  C   UNL     1       2.425  -5.479  -0.991  1.00  0.00     0.001 A 
ATOM     33  C   UNL     1       4.649  -5.433  -0.067  1.00  0.00     0.001 A 
ATOM     34  C   UNL     1       3.806  -5.539  -1.167  1.00  0.00     0.000 A 
ENDBRANCH  28  29
ENDBRANCH  16  28
ENDBRANCH   4   7
ENDBRANCH   2   3
ENDBRANCH   1   2
BRANCH   1  35
ATOM     35  C   UNL     1      -2.072   2.758   2.003  1.00  0.00     0.023 C 
BRANCH  35  36
ATOM     36  C   UNL     1      -2.825   1.522   1.519  1.00  0.00     0.116 C 
BRANCH  36  37
ATOM     37  N   UNL     1      -2.983   0.482   2.530  1.00  0.00    -0.352 N 
ATOM     38  C   UNL     1      -4.134  -0.090   3.020  1.00  0.00     0.251 C 
ATOM     39  H   UNL     1      -2.145   0.141   2.918  1.00  0.00     0.163 HD
ATOM     40  O   UNL     1      -4.092  -0.919   3.924  1.00  0.00    -0.269 OA
BRANCH  38  41
ATOM     41  C   UNL     1      -5.436   0.346   2.479  1.00  0.00     0.039 A 
ATOM     42  C   UNL     1      -6.401   0.838   3.361  1.00  0.00     0.014 A 
ATOM     43  C   UNL     1      -5.656   0.365   1.101  1.00  0.00     0.014 A 
ATOM     44  C   UNL     1      -7.539   1.463   2.851  1.00  0.00     0.010 A 
ATOM     45  C   UNL     1      -6.748   1.062   0.595  1.00  0.00     0.010 A 
ATOM     46  C   UNL     1      -7.688   1.638   1.465  1.00  0.00    -0.014 A 
BRANCH  46  47
ATOM     47  C   UNL     1      -8.787   2.466   0.905  1.00  0.00     0.031 A 
ATOM     48  C   UNL     1      -9.805   1.851  -0.012  1.00  0.00     0.074 A 
ATOM     49  C   UNL     1      -8.803   3.794   1.139  1.00  0.00     0.049 A 
ATOM     50  N   UNL     1     -10.773   2.429  -0.677  1.00  0.00    -0.248 NA
ATOM     51  C   UNL     1      -9.703   0.401  -0.239  1.00  0.00     0.031 C 
ATOM     52  C   UNL     1      -7.825   4.525   1.949  1.00  0.00     0.029 A 
ATOM     53  N   UNL     1      -9.661   4.772   0.699  1.00  0.00    -0.354 N 
ATOM     54  C   UNL     1     -11.373   1.421  -1.420  1.00  0.00     0.074 A 
ATOM     55  C   UNL     1     -10.639   0.203  -1.155  1.00  0.00     0.031 C 
ATOM     56  C   UNL     1      -8.145   5.829   1.958  1.00  0.00     0.029 A 
ATOM     57  C   UNL     1      -9.327   6.035   1.128  1.00  0.00     0.049 A 
ATOM     58  H   UNL     1     -10.442   4.586   0.129  1.00  0.00     0.167 HD
ATOM     59  C   UNL     1     -12.452   1.504  -2.233  1.00  0.00     0.037 A 
ATOM     60  C   UNL     1      -9.902   7.225   0.871  1.00  0.00     0.037 A 
ATOM     61  C   UNL     1     -13.215   2.704  -2.450  1.00  0.00     0.049 A 
ATOM     62  C   UNL     1     -11.124   7.277  -0.006  1.00  0.00     0.074 A 
ATOM     63  C   UNL     1     -14.392   2.858  -3.161  1.00  0.00     0.029 A 
ATOM     64  N   UNL     1     -12.875   3.955  -1.960  1.00  0.00    -0.354 N 
ATOM     65  N   UNL     1     -11.744   6.299  -0.619  1.00  0.00    -0.248 NA
ATOM     66  C   UNL     1     -11.730   8.600  -0.223  1.00  0.00     0.031 C 
ATOM     67  C   UNL     1     -14.742   4.212  -3.137  1.00  0.00     0.029 A 
ATOM     68  C   UNL     1     -13.805   4.892  -2.377  1.00  0.00     0.049 A 
ATOM     69  H   UNL     1     -12.089   4.148  -1.399  1.00  0.00     0.167 HD
ATOM     70  C   UNL     1     -12.821   6.881  -1.274  1.00  0.00     0.074 A 
ATOM     71  C   UNL     1     -12.782   8.295  -0.969  1.00  0.00     0.031 C 
ATOM     72  C   UNL     1     -13.756   6.295  -2.060  1.00  0.00     0.037 A 
BRANCH  59  73
ATOM     73  C   UNL     1     -12.888   0.258  -2.944  1.00  0.00     0.064 A 
ATOM     74  C   UNL     1     -13.513  -0.797  -2.264  1.00  0.00     0.173 A 
ATOM     75  C   UNL     1     -12.738   0.148  -4.335  1.00  0.00     0.173 A 
ATOM     76  F   UNL     1     -13.670  -0.742  -0.932  1.00  0.00    -0.203 F 
ATOM     77  C   UNL     1     -13.956  -1.926  -2.947  1.00  0.00     0.198 A 
ATOM     78  C   UNL     1     -13.204  -0.971  -5.018  1.00  0.00     0.198 A 
ATOM     79  F   UNL     1     -12.149   1.132  -5.032  1.00  0.00    -0.203 F 
ATOM     80  F   UNL     1     -14.520  -2.937  -2.272  1.00  0.00    -0.200 F 
ATOM     81  C   UNL     1     -13.810  -2.008  -4.324  1.00  0.00     0.200 A 
ATOM     82  F   UNL     1     -13.072  -1.045  -6.350  1.00  0.00    -0.200 F 
ATOM     83  F   UNL     1     -14.249  -3.090  -4.982  1.00  0.00    -0.200 F 
ENDBRANCH  59  73
BRANCH  60  84
ATOM     84  C   UNL     1      -9.338   8.470   1.455  1.00  0.00     0.064 A 
ATOM     85  C   UNL     1     -10.027   9.173   2.454  1.00  0.00     0.173 A 
ATOM     86  C   UNL     1      -8.117   8.996   1.011  1.00  0.00     0.173 A 
ATOM     87  F   UNL     1     -11.210   8.721   2.895  1.00  0.00    -0.203 F 
ATOM     88  C   UNL     1      -9.528  10.368   2.967  1.00  0.00     0.198 A 
ATOM     89  C   UNL     1      -7.605  10.177   1.544  1.00  0.00     0.198 A 
ATOM     90  F   UNL     1      -7.417   8.359   0.060  1.00  0.00    -0.203 F 
ATOM     91  F   UNL     1     -10.232  11.047   3.883  1.00  0.00    -0.200 F 
ATOM     92  C   UNL     1      -8.316  10.868   2.515  1.00  0.00     0.200 A 
ATOM     93  F   UNL     1      -6.428  10.650   1.113  1.00  0.00    -0.200 F 
ATOM     94  F   UNL     1      -7.838  12.019   3.006  1.00  0.00    -0.200 F 
ENDBRANCH  60  84
BRANCH  72  95
ATOM     95  C   UNL     1     -14.826   7.178  -2.629  1.00  0.00     0.064 A 
ATOM     96  C   UNL     1     -14.557   8.073  -3.675  1.00  0.00     0.173 A 
ATOM     97  C   UNL     1     -16.143   7.096  -2.153  1.00  0.00     0.173 A 
ATOM     98  F   UNL     1     -13.309   8.198  -4.151  1.00  0.00    -0.203 F 
ATOM     99  C   UNL     1     -15.566   8.868  -4.211  1.00  0.00     0.198 A 
ATOM    100  C   UNL     1     -17.154   7.874  -2.710  1.00  0.00     0.198 A 
ATOM    101  F   UNL     1     -16.451   6.251  -1.158  1.00  0.00    -0.203 F 
ATOM    102  F   UNL     1     -15.278   9.746  -5.182  1.00  0.00    -0.200 F 
ATOM    103  C   UNL     1     -16.864   8.763  -3.734  1.00  0.00     0.200 A 
ATOM    104  F   UNL     1     -18.410   7.762  -2.256  1.00  0.00    -0.200 F 
ATOM    105  F   UNL     1     -17.835   9.524  -4.257  1.00  0.00    -0.200 F 
ENDBRANCH  72  95
ENDBRANCH  46  47
ENDBRANCH  38  41
ENDBRANCH  36  37
ENDBRANCH  35  36
ENDBRANCH   1  35
TORSDOF 16
