REMARK SMILES CSc1ccc(Cl)c(C(=O)N[C@@H](CO)C(=O)NCCCCNC(=O)c2ccc(-c3c4nc(c(-c5c(F)c(F)c(F)c(F)c5F)c5ccc([nH]5)c(-c5c(F)c(F)c(F)c(F)c5F)c5nc(c(-c6c(F)c(F)c(F)c(F)c6F)c6ccc3[nH]6)C=C5)C=C4)cc2)c1
REMARK SMILES IDX 19 1 18 2 17 3 15 4 16 5 12 7 11 8 9 9 10 10 8 12 3 13 4 14
REMARK SMILES IDX 88 15 5 16 6 17 7 18 2 19 1 20 13 21 14 22 20 24 21 25 22 26
REMARK SMILES IDX 23 27 24 29 25 30 26 31 87 32 27 33 86 34 28 35 29 36 30 37
REMARK SMILES IDX 80 38 31 39 85 40 79 41 81 42 32 43 84 44 78 45 77 46 33 48
REMARK SMILES IDX 65 49 45 50 64 51 46 52 49 53 63 54 82 55 47 56 48 57 62 59
REMARK SMILES IDX 83 60 50 61 34 62 35 63 43 64 36 65 37 66 41 67 44 68 38 69
REMARK SMILES IDX 39 70 42 71 40 72 66 73 67 74 75 75 68 76 69 77 73 78 76 79
REMARK SMILES IDX 70 80 71 81 74 82 72 83 51 84 52 85 60 86 53 87 54 88 58 89
REMARK SMILES IDX 61 90 55 91 56 92 59 93 57 94
REMARK H PARENT 17 6 11 11 14 23 22 28 81 47 49 58
REMARK Flexibility Score: inf
ROOT
ATOM      1  C   UNL     1       4.273  -5.266   9.582  1.00  0.00     0.023 C 
ENDROOT
BRANCH   1   2
ATOM      2  C   UNL     1       4.252  -6.088   8.299  1.00  0.00     0.116 C 
BRANCH   2   3
ATOM      3  N   UNL     1       2.907  -6.487   7.945  1.00  0.00    -0.354 N 
ATOM      4  C   UNL     1       2.233  -6.434   6.770  1.00  0.00     0.244 C 
ATOM      5  O   UNL     1       1.113  -6.960   6.761  1.00  0.00    -0.273 OA
ATOM      6  H   UNL     1       2.388  -6.864   8.691  1.00  0.00     0.163 HD
BRANCH   4   7
ATOM      7  C   UNL     1       2.819  -5.858   5.468  1.00  0.00     0.197 C 
BRANCH   7   8
ATOM      8  N   UNL     1       3.257  -4.464   5.509  1.00  0.00    -0.338 N 
ATOM      9  C   UNL     1       3.039  -3.366   4.721  1.00  0.00     0.253 C 
ATOM     10  O   UNL     1       3.698  -2.372   5.051  1.00  0.00    -0.269 OA
ATOM     11  H   UNL     1       3.841  -4.272   6.277  1.00  0.00     0.164 HD
BRANCH   9  12
ATOM     12  C   UNL     1       2.047  -3.209   3.602  1.00  0.00     0.059 A 
ATOM     13  C   UNL     1       0.737  -1.496   2.390  1.00  0.00     0.008 A 
ATOM     14  C   UNL     1       0.115  -2.486   1.644  1.00  0.00     0.016 A 
ATOM     15  C   UNL     1       1.635  -1.864   3.401  1.00  0.00     0.030 A 
ATOM     16  C   UNL     1       0.520  -3.805   1.793  1.00  0.00     0.022 A 
ATOM     17  C   UNL     1       1.541  -4.152   2.696  1.00  0.00     0.053 A 
ATOM     18  Cl  UNL     1       2.212  -5.700   2.354  1.00  0.00    -0.083 Cl
BRANCH  13  19
ATOM     19  S   UNL     1       0.449   0.221   2.009  1.00  0.00    -0.130 SA
ATOM     20  C   UNL     1       1.042   0.234   0.285  1.00  0.00     0.091 C 
ENDBRANCH  13  19
ENDBRANCH   9  12
ENDBRANCH   7   8
BRANCH   7  21
ATOM     21  C   UNL     1       3.926  -6.775   4.900  1.00  0.00     0.191 C 
BRANCH  21  22
ATOM     22  O   UNL     1       5.164  -6.699   5.609  1.00  0.00    -0.394 OA
ATOM     23  H   UNL     1       5.519  -5.798   5.545  1.00  0.00     0.210 HD
ENDBRANCH  21  22
ENDBRANCH   7  21
ENDBRANCH   4   7
ENDBRANCH   2   3
ENDBRANCH   1   2
BRANCH   1  24
ATOM     24  C   UNL     1       3.697  -5.973  10.807  1.00  0.00     0.023 C 
BRANCH  24  25
ATOM     25  C   UNL     1       4.248  -7.369  11.064  1.00  0.00     0.116 C 
BRANCH  25  26
ATOM     26  N   UNL     1       5.695  -7.390  11.202  1.00  0.00    -0.352 N 
ATOM     27  C   UNL     1       6.458  -7.965  12.188  1.00  0.00     0.251 C 
ATOM     28  H   UNL     1       6.197  -6.929  10.492  1.00  0.00     0.163 HD
ATOM     29  O   UNL     1       7.668  -7.770  12.235  1.00  0.00    -0.269 OA
BRANCH  27  30
ATOM     30  C   UNL     1       5.801  -8.800  13.212  1.00  0.00     0.039 A 
ATOM     31  C   UNL     1       6.114  -8.592  14.556  1.00  0.00     0.014 A 
ATOM     32  C   UNL     1       4.863  -9.768  12.843  1.00  0.00     0.014 A 
ATOM     33  C   UNL     1       5.447  -9.327  15.537  1.00  0.00     0.010 A 
ATOM     34  C   UNL     1       4.135 -10.430  13.824  1.00  0.00     0.010 A 
ATOM     35  C   UNL     1       4.435 -10.233  15.180  1.00  0.00    -0.014 A 
BRANCH  35  36
ATOM     36  C   UNL     1       3.721 -11.027  16.211  1.00  0.00     0.031 A 
ATOM     37  C   UNL     1       3.853 -12.527  16.218  1.00  0.00     0.074 A 
ATOM     38  C   UNL     1       2.940 -10.408  17.117  1.00  0.00     0.049 A 
ATOM     39  N   UNL     1       3.290 -13.406  17.008  1.00  0.00    -0.248 NA
ATOM     40  C   UNL     1       4.710 -13.121  15.178  1.00  0.00     0.031 C 
ATOM     41  C   UNL     1       2.697  -8.966  17.184  1.00  0.00     0.029 A 
ATOM     42  N   UNL     1       2.205 -10.917  18.158  1.00  0.00    -0.354 N 
ATOM     43  C   UNL     1       3.724 -14.647  16.559  1.00  0.00     0.074 A 
ATOM     44  C   UNL     1       4.528 -14.416  15.381  1.00  0.00     0.031 C 
ATOM     45  C   UNL     1       1.900  -8.703  18.233  1.00  0.00     0.029 A 
ATOM     46  C   UNL     1       1.548  -9.958  18.889  1.00  0.00     0.049 A 
ATOM     47  H   UNL     1       2.153 -11.879  18.361  1.00  0.00     0.167 HD
ATOM     48  C   UNL     1       3.508 -15.867  17.104  1.00  0.00     0.037 A 
ATOM     49  C   UNL     1       0.755 -10.083  19.971  1.00  0.00     0.037 A 
ATOM     50  C   UNL     1       2.721 -16.093  18.286  1.00  0.00     0.049 A 
ATOM     51  C   UNL     1       0.516 -11.457  20.543  1.00  0.00     0.074 A 
ATOM     52  C   UNL     1       2.444 -17.288  18.927  1.00  0.00     0.029 A 
ATOM     53  N   UNL     1       2.090 -15.094  19.012  1.00  0.00    -0.354 N 
ATOM     54  N   UNL     1       0.975 -12.617  20.141  1.00  0.00    -0.248 NA
ATOM     55  C   UNL     1      -0.341 -11.533  21.734  1.00  0.00     0.031 C 
ATOM     56  C   UNL     1       1.617 -17.015  20.021  1.00  0.00     0.029 A 
ATOM     57  C   UNL     1       1.424 -15.645  20.094  1.00  0.00     0.049 A 
ATOM     58  H   UNL     1       2.111 -14.135  18.791  1.00  0.00     0.167 HD
ATOM     59  C   UNL     1       0.506 -13.551  21.056  1.00  0.00     0.074 A 
ATOM     60  C   UNL     1      -0.263 -12.819  22.040  1.00  0.00     0.031 C 
ATOM     61  C   UNL     1       0.692 -14.894  21.081  1.00  0.00     0.037 A 
BRANCH  48  62
ATOM     62  C   UNL     1       4.153 -17.047  16.433  1.00  0.00     0.064 A 
ATOM     63  C   UNL     1       5.546 -17.224  16.451  1.00  0.00     0.173 A 
ATOM     64  C   UNL     1       3.377 -18.022  15.791  1.00  0.00     0.173 A 
ATOM     65  F   UNL     1       6.336 -16.312  17.038  1.00  0.00    -0.203 F 
ATOM     66  C   UNL     1       6.139 -18.318  15.825  1.00  0.00     0.198 A 
ATOM     67  C   UNL     1       3.971 -19.133  15.196  1.00  0.00     0.198 A 
ATOM     68  F   UNL     1       2.042 -17.904  15.746  1.00  0.00    -0.203 F 
ATOM     69  F   UNL     1       7.474 -18.436  15.809  1.00  0.00    -0.200 F 
ATOM     70  C   UNL     1       5.351 -19.275  15.206  1.00  0.00     0.200 A 
ATOM     71  F   UNL     1       3.208 -20.064  14.608  1.00  0.00    -0.200 F 
ATOM     72  F   UNL     1       5.921 -20.332  14.611  1.00  0.00    -0.200 F 
ENDBRANCH  48  62
BRANCH  49  73
ATOM     73  C   UNL     1       0.156  -8.883  20.614  1.00  0.00     0.064 A 
ATOM     74  C   UNL     1       0.536  -8.495  21.908  1.00  0.00     0.173 A 
ATOM     75  C   UNL     1      -0.840  -8.130  19.977  1.00  0.00     0.173 A 
ATOM     76  F   UNL     1       1.473  -9.193  22.568  1.00  0.00    -0.203 F 
ATOM     77  C   UNL     1      -0.088  -7.431  22.555  1.00  0.00     0.198 A 
ATOM     78  C   UNL     1      -1.440  -7.044  20.612  1.00  0.00     0.198 A 
ATOM     79  F   UNL     1      -1.236  -8.452  18.737  1.00  0.00    -0.203 F 
ATOM     80  F   UNL     1       0.244  -7.130  23.818  1.00  0.00    -0.200 F 
ATOM     81  C   UNL     1      -1.075  -6.705  21.906  1.00  0.00     0.200 A 
ATOM     82  F   UNL     1      -2.383  -6.336  19.976  1.00  0.00    -0.200 F 
ATOM     83  F   UNL     1      -1.683  -5.689  22.532  1.00  0.00    -0.200 F 
ENDBRANCH  49  73
BRANCH  61  84
ATOM     84  C   UNL     1       0.122 -15.643  22.252  1.00  0.00     0.064 A 
ATOM     85  C   UNL     1      -1.259 -15.803  22.433  1.00  0.00     0.173 A 
ATOM     86  C   UNL     1       0.980 -16.220  23.202  1.00  0.00     0.173 A 
ATOM     87  F   UNL     1      -2.122 -15.262  21.560  1.00  0.00    -0.203 F 
ATOM     88  C   UNL     1      -1.762 -16.472  23.546  1.00  0.00     0.198 A 
ATOM     89  C   UNL     1       0.475 -16.920  24.293  1.00  0.00     0.198 A 
ATOM     90  F   UNL     1       2.310 -16.107  23.070  1.00  0.00    -0.203 F 
ATOM     91  F   UNL     1      -3.086 -16.552  23.735  1.00  0.00    -0.200 F 
ATOM     92  C   UNL     1      -0.895 -17.034  24.472  1.00  0.00     0.200 A 
ATOM     93  F   UNL     1       1.315 -17.477  25.177  1.00  0.00    -0.200 F 
ATOM     94  F   UNL     1      -1.381 -17.676  25.543  1.00  0.00    -0.200 F 
ENDBRANCH  61  84
ENDBRANCH  35  36
ENDBRANCH  27  30
ENDBRANCH  25  26
ENDBRANCH  24  25
ENDBRANCH   1  24
TORSDOF 16
