REMARK SMILES CCOC[C@@H](O)C[C@]1(C(=O)NCCCCNC(=O)c2ccc(-c3c4nc(c(-c5c(F)c(F)c(F)c(F)c5F)c5ccc([nH]5)c(-c5c(F)c(F)c(F)c(F)c5F)c5nc(c(-c6c(F)c(F)c(F)c(F)c6F)c6ccc3[nH]6)C=C5)C=C4)cc2)CCc2ccccc21
REMARK SMILES IDX 12 1 11 2 9 3 10 4 8 6 82 7 89 8 83 9 84 10 88 11 85 12
REMARK SMILES IDX 87 13 86 14 7 15 5 16 4 17 3 18 2 19 1 20 6 21 13 23 14 24
REMARK SMILES IDX 15 25 16 26 17 27 18 29 19 30 20 31 81 32 21 33 80 34 22 35
REMARK SMILES IDX 23 36 24 37 74 38 25 39 79 40 73 41 75 42 26 43 78 44 72 45
REMARK SMILES IDX 71 46 27 48 59 49 39 50 58 51 40 52 43 53 57 54 76 55 41 56
REMARK SMILES IDX 42 57 56 59 77 60 44 61 28 62 29 63 37 64 30 65 31 66 35 67
REMARK SMILES IDX 38 68 32 69 33 70 36 71 34 72 60 73 61 74 69 75 62 76 63 77
REMARK SMILES IDX 67 78 70 79 64 80 65 81 68 82 66 83 45 84 46 85 54 86 47 87
REMARK SMILES IDX 48 88 52 89 55 90 49 91 50 92 53 93 51 94
REMARK H PARENT 11 5 6 22 16 28 75 47 43 58
REMARK Flexibility Score: inf
ROOT
ATOM      1  C   UNL     1       5.467   0.571   6.693  1.00  0.00     0.116 C 
ENDROOT
BRANCH   1   2
ATOM      2  N   UNL     1       4.644  -0.500   6.184  1.00  0.00    -0.355 N 
ATOM      3  C   UNL     1       4.502  -1.019   4.938  1.00  0.00     0.230 C 
ATOM      4  O   UNL     1       3.866  -2.080   4.900  1.00  0.00    -0.274 OA
ATOM      5  H   UNL     1       4.082  -0.933   6.867  1.00  0.00     0.163 HD
BRANCH   3   6
ATOM      6  C   UNL     1       5.117  -0.404   3.648  1.00  0.00     0.077 C 
ATOM      7  C   UNL     1       4.925   1.129   3.452  1.00  0.00     0.026 C 
ATOM      8  C   UNL     1       6.636  -0.505   3.691  1.00  0.00    -0.029 A 
ATOM      9  C   UNL     1       6.263   1.864   3.611  1.00  0.00     0.037 C 
ATOM     10  C   UNL     1       7.251   0.752   3.690  1.00  0.00    -0.044 A 
ATOM     11  C   UNL     1       7.405  -1.657   3.815  1.00  0.00     0.005 A 
ATOM     12  C   UNL     1       8.622   0.886   3.853  1.00  0.00     0.004 A 
ATOM     13  C   UNL     1       8.789  -1.532   3.965  1.00  0.00     0.000 A 
ATOM     14  C   UNL     1       9.392  -0.268   3.995  1.00  0.00     0.000 A 
BRANCH   6  15
ATOM     15  C   UNL     1       4.559  -1.170   2.405  1.00  0.00     0.056 C 
BRANCH  15  16
ATOM     16  C   UNL     1       3.023  -1.287   2.217  1.00  0.00     0.141 C 
BRANCH  16  17
ATOM     17  C   UNL     1       2.260   0.048   2.162  1.00  0.00     0.191 C 
BRANCH  17  18
ATOM     18  O   UNL     1       0.834  -0.065   2.123  1.00  0.00    -0.379 OA
BRANCH  18  19
ATOM     19  C   UNL     1       0.256  -0.615   0.944  1.00  0.00     0.157 C 
ATOM     20  C   UNL     1       0.681   0.072  -0.344  1.00  0.00     0.035 C 
ENDBRANCH  18  19
ENDBRANCH  17  18
ENDBRANCH  16  17
BRANCH  16  21
ATOM     21  O   UNL     1       2.846  -1.991   0.975  1.00  0.00    -0.391 OA
ATOM     22  H   UNL     1       3.240  -1.476   0.253  1.00  0.00     0.211 HD
ENDBRANCH  16  21
ENDBRANCH  15  16
ENDBRANCH   6  15
ENDBRANCH   3   6
ENDBRANCH   1   2
BRANCH   1  23
ATOM     23  C   UNL     1       4.651   1.819   7.010  1.00  0.00     0.023 C 
BRANCH  23  24
ATOM     24  C   UNL     1       3.805   1.711   8.277  1.00  0.00     0.023 C 
BRANCH  24  25
ATOM     25  C   UNL     1       4.577   1.320   9.530  1.00  0.00     0.116 C 
BRANCH  25  26
ATOM     26  N   UNL     1       5.736   2.162   9.781  1.00  0.00    -0.352 N 
ATOM     27  C   UNL     1       6.285   2.519  10.989  1.00  0.00     0.251 C 
ATOM     28  H   UNL     1       6.185   2.523   8.982  1.00  0.00     0.163 HD
ATOM     29  O   UNL     1       7.203   3.322  11.047  1.00  0.00    -0.269 OA
BRANCH  27  30
ATOM     30  C   UNL     1       5.718   1.941  12.223  1.00  0.00     0.039 A 
ATOM     31  C   UNL     1       5.382   2.799  13.272  1.00  0.00     0.014 A 
ATOM     32  C   UNL     1       5.488   0.567  12.325  1.00  0.00     0.014 A 
ATOM     33  C   UNL     1       4.766   2.280  14.410  1.00  0.00     0.010 A 
ATOM     34  C   UNL     1       4.801   0.064  13.423  1.00  0.00     0.010 A 
ATOM     35  C   UNL     1       4.449   0.913  14.482  1.00  0.00    -0.014 A 
BRANCH  35  36
ATOM     36  C   UNL     1       3.778   0.351  15.679  1.00  0.00     0.031 A 
ATOM     37  C   UNL     1       4.498  -0.650  16.538  1.00  0.00     0.074 A 
ATOM     38  C   UNL     1       2.511   0.706  15.963  1.00  0.00     0.049 A 
ATOM     39  N   UNL     1       4.080  -1.274  17.610  1.00  0.00    -0.248 NA
ATOM     40  C   UNL     1       5.859  -1.023  16.120  1.00  0.00     0.031 C 
ATOM     41  C   UNL     1       1.690   1.622  15.168  1.00  0.00     0.029 A 
ATOM     42  N   UNL     1       1.690   0.338  16.998  1.00  0.00    -0.354 N 
ATOM     43  C   UNL     1       5.118  -2.118  17.983  1.00  0.00     0.074 A 
ATOM     44  C   UNL     1       6.158  -1.977  16.988  1.00  0.00     0.031 C 
ATOM     45  C   UNL     1       0.495   1.768  15.762  1.00  0.00     0.029 A 
ATOM     46  C   UNL     1       0.455   0.937  16.962  1.00  0.00     0.049 A 
ATOM     47  H   UNL     1       1.961  -0.296  17.701  1.00  0.00     0.167 HD
ATOM     48  C   UNL     1       5.209  -2.914  19.074  1.00  0.00     0.037 A 
ATOM     49  C   UNL     1      -0.586   0.831  17.808  1.00  0.00     0.037 A 
ATOM     50  C   UNL     1       4.183  -3.029  20.075  1.00  0.00     0.049 A 
ATOM     51  C   UNL     1      -0.451  -0.046  19.025  1.00  0.00     0.074 A 
ATOM     52  C   UNL     1       4.194  -3.766  21.245  1.00  0.00     0.029 A 
ATOM     53  N   UNL     1       2.957  -2.381  20.022  1.00  0.00    -0.354 N 
ATOM     54  N   UNL     1       0.563  -0.782  19.408  1.00  0.00    -0.248 NA
ATOM     55  C   UNL     1      -1.603  -0.091  19.935  1.00  0.00     0.031 C 
ATOM     56  C   UNL     1       2.959  -3.596  21.881  1.00  0.00     0.029 A 
ATOM     57  C   UNL     1       2.199  -2.711  21.133  1.00  0.00     0.049 A 
ATOM     58  H   UNL     1       2.668  -1.775  19.301  1.00  0.00     0.167 HD
ATOM     59  C   UNL     1       0.188  -1.351  20.617  1.00  0.00     0.074 A 
ATOM     60  C   UNL     1      -1.143  -0.860  20.911  1.00  0.00     0.031 C 
ATOM     61  C   UNL     1       0.881  -2.201  21.414  1.00  0.00     0.037 A 
BRANCH  48  62
ATOM     62  C   UNL     1       6.468  -3.715  19.241  1.00  0.00     0.064 A 
ATOM     63  C   UNL     1       7.698  -3.101  19.530  1.00  0.00     0.173 A 
ATOM     64  C   UNL     1       6.446  -5.113  19.130  1.00  0.00     0.173 A 
ATOM     65  F   UNL     1       7.778  -1.766  19.631  1.00  0.00    -0.203 F 
ATOM     66  C   UNL     1       8.861  -3.853  19.666  1.00  0.00     0.198 A 
ATOM     67  C   UNL     1       7.606  -5.865  19.300  1.00  0.00     0.198 A 
ATOM     68  F   UNL     1       5.298  -5.752  18.859  1.00  0.00    -0.203 F 
ATOM     69  F   UNL     1      10.032  -3.239  19.884  1.00  0.00    -0.200 F 
ATOM     70  C   UNL     1       8.813  -5.235  19.559  1.00  0.00     0.200 A 
ATOM     71  F   UNL     1       7.556  -7.201  19.208  1.00  0.00    -0.200 F 
ATOM     72  F   UNL     1       9.933  -5.958  19.695  1.00  0.00    -0.200 F 
ENDBRANCH  48  62
BRANCH  49  73
ATOM     73  C   UNL     1      -1.827   1.610  17.563  1.00  0.00     0.064 A 
ATOM     74  C   UNL     1      -2.182   2.678  18.400  1.00  0.00     0.173 A 
ATOM     75  C   UNL     1      -2.686   1.302  16.499  1.00  0.00     0.173 A 
ATOM     76  F   UNL     1      -1.402   2.999  19.442  1.00  0.00    -0.203 F 
ATOM     77  C   UNL     1      -3.362   3.390  18.197  1.00  0.00     0.198 A 
ATOM     78  C   UNL     1      -3.852   2.034  16.280  1.00  0.00     0.198 A 
ATOM     79  F   UNL     1      -2.388   0.295  15.665  1.00  0.00    -0.203 F 
ATOM     80  F   UNL     1      -3.701   4.374  19.042  1.00  0.00    -0.200 F 
ATOM     81  C   UNL     1      -4.194   3.071  17.135  1.00  0.00     0.200 A 
ATOM     82  F   UNL     1      -4.645   1.732  15.243  1.00  0.00    -0.200 F 
ATOM     83  F   UNL     1      -5.328   3.757  16.939  1.00  0.00    -0.200 F 
ENDBRANCH  49  73
BRANCH  61  84
ATOM     84  C   UNL     1       0.231  -2.616  22.702  1.00  0.00     0.064 A 
ATOM     85  C   UNL     1      -0.873  -3.481  22.729  1.00  0.00     0.173 A 
ATOM     86  C   UNL     1       0.738  -2.159  23.928  1.00  0.00     0.173 A 
ATOM     87  F   UNL     1      -1.403  -3.935  21.583  1.00  0.00    -0.203 F 
ATOM     88  C   UNL     1      -1.466  -3.846  23.934  1.00  0.00     0.198 A 
ATOM     89  C   UNL     1       0.162  -2.552  25.133  1.00  0.00     0.198 A 
ATOM     90  F   UNL     1       1.798  -1.337  23.959  1.00  0.00    -0.203 F 
ATOM     91  F   UNL     1      -2.555  -4.627  23.933  1.00  0.00    -0.200 F 
ATOM     92  C   UNL     1      -0.945  -3.386  25.134  1.00  0.00     0.200 A 
ATOM     93  F   UNL     1       0.676  -2.119  26.292  1.00  0.00    -0.200 F 
ATOM     94  F   UNL     1      -1.517  -3.741  26.294  1.00  0.00    -0.200 F 
ENDBRANCH  61  84
ENDBRANCH  35  36
ENDBRANCH  27  30
ENDBRANCH  25  26
ENDBRANCH  24  25
ENDBRANCH  23  24
ENDBRANCH   1  23
TORSDOF 17
