REMARK SMILES O=C(NCCCCNC(=O)c1cn(C2C[NH+](CCC[C@@H]3CCCO3)C2)nn1)c1ccc(-c2c3nc(c(-c4c(F)c(F)c(F)c(F)c4F)c4ccc([nH]4)c(-c4c(F)c(F)c(F)c(F)c4F)c4nc(c(-c5c(F)c(F)c(F)c(F)c5F)c5ccc2[nH]5)C=C4)C=C3)cc1
REMARK SMILES IDX 7 1 6 2 5 3 4 4 3 5 1 6 2 7 28 9 29 10 90 11 30 12 89 13
REMARK SMILES IDX 31 14 32 15 33 16 83 17 34 18 88 19 82 20 84 21 35 22 87 23
REMARK SMILES IDX 81 24 80 25 36 27 68 28 48 29 67 30 49 31 52 32 66 33 85 34
REMARK SMILES IDX 50 35 51 36 65 38 86 39 53 40 37 41 38 42 46 43 39 44 40 45
REMARK SMILES IDX 44 46 47 47 41 48 42 49 45 50 43 51 69 52 70 53 78 54 71 55
REMARK SMILES IDX 72 56 76 57 79 58 73 59 74 60 77 61 75 62 54 63 55 64 63 65
REMARK SMILES IDX 56 66 57 67 61 68 64 69 58 70 59 71 62 72 60 73 8 74 9 75
REMARK SMILES IDX 10 77 11 78 12 79 27 80 13 81 26 82 14 83 15 84 25 85 16 86
REMARK SMILES IDX 17 88 18 89 19 90 20 91 21 92 24 93 22 94 23 95
REMARK H PARENT 3 8 84 26 52 37 8 76 16 87
REMARK Flexibility Score: inf
ROOT
ATOM      1  C   UNL     1       5.016   3.052  -2.696  1.00  0.00     0.116 C 
ENDROOT
BRANCH   1   2
ATOM      2  C   UNL     1       4.549   1.645  -3.072  1.00  0.00     0.023 C 
BRANCH   2   3
ATOM      3  C   UNL     1       5.002   0.518  -2.136  1.00  0.00     0.023 C 
BRANCH   3   4
ATOM      4  C   UNL     1       4.690   0.733  -0.655  1.00  0.00     0.116 C 
BRANCH   4   5
ATOM      5  N   UNL     1       3.283   0.913  -0.367  1.00  0.00    -0.352 N 
ATOM      6  O   UNL     1       1.220   0.620   0.348  1.00  0.00    -0.269 OA
ATOM      7  C   UNL     1       2.255   0.074  -0.042  1.00  0.00     0.251 C 
ATOM      8  H   UNL     1       3.003   1.856  -0.417  1.00  0.00     0.163 HD
BRANCH   7   9
ATOM      9  C   UNL     1       2.264  -1.409  -0.190  1.00  0.00     0.039 A 
ATOM     10  C   UNL     1       3.352  -2.189  -0.582  1.00  0.00     0.014 A 
ATOM     11  C   UNL     1       1.027  -2.047   0.029  1.00  0.00     0.014 A 
ATOM     12  C   UNL     1       3.186  -3.549  -0.841  1.00  0.00     0.010 A 
ATOM     13  C   UNL     1       0.856  -3.402  -0.222  1.00  0.00     0.010 A 
ATOM     14  C   UNL     1       1.930  -4.145  -0.698  1.00  0.00    -0.014 A 
BRANCH  14  15
ATOM     15  C   UNL     1       1.818  -5.587  -0.900  1.00  0.00     0.031 A 
ATOM     16  C   UNL     1       2.570  -6.403   0.099  1.00  0.00     0.074 A 
ATOM     17  C   UNL     1       0.996  -6.151  -1.811  1.00  0.00     0.049 A 
ATOM     18  N   UNL     1       3.499  -7.278  -0.115  1.00  0.00    -0.248 NA
ATOM     19  C   UNL     1       2.329  -6.128   1.526  1.00  0.00     0.031 C 
ATOM     20  C   UNL     1      -0.003  -5.488  -2.652  1.00  0.00     0.029 A 
ATOM     21  N   UNL     1       0.816  -7.470  -2.110  1.00  0.00    -0.354 N 
ATOM     22  C   UNL     1       3.847  -7.787   1.137  1.00  0.00     0.074 A 
ATOM     23  C   UNL     1       3.201  -6.949   2.110  1.00  0.00     0.031 C 
ATOM     24  C   UNL     1      -0.826  -6.419  -3.189  1.00  0.00     0.029 A 
ATOM     25  C   UNL     1      -0.338  -7.742  -2.837  1.00  0.00     0.049 A 
ATOM     26  H   UNL     1       1.449  -8.171  -1.834  1.00  0.00     0.167 HD
ATOM     27  C   UNL     1       4.459  -8.998   1.261  1.00  0.00     0.037 A 
ATOM     28  C   UNL     1      -0.884  -8.962  -3.077  1.00  0.00     0.037 A 
ATOM     29  C   UNL     1       5.117  -9.369   0.034  1.00  0.00     0.049 A 
ATOM     30  C   UNL     1       0.170  -9.980  -2.847  1.00  0.00     0.074 A 
ATOM     31  C   UNL     1       6.134  -8.831  -0.730  1.00  0.00     0.029 A 
ATOM     32  N   UNL     1       4.507 -10.295  -0.773  1.00  0.00    -0.354 N 
ATOM     33  N   UNL     1       1.216 -10.129  -3.608  1.00  0.00    -0.248 NA
ATOM     34  C   UNL     1       0.280 -10.541  -1.510  1.00  0.00     0.031 C 
ATOM     35  C   UNL     1       5.761  -9.094  -2.081  1.00  0.00     0.029 A 
ATOM     36  C   UNL     1       4.574  -9.826  -2.056  1.00  0.00     0.049 A 
ATOM     37  H   UNL     1       4.096 -11.142  -0.483  1.00  0.00     0.167 HD
ATOM     38  C   UNL     1       2.252 -10.391  -2.726  1.00  0.00     0.074 A 
ATOM     39  C   UNL     1       1.602 -10.718  -1.459  1.00  0.00     0.031 C 
ATOM     40  C   UNL     1       3.535 -10.041  -3.031  1.00  0.00     0.037 A 
BRANCH  27  41
ATOM     41  C   UNL     1       4.109 -10.022   2.325  1.00  0.00     0.064 A 
ATOM     42  C   UNL     1       4.778 -11.266   2.309  1.00  0.00     0.173 A 
ATOM     43  C   UNL     1       2.941  -9.980   3.117  1.00  0.00     0.173 A 
ATOM     44  F   UNL     1       5.912 -11.426   1.610  1.00  0.00    -0.203 F 
ATOM     45  C   UNL     1       4.239 -12.405   2.913  1.00  0.00     0.198 A 
ATOM     46  C   UNL     1       2.432 -11.109   3.758  1.00  0.00     0.198 A 
ATOM     47  F   UNL     1       2.183  -8.885   3.225  1.00  0.00    -0.203 F 
ATOM     48  F   UNL     1       4.830 -13.595   2.733  1.00  0.00    -0.200 F 
ATOM     49  C   UNL     1       3.055 -12.330   3.619  1.00  0.00     0.200 A 
ATOM     50  F   UNL     1       1.280 -11.016   4.436  1.00  0.00    -0.200 F 
ATOM     51  F   UNL     1       2.491 -13.434   4.126  1.00  0.00    -0.200 F 
ENDBRANCH  27  41
BRANCH  28  52
ATOM     52  C   UNL     1      -2.319  -9.335  -3.171  1.00  0.00     0.064 A 
ATOM     53  C   UNL     1      -2.721 -10.566  -3.719  1.00  0.00     0.173 A 
ATOM     54  C   UNL     1      -3.302  -8.620  -2.460  1.00  0.00     0.173 A 
ATOM     55  F   UNL     1      -1.836 -11.338  -4.366  1.00  0.00    -0.203 F 
ATOM     56  C   UNL     1      -4.020 -11.059  -3.546  1.00  0.00     0.198 A 
ATOM     57  C   UNL     1      -4.598  -9.109  -2.294  1.00  0.00     0.198 A 
ATOM     58  F   UNL     1      -2.996  -7.478  -1.827  1.00  0.00    -0.203 F 
ATOM     59  F   UNL     1      -4.349 -12.266  -4.029  1.00  0.00    -0.200 F 
ATOM     60  C   UNL     1      -4.955 -10.334  -2.826  1.00  0.00     0.200 A 
ATOM     61  F   UNL     1      -5.480  -8.416  -1.560  1.00  0.00    -0.200 F 
ATOM     62  F   UNL     1      -6.179 -10.832  -2.606  1.00  0.00    -0.200 F 
ENDBRANCH  28  52
BRANCH  40  63
ATOM     63  C   UNL     1       3.831  -9.624  -4.442  1.00  0.00     0.064 A 
ATOM     64  C   UNL     1       3.276  -8.490  -5.061  1.00  0.00     0.173 A 
ATOM     65  C   UNL     1       4.824 -10.321  -5.141  1.00  0.00     0.173 A 
ATOM     66  F   UNL     1       2.395  -7.713  -4.419  1.00  0.00    -0.203 F 
ATOM     67  C   UNL     1       3.671  -8.102  -6.340  1.00  0.00     0.198 A 
ATOM     68  C   UNL     1       5.243  -9.909  -6.402  1.00  0.00     0.198 A 
ATOM     69  F   UNL     1       5.427 -11.379  -4.576  1.00  0.00    -0.203 F 
ATOM     70  F   UNL     1       3.121  -7.022  -6.915  1.00  0.00    -0.200 F 
ATOM     71  C   UNL     1       4.660  -8.807  -7.005  1.00  0.00     0.200 A 
ATOM     72  F   UNL     1       6.236 -10.565  -7.020  1.00  0.00    -0.200 F 
ATOM     73  F   UNL     1       5.072  -8.408  -8.217  1.00  0.00    -0.200 F 
ENDBRANCH  40  63
ENDBRANCH  14  15
ENDBRANCH   7   9
ENDBRANCH   4   5
ENDBRANCH   3   4
ENDBRANCH   2   3
ENDBRANCH   1   2
BRANCH   1  74
ATOM     74  N   UNL     1       6.464   3.161  -2.641  1.00  0.00    -0.351 N 
ATOM     75  C   UNL     1       7.305   4.017  -3.312  1.00  0.00     0.273 C 
ATOM     76  H   UNL     1       6.909   2.527  -2.033  1.00  0.00     0.163 HD
ATOM     77  O   UNL     1       8.519   3.814  -3.248  1.00  0.00    -0.267 OA
BRANCH  75  78
ATOM     78  C   UNL     1       6.737   5.109  -4.077  1.00  0.00     0.170 A 
ATOM     79  C   UNL     1       5.799   6.048  -3.684  1.00  0.00     0.145 A 
ATOM     80  N   UNL     1       7.086   5.350  -5.380  1.00  0.00    -0.125 NA
ATOM     81  N   UNL     1       5.505   6.715  -4.838  1.00  0.00    -0.237 N 
ATOM     82  N   UNL     1       6.324   6.332  -5.836  1.00  0.00    -0.066 NA
BRANCH  81  83
ATOM     83  C   UNL     1       4.336   7.473  -5.149  1.00  0.00     0.218 C 
ATOM     84  C   UNL     1       3.047   6.951  -4.446  1.00  0.00     0.295 C 
ATOM     85  C   UNL     1       4.060   8.754  -4.344  1.00  0.00     0.295 C 
ATOM     86  N   UNL     1       2.638   8.343  -4.227  1.00  0.00    -0.331 N 
ATOM     87  H   UNL     1       2.091   8.615  -3.411  1.00  0.00     0.348 HD
BRANCH  86  88
ATOM     88  C   UNL     1       1.735   8.875  -5.267  1.00  0.00     0.262 C 
BRANCH  88  89
ATOM     89  C   UNL     1       1.969   8.746  -6.792  1.00  0.00     0.064 C 
BRANCH  89  90
ATOM     90  C   UNL     1       1.935   7.352  -7.444  1.00  0.00     0.038 C 
BRANCH  90  91
ATOM     91  C   UNL     1       0.652   6.554  -7.224  1.00  0.00     0.118 C 
ATOM     92  C   UNL     1       0.824   5.090  -7.627  1.00  0.00     0.034 C 
ATOM     93  O   UNL     1      -0.393   7.098  -8.046  1.00  0.00    -0.378 OA
ATOM     94  C   UNL     1      -0.512   4.757  -8.235  1.00  0.00     0.031 C 
ATOM     95  C   UNL     1      -0.862   6.059  -8.916  1.00  0.00     0.160 C 
ENDBRANCH  90  91
ENDBRANCH  89  90
ENDBRANCH  88  89
ENDBRANCH  86  88
ENDBRANCH  81  83
ENDBRANCH  75  78
ENDBRANCH   1  74
TORSDOF 16
