REMARK SMILES CCc1ccc2c(CC(=O)NCCCCNC(=O)c3ccc(-c4c5nc(c(-c6c(F)c(F)c(F)c(F)c6F)c6ccc([nH]6)c(-c6c(F)c(F)c(F)c(F)c6F)c6nc(c(-c7c(F)c(F)c(F)c(F)c7F)c7ccc4[nH]7)C=C6)C=C5)cc3)c(C(=O)c3cc(C)ccn3)[nH]c2c1
REMARK SMILES IDX 13 1 12 2 11 3 9 4 10 5 8 7 7 8 3 9 4 10 94 11 5 12 93 13
REMARK SMILES IDX 6 14 92 15 82 16 2 18 1 19 83 20 84 21 85 22 86 23 91 24
REMARK SMILES IDX 87 25 90 26 88 27 89 28 14 29 15 30 16 31 17 32 18 34 19 35
REMARK SMILES IDX 20 36 81 37 21 38 80 39 22 40 23 41 24 42 74 43 25 44 79 45
REMARK SMILES IDX 73 46 75 47 26 48 78 49 72 50 71 51 27 53 59 54 39 55 58 56
REMARK SMILES IDX 40 57 43 58 57 59 76 60 41 61 42 62 56 64 77 65 44 66 28 67
REMARK SMILES IDX 29 68 37 69 30 70 31 71 35 72 38 73 32 74 33 75 36 76 34 77
REMARK SMILES IDX 60 78 61 79 69 80 62 81 63 82 67 83 70 84 64 85 65 86 68 87
REMARK SMILES IDX 66 88 45 89 46 90 54 91 47 92 48 93 52 94 55 95 49 96 50 97
REMARK SMILES IDX 53 98 51 99
REMARK H PARENT 11 6 92 17 16 33 75 52 43 63
REMARK Flexibility Score: inf
ROOT
ATOM      1  C   UNL     1      -1.108  -3.362   5.525  1.00  0.00     0.023 C 
ENDROOT
BRANCH   1   2
ATOM      2  C   UNL     1       0.051  -2.812   6.353  1.00  0.00     0.116 C 
BRANCH   2   3
ATOM      3  N   UNL     1       0.632  -3.808   7.224  1.00  0.00    -0.356 N 
ATOM      4  C   UNL     1       1.830  -4.458   7.124  1.00  0.00     0.224 C 
ATOM      5  O   UNL     1       2.194  -5.102   8.113  1.00  0.00    -0.275 OA
ATOM      6  H   UNL     1       0.085  -4.055   8.005  1.00  0.00     0.163 HD
BRANCH   4   7
ATOM      7  C   UNL     1       2.741  -4.277   5.913  1.00  0.00     0.138 C 
BRANCH   7   8
ATOM      8  C   UNL     1       2.101  -4.553   4.576  1.00  0.00    -0.002 A 
ATOM      9  C   UNL     1       1.024  -2.141   1.262  1.00  0.00    -0.046 A 
ATOM     10  C   UNL     1       1.769  -1.512   2.264  1.00  0.00     0.004 A 
ATOM     11  C   UNL     1       0.726  -3.512   1.386  1.00  0.00     0.030 A 
ATOM     12  C   UNL     1       2.213  -2.217   3.391  1.00  0.00     0.011 A 
ATOM     13  C   UNL     1       1.173  -4.198   2.525  1.00  0.00     0.046 A 
ATOM     14  C   UNL     1       1.896  -3.582   3.537  1.00  0.00     0.004 A 
ATOM     15  N   UNL     1       1.004  -5.509   2.894  1.00  0.00    -0.352 N 
ATOM     16  C   UNL     1       1.614  -5.773   4.104  1.00  0.00     0.093 A 
ATOM     17  H   UNL     1       0.511  -6.176   2.364  1.00  0.00     0.167 HD
BRANCH   9  18
ATOM     18  C   UNL     1       0.503  -1.412   0.041  1.00  0.00     0.032 C 
ATOM     19  C   UNL     1       0.898   0.053  -0.109  1.00  0.00     0.009 C 
ENDBRANCH   9  18
BRANCH  16  20
ATOM     20  C   UNL     1       1.673  -7.082   4.749  1.00  0.00     0.227 C 
ATOM     21  O   UNL     1       2.185  -7.270   5.850  1.00  0.00    -0.285 OA
BRANCH  20  22
ATOM     22  C   UNL     1       1.137  -8.266   4.026  1.00  0.00     0.113 A 
ATOM     23  C   UNL     1       1.714  -8.656   2.820  1.00  0.00     0.036 A 
ATOM     24  N   UNL     1       0.089  -8.903   4.605  1.00  0.00    -0.253 NA
ATOM     25  C   UNL     1       1.183  -9.765   2.160  1.00  0.00    -0.047 A 
ATOM     26  C   UNL     1      -0.380  -9.992   3.966  1.00  0.00     0.112 A 
ATOM     27  C   UNL     1       1.738 -10.225   0.847  1.00  0.00     0.044 C 
ATOM     28  C   UNL     1       0.120 -10.450   2.756  1.00  0.00     0.023 A 
ENDBRANCH  20  22
ENDBRANCH  16  20
ENDBRANCH   7   8
ENDBRANCH   4   7
ENDBRANCH   2   3
ENDBRANCH   1   2
BRANCH   1  29
ATOM     29  C   UNL     1      -2.358  -3.713   6.333  1.00  0.00     0.023 C 
BRANCH  29  30
ATOM     30  C   UNL     1      -2.920  -2.580   7.182  1.00  0.00     0.116 C 
BRANCH  30  31
ATOM     31  N   UNL     1      -3.284  -1.406   6.403  1.00  0.00    -0.352 N 
ATOM     32  C   UNL     1      -4.377  -0.586   6.542  1.00  0.00     0.251 C 
ATOM     33  H   UNL     1      -2.663  -1.167   5.678  1.00  0.00     0.163 HD
ATOM     34  O   UNL     1      -4.600   0.296   5.718  1.00  0.00    -0.269 OA
BRANCH  32  35
ATOM     35  C   UNL     1      -5.309  -0.793   7.671  1.00  0.00     0.039 A 
ATOM     36  C   UNL     1      -6.683  -0.789   7.418  1.00  0.00     0.014 A 
ATOM     37  C   UNL     1      -4.833  -1.010   8.967  1.00  0.00     0.014 A 
ATOM     38  C   UNL     1      -7.577  -1.062   8.455  1.00  0.00     0.010 A 
ATOM     39  C   UNL     1      -5.719  -1.363   9.979  1.00  0.00     0.010 A 
ATOM     40  C   UNL     1      -7.101  -1.385   9.736  1.00  0.00    -0.014 A 
BRANCH  40  41
ATOM     41  C   UNL     1      -8.036  -1.746  10.832  1.00  0.00     0.031 A 
ATOM     42  C   UNL     1      -8.122  -0.893  12.066  1.00  0.00     0.074 A 
ATOM     43  C   UNL     1      -8.757  -2.880  10.746  1.00  0.00     0.049 A 
ATOM     44  N   UNL     1      -8.842  -1.067  13.146  1.00  0.00    -0.248 NA
ATOM     45  C   UNL     1      -7.259   0.297  12.106  1.00  0.00     0.031 C 
ATOM     46  C   UNL     1      -8.708  -3.828   9.633  1.00  0.00     0.029 A 
ATOM     47  N   UNL     1      -9.659  -3.436  11.619  1.00  0.00    -0.354 N 
ATOM     48  C   UNL     1      -8.506  -0.022  13.996  1.00  0.00     0.074 A 
ATOM     49  C   UNL     1      -7.473   0.744  13.334  1.00  0.00     0.031 C 
ATOM     50  C   UNL     1      -9.553  -4.840   9.882  1.00  0.00     0.029 A 
ATOM     51  C   UNL     1     -10.176  -4.631  11.186  1.00  0.00     0.049 A 
ATOM     52  H   UNL     1      -9.910  -3.017  12.473  1.00  0.00     0.167 HD
ATOM     53  C   UNL     1      -9.029   0.285  15.208  1.00  0.00     0.037 A 
ATOM     54  C   UNL     1     -11.047  -5.471  11.777  1.00  0.00     0.037 A 
ATOM     55  C   UNL     1     -10.067  -0.475  15.855  1.00  0.00     0.049 A 
ATOM     56  C   UNL     1     -11.627  -5.106  13.115  1.00  0.00     0.074 A 
ATOM     57  C   UNL     1     -10.721  -0.205  17.044  1.00  0.00     0.029 A 
ATOM     58  N   UNL     1     -10.594  -1.664  15.370  1.00  0.00    -0.354 N 
ATOM     59  N   UNL     1     -11.375  -4.063  13.869  1.00  0.00    -0.248 NA
ATOM     60  C   UNL     1     -12.624  -6.026  13.678  1.00  0.00     0.031 C 
ATOM     61  C   UNL     1     -11.599  -1.262  17.310  1.00  0.00     0.029 A 
ATOM     62  C   UNL     1     -11.542  -2.158  16.253  1.00  0.00     0.049 A 
ATOM     63  H   UNL     1     -10.334  -2.094  14.524  1.00  0.00     0.167 HD
ATOM     64  C   UNL     1     -12.193  -4.189  14.983  1.00  0.00     0.074 A 
ATOM     65  C   UNL     1     -12.964  -5.401  14.797  1.00  0.00     0.031 C 
ATOM     66  C   UNL     1     -12.297  -3.372  16.062  1.00  0.00     0.037 A 
BRANCH  53  67
ATOM     67  C   UNL     1      -8.469   1.489  15.914  1.00  0.00     0.064 A 
ATOM     68  C   UNL     1      -8.650   2.790  15.418  1.00  0.00     0.173 A 
ATOM     69  C   UNL     1      -7.741   1.340  17.104  1.00  0.00     0.173 A 
ATOM     70  F   UNL     1      -9.331   2.991  14.280  1.00  0.00    -0.203 F 
ATOM     71  C   UNL     1      -8.080   3.889  16.057  1.00  0.00     0.198 A 
ATOM     72  C   UNL     1      -7.205   2.445  17.762  1.00  0.00     0.198 A 
ATOM     73  F   UNL     1      -7.544   0.122  17.631  1.00  0.00    -0.203 F 
ATOM     74  F   UNL     1      -8.205   5.111  15.523  1.00  0.00    -0.200 F 
ATOM     75  C   UNL     1      -7.362   3.716  17.230  1.00  0.00     0.200 A 
ATOM     76  F   UNL     1      -6.525   2.278  18.904  1.00  0.00    -0.200 F 
ATOM     77  F   UNL     1      -6.812   4.773  17.843  1.00  0.00    -0.200 F 
ENDBRANCH  53  67
BRANCH  54  78
ATOM     78  C   UNL     1     -11.431  -6.729  11.085  1.00  0.00     0.064 A 
ATOM     79  C   UNL     1     -12.710  -6.894  10.539  1.00  0.00     0.173 A 
ATOM     80  C   UNL     1     -10.512  -7.778  10.926  1.00  0.00     0.173 A 
ATOM     81  F   UNL     1     -13.629  -5.928  10.682  1.00  0.00    -0.203 F 
ATOM     82  C   UNL     1     -13.061  -8.064   9.868  1.00  0.00     0.198 A 
ATOM     83  C   UNL     1     -10.854  -8.935  10.229  1.00  0.00     0.198 A 
ATOM     84  F   UNL     1      -9.272  -7.665  11.423  1.00  0.00    -0.203 F 
ATOM     85  F   UNL     1     -14.301  -8.210   9.383  1.00  0.00    -0.200 F 
ATOM     86  C   UNL     1     -12.130  -9.079   9.705  1.00  0.00     0.200 A 
ATOM     87  F   UNL     1      -9.946  -9.905  10.058  1.00  0.00    -0.200 F 
ATOM     88  F   UNL     1     -12.462 -10.197   9.045  1.00  0.00    -0.200 F 
ENDBRANCH  54  78
BRANCH  66  89
ATOM     89  C   UNL     1     -13.299  -3.749  17.117  1.00  0.00     0.064 A 
ATOM     90  C   UNL     1     -13.108  -4.857  17.956  1.00  0.00     0.173 A 
ATOM     91  C   UNL     1     -14.447  -2.967  17.316  1.00  0.00     0.173 A 
ATOM     92  F   UNL     1     -12.034  -5.646  17.799  1.00  0.00    -0.203 F 
ATOM     93  C   UNL     1     -14.044  -5.186  18.933  1.00  0.00     0.198 A 
ATOM     94  C   UNL     1     -15.364  -3.278  18.317  1.00  0.00     0.198 A 
ATOM     95  F   UNL     1     -14.676  -1.892  16.547  1.00  0.00    -0.203 F 
ATOM     96  F   UNL     1     -13.867  -6.280  19.687  1.00  0.00    -0.200 F 
ATOM     97  C   UNL     1     -15.166  -4.392  19.118  1.00  0.00     0.200 A 
ATOM     98  F   UNL     1     -16.439  -2.501  18.504  1.00  0.00    -0.200 F 
ATOM     99  F   UNL     1     -16.062  -4.705  20.064  1.00  0.00    -0.200 F 
ENDBRANCH  66  89
ENDBRANCH  40  41
ENDBRANCH  32  35
ENDBRANCH  30  31
ENDBRANCH  29  30
ENDBRANCH   1  29
TORSDOF 15
