REMARK SMILES Nc1oc(-c2ccccc2)cc1C(=O)NCCCCNC(=O)c1ccc(-c2c3nc(c(-c4c(F)c(F)c(F)c(F)c4F)c4ccc([nH]4)c(-c4c(F)c(F)c(F)c(F)c4F)c4nc(c(-c5c(F)c(F)c(F)c(F)c5F)c5ccc2[nH]5)C=C4)C=C3)cc1
REMARK SMILES IDX 18 1 17 2 16 3 15 4 13 5 14 6 12 8 2 9 3 10 4 11 11 12 1 13
REMARK SMILES IDX 5 16 6 17 10 18 7 19 9 20 8 21 19 22 20 23 21 24 22 26 23 27
REMARK SMILES IDX 24 28 85 29 25 30 84 31 26 32 27 33 28 34 78 35 29 36 83 37
REMARK SMILES IDX 77 38 79 39 30 40 82 41 76 42 75 43 31 45 63 46 43 47 62 48
REMARK SMILES IDX 44 49 47 50 61 51 80 52 45 53 46 54 60 56 81 57 48 58 32 59
REMARK SMILES IDX 33 60 41 61 34 62 35 63 39 64 42 65 36 66 37 67 40 68 38 69
REMARK SMILES IDX 64 70 65 71 73 72 66 73 67 74 71 75 74 76 68 77 69 78 72 79
REMARK SMILES IDX 70 80 49 81 50 82 58 83 51 84 52 85 56 86 59 87 53 88 54 89
REMARK SMILES IDX 57 90 55 91
REMARK H PARENT 15 7 1 14 1 15 20 25 79 44 47 55
REMARK Flexibility Score: inf
ROOT
ATOM      1  C   UNL     1      -5.370   3.107   1.297  1.00  0.00     0.023 C 
ENDROOT
BRANCH   1   2
ATOM      2  C   UNL     1      -4.288   3.235   0.212  1.00  0.00     0.023 C 
BRANCH   2   3
ATOM      3  C   UNL     1      -2.891   3.594   0.730  1.00  0.00     0.116 C 
BRANCH   3   4
ATOM      4  N   UNL     1      -2.239   2.460   1.357  1.00  0.00    -0.352 N 
ATOM      5  C   UNL     1      -1.317   1.548   0.898  1.00  0.00     0.256 C 
ATOM      6  O   UNL     1      -0.922   0.716   1.718  1.00  0.00    -0.269 OA
ATOM      7  H   UNL     1      -2.509   2.315   2.293  1.00  0.00     0.163 HD
BRANCH   5   8
ATOM      8  C   UNL     1      -0.810   1.587  -0.466  1.00  0.00     0.103 A 
ATOM      9  C   UNL     1       0.302   0.876  -0.899  1.00  0.00     0.203 A 
ATOM     10  O   UNL     1       0.607   1.162  -2.193  1.00  0.00    -0.440 OA
ATOM     11  C   UNL     1      -0.328   2.048  -2.620  1.00  0.00     0.137 A 
ATOM     12  C   UNL     1      -1.256   2.270  -1.630  1.00  0.00     0.067 A 
BRANCH   9  13
ATOM     13  N   UNL     1       1.111   0.002  -0.292  1.00  0.00    -0.369 N 
ATOM     14  H   UNL     1       1.861  -0.400  -0.786  1.00  0.00     0.159 HD
ATOM     15  H   UNL     1       0.956  -0.239   0.650  1.00  0.00     0.159 HD
ENDBRANCH   9  13
BRANCH  11  16
ATOM     16  C   UNL     1      -0.194   2.608  -3.947  1.00  0.00     0.017 A 
ATOM     17  C   UNL     1      -0.448   1.839  -5.085  1.00  0.00     0.012 A 
ATOM     18  C   UNL     1       0.051   3.983  -4.084  1.00  0.00     0.012 A 
ATOM     19  C   UNL     1      -0.500   2.448  -6.341  1.00  0.00     0.001 A 
ATOM     20  C   UNL     1       0.007   4.588  -5.340  1.00  0.00     0.001 A 
ATOM     21  C   UNL     1      -0.283   3.822  -6.466  1.00  0.00     0.000 A 
ENDBRANCH  11  16
ENDBRANCH   5   8
ENDBRANCH   3   4
ENDBRANCH   2   3
ENDBRANCH   1   2
BRANCH   1  22
ATOM     22  C   UNL     1      -5.692   4.400   2.037  1.00  0.00     0.116 C 
BRANCH  22  23
ATOM     23  N   UNL     1      -6.210   5.457   1.164  1.00  0.00    -0.352 N 
ATOM     24  C   UNL     1      -6.416   6.795   1.470  1.00  0.00     0.251 C 
ATOM     25  H   UNL     1      -6.441   5.184   0.246  1.00  0.00     0.163 HD
ATOM     26  O   UNL     1      -7.190   7.487   0.835  1.00  0.00    -0.269 OA
BRANCH  24  27
ATOM     27  C   UNL     1      -5.633   7.372   2.575  1.00  0.00     0.039 A 
ATOM     28  C   UNL     1      -6.187   8.230   3.530  1.00  0.00     0.014 A 
ATOM     29  C   UNL     1      -4.304   6.976   2.652  1.00  0.00     0.014 A 
ATOM     30  C   UNL     1      -5.398   8.626   4.609  1.00  0.00     0.010 A 
ATOM     31  C   UNL     1      -3.608   7.189   3.805  1.00  0.00     0.010 A 
ATOM     32  C   UNL     1      -4.110   8.088   4.738  1.00  0.00    -0.014 A 
BRANCH  32  33
ATOM     33  C   UNL     1      -3.251   8.372   5.878  1.00  0.00     0.031 A 
ATOM     34  C   UNL     1      -3.786   7.924   7.192  1.00  0.00     0.074 A 
ATOM     35  C   UNL     1      -1.962   8.738   5.691  1.00  0.00     0.049 A 
ATOM     36  N   UNL     1      -4.076   8.649   8.220  1.00  0.00    -0.248 NA
ATOM     37  C   UNL     1      -4.168   6.509   7.342  1.00  0.00     0.031 C 
ATOM     38  C   UNL     1      -1.226   8.881   4.425  1.00  0.00     0.029 A 
ATOM     39  N   UNL     1      -0.989   8.946   6.615  1.00  0.00    -0.354 N 
ATOM     40  C   UNL     1      -4.498   7.767   9.215  1.00  0.00     0.074 A 
ATOM     41  C   UNL     1      -4.713   6.505   8.560  1.00  0.00     0.031 C 
ATOM     42  C   UNL     1       0.103   8.915   4.668  1.00  0.00     0.029 A 
ATOM     43  C   UNL     1       0.304   8.976   6.101  1.00  0.00     0.049 A 
ATOM     44  H   UNL     1      -1.183   9.066   7.573  1.00  0.00     0.167 HD
ATOM     45  C   UNL     1      -4.401   8.102  10.534  1.00  0.00     0.037 A 
ATOM     46  C   UNL     1       1.453   9.015   6.822  1.00  0.00     0.037 A 
ATOM     47  C   UNL     1      -4.203   9.525  10.676  1.00  0.00     0.049 A 
ATOM     48  C   UNL     1       1.089   9.477   8.187  1.00  0.00     0.074 A 
ATOM     49  C   UNL     1      -4.942  10.646  10.352  1.00  0.00     0.029 A 
ATOM     50  N   UNL     1      -2.920   9.974  10.877  1.00  0.00    -0.354 N 
ATOM     51  N   UNL     1       0.638  10.675   8.444  1.00  0.00    -0.248 NA
ATOM     52  C   UNL     1       0.751   8.456   9.167  1.00  0.00     0.031 C 
ATOM     53  C   UNL     1      -3.984  11.598   9.891  1.00  0.00     0.029 A 
ATOM     54  C   UNL     1      -2.714  11.036  10.036  1.00  0.00     0.049 A 
ATOM     55  H   UNL     1      -2.267   9.601  11.512  1.00  0.00     0.167 HD
ATOM     56  C   UNL     1      -0.381  10.479   9.365  1.00  0.00     0.074 A 
ATOM     57  C   UNL     1      -0.221   9.099   9.822  1.00  0.00     0.031 C 
ATOM     58  C   UNL     1      -1.434  11.347   9.445  1.00  0.00     0.037 A 
BRANCH  45  59
ATOM     59  C   UNL     1      -4.084   7.142  11.665  1.00  0.00     0.064 A 
ATOM     60  C   UNL     1      -3.984   7.658  12.977  1.00  0.00     0.173 A 
ATOM     61  C   UNL     1      -3.573   5.837  11.497  1.00  0.00     0.173 A 
ATOM     62  F   UNL     1      -4.458   8.878  13.272  1.00  0.00    -0.203 F 
ATOM     63  C   UNL     1      -3.305   6.981  13.993  1.00  0.00     0.198 A 
ATOM     64  C   UNL     1      -2.938   5.144  12.529  1.00  0.00     0.198 A 
ATOM     65  F   UNL     1      -3.567   5.210  10.318  1.00  0.00    -0.203 F 
ATOM     66  F   UNL     1      -3.110   7.581  15.175  1.00  0.00    -0.200 F 
ATOM     67  C   UNL     1      -2.766   5.731  13.763  1.00  0.00     0.200 A 
ATOM     68  F   UNL     1      -2.421   3.932  12.284  1.00  0.00    -0.200 F 
ATOM     69  F   UNL     1      -2.048   5.113  14.708  1.00  0.00    -0.200 F 
ENDBRANCH  45  59
BRANCH  46  70
ATOM     70  C   UNL     1       2.749   8.363   6.517  1.00  0.00     0.064 A 
ATOM     71  C   UNL     1       3.930   8.746   7.174  1.00  0.00     0.173 A 
ATOM     72  C   UNL     1       2.805   7.161   5.783  1.00  0.00     0.173 A 
ATOM     73  F   UNL     1       3.949   9.852   7.933  1.00  0.00    -0.203 F 
ATOM     74  C   UNL     1       5.089   7.963   7.119  1.00  0.00     0.198 A 
ATOM     75  C   UNL     1       3.962   6.382   5.727  1.00  0.00     0.198 A 
ATOM     76  F   UNL     1       1.708   6.670   5.187  1.00  0.00    -0.203 F 
ATOM     77  F   UNL     1       6.179   8.330   7.808  1.00  0.00    -0.200 F 
ATOM     78  C   UNL     1       5.100   6.776   6.405  1.00  0.00     0.200 A 
ATOM     79  F   UNL     1       3.946   5.216   5.065  1.00  0.00    -0.200 F 
ATOM     80  F   UNL     1       6.189   5.993   6.404  1.00  0.00    -0.200 F 
ENDBRANCH  46  70
BRANCH  58  81
ATOM     81  C   UNL     1      -1.343  12.636   8.672  1.00  0.00     0.064 A 
ATOM     82  C   UNL     1      -1.287  12.714   7.269  1.00  0.00     0.173 A 
ATOM     83  C   UNL     1      -1.480  13.840   9.373  1.00  0.00     0.173 A 
ATOM     84  F   UNL     1      -1.257  11.609   6.517  1.00  0.00    -0.203 F 
ATOM     85  C   UNL     1      -1.325  13.940   6.606  1.00  0.00     0.198 A 
ATOM     86  C   UNL     1      -1.554  15.061   8.709  1.00  0.00     0.198 A 
ATOM     87  F   UNL     1      -1.597  13.826  10.710  1.00  0.00    -0.203 F 
ATOM     88  F   UNL     1      -1.262  13.983   5.266  1.00  0.00    -0.200 F 
ATOM     89  C   UNL     1      -1.467  15.112   7.327  1.00  0.00     0.200 A 
ATOM     90  F   UNL     1      -1.744  16.188   9.409  1.00  0.00    -0.200 F 
ATOM     91  F   UNL     1      -1.548  16.289   6.690  1.00  0.00    -0.200 F 
ENDBRANCH  58  81
ENDBRANCH  32  33
ENDBRANCH  24  27
ENDBRANCH  22  23
ENDBRANCH   1  22
TORSDOF 13
