REMARK SMILES CCC(CC)(NC(=O)N[C@@H](C)[C@@H]1CCCO1)C(=O)NCCCCNC(=O)c1ccc(-c2c3nc(c(-c4c(F)c(F)c(F)c(F)c4F)c4ccc([nH]4)c(-c4c(F)c(F)c(F)c(F)c4F)c4nc(c(-c5c(F)c(F)c(F)c(F)c5F)c5ccc2[nH]5)C=C4)C=C3)cc1
REMARK SMILES IDX 21 1 20 2 19 3 17 4 18 5 3 7 2 8 1 9 4 10 5 11 6 12 7 13
REMARK SMILES IDX 8 15 9 16 10 18 11 19 12 20 13 21 16 22 14 23 15 24 22 25
REMARK SMILES IDX 23 26 24 27 25 28 26 30 27 31 28 32 89 33 29 34 88 35 30 36
REMARK SMILES IDX 31 37 32 38 82 39 33 40 87 41 81 42 83 43 34 44 86 45 80 46
REMARK SMILES IDX 79 47 35 49 67 50 47 51 66 52 48 53 51 54 65 55 84 56 49 57
REMARK SMILES IDX 50 58 64 60 85 61 52 62 36 63 37 64 45 65 38 66 39 67 43 68
REMARK SMILES IDX 46 69 40 70 41 71 44 72 42 73 68 74 69 75 77 76 70 77 71 78
REMARK SMILES IDX 75 79 78 80 72 81 73 82 76 83 74 84 53 85 54 86 62 87 55 88
REMARK SMILES IDX 56 89 60 90 63 91 57 92 58 93 61 94 59 95
REMARK H PARENT 19 6 6 14 9 17 24 29 83 48 51 59
REMARK Flexibility Score: inf
ROOT
ATOM      1  C   UNL     1       2.193   4.893   4.049  1.00  0.00     0.023 C 
ENDROOT
BRANCH   1   2
ATOM      2  C   UNL     1       1.775   4.869   2.573  1.00  0.00     0.116 C 
BRANCH   2   3
ATOM      3  N   UNL     1       2.441   3.959   1.647  1.00  0.00    -0.354 N 
ATOM      4  C   UNL     1       2.100   2.735   1.118  1.00  0.00     0.245 C 
ATOM      5  O   UNL     1       2.733   2.391   0.112  1.00  0.00    -0.272 OA
ATOM      6  H   UNL     1       3.315   4.289   1.337  1.00  0.00     0.163 HD
BRANCH   4   7
ATOM      7  C   UNL     1       0.888   1.907   1.645  1.00  0.00     0.120 C 
BRANCH   7   8
ATOM      8  C   UNL     1       0.825   0.391   1.287  1.00  0.00     0.035 C 
ATOM      9  C   UNL     1       0.874  -0.013  -0.178  1.00  0.00     0.007 C 
ENDBRANCH   7   8
BRANCH   7  10
ATOM     10  C   UNL     1      -0.342   2.642   1.001  1.00  0.00     0.035 C 
ATOM     11  C   UNL     1      -1.734   2.159   1.378  1.00  0.00     0.007 C 
ENDBRANCH   7  10
BRANCH   7  12
ATOM     12  N   UNL     1       0.898   1.990   3.119  1.00  0.00    -0.324 N 
ATOM     13  C   UNL     1       1.725   1.525   4.071  1.00  0.00     0.315 C 
ATOM     14  H   UNL     1       0.135   2.496   3.483  1.00  0.00     0.166 HD
ATOM     15  O   UNL     1       1.285   1.525   5.225  1.00  0.00    -0.249 OA
ATOM     16  N   UNL     1       2.986   1.109   3.900  1.00  0.00    -0.333 N 
ATOM     17  H   UNL     1       3.381   0.823   4.755  1.00  0.00     0.165 HD
BRANCH  16  18
ATOM     18  C   UNL     1       3.949   0.958   2.796  1.00  0.00     0.109 C 
ATOM     19  C   UNL     1       4.939   2.123   2.736  1.00  0.00     0.034 C 
BRANCH  18  20
ATOM     20  C   UNL     1       4.763  -0.351   2.895  1.00  0.00     0.140 C 
ATOM     21  C   UNL     1       5.551  -0.620   1.613  1.00  0.00     0.036 C 
ATOM     22  O   UNL     1       3.901  -1.486   3.088  1.00  0.00    -0.376 OA
ATOM     23  C   UNL     1       5.601  -2.121   1.565  1.00  0.00     0.031 C 
ATOM     24  C   UNL     1       4.258  -2.502   2.146  1.00  0.00     0.160 C 
ENDBRANCH  18  20
ENDBRANCH  16  18
ENDBRANCH   7  12
ENDBRANCH   4   7
ENDBRANCH   2   3
ENDBRANCH   1   2
BRANCH   1  25
ATOM     25  C   UNL     1       3.662   5.044   4.437  1.00  0.00     0.023 C 
BRANCH  25  26
ATOM     26  C   UNL     1       4.495   5.978   3.576  1.00  0.00     0.116 C 
BRANCH  26  27
ATOM     27  N   UNL     1       4.038   7.351   3.678  1.00  0.00    -0.352 N 
ATOM     28  C   UNL     1       4.758   8.485   3.960  1.00  0.00     0.251 C 
ATOM     29  H   UNL     1       3.076   7.489   3.523  1.00  0.00     0.163 HD
ATOM     30  O   UNL     1       4.174   9.534   4.210  1.00  0.00    -0.269 OA
BRANCH  28  31
ATOM     31  C   UNL     1       6.237   8.446   3.979  1.00  0.00     0.039 A 
ATOM     32  C   UNL     1       6.912   9.120   5.000  1.00  0.00     0.014 A 
ATOM     33  C   UNL     1       6.960   7.790   2.978  1.00  0.00     0.014 A 
ATOM     34  C   UNL     1       8.308   9.109   5.038  1.00  0.00     0.010 A 
ATOM     35  C   UNL     1       8.350   7.726   3.051  1.00  0.00     0.010 A 
ATOM     36  C   UNL     1       9.039   8.396   4.074  1.00  0.00    -0.014 A 
BRANCH  36  37
ATOM     37  C   UNL     1      10.523   8.361   4.112  1.00  0.00     0.031 A 
ATOM     38  C   UNL     1      11.322   9.012   3.016  1.00  0.00     0.074 A 
ATOM     39  C   UNL     1      11.151   7.705   5.106  1.00  0.00     0.049 A 
ATOM     40  N   UNL     1      12.620   9.046   2.845  1.00  0.00    -0.248 NA
ATOM     41  C   UNL     1      10.560   9.694   1.958  1.00  0.00     0.031 C 
ATOM     42  C   UNL     1      10.487   7.004   6.205  1.00  0.00     0.029 A 
ATOM     43  N   UNL     1      12.488   7.515   5.349  1.00  0.00    -0.354 N 
ATOM     44  C   UNL     1      12.827   9.737   1.658  1.00  0.00     0.074 A 
ATOM     45  C   UNL     1      11.522  10.063   1.125  1.00  0.00     0.031 C 
ATOM     46  C   UNL     1      11.419   6.478   7.017  1.00  0.00     0.029 A 
ATOM     47  C   UNL     1      12.743   6.775   6.478  1.00  0.00     0.049 A 
ATOM     48  H   UNL     1      13.198   7.875   4.769  1.00  0.00     0.167 HD
ATOM     49  C   UNL     1      13.999  10.086   1.077  1.00  0.00     0.037 A 
ATOM     50  C   UNL     1      13.913   6.377   7.013  1.00  0.00     0.037 A 
ATOM     51  C   UNL     1      15.296   9.787   1.625  1.00  0.00     0.049 A 
ATOM     52  C   UNL     1      15.201   6.773   6.342  1.00  0.00     0.074 A 
ATOM     53  C   UNL     1      16.542  10.156   1.147  1.00  0.00     0.029 A 
ATOM     54  N   UNL     1      15.514   9.044   2.776  1.00  0.00    -0.354 N 
ATOM     55  N   UNL     1      15.385   7.487   5.258  1.00  0.00    -0.248 NA
ATOM     56  C   UNL     1      16.445   6.313   6.976  1.00  0.00     0.031 C 
ATOM     57  C   UNL     1      17.515   9.595   1.982  1.00  0.00     0.029 A 
ATOM     58  C   UNL     1      16.875   8.921   3.009  1.00  0.00     0.049 A 
ATOM     59  H   UNL     1      14.807   8.660   3.344  1.00  0.00     0.167 HD
ATOM     60  C   UNL     1      16.760   7.587   5.096  1.00  0.00     0.074 A 
ATOM     61  C   UNL     1      17.364   6.873   6.202  1.00  0.00     0.031 C 
ATOM     62  C   UNL     1      17.460   8.215   4.120  1.00  0.00     0.037 A 
BRANCH  49  63
ATOM     63  C   UNL     1      13.937  10.834  -0.224  1.00  0.00     0.064 A 
ATOM     64  C   UNL     1      13.495  12.164  -0.289  1.00  0.00     0.173 A 
ATOM     65  C   UNL     1      14.367  10.227  -1.414  1.00  0.00     0.173 A 
ATOM     66  F   UNL     1      13.063  12.787   0.818  1.00  0.00    -0.203 F 
ATOM     67  C   UNL     1      13.458  12.849  -1.502  1.00  0.00     0.198 A 
ATOM     68  C   UNL     1      14.358  10.925  -2.619  1.00  0.00     0.198 A 
ATOM     69  F   UNL     1      14.806   8.960  -1.407  1.00  0.00    -0.203 F 
ATOM     70  F   UNL     1      12.987  14.103  -1.547  1.00  0.00    -0.200 F 
ATOM     71  C   UNL     1      13.897  12.232  -2.663  1.00  0.00     0.200 A 
ATOM     72  F   UNL     1      14.795  10.332  -3.739  1.00  0.00    -0.200 F 
ATOM     73  F   UNL     1      13.869  12.895  -3.827  1.00  0.00    -0.200 F 
ENDBRANCH  49  63
BRANCH  50  74
ATOM     74  C   UNL     1      13.924   5.577   8.265  1.00  0.00     0.064 A 
ATOM     75  C   UNL     1      14.399   6.127   9.464  1.00  0.00     0.173 A 
ATOM     76  C   UNL     1      13.471   4.250   8.290  1.00  0.00     0.173 A 
ATOM     77  F   UNL     1      14.863   7.385   9.486  1.00  0.00    -0.203 F 
ATOM     78  C   UNL     1      14.442   5.373  10.635  1.00  0.00     0.198 A 
ATOM     79  C   UNL     1      13.488   3.507   9.468  1.00  0.00     0.198 A 
ATOM     80  F   UNL     1      13.003   3.679   7.171  1.00  0.00    -0.203 F 
ATOM     81  F   UNL     1      14.946   5.908  11.755  1.00  0.00    -0.200 F 
ATOM     82  C   UNL     1      13.981   4.066  10.638  1.00  0.00     0.200 A 
ATOM     83  F   UNL     1      13.029   2.248   9.470  1.00  0.00    -0.200 F 
ATOM     84  F   UNL     1      14.021   3.341  11.764  1.00  0.00    -0.200 F 
ENDBRANCH  50  74
BRANCH  62  85
ATOM     85  C   UNL     1      18.958   8.192   4.222  1.00  0.00     0.064 A 
ATOM     86  C   UNL     1      19.694   7.023   3.979  1.00  0.00     0.173 A 
ATOM     87  C   UNL     1      19.666   9.364   4.528  1.00  0.00     0.173 A 
ATOM     88  F   UNL     1      19.063   5.873   3.698  1.00  0.00    -0.203 F 
ATOM     89  C   UNL     1      21.084   7.024   4.064  1.00  0.00     0.198 A 
ATOM     90  C   UNL     1      21.057   9.367   4.582  1.00  0.00     0.198 A 
ATOM     91  F   UNL     1      19.009  10.510   4.763  1.00  0.00    -0.203 F 
ATOM     92  F   UNL     1      21.765   5.885   3.874  1.00  0.00    -0.200 F 
ATOM     93  C   UNL     1      21.764   8.196   4.357  1.00  0.00     0.200 A 
ATOM     94  F   UNL     1      21.712  10.505   4.852  1.00  0.00    -0.200 F 
ATOM     95  F   UNL     1      23.102   8.196   4.431  1.00  0.00    -0.200 F 
ENDBRANCH  62  85
ENDBRANCH  36  37
ENDBRANCH  28  31
ENDBRANCH  26  27
ENDBRANCH  25  26
ENDBRANCH   1  25
TORSDOF 16
