REMARK SMILES Cc1n[nH]c(C(=O)NCCCCNC(=O)c2ccc(-c3c4nc(c(-c5c(F)c(F)c(F)c(F)c5F)c5ccc([nH]5)c(-c5c(F)c(F)c(F)c(F)c5F)c5nc(c(-c6c(F)c(F)c(F)c(F)c6F)c6ccc3[nH]6)C=C5)C=C4)cc2)c1Br
REMARK SMILES IDX 11 1 10 2 9 3 8 4 6 5 7 6 5 8 1 9 2 10 3 11 79 12 4 13 80 14
REMARK SMILES IDX 12 16 13 17 14 18 15 20 16 21 17 22 78 23 18 24 77 25 19 26
REMARK SMILES IDX 20 27 21 28 71 29 22 30 76 31 70 32 72 33 23 34 75 35 69 36
REMARK SMILES IDX 68 37 24 39 56 40 36 41 55 42 37 43 40 44 54 45 73 46 38 47
REMARK SMILES IDX 39 48 53 50 74 51 41 52 25 53 26 54 34 55 27 56 28 57 32 58
REMARK SMILES IDX 35 59 29 60 30 61 33 62 31 63 57 64 58 65 66 66 59 67 60 68
REMARK SMILES IDX 64 69 67 70 61 71 62 72 65 73 63 74 42 75 43 76 51 77 44 78
REMARK SMILES IDX 45 79 49 80 52 81 46 82 47 83 50 84 48 85
REMARK H PARENT 8 7 4 15 13 19 72 38 40 49
REMARK Flexibility Score: inf
ROOT
ATOM      1  C   UNL     1      -2.281   7.603   0.833  1.00  0.00     0.023 C 
ENDROOT
BRANCH   1   2
ATOM      2  C   UNL     1      -2.332   6.136   0.367  1.00  0.00     0.023 C 
BRANCH   2   3
ATOM      3  C   UNL     1      -1.400   5.773  -0.794  1.00  0.00     0.116 C 
BRANCH   3   4
ATOM      4  N   UNL     1      -0.008   5.756  -0.390  1.00  0.00    -0.351 N 
ATOM      5  C   UNL     1       0.913   4.789  -0.079  1.00  0.00     0.270 C 
ATOM      6  O   UNL     1       2.018   5.243   0.228  1.00  0.00    -0.267 OA
ATOM      7  H   UNL     1       0.369   6.663  -0.322  1.00  0.00     0.163 HD
BRANCH   5   8
ATOM      8  C   UNL     1       0.642   3.370  -0.116  1.00  0.00     0.137 A 
ATOM      9  C   UNL     1       1.230  -0.294   0.015  1.00  0.00     0.070 C 
ATOM     10  C   UNL     1       0.791   1.121  -0.083  1.00  0.00     0.074 A 
ATOM     11  N   UNL     1      -0.484   1.393  -0.381  1.00  0.00    -0.179 NA
ATOM     12  C   UNL     1       1.516   2.316   0.109  1.00  0.00     0.071 A 
ATOM     13  N   UNL     1      -0.544   2.733  -0.357  1.00  0.00    -0.272 N 
ATOM     14  Br  UNL     1       3.335   2.373   0.582  1.00  0.00    -0.046 Br
ATOM     15  H   UNL     1      -1.384   3.224  -0.503  1.00  0.00     0.190 HD
ENDBRANCH   5   8
ENDBRANCH   3   4
ENDBRANCH   2   3
ENDBRANCH   1   2
BRANCH   1  16
ATOM     16  C   UNL     1      -2.674   8.631  -0.220  1.00  0.00     0.116 C 
BRANCH  16  17
ATOM     17  N   UNL     1      -4.044   8.473  -0.721  1.00  0.00    -0.352 N 
ATOM     18  C   UNL     1      -4.663   9.166  -1.756  1.00  0.00     0.251 C 
ATOM     19  H   UNL     1      -4.593   7.792  -0.269  1.00  0.00     0.163 HD
ATOM     20  O   UNL     1      -5.874   9.237  -1.847  1.00  0.00    -0.269 OA
BRANCH  18  21
ATOM     21  C   UNL     1      -3.797   9.790  -2.772  1.00  0.00     0.039 A 
ATOM     22  C   UNL     1      -4.024  11.064  -3.301  1.00  0.00     0.014 A 
ATOM     23  C   UNL     1      -2.681   9.054  -3.138  1.00  0.00     0.014 A 
ATOM     24  C   UNL     1      -3.063  11.607  -4.155  1.00  0.00     0.010 A 
ATOM     25  C   UNL     1      -1.639   9.684  -3.745  1.00  0.00     0.010 A 
ATOM     26  C   UNL     1      -1.867  10.904  -4.361  1.00  0.00    -0.014 A 
BRANCH  26  27
ATOM     27  C   UNL     1      -0.771  11.411  -5.170  1.00  0.00     0.031 A 
ATOM     28  C   UNL     1      -0.193  12.695  -4.696  1.00  0.00     0.074 A 
ATOM     29  C   UNL     1      -0.165  10.621  -6.088  1.00  0.00     0.049 A 
ATOM     30  N   UNL     1      -0.175  13.828  -5.314  1.00  0.00    -0.248 NA
ATOM     31  C   UNL     1       0.311  12.766  -3.314  1.00  0.00     0.031 C 
ATOM     32  C   UNL     1      -0.433   9.210  -6.412  1.00  0.00     0.029 A 
ATOM     33  N   UNL     1       0.916  10.892  -6.864  1.00  0.00    -0.354 N 
ATOM     34  C   UNL     1       0.511  14.712  -4.484  1.00  0.00     0.074 A 
ATOM     35  C   UNL     1       0.620  14.060  -3.206  1.00  0.00     0.031 C 
ATOM     36  C   UNL     1       0.594   8.698  -7.126  1.00  0.00     0.029 A 
ATOM     37  C   UNL     1       1.496   9.778  -7.466  1.00  0.00     0.049 A 
ATOM     38  H   UNL     1       1.263  11.804  -6.990  1.00  0.00     0.167 HD
ATOM     39  C   UNL     1       1.137  15.809  -4.995  1.00  0.00     0.037 A 
ATOM     40  C   UNL     1       2.654   9.762  -8.173  1.00  0.00     0.037 A 
ATOM     41  C   UNL     1       0.674  16.084  -6.333  1.00  0.00     0.049 A 
ATOM     42  C   UNL     1       2.933  11.165  -8.574  1.00  0.00     0.074 A 
ATOM     43  C   UNL     1      -0.549  16.417  -6.882  1.00  0.00     0.029 A 
ATOM     44  N   UNL     1       1.441  15.635  -7.380  1.00  0.00    -0.354 N 
ATOM     45  N   UNL     1       2.184  11.834  -9.409  1.00  0.00    -0.248 NA
ATOM     46  C   UNL     1       3.730  11.971  -7.661  1.00  0.00     0.031 C 
ATOM     47  C   UNL     1      -0.613  15.683  -8.104  1.00  0.00     0.029 A 
ATOM     48  C   UNL     1       0.602  15.016  -8.272  1.00  0.00     0.049 A 
ATOM     49  H   UNL     1       2.416  15.739  -7.474  1.00  0.00     0.167 HD
ATOM     50  C   UNL     1       2.085  13.103  -8.856  1.00  0.00     0.074 A 
ATOM     51  C   UNL     1       3.107  13.144  -7.810  1.00  0.00     0.031 C 
ATOM     52  C   UNL     1       0.993  13.890  -9.088  1.00  0.00     0.037 A 
BRANCH  39  53
ATOM     53  C   UNL     1       2.414  16.408  -4.455  1.00  0.00     0.064 A 
ATOM     54  C   UNL     1       2.893  17.611  -5.015  1.00  0.00     0.173 A 
ATOM     55  C   UNL     1       3.332  15.714  -3.638  1.00  0.00     0.173 A 
ATOM     56  F   UNL     1       2.110  18.353  -5.813  1.00  0.00    -0.203 F 
ATOM     57  C   UNL     1       4.215  18.031  -4.847  1.00  0.00     0.198 A 
ATOM     58  C   UNL     1       4.635  16.165  -3.430  1.00  0.00     0.198 A 
ATOM     59  F   UNL     1       3.053  14.521  -3.102  1.00  0.00    -0.203 F 
ATOM     60  F   UNL     1       4.659  19.109  -5.508  1.00  0.00    -0.200 F 
ATOM     61  C   UNL     1       5.088  17.302  -4.062  1.00  0.00     0.200 A 
ATOM     62  F   UNL     1       5.470  15.435  -2.676  1.00  0.00    -0.200 F 
ATOM     63  F   UNL     1       6.372  17.665  -3.953  1.00  0.00    -0.200 F 
ENDBRANCH  39  53
BRANCH  40  64
ATOM     64  C   UNL     1       3.686   8.698  -8.217  1.00  0.00     0.064 A 
ATOM     65  C   UNL     1       4.649   8.655  -9.239  1.00  0.00     0.173 A 
ATOM     66  C   UNL     1       3.922   7.872  -7.101  1.00  0.00     0.173 A 
ATOM     67  F   UNL     1       4.524   9.447 -10.314  1.00  0.00    -0.203 F 
ATOM     68  C   UNL     1       5.789   7.849  -9.140  1.00  0.00     0.198 A 
ATOM     69  C   UNL     1       5.059   7.067  -7.004  1.00  0.00     0.198 A 
ATOM     70  F   UNL     1       3.101   7.903  -6.041  1.00  0.00    -0.203 F 
ATOM     71  F   UNL     1       6.715   7.876 -10.110  1.00  0.00    -0.200 F 
ATOM     72  C   UNL     1       5.999   7.064  -8.018  1.00  0.00     0.200 A 
ATOM     73  F   UNL     1       5.270   6.345  -5.894  1.00  0.00    -0.200 F 
ATOM     74  F   UNL     1       7.120   6.341  -7.894  1.00  0.00    -0.200 F 
ENDBRANCH  40  64
BRANCH  52  75
ATOM     75  C   UNL     1       0.005  13.432 -10.129  1.00  0.00     0.064 A 
ATOM     76  C   UNL     1      -0.764  12.258 -10.029  1.00  0.00     0.173 A 
ATOM     77  C   UNL     1      -0.283  14.294 -11.194  1.00  0.00     0.173 A 
ATOM     78  F   UNL     1      -0.626  11.429  -8.990  1.00  0.00    -0.203 F 
ATOM     79  C   UNL     1      -1.743  11.946 -10.973  1.00  0.00     0.198 A 
ATOM     80  C   UNL     1      -1.285  13.999 -12.115  1.00  0.00     0.198 A 
ATOM     81  F   UNL     1       0.376  15.457 -11.311  1.00  0.00    -0.203 F 
ATOM     82  F   UNL     1      -2.455  10.815 -10.855  1.00  0.00    -0.200 F 
ATOM     83  C   UNL     1      -2.007  12.821 -12.011  1.00  0.00     0.200 A 
ATOM     84  F   UNL     1      -1.570  14.874 -13.089  1.00  0.00    -0.200 F 
ATOM     85  F   UNL     1      -2.975  12.544 -12.896  1.00  0.00    -0.200 F 
ENDBRANCH  52  75
ENDBRANCH  26  27
ENDBRANCH  18  21
ENDBRANCH  16  17
ENDBRANCH   1  16
TORSDOF 11
