REMARK SMILES Cc1ccc(-c2cnnc(-n3nc(C)c4c3NC(=O)C[C@@H]4c3ccc(C(=O)NCCCCNC(=O)c4ccc(-c5c6nc(c(-c7c(F)c(F)c(F)c(F)c7F)c7ccc([nH]7)c(-c7c(F)c(F)c(F)c(F)c7F)c7nc(c(-c8c(F)c(F)c(F)c(F)c8F)c8ccc5[nH]8)C=C7)C=C6)cc4)cc3)n2)cc1
REMARK SMILES IDX 30 1 29 2 28 3 26 4 27 5 25 7 22 8 23 9 100 10 24 11 99 12
REMARK SMILES IDX 21 13 11 14 12 15 16 16 13 17 15 18 17 19 14 20 18 21 20 23
REMARK SMILES IDX 19 24 10 25 6 26 7 27 101 28 8 29 9 30 5 31 1 32 2 33 3 34
REMARK SMILES IDX 103 35 4 36 102 37 31 38 32 39 33 40 34 41 35 43 36 44 37 45
REMARK SMILES IDX 98 46 38 47 97 48 39 49 40 50 41 51 91 52 42 53 96 54 90 55
REMARK SMILES IDX 92 56 43 57 95 58 89 59 88 60 44 62 76 63 56 64 75 65 57 66
REMARK SMILES IDX 60 67 74 68 93 69 58 70 59 71 73 73 94 74 61 75 45 76 46 77
REMARK SMILES IDX 54 78 47 79 48 80 52 81 55 82 49 83 50 84 53 85 51 86 77 87
REMARK SMILES IDX 78 88 86 89 79 90 80 91 84 92 87 93 81 94 82 95 85 96 83 97
REMARK SMILES IDX 62 98 63 99 71 100 64 101 65 102 69 103 72 104 66 105 67 106
REMARK SMILES IDX 70 107 68 108
REMARK H PARENT 28 6 17 22 33 42 92 61 60 72
REMARK Flexibility Score: inf
ROOT
ATOM      1  C   UNL     1     -11.007   6.924  -5.681  1.00  0.00     0.023 C 
ENDROOT
BRANCH   1   2
ATOM      2  C   UNL     1     -11.591   5.630  -6.276  1.00  0.00     0.116 C 
BRANCH   2   3
ATOM      3  N   UNL     1     -11.469   5.550  -7.728  1.00  0.00    -0.352 N 
ATOM      4  C   UNL     1     -10.648   4.794  -8.535  1.00  0.00     0.251 C 
ATOM      5  O   UNL     1     -10.875   4.740  -9.741  1.00  0.00    -0.269 OA
ATOM      6  H   UNL     1     -12.083   6.143  -8.219  1.00  0.00     0.163 HD
BRANCH   4   7
ATOM      7  C   UNL     1      -9.535   3.996  -7.972  1.00  0.00     0.039 A 
ATOM      8  C   UNL     1      -7.701   2.311  -6.674  1.00  0.00    -0.040 A 
ATOM      9  C   UNL     1      -8.348   1.894  -7.853  1.00  0.00     0.005 A 
ATOM     10  C   UNL     1      -7.834   3.650  -6.294  1.00  0.00     0.005 A 
ATOM     11  C   UNL     1      -9.256   2.735  -8.503  1.00  0.00     0.014 A 
ATOM     12  C   UNL     1      -8.748   4.476  -6.932  1.00  0.00     0.014 A 
BRANCH   8  13
ATOM     13  C   UNL     1      -6.937   1.284  -5.866  1.00  0.00     0.064 C 
ATOM     14  N   UNL     1      -5.819   2.098  -2.520  1.00  0.00    -0.180 N 
ATOM     15  N   UNL     1      -7.107   2.491  -2.319  1.00  0.00    -0.168 NA
ATOM     16  C   UNL     1      -5.575   2.071  -3.884  1.00  0.00     0.143 A 
ATOM     17  C   UNL     1      -7.733   2.157  -3.451  1.00  0.00     0.066 A 
ATOM     18  C   UNL     1      -6.798   1.752  -4.450  1.00  0.00     0.026 A 
ATOM     19  N   UNL     1      -4.477   2.325  -4.684  1.00  0.00    -0.310 N 
ATOM     20  C   UNL     1      -9.196   2.401  -3.523  1.00  0.00     0.069 C 
ATOM     21  C   UNL     1      -4.579   2.036  -6.091  1.00  0.00     0.226 C 
ATOM     22  H   UNL     1      -3.648   2.695  -4.303  1.00  0.00     0.171 HD
ATOM     23  C   UNL     1      -5.569   0.958  -6.463  1.00  0.00     0.113 C 
ATOM     24  O   UNL     1      -3.816   2.592  -6.843  1.00  0.00    -0.275 OA
BRANCH  14  25
ATOM     25  C   UNL     1      -5.120   1.387  -1.498  1.00  0.00     0.272 A 
ATOM     26  C   UNL     1      -3.299   0.333  -0.615  1.00  0.00     0.095 A 
ATOM     27  C   UNL     1      -4.118  -0.279   0.319  1.00  0.00     0.164 A 
ATOM     28  N   UNL     1      -3.794   1.145  -1.595  1.00  0.00    -0.208 NA
ATOM     29  N   UNL     1      -5.433  -0.035   0.348  1.00  0.00    -0.153 NA
ATOM     30  N   UNL     1      -5.926   0.844  -0.546  1.00  0.00    -0.109 NA
BRANCH  26  31
ATOM     31  C   UNL     1      -1.840   0.220  -0.499  1.00  0.00     0.002 A 
ATOM     32  C   UNL     1       2.446  -0.034   0.073  1.00  0.00     0.044 C 
ATOM     33  C   UNL     1       0.958   0.061  -0.100  1.00  0.00    -0.051 A 
ATOM     34  C   UNL     1       0.185  -1.102  -0.176  1.00  0.00     0.004 A 
ATOM     35  C   UNL     1       0.327   1.303  -0.207  1.00  0.00     0.004 A 
ATOM     36  C   UNL     1      -1.198  -1.024  -0.371  1.00  0.00     0.011 A 
ATOM     37  C   UNL     1      -1.054   1.379  -0.409  1.00  0.00     0.011 A 
ENDBRANCH  26  31
ENDBRANCH  14  25
ENDBRANCH   8  13
ENDBRANCH   4   7
ENDBRANCH   2   3
ENDBRANCH   1   2
BRANCH   1  38
ATOM     38  C   UNL     1     -11.639   8.219  -6.185  1.00  0.00     0.023 C 
BRANCH  38  39
ATOM     39  C   UNL     1     -13.056   8.444  -5.696  1.00  0.00     0.116 C 
BRANCH  39  40
ATOM     40  N   UNL     1     -13.167   9.193  -4.452  1.00  0.00    -0.352 N 
ATOM     41  C   UNL     1     -14.300   9.685  -3.823  1.00  0.00     0.251 C 
ATOM     42  H   UNL     1     -12.316   9.377  -3.993  1.00  0.00     0.163 HD
ATOM     43  O   UNL     1     -14.185  10.484  -2.899  1.00  0.00    -0.269 OA
BRANCH  41  44
ATOM     44  C   UNL     1     -15.630   9.092  -4.120  1.00  0.00     0.039 A 
ATOM     45  C   UNL     1     -16.429   8.769  -3.013  1.00  0.00     0.014 A 
ATOM     46  C   UNL     1     -15.888   8.520  -5.356  1.00  0.00     0.014 A 
ATOM     47  C   UNL     1     -17.232   7.640  -3.068  1.00  0.00     0.010 A 
ATOM     48  C   UNL     1     -16.535   7.316  -5.375  1.00  0.00     0.010 A 
ATOM     49  C   UNL     1     -17.146   6.855  -4.209  1.00  0.00    -0.014 A 
BRANCH  49  50
ATOM     50  C   UNL     1     -17.715   5.537  -4.344  1.00  0.00     0.031 A 
ATOM     51  C   UNL     1     -19.052   5.467  -4.944  1.00  0.00     0.074 A 
ATOM     52  C   UNL     1     -16.901   4.487  -4.111  1.00  0.00     0.049 A 
ATOM     53  N   UNL     1     -19.864   4.486  -4.812  1.00  0.00    -0.248 NA
ATOM     54  C   UNL     1     -19.608   6.572  -5.721  1.00  0.00     0.031 C 
ATOM     55  C   UNL     1     -17.089   3.082  -4.445  1.00  0.00     0.029 A 
ATOM     56  N   UNL     1     -15.738   4.497  -3.320  1.00  0.00    -0.354 N 
ATOM     57  C   UNL     1     -20.886   4.676  -5.721  1.00  0.00     0.074 A 
ATOM     58  C   UNL     1     -20.749   6.039  -6.160  1.00  0.00     0.031 C 
ATOM     59  C   UNL     1     -16.317   2.339  -3.627  1.00  0.00     0.029 A 
ATOM     60  C   UNL     1     -15.723   3.250  -2.659  1.00  0.00     0.049 A 
ATOM     61  H   UNL     1     -15.074   5.221  -3.244  1.00  0.00     0.167 HD
ATOM     62  C   UNL     1     -21.602   3.581  -6.108  1.00  0.00     0.037 A 
ATOM     63  C   UNL     1     -15.944   3.209  -1.310  1.00  0.00     0.037 A 
ATOM     64  C   UNL     1     -21.163   2.425  -5.320  1.00  0.00     0.049 A 
ATOM     65  C   UNL     1     -17.250   2.521  -0.986  1.00  0.00     0.074 A 
ATOM     66  C   UNL     1     -20.223   1.441  -5.582  1.00  0.00     0.029 A 
ATOM     67  N   UNL     1     -21.361   2.425  -3.940  1.00  0.00    -0.354 N 
ATOM     68  N   UNL     1     -18.277   2.489  -1.794  1.00  0.00    -0.248 NA
ATOM     69  C   UNL     1     -17.466   1.761   0.240  1.00  0.00     0.031 C 
ATOM     70  C   UNL     1     -19.772   0.931  -4.335  1.00  0.00     0.029 A 
ATOM     71  C   UNL     1     -20.458   1.579  -3.320  1.00  0.00     0.049 A 
ATOM     72  H   UNL     1     -22.048   2.953  -3.473  1.00  0.00     0.167 HD
ATOM     73  C   UNL     1     -19.254   1.700  -1.247  1.00  0.00     0.074 A 
ATOM     74  C   UNL     1     -18.698   1.271   0.026  1.00  0.00     0.031 C 
ATOM     75  C   UNL     1     -20.439   1.431  -1.872  1.00  0.00     0.037 A 
BRANCH  62  76
ATOM     76  C   UNL     1     -22.424   3.465  -7.379  1.00  0.00     0.064 A 
ATOM     77  C   UNL     1     -22.707   2.187  -7.915  1.00  0.00     0.173 A 
ATOM     78  C   UNL     1     -22.906   4.535  -8.159  1.00  0.00     0.173 A 
ATOM     79  F   UNL     1     -22.387   1.066  -7.255  1.00  0.00    -0.203 F 
ATOM     80  C   UNL     1     -23.330   2.004  -9.155  1.00  0.00     0.198 A 
ATOM     81  C   UNL     1     -23.502   4.354  -9.414  1.00  0.00     0.198 A 
ATOM     82  F   UNL     1     -22.870   5.798  -7.731  1.00  0.00    -0.203 F 
ATOM     83  F   UNL     1     -23.549   0.763  -9.610  1.00  0.00    -0.200 F 
ATOM     84  C   UNL     1     -23.707   3.089  -9.916  1.00  0.00     0.200 A 
ATOM     85  F   UNL     1     -23.880   5.426 -10.128  1.00  0.00    -0.200 F 
ATOM     86  F   UNL     1     -24.282   2.917 -11.113  1.00  0.00    -0.200 F 
ENDBRANCH  62  76
BRANCH  63  87
ATOM     87  C   UNL     1     -15.366   4.400  -0.614  1.00  0.00     0.064 A 
ATOM     88  C   UNL     1     -13.976   4.609  -0.756  1.00  0.00     0.173 A 
ATOM     89  C   UNL     1     -16.144   5.505  -0.246  1.00  0.00     0.173 A 
ATOM     90  F   UNL     1     -13.176   3.582  -1.087  1.00  0.00    -0.203 F 
ATOM     91  C   UNL     1     -13.426   5.889  -0.726  1.00  0.00     0.198 A 
ATOM     92  C   UNL     1     -15.576   6.782  -0.169  1.00  0.00     0.198 A 
ATOM     93  F   UNL     1     -17.468   5.380  -0.082  1.00  0.00    -0.203 F 
ATOM     94  F   UNL     1     -12.136   6.067  -1.049  1.00  0.00    -0.200 F 
ATOM     95  C   UNL     1     -14.234   6.979  -0.465  1.00  0.00     0.200 A 
ATOM     96  F   UNL     1     -16.356   7.843   0.091  1.00  0.00    -0.200 F 
ATOM     97  F   UNL     1     -13.729   8.218  -0.541  1.00  0.00    -0.200 F 
ENDBRANCH  63  87
BRANCH  75  98
ATOM     98  C   UNL     1     -21.656   0.874  -1.176  1.00  0.00     0.064 A 
ATOM     99  C   UNL     1     -21.910   1.054   0.193  1.00  0.00     0.173 A 
ATOM    100  C   UNL     1     -22.694   0.254  -1.912  1.00  0.00     0.173 A 
ATOM    101  F   UNL     1     -21.086   1.770   0.970  1.00  0.00    -0.203 F 
ATOM    102  C   UNL     1     -23.058   0.548   0.804  1.00  0.00     0.198 A 
ATOM    103  C   UNL     1     -23.875  -0.176  -1.313  1.00  0.00     0.198 A 
ATOM    104  F   UNL     1     -22.609   0.073  -3.238  1.00  0.00    -0.203 F 
ATOM    105  F   UNL     1     -23.212   0.676   2.129  1.00  0.00    -0.200 F 
ATOM    106  C   UNL     1     -24.043  -0.059   0.050  1.00  0.00     0.200 A 
ATOM    107  F   UNL     1     -24.855  -0.690  -2.070  1.00  0.00    -0.200 F 
ATOM    108  F   UNL     1     -25.161  -0.508   0.634  1.00  0.00    -0.200 F 
ENDBRANCH  75  98
ENDBRANCH  49  50
ENDBRANCH  41  44
ENDBRANCH  39  40
ENDBRANCH  38  39
ENDBRANCH   1  38
TORSDOF 14
