REMARK SMILES C[NH2+]C[C@H](C)C(=O)N1CC[C@@](C(=O)NCCCCNC(=O)c2ccc(-c3c4nc(c(-c5c(F)c(F)c(F)c(F)c5F)c5ccc([nH]5)c(-c5c(F)c(F)c(F)c(F)c5F)c5nc(c(-c6c(F)c(F)c(F)c(F)c6F)c6ccc3[nH]6)C=C5)C=C4)cc2)(C(F)(F)F)C1
REMARK SMILES IDX 15 1 14 2 12 3 13 4 11 6 8 7 9 8 89 9 10 10 6 11 7 12 4 13
REMARK SMILES IDX 5 14 3 15 2 16 1 17 85 20 86 21 87 22 88 23 16 24 17 25
REMARK SMILES IDX 18 26 19 27 20 28 21 30 22 31 23 32 84 33 24 34 83 35 25 36
REMARK SMILES IDX 26 37 27 38 77 39 28 40 82 41 76 42 78 43 29 44 81 45 75 46
REMARK SMILES IDX 74 47 30 49 62 50 42 51 61 52 43 53 46 54 60 55 79 56 44 57
REMARK SMILES IDX 45 58 59 60 80 61 47 62 31 63 32 64 40 65 33 66 34 67 38 68
REMARK SMILES IDX 41 69 35 70 36 71 39 72 37 73 63 74 64 75 72 76 65 77 66 78
REMARK SMILES IDX 70 79 73 80 67 81 68 82 71 83 69 84 48 85 49 86 57 87 50 88
REMARK SMILES IDX 51 89 55 90 58 91 52 92 53 93 56 94 54 95
REMARK H PARENT 14 5 2 18 2 19 19 29 78 48 46 59
REMARK Flexibility Score: inf
ROOT
ATOM      1  C   UNL     1      -3.203   2.784   4.777  1.00  0.00     0.116 C 
ENDROOT
BRANCH   1   2
ATOM      2  N   UNL     1      -4.507   3.413   4.864  1.00  0.00    -0.355 N 
ATOM      3  C   UNL     1      -5.447   3.695   3.913  1.00  0.00     0.237 C 
ATOM      4  O   UNL     1      -6.495   4.180   4.343  1.00  0.00    -0.274 OA
ATOM      5  H   UNL     1      -4.761   3.686   5.774  1.00  0.00     0.163 HD
BRANCH   3   6
ATOM      6  C   UNL     1      -5.221   3.446   2.425  1.00  0.00     0.163 C 
ATOM      7  N   UNL     1      -3.666   1.879   1.515  1.00  0.00    -0.341 N 
ATOM      8  C   UNL     1      -3.221   3.175   1.049  1.00  0.00     0.121 C 
ATOM      9  C   UNL     1      -4.992   1.967   2.114  1.00  0.00     0.146 C 
ATOM     10  C   UNL     1      -3.982   4.190   1.890  1.00  0.00     0.050 C 
BRANCH   7  11
ATOM     11  C   UNL     1      -3.092   0.643   1.323  1.00  0.00     0.231 C 
ATOM     12  O   UNL     1      -3.778  -0.378   1.453  1.00  0.00    -0.274 OA
BRANCH  11  13
ATOM     13  C   UNL     1      -1.577   0.495   1.185  1.00  0.00     0.130 C 
ATOM     14  C   UNL     1      -0.934   1.268   0.038  1.00  0.00     0.024 C 
BRANCH  13  15
ATOM     15  C   UNL     1      -0.886   0.788   2.535  1.00  0.00     0.273 C 
BRANCH  15  16
ATOM     16  N   UNL     1      -1.456   0.123   3.720  1.00  0.00    -0.348 N 
ATOM     17  C   UNL     1      -1.158  -1.307   3.750  1.00  0.00     0.330 C 
ATOM     18  H   UNL     1      -1.067   0.556   4.558  1.00  0.00     0.346 HD
ATOM     19  H   UNL     1      -2.469   0.230   3.681  1.00  0.00     0.346 HD
ENDBRANCH  15  16
ENDBRANCH  13  15
ENDBRANCH  11  13
ENDBRANCH   7  11
BRANCH   6  20
ATOM     20  C   UNL     1      -6.461   3.893   1.676  1.00  0.00     0.404 C 
ATOM     21  F   UNL     1      -6.290   3.700   0.341  1.00  0.00    -0.170 F 
ATOM     22  F   UNL     1      -7.563   3.197   2.026  1.00  0.00    -0.170 F 
ATOM     23  F   UNL     1      -6.714   5.211   1.834  1.00  0.00    -0.170 F 
ENDBRANCH   6  20
ENDBRANCH   3   6
ENDBRANCH   1   2
BRANCH   1  24
ATOM     24  C   UNL     1      -2.062   3.704   5.200  1.00  0.00     0.023 C 
BRANCH  24  25
ATOM     25  C   UNL     1      -2.011   4.014   6.693  1.00  0.00     0.023 C 
BRANCH  25  26
ATOM     26  C   UNL     1      -1.956   2.796   7.606  1.00  0.00     0.116 C 
BRANCH  26  27
ATOM     27  N   UNL     1      -0.815   1.930   7.350  1.00  0.00    -0.352 N 
ATOM     28  C   UNL     1       0.088   1.404   8.242  1.00  0.00     0.251 C 
ATOM     29  H   UNL     1      -0.671   1.687   6.407  1.00  0.00     0.163 HD
ATOM     30  O   UNL     1       1.087   0.812   7.842  1.00  0.00    -0.269 OA
BRANCH  28  31
ATOM     31  C   UNL     1      -0.127   1.574   9.697  1.00  0.00     0.039 A 
ATOM     32  C   UNL     1       0.956   1.924  10.505  1.00  0.00     0.014 A 
ATOM     33  C   UNL     1      -1.392   1.393  10.263  1.00  0.00     0.014 A 
ATOM     34  C   UNL     1       0.757   2.156  11.868  1.00  0.00     0.010 A 
ATOM     35  C   UNL     1      -1.607   1.712  11.601  1.00  0.00     0.010 A 
ATOM     36  C   UNL     1      -0.534   2.089  12.421  1.00  0.00    -0.014 A 
BRANCH  36  37
ATOM     37  C   UNL     1      -0.772   2.407  13.853  1.00  0.00     0.031 A 
ATOM     38  C   UNL     1      -1.306   1.355  14.787  1.00  0.00     0.074 A 
ATOM     39  C   UNL     1      -0.556   3.659  14.302  1.00  0.00     0.049 A 
ATOM     40  N   UNL     1      -1.603   1.451  16.059  1.00  0.00    -0.248 NA
ATOM     41  C   UNL     1      -1.569   0.028  14.210  1.00  0.00     0.031 C 
ATOM     42  C   UNL     1      -0.098   4.783  13.484  1.00  0.00     0.029 A 
ATOM     43  N   UNL     1      -0.700   4.199  15.556  1.00  0.00    -0.354 N 
ATOM     44  C   UNL     1      -2.095   0.205  16.427  1.00  0.00     0.074 A 
ATOM     45  C   UNL     1      -2.117  -0.610  15.233  1.00  0.00     0.031 C 
ATOM     46  C   UNL     1       0.032   5.869  14.262  1.00  0.00     0.029 A 
ATOM     47  C   UNL     1      -0.370   5.531  15.624  1.00  0.00     0.049 A 
ATOM     48  H   UNL     1      -1.010   3.680  16.334  1.00  0.00     0.167 HD
ATOM     49  C   UNL     1      -2.469  -0.228  17.655  1.00  0.00     0.037 A 
ATOM     50  C   UNL     1      -0.392   6.384  16.666  1.00  0.00     0.037 A 
ATOM     51  C   UNL     1      -2.428   0.580  18.846  1.00  0.00     0.049 A 
ATOM     52  C   UNL     1      -0.811   5.877  18.020  1.00  0.00     0.074 A 
ATOM     53  C   UNL     1      -2.725   0.216  20.147  1.00  0.00     0.029 A 
ATOM     54  N   UNL     1      -2.071   1.921  18.878  1.00  0.00    -0.354 N 
ATOM     55  N   UNL     1      -1.195   4.674  18.372  1.00  0.00    -0.248 NA
ATOM     56  C   UNL     1      -0.788   6.846  19.124  1.00  0.00     0.031 C 
ATOM     57  C   UNL     1      -2.604   1.350  20.958  1.00  0.00     0.029 A 
ATOM     58  C   UNL     1      -2.167   2.405  20.174  1.00  0.00     0.049 A 
ATOM     59  H   UNL     1      -1.791   2.450  18.097  1.00  0.00     0.167 HD
ATOM     60  C   UNL     1      -1.429   4.732  19.740  1.00  0.00     0.074 A 
ATOM     61  C   UNL     1      -1.125   6.085  20.156  1.00  0.00     0.031 C 
ATOM     62  C   UNL     1      -1.857   3.754  20.576  1.00  0.00     0.037 A 
BRANCH  49  63
ATOM     63  C   UNL     1      -2.956  -1.645  17.773  1.00  0.00     0.064 A 
ATOM     64  C   UNL     1      -2.095  -2.740  17.594  1.00  0.00     0.173 A 
ATOM     65  C   UNL     1      -4.293  -1.914  18.104  1.00  0.00     0.173 A 
ATOM     66  F   UNL     1      -0.809  -2.541  17.266  1.00  0.00    -0.203 F 
ATOM     67  C   UNL     1      -2.562  -4.047  17.707  1.00  0.00     0.198 A 
ATOM     68  C   UNL     1      -4.748  -3.222  18.252  1.00  0.00     0.198 A 
ATOM     69  F   UNL     1      -5.159  -0.907  18.294  1.00  0.00    -0.203 F 
ATOM     70  F   UNL     1      -1.733  -5.075  17.476  1.00  0.00    -0.200 F 
ATOM     71  C   UNL     1      -3.885  -4.287  18.044  1.00  0.00     0.200 A 
ATOM     72  F   UNL     1      -6.024  -3.452  18.593  1.00  0.00    -0.200 F 
ATOM     73  F   UNL     1      -4.331  -5.545  18.161  1.00  0.00    -0.200 F 
ENDBRANCH  49  63
BRANCH  50  74
ATOM     74  C   UNL     1       0.021   7.800  16.477  1.00  0.00     0.064 A 
ATOM     75  C   UNL     1       1.196   8.293  17.060  1.00  0.00     0.173 A 
ATOM     76  C   UNL     1      -0.753   8.690  15.718  1.00  0.00     0.173 A 
ATOM     77  F   UNL     1       1.961   7.487  17.810  1.00  0.00    -0.203 F 
ATOM     78  C   UNL     1       1.569   9.628  16.913  1.00  0.00     0.198 A 
ATOM     79  C   UNL     1      -0.363  10.017  15.545  1.00  0.00     0.198 A 
ATOM     80  F   UNL     1      -1.884   8.268  15.133  1.00  0.00    -0.203 F 
ATOM     81  F   UNL     1       2.670  10.085  17.525  1.00  0.00    -0.200 F 
ATOM     82  C   UNL     1       0.792  10.487  16.151  1.00  0.00     0.200 A 
ATOM     83  F   UNL     1      -1.108  10.839  14.793  1.00  0.00    -0.200 F 
ATOM     84  F   UNL     1       1.152  11.770  16.006  1.00  0.00    -0.200 F 
ENDBRANCH  50  74
BRANCH  62  85
ATOM     85  C   UNL     1      -1.983   4.100  22.032  1.00  0.00     0.064 A 
ATOM     86  C   UNL     1      -2.974   4.974  22.504  1.00  0.00     0.173 A 
ATOM     87  C   UNL     1      -1.111   3.529  22.974  1.00  0.00     0.173 A 
ATOM     88  F   UNL     1      -3.824   5.558  21.645  1.00  0.00    -0.203 F 
ATOM     89  C   UNL     1      -3.065   5.292  23.857  1.00  0.00     0.198 A 
ATOM     90  C   UNL     1      -1.228   3.821  24.330  1.00  0.00     0.198 A 
ATOM     91  F   UNL     1      -0.151   2.680  22.579  1.00  0.00    -0.203 F 
ATOM     92  F   UNL     1      -3.980   6.176  24.275  1.00  0.00    -0.200 F 
ATOM     93  C   UNL     1      -2.197   4.710  24.769  1.00  0.00     0.200 A 
ATOM     94  F   UNL     1      -0.400   3.244  25.211  1.00  0.00    -0.200 F 
ATOM     95  F   UNL     1      -2.288   5.014  26.071  1.00  0.00    -0.200 F 
ENDBRANCH  62  85
ENDBRANCH  36  37
ENDBRANCH  28  31
ENDBRANCH  26  27
ENDBRANCH  25  26
ENDBRANCH  24  25
ENDBRANCH   1  24
TORSDOF 16
