REMARK SMILES COc1ccc([C@H]2[NH2+][C@@H](C(=O)NCCCCNC(=O)c3ccc(-c4c5nc(c(-c6c(F)c(F)c(F)c(F)c6F)c6ccc([nH]6)c(-c6c(F)c(F)c(F)c(F)c6F)c6nc(c(-c7c(F)c(F)c(F)c(F)c7F)c7ccc4[nH]7)C=C6)C=C5)cc3)CC3=c4ccccc4=N[C@H]32)cc1Cn1cc([N+](=O)[O-])cn1
REMARK SMILES IDX 13 1 12 2 10 3 11 4 9 6 7 7 8 8 92 9 84 12 91 13 83 14 85 15
REMARK SMILES IDX 90 16 86 17 89 18 87 19 88 20 6 21 3 22 4 23 94 24 5 25
REMARK SMILES IDX 93 26 2 27 1 28 95 29 96 30 97 31 103 32 98 33 102 34 99 35
REMARK SMILES IDX 100 36 101 37 14 38 15 39 16 40 17 41 18 42 19 44 20 45
REMARK SMILES IDX 21 46 82 47 22 48 81 49 23 50 24 51 25 52 75 53 26 54 80 55
REMARK SMILES IDX 74 56 76 57 27 58 79 59 73 60 72 61 28 63 60 64 40 65 59 66
REMARK SMILES IDX 41 67 44 68 58 69 77 70 42 71 43 72 57 74 78 75 45 76 29 77
REMARK SMILES IDX 30 78 38 79 31 80 32 81 36 82 39 83 33 84 34 85 37 86 35 87
REMARK SMILES IDX 61 88 62 89 70 90 63 91 64 92 68 93 71 94 65 95 66 96 69 97
REMARK SMILES IDX 67 98 46 99 47 100 55 101 48 102 49 103 53 104 56 105 50 106
REMARK SMILES IDX 51 107 54 108 52 109
REMARK H PARENT 12 5 8 10 8 11 17 43 76 62 44 73
REMARK Flexibility Score: inf
ROOT
ATOM      1  C   UNL     1       3.891  -3.970  -8.399  1.00  0.00     0.116 C 
ENDROOT
BRANCH   1   2
ATOM      2  N   UNL     1       3.402  -2.640  -8.718  1.00  0.00    -0.351 N 
ATOM      3  C   UNL     1       2.321  -1.925  -8.284  1.00  0.00     0.278 C 
ATOM      4  O   UNL     1       2.434  -0.696  -8.432  1.00  0.00    -0.268 OA
ATOM      5  H   UNL     1       3.957  -2.161  -9.375  1.00  0.00     0.163 HD
BRANCH   3   6
ATOM      6  C   UNL     1       1.005  -2.458  -7.625  1.00  0.00     0.277 C 
ATOM      7  C   UNL     1       1.675  -3.582  -5.470  1.00  0.00     0.243 C 
ATOM      8  N   UNL     1       0.961  -2.470  -6.141  1.00  0.00    -0.327 N 
ATOM      9  C   UNL     1       1.147  -4.959  -6.103  1.00  0.00     0.196 C 
ATOM     10  H   UNL     1       1.370  -1.595  -5.812  1.00  0.00     0.347 HD
ATOM     11  H   UNL     1      -0.022  -2.594  -5.900  1.00  0.00     0.347 HD
ATOM     12  C   UNL     1       0.820  -4.934  -7.577  1.00  0.00    -0.024 C 
ATOM     13  N   UNL     1       2.006  -6.180  -5.952  1.00  0.00    -0.270 NA
ATOM     14  C   UNL     1       0.338  -3.688  -8.223  1.00  0.00     0.109 C 
ATOM     15  C   UNL     1       1.189  -6.054  -8.186  1.00  0.00     0.002 A 
ATOM     16  C   UNL     1       1.892  -6.773  -7.111  1.00  0.00     0.066 A 
ATOM     17  C   UNL     1       1.275  -6.433  -9.562  1.00  0.00     0.010 A 
ATOM     18  C   UNL     1       2.507  -8.060  -7.531  1.00  0.00     0.028 A 
ATOM     19  C   UNL     1       1.981  -7.529  -9.878  1.00  0.00     0.001 A 
ATOM     20  C   UNL     1       2.558  -8.369  -8.842  1.00  0.00     0.002 A 
BRANCH   7  21
ATOM     21  C   UNL     1       3.162  -3.250  -5.239  1.00  0.00     0.012 A 
ATOM     22  C   UNL     1       5.925  -2.752  -5.149  1.00  0.00     0.123 A 
ATOM     23  C   UNL     1       5.065  -1.738  -5.533  1.00  0.00     0.047 A 
ATOM     24  C   UNL     1       5.436  -3.951  -4.594  1.00  0.00     0.016 A 
ATOM     25  C   UNL     1       3.699  -1.980  -5.544  1.00  0.00     0.014 A 
ATOM     26  C   UNL     1       4.040  -4.164  -4.626  1.00  0.00     0.019 A 
BRANCH  22  27
ATOM     27  O   UNL     1       7.275  -2.532  -5.252  1.00  0.00    -0.496 OA
ATOM     28  C   UNL     1       7.700  -2.590  -6.620  1.00  0.00     0.278 C 
ENDBRANCH  22  27
BRANCH  24  29
ATOM     29  C   UNL     1       6.475  -4.854  -3.968  1.00  0.00     0.183 C 
BRANCH  29  30
ATOM     30  N   UNL     1       6.205  -6.250  -3.611  1.00  0.00    -0.261 N 
ATOM     31  C   UNL     1       5.217  -7.112  -3.988  1.00  0.00     0.194 A 
ATOM     32  N   UNL     1       7.189  -6.880  -2.914  1.00  0.00    -0.174 NA
ATOM     33  C   UNL     1       5.525  -8.333  -3.428  1.00  0.00     0.307 A 
ATOM     34  C   UNL     1       6.764  -8.142  -2.804  1.00  0.00     0.220 A 
BRANCH  33  35
ATOM     35  N   UNL     1       4.758  -9.536  -3.496  1.00  0.00     0.066 N 
ATOM     36  O   UNL     1       5.204 -10.517  -2.900  1.00  0.00    -0.258 OA
ATOM     37  O   UNL     1       3.688  -9.485  -4.127  1.00  0.00    -0.258 OA
ENDBRANCH  33  35
ENDBRANCH  29  30
ENDBRANCH  24  29
ENDBRANCH   7  21
ENDBRANCH   3   6
ENDBRANCH   1   2
BRANCH   1  38
ATOM     38  C   UNL     1       4.950  -4.554  -9.342  1.00  0.00     0.023 C 
BRANCH  38  39
ATOM     39  C   UNL     1       5.997  -5.512  -8.701  1.00  0.00     0.023 C 
BRANCH  39  40
ATOM     40  C   UNL     1       5.560  -6.292  -7.459  1.00  0.00     0.116 C 
BRANCH  40  41
ATOM     41  N   UNL     1       5.920  -7.703  -7.431  1.00  0.00    -0.352 N 
ATOM     42  C   UNL     1       6.944  -8.467  -6.939  1.00  0.00     0.251 C 
ATOM     43  H   UNL     1       5.245  -8.256  -7.888  1.00  0.00     0.163 HD
ATOM     44  O   UNL     1       6.719  -9.679  -6.869  1.00  0.00    -0.269 OA
BRANCH  42  45
ATOM     45  C   UNL     1       8.286  -7.975  -6.519  1.00  0.00     0.039 A 
ATOM     46  C   UNL     1       9.276  -8.944  -6.267  1.00  0.00     0.014 A 
ATOM     47  C   UNL     1       8.642  -6.636  -6.403  1.00  0.00     0.014 A 
ATOM     48  C   UNL     1      10.589  -8.578  -5.947  1.00  0.00     0.010 A 
ATOM     49  C   UNL     1       9.946  -6.257  -6.062  1.00  0.00     0.010 A 
ATOM     50  C   UNL     1      10.938  -7.224  -5.870  1.00  0.00    -0.014 A 
BRANCH  50  51
ATOM     51  C   UNL     1      12.361  -6.812  -5.867  1.00  0.00     0.031 A 
ATOM     52  C   UNL     1      13.046  -6.281  -4.647  1.00  0.00     0.074 A 
ATOM     53  C   UNL     1      12.995  -6.832  -7.055  1.00  0.00     0.049 A 
ATOM     54  N   UNL     1      14.301  -5.936  -4.497  1.00  0.00    -0.248 NA
ATOM     55  C   UNL     1      12.217  -6.079  -3.452  1.00  0.00     0.031 C 
ATOM     56  C   UNL     1      12.372  -7.218  -8.325  1.00  0.00     0.029 A 
ATOM     57  N   UNL     1      14.279  -6.507  -7.401  1.00  0.00    -0.354 N 
ATOM     58  C   UNL     1      14.420  -5.485  -3.188  1.00  0.00     0.074 A 
ATOM     59  C   UNL     1      13.095  -5.556  -2.603  1.00  0.00     0.031 C 
ATOM     60  C   UNL     1      13.276  -7.119  -9.308  1.00  0.00     0.029 A 
ATOM     61  C   UNL     1      14.539  -6.665  -8.740  1.00  0.00     0.049 A 
ATOM     62  H   UNL     1      14.950  -6.192  -6.754  1.00  0.00     0.167 HD
ATOM     63  C   UNL     1      15.539  -5.066  -2.545  1.00  0.00     0.037 A 
ATOM     64  C   UNL     1      15.679  -6.487  -9.431  1.00  0.00     0.037 A 
ATOM     65  C   UNL     1      16.843  -4.991  -3.164  1.00  0.00     0.049 A 
ATOM     66  C   UNL     1      16.918  -6.103  -8.679  1.00  0.00     0.074 A 
ATOM     67  C   UNL     1      18.061  -4.665  -2.590  1.00  0.00     0.029 A 
ATOM     68  N   UNL     1      17.095  -5.230  -4.510  1.00  0.00    -0.354 N 
ATOM     69  N   UNL     1      17.055  -5.818  -7.406  1.00  0.00    -0.248 NA
ATOM     70  C   UNL     1      18.166  -6.051  -9.447  1.00  0.00     0.031 C 
ATOM     71  C   UNL     1      19.035  -4.655  -3.596  1.00  0.00     0.029 A 
ATOM     72  C   UNL     1      18.440  -5.036  -4.788  1.00  0.00     0.049 A 
ATOM     73  H   UNL     1      16.416  -5.497  -5.171  1.00  0.00     0.167 HD
ATOM     74  C   UNL     1      18.407  -5.578  -7.213  1.00  0.00     0.074 A 
ATOM     75  C   UNL     1      19.049  -5.779  -8.498  1.00  0.00     0.031 C 
ATOM     76  C   UNL     1      19.058  -5.225  -6.077  1.00  0.00     0.037 A 
BRANCH  63  77
ATOM     77  C   UNL     1      15.418  -4.663  -1.099  1.00  0.00     0.064 A 
ATOM     78  C   UNL     1      15.130  -5.602  -0.095  1.00  0.00     0.173 A 
ATOM     79  C   UNL     1      15.670  -3.341  -0.696  1.00  0.00     0.173 A 
ATOM     80  F   UNL     1      14.885  -6.881  -0.418  1.00  0.00    -0.203 F 
ATOM     81  C   UNL     1      15.071  -5.229   1.247  1.00  0.00     0.198 A 
ATOM     82  C   UNL     1      15.641  -2.978   0.650  1.00  0.00     0.198 A 
ATOM     83  F   UNL     1      15.967  -2.401  -1.606  1.00  0.00    -0.203 F 
ATOM     84  F   UNL     1      14.756  -6.138   2.180  1.00  0.00    -0.200 F 
ATOM     85  C   UNL     1      15.335  -3.920   1.619  1.00  0.00     0.200 A 
ATOM     86  F   UNL     1      15.918  -1.717   1.009  1.00  0.00    -0.200 F 
ATOM     87  F   UNL     1      15.294  -3.567   2.912  1.00  0.00    -0.200 F 
ENDBRANCH  63  77
BRANCH  64  88
ATOM     88  C   UNL     1      15.700  -6.767 -10.889  1.00  0.00     0.064 A 
ATOM     89  C   UNL     1      16.355  -7.898 -11.395  1.00  0.00     0.173 A 
ATOM     90  C   UNL     1      15.022  -5.944 -11.800  1.00  0.00     0.173 A 
ATOM     91  F   UNL     1      17.019  -8.714 -10.563  1.00  0.00    -0.203 F 
ATOM     92  C   UNL     1      16.350  -8.184 -12.758  1.00  0.00     0.198 A 
ATOM     93  C   UNL     1      14.992  -6.248 -13.160  1.00  0.00     0.198 A 
ATOM     94  F   UNL     1      14.359  -4.862 -11.365  1.00  0.00    -0.203 F 
ATOM     95  F   UNL     1      17.015  -9.253 -13.217  1.00  0.00    -0.200 F 
ATOM     96  C   UNL     1      15.662  -7.363 -13.638  1.00  0.00     0.200 A 
ATOM     97  F   UNL     1      14.305  -5.466 -14.004  1.00  0.00    -0.200 F 
ATOM     98  F   UNL     1      15.645  -7.648 -14.947  1.00  0.00    -0.200 F 
ENDBRANCH  64  88
BRANCH  76  99
ATOM     99  C   UNL     1      20.546  -5.052  -6.184  1.00  0.00     0.064 A 
ATOM    100  C   UNL     1      21.116  -3.992  -6.906  1.00  0.00     0.173 A 
ATOM    101  C   UNL     1      21.413  -5.969  -5.571  1.00  0.00     0.173 A 
ATOM    102  F   UNL     1      20.331  -3.098  -7.526  1.00  0.00    -0.203 F 
ATOM    103  C   UNL     1      22.497  -3.884  -7.049  1.00  0.00     0.198 A 
ATOM    104  C   UNL     1      22.794  -5.837  -5.686  1.00  0.00     0.198 A 
ATOM    105  F   UNL     1      20.921  -6.998  -4.864  1.00  0.00    -0.203 F 
ATOM    106  F   UNL     1      23.015  -2.907  -7.806  1.00  0.00    -0.200 F 
ATOM    107  C   UNL     1      23.334  -4.804  -6.436  1.00  0.00     0.200 A 
ATOM    108  F   UNL     1      23.602  -6.720  -5.083  1.00  0.00    -0.200 F 
ATOM    109  F   UNL     1      24.662  -4.703  -6.582  1.00  0.00    -0.200 F 
ENDBRANCH  76  99
ENDBRANCH  50  51
ENDBRANCH  42  45
ENDBRANCH  40  41
ENDBRANCH  39  40
ENDBRANCH  38  39
ENDBRANCH   1  38
TORSDOF 16
