REMARK SMILES CC[C@@H](C)[C@@H](NC(N)=O)C(=O)N1CCC[C@H](C(=O)NCCCCNC(=O)c2ccc(-c3c4nc(c(-c5c(F)c(F)c(F)c(F)c5F)c5ccc([nH]5)c(-c5c(F)c(F)c(F)c(F)c5F)c5nc(c(-c6c(F)c(F)c(F)c(F)c6F)c6ccc3[nH]6)C=C5)C=C4)cc2)C1
REMARK SMILES IDX 20 1 19 2 17 3 18 4 16 6 12 7 13 8 90 9 14 10 15 11 10 12
REMARK SMILES IDX 11 13 5 14 3 15 4 16 2 17 1 18 6 19 7 20 8 22 9 23 21 26
REMARK SMILES IDX 22 27 23 28 24 29 25 30 26 32 27 33 28 34 89 35 29 36 88 37
REMARK SMILES IDX 30 38 31 39 32 40 82 41 33 42 87 43 81 44 83 45 34 46 86 47
REMARK SMILES IDX 80 48 79 49 35 51 67 52 47 53 66 54 48 55 51 56 65 57 84 58
REMARK SMILES IDX 49 59 50 60 64 62 85 63 52 64 36 65 37 66 45 67 38 68 39 69
REMARK SMILES IDX 43 70 46 71 40 72 41 73 44 74 42 75 68 76 69 77 77 78 70 79
REMARK SMILES IDX 71 80 75 81 78 82 72 83 73 84 76 85 74 86 53 87 54 88 62 89
REMARK SMILES IDX 55 90 56 91 60 92 63 93 57 94 58 95 61 96 59 97
REMARK H PARENT 19 5 6 21 8 24 8 25 24 31 83 50 51 61
REMARK Flexibility Score: inf
ROOT
ATOM      1  C   UNL     1       1.696   6.123  -3.180  1.00  0.00     0.116 C 
ENDROOT
BRANCH   1   2
ATOM      2  N   UNL     1       2.483   5.226  -3.986  1.00  0.00    -0.356 N 
ATOM      3  C   UNL     1       3.459   4.362  -3.596  1.00  0.00     0.224 C 
ATOM      4  O   UNL     1       3.696   3.422  -4.367  1.00  0.00    -0.275 OA
ATOM      5  H   UNL     1       2.288   5.239  -4.951  1.00  0.00     0.163 HD
BRANCH   3   6
ATOM      6  C   UNL     1       4.265   4.479  -2.289  1.00  0.00     0.098 C 
ATOM      7  N   UNL     1       2.794   4.989  -0.337  1.00  0.00    -0.340 N 
ATOM      8  C   UNL     1       3.502   6.228  -0.022  1.00  0.00     0.119 C 
ATOM      9  C   UNL     1       3.556   3.968  -1.035  1.00  0.00     0.133 C 
ATOM     10  C   UNL     1       4.319   6.813  -1.179  1.00  0.00     0.022 C 
ATOM     11  C   UNL     1       5.016   5.790  -2.070  1.00  0.00     0.017 C 
BRANCH   7  12
ATOM     12  C   UNL     1       1.427   4.906  -0.068  1.00  0.00     0.245 C 
ATOM     13  O   UNL     1       0.657   5.813  -0.410  1.00  0.00    -0.272 OA
BRANCH  12  14
ATOM     14  C   UNL     1       0.870   3.687   0.740  1.00  0.00     0.176 C 
BRANCH  14  15
ATOM     15  C   UNL     1       0.975   2.312   0.027  1.00  0.00     0.018 C 
ATOM     16  C   UNL     1       0.407   2.372  -1.403  1.00  0.00     0.010 C 
BRANCH  15  17
ATOM     17  C   UNL     1       0.288   1.160   0.801  1.00  0.00     0.002 C 
ATOM     18  C   UNL     1       0.697  -0.213   0.266  1.00  0.00     0.004 C 
ENDBRANCH  15  17
ENDBRANCH  14  15
BRANCH  14  19
ATOM     19  N   UNL     1       1.543   3.672   2.050  1.00  0.00    -0.326 N 
ATOM     20  C   UNL     1       1.581   4.777   2.851  1.00  0.00     0.312 C 
ATOM     21  H   UNL     1       1.978   2.844   2.355  1.00  0.00     0.166 HD
ATOM     22  N   UNL     1       2.148   4.537   4.056  1.00  0.00    -0.352 N 
ATOM     23  O   UNL     1       1.211   5.897   2.556  1.00  0.00    -0.249 OA
ATOM     24  H   UNL     1       2.444   3.627   4.287  1.00  0.00     0.161 HD
ATOM     25  H   UNL     1       2.263   5.271   4.701  1.00  0.00     0.161 HD
ENDBRANCH  14  19
ENDBRANCH  12  14
ENDBRANCH   7  12
ENDBRANCH   3   6
ENDBRANCH   1   2
BRANCH   1  26
ATOM     26  C   UNL     1       1.676   7.575  -3.635  1.00  0.00     0.023 C 
BRANCH  26  27
ATOM     27  C   UNL     1       0.396   7.986  -4.345  1.00  0.00     0.023 C 
BRANCH  27  28
ATOM     28  C   UNL     1      -0.887   7.783  -3.544  1.00  0.00     0.116 C 
BRANCH  28  29
ATOM     29  N   UNL     1      -0.994   8.593  -2.337  1.00  0.00    -0.352 N 
ATOM     30  C   UNL     1      -2.061   9.364  -1.927  1.00  0.00     0.251 C 
ATOM     31  H   UNL     1      -0.209   8.588  -1.742  1.00  0.00     0.163 HD
ATOM     32  O   UNL     1      -2.003  10.077  -0.932  1.00  0.00    -0.269 OA
BRANCH  30  33
ATOM     33  C   UNL     1      -3.287   9.353  -2.754  1.00  0.00     0.039 A 
ATOM     34  C   UNL     1      -3.794  10.559  -3.239  1.00  0.00     0.014 A 
ATOM     35  C   UNL     1      -3.847   8.135  -3.147  1.00  0.00     0.014 A 
ATOM     36  C   UNL     1      -4.802  10.537  -4.204  1.00  0.00     0.010 A 
ATOM     37  C   UNL     1      -4.770   8.114  -4.184  1.00  0.00     0.010 A 
ATOM     38  C   UNL     1      -5.257   9.314  -4.727  1.00  0.00    -0.014 A 
BRANCH  38  39
ATOM     39  C   UNL     1      -6.234   9.267  -5.845  1.00  0.00     0.031 A 
ATOM     40  C   UNL     1      -7.561   8.585  -5.654  1.00  0.00     0.074 A 
ATOM     41  C   UNL     1      -5.901   9.764  -7.053  1.00  0.00     0.049 A 
ATOM     42  N   UNL     1      -8.522   8.383  -6.521  1.00  0.00    -0.248 NA
ATOM     43  C   UNL     1      -7.828   8.022  -4.322  1.00  0.00     0.031 C 
ATOM     44  C   UNL     1      -4.618  10.385  -7.388  1.00  0.00     0.029 A 
ATOM     45  N   UNL     1      -6.610   9.816  -8.228  1.00  0.00    -0.354 N 
ATOM     46  C   UNL     1      -9.491   7.655  -5.843  1.00  0.00     0.074 A 
ATOM     47  C   UNL     1      -8.974   7.391  -4.519  1.00  0.00     0.031 C 
ATOM     48  C   UNL     1      -4.642  10.782  -8.670  1.00  0.00     0.029 A 
ATOM     49  C   UNL     1      -5.923  10.407  -9.261  1.00  0.00     0.049 A 
ATOM     50  H   UNL     1      -7.524   9.463  -8.321  1.00  0.00     0.167 HD
ATOM     51  C   UNL     1     -10.713   7.267  -6.276  1.00  0.00     0.037 A 
ATOM     52  C   UNL     1      -6.283  10.617 -10.543  1.00  0.00     0.037 A 
ATOM     53  C   UNL     1     -11.233   7.557  -7.586  1.00  0.00     0.049 A 
ATOM     54  C   UNL     1      -7.651  10.187 -11.000  1.00  0.00     0.074 A 
ATOM     55  C   UNL     1     -12.489   7.281  -8.096  1.00  0.00     0.029 A 
ATOM     56  N   UNL     1     -10.518   8.182  -8.599  1.00  0.00    -0.354 N 
ATOM     57  N   UNL     1      -8.597   9.581 -10.323  1.00  0.00    -0.248 NA
ATOM     58  C   UNL     1      -8.005  10.477 -12.396  1.00  0.00     0.031 C 
ATOM     59  C   UNL     1     -12.514   7.681  -9.436  1.00  0.00     0.029 A 
ATOM     60  C   UNL     1     -11.297   8.269  -9.742  1.00  0.00     0.049 A 
ATOM     61  H   UNL     1      -9.595   8.514  -8.517  1.00  0.00     0.167 HD
ATOM     62  C   UNL     1      -9.665   9.440 -11.200  1.00  0.00     0.074 A 
ATOM     63  C   UNL     1      -9.255  10.039 -12.453  1.00  0.00     0.031 C 
ATOM     64  C   UNL     1     -10.875   8.867 -10.985  1.00  0.00     0.037 A 
BRANCH  51  65
ATOM     65  C   UNL     1     -11.567   6.480  -5.322  1.00  0.00     0.064 A 
ATOM     66  C   UNL     1     -12.086   7.049  -4.148  1.00  0.00     0.173 A 
ATOM     67  C   UNL     1     -11.881   5.139  -5.591  1.00  0.00     0.173 A 
ATOM     68  F   UNL     1     -11.809   8.325  -3.836  1.00  0.00    -0.203 F 
ATOM     69  C   UNL     1     -12.847   6.295  -3.259  1.00  0.00     0.198 A 
ATOM     70  C   UNL     1     -12.675   4.398  -4.719  1.00  0.00     0.198 A 
ATOM     71  F   UNL     1     -11.419   4.545  -6.701  1.00  0.00    -0.203 F 
ATOM     72  F   UNL     1     -13.273   6.842  -2.112  1.00  0.00    -0.200 F 
ATOM     73  C   UNL     1     -13.146   4.972  -3.549  1.00  0.00     0.200 A 
ATOM     74  F   UNL     1     -12.976   3.125  -5.008  1.00  0.00    -0.200 F 
ATOM     75  F   UNL     1     -13.882   4.248  -2.694  1.00  0.00    -0.200 F 
ENDBRANCH  51  65
BRANCH  52  76
ATOM     76  C   UNL     1      -5.339  11.290 -11.474  1.00  0.00     0.064 A 
ATOM     77  C   UNL     1      -5.591  12.585 -11.949  1.00  0.00     0.173 A 
ATOM     78  C   UNL     1      -4.161  10.659 -11.900  1.00  0.00     0.173 A 
ATOM     79  F   UNL     1      -6.714  13.223 -11.589  1.00  0.00    -0.203 F 
ATOM     80  C   UNL     1      -4.709  13.216 -12.824  1.00  0.00     0.198 A 
ATOM     81  C   UNL     1      -3.265  11.303 -12.751  1.00  0.00     0.198 A 
ATOM     82  F   UNL     1      -3.870   9.421 -11.472  1.00  0.00    -0.203 F 
ATOM     83  F   UNL     1      -4.995  14.438 -13.295  1.00  0.00    -0.200 F 
ATOM     84  C   UNL     1      -3.542  12.578 -13.218  1.00  0.00     0.200 A 
ATOM     85  F   UNL     1      -2.131  10.688 -13.116  1.00  0.00    -0.200 F 
ATOM     86  F   UNL     1      -2.690  13.189 -14.051  1.00  0.00    -0.200 F 
ENDBRANCH  52  76
BRANCH  64  87
ATOM     87  C   UNL     1     -11.860   8.885 -12.119  1.00  0.00     0.064 A 
ATOM     88  C   UNL     1     -11.681   8.098 -13.266  1.00  0.00     0.173 A 
ATOM     89  C   UNL     1     -13.024   9.665 -12.034  1.00  0.00     0.173 A 
ATOM     90  F   UNL     1     -10.580   7.345 -13.403  1.00  0.00    -0.203 F 
ATOM     91  C   UNL     1     -12.617   8.113 -14.298  1.00  0.00     0.198 A 
ATOM     92  C   UNL     1     -13.974   9.651 -13.051  1.00  0.00     0.198 A 
ATOM     93  F   UNL     1     -13.249  10.430 -10.955  1.00  0.00    -0.203 F 
ATOM     94  F   UNL     1     -12.400   7.393 -15.407  1.00  0.00    -0.200 F 
ATOM     95  C   UNL     1     -13.766   8.882 -14.185  1.00  0.00     0.200 A 
ATOM     96  F   UNL     1     -15.092  10.380 -12.932  1.00  0.00    -0.200 F 
ATOM     97  F   UNL     1     -14.670   8.886 -15.174  1.00  0.00    -0.200 F 
ENDBRANCH  64  87
ENDBRANCH  38  39
ENDBRANCH  30  33
ENDBRANCH  28  29
ENDBRANCH  27  28
ENDBRANCH  26  27
ENDBRANCH   1  26
TORSDOF 16
