REMARK SMILES Cc1ccc(C(=O)NCCCCNC(=O)c2ccc(-c3c4nc(c(-c5c(F)c(F)c(F)c(F)c5F)c5ccc([nH]5)c(-c5c(F)c(F)c(F)c(F)c5F)c5nc(c(-c6c(F)c(F)c(F)c(F)c6F)c6ccc3[nH]6)C=C5)C=C4)cc2)cc1N1CC(C)C1
REMARK SMILES IDX 11 1 10 2 9 3 8 4 6 5 7 6 5 8 1 9 2 10 3 11 80 12 4 13 79 14
REMARK SMILES IDX 81 15 82 16 85 17 83 18 84 19 12 20 13 21 14 22 15 24 16 25
REMARK SMILES IDX 17 26 78 27 18 28 77 29 19 30 20 31 21 32 71 33 22 34 76 35
REMARK SMILES IDX 70 36 72 37 23 38 75 39 69 40 68 41 24 43 56 44 36 45 55 46
REMARK SMILES IDX 37 47 40 48 54 49 73 50 38 51 39 52 53 54 74 55 41 56 25 57
REMARK SMILES IDX 26 58 34 59 27 60 28 61 32 62 35 63 29 64 30 65 33 66 31 67
REMARK SMILES IDX 57 68 58 69 66 70 59 71 60 72 64 73 67 74 61 75 62 76 65 77
REMARK SMILES IDX 63 78 42 79 43 80 51 81 44 82 45 83 49 84 52 85 46 86 47 87
REMARK SMILES IDX 50 88 48 89
REMARK H PARENT 8 7 13 23 72 42 40 53
REMARK Flexibility Score: inf
ROOT
ATOM      1  C   UNL     1      -4.658   3.497  -2.096  1.00  0.00     0.023 C 
ENDROOT
BRANCH   1   2
ATOM      2  C   UNL     1      -3.355   3.364  -1.293  1.00  0.00     0.023 C 
BRANCH   2   3
ATOM      3  C   UNL     1      -3.517   2.684   0.076  1.00  0.00     0.116 C 
BRANCH   3   4
ATOM      4  N   UNL     1      -3.763   1.260  -0.040  1.00  0.00    -0.352 N 
ATOM      5  C   UNL     1      -2.966   0.145  -0.098  1.00  0.00     0.251 C 
ATOM      6  O   UNL     1      -3.565  -0.932  -0.166  1.00  0.00    -0.269 OA
ATOM      7  H   UNL     1      -4.722   1.043  -0.089  1.00  0.00     0.163 HD
BRANCH   5   8
ATOM      8  C   UNL     1      -1.470   0.134  -0.074  1.00  0.00     0.041 A 
ATOM      9  C   UNL     1       2.850  -0.313   0.018  1.00  0.00     0.046 C 
ATOM     10  C   UNL     1       1.360  -0.114  -0.011  1.00  0.00    -0.028 A 
ATOM     11  C   UNL     1       0.541  -1.250  -0.029  1.00  0.00     0.006 A 
ATOM     12  C   UNL     1       0.761   1.156  -0.023  1.00  0.00     0.040 A 
ATOM     13  C   UNL     1      -0.851  -1.126  -0.045  1.00  0.00     0.014 A 
ATOM     14  C   UNL     1      -0.643   1.257  -0.087  1.00  0.00     0.040 A 
BRANCH  12  15
ATOM     15  N   UNL     1       1.550   2.326   0.042  1.00  0.00    -0.371 N 
ATOM     16  C   UNL     1       1.262   3.539   0.752  1.00  0.00     0.121 C 
ATOM     17  C   UNL     1       2.099   3.002  -1.101  1.00  0.00     0.121 C 
ATOM     18  C   UNL     1       1.600   4.328  -0.514  1.00  0.00     0.025 C 
ATOM     19  C   UNL     1       2.618   5.439  -0.359  1.00  0.00     0.011 C 
ENDBRANCH  12  15
ENDBRANCH   5   8
ENDBRANCH   3   4
ENDBRANCH   2   3
ENDBRANCH   1   2
BRANCH   1  20
ATOM     20  C   UNL     1      -5.668   4.454  -1.475  1.00  0.00     0.116 C 
BRANCH  20  21
ATOM     21  N   UNL     1      -5.453   5.870  -1.766  1.00  0.00    -0.352 N 
ATOM     22  C   UNL     1      -5.963   6.999  -1.155  1.00  0.00     0.251 C 
ATOM     23  H   UNL     1      -4.847   6.049  -2.521  1.00  0.00     0.163 HD
ATOM     24  O   UNL     1      -5.761   8.093  -1.645  1.00  0.00    -0.269 OA
BRANCH  22  25
ATOM     25  C   UNL     1      -6.637   6.906   0.176  1.00  0.00     0.039 A 
ATOM     26  C   UNL     1      -6.398   7.927   1.111  1.00  0.00     0.014 A 
ATOM     27  C   UNL     1      -7.333   5.770   0.569  1.00  0.00     0.014 A 
ATOM     28  C   UNL     1      -6.620   7.689   2.466  1.00  0.00     0.010 A 
ATOM     29  C   UNL     1      -7.434   5.482   1.913  1.00  0.00     0.010 A 
ATOM     30  C   UNL     1      -7.013   6.418   2.864  1.00  0.00    -0.014 A 
BRANCH  30  31
ATOM     31  C   UNL     1      -6.933   5.916   4.230  1.00  0.00     0.031 A 
ATOM     32  C   UNL     1      -8.168   5.631   4.989  1.00  0.00     0.074 A 
ATOM     33  C   UNL     1      -5.729   5.502   4.689  1.00  0.00     0.049 A 
ATOM     34  N   UNL     1      -8.187   5.304   6.236  1.00  0.00    -0.248 NA
ATOM     35  C   UNL     1      -9.508   5.750   4.414  1.00  0.00     0.031 C 
ATOM     36  C   UNL     1      -5.463   4.568   5.782  1.00  0.00     0.029 A 
ATOM     37  N   UNL     1      -4.462   6.019   4.363  1.00  0.00    -0.354 N 
ATOM     38  C   UNL     1      -9.452   4.849   6.520  1.00  0.00     0.074 A 
ATOM     39  C   UNL     1     -10.264   5.287   5.415  1.00  0.00     0.031 C 
ATOM     40  C   UNL     1      -4.217   4.775   6.239  1.00  0.00     0.029 A 
ATOM     41  C   UNL     1      -3.724   5.966   5.573  1.00  0.00     0.049 A 
ATOM     42  H   UNL     1      -4.154   6.347   3.487  1.00  0.00     0.167 HD
ATOM     43  C   UNL     1      -9.616   4.013   7.580  1.00  0.00     0.037 A 
ATOM     44  C   UNL     1      -3.335   7.104   6.221  1.00  0.00     0.037 A 
ATOM     45  C   UNL     1      -8.449   4.056   8.460  1.00  0.00     0.049 A 
ATOM     46  C   UNL     1      -3.850   7.212   7.638  1.00  0.00     0.074 A 
ATOM     47  C   UNL     1      -7.425   3.169   8.738  1.00  0.00     0.029 A 
ATOM     48  N   UNL     1      -8.079   5.278   9.019  1.00  0.00    -0.354 N 
ATOM     49  N   UNL     1      -4.886   6.559   8.086  1.00  0.00    -0.248 NA
ATOM     50  C   UNL     1      -3.256   8.082   8.649  1.00  0.00     0.031 C 
ATOM     51  C   UNL     1      -6.379   3.904   9.364  1.00  0.00     0.029 A 
ATOM     52  C   UNL     1      -6.794   5.217   9.517  1.00  0.00     0.049 A 
ATOM     53  H   UNL     1      -8.655   6.075   9.053  1.00  0.00     0.167 HD
ATOM     54  C   UNL     1      -5.116   6.907   9.390  1.00  0.00     0.074 A 
ATOM     55  C   UNL     1      -4.060   7.852   9.703  1.00  0.00     0.031 C 
ATOM     56  C   UNL     1      -6.165   6.395  10.099  1.00  0.00     0.037 A 
BRANCH  43  57
ATOM     57  C   UNL     1     -10.736   3.003   7.730  1.00  0.00     0.064 A 
ATOM     58  C   UNL     1     -10.843   2.236   8.912  1.00  0.00     0.173 A 
ATOM     59  C   UNL     1     -11.638   2.632   6.708  1.00  0.00     0.173 A 
ATOM     60  F   UNL     1     -10.039   2.465   9.960  1.00  0.00    -0.203 F 
ATOM     61  C   UNL     1     -11.763   1.189   9.049  1.00  0.00     0.198 A 
ATOM     62  C   UNL     1     -12.594   1.625   6.867  1.00  0.00     0.198 A 
ATOM     63  F   UNL     1     -11.597   3.174   5.486  1.00  0.00    -0.203 F 
ATOM     64  F   UNL     1     -11.775   0.455  10.170  1.00  0.00    -0.200 F 
ATOM     65  C   UNL     1     -12.647   0.892   8.031  1.00  0.00     0.200 A 
ATOM     66  F   UNL     1     -13.438   1.350   5.862  1.00  0.00    -0.200 F 
ATOM     67  F   UNL     1     -13.530  -0.107   8.161  1.00  0.00    -0.200 F 
ENDBRANCH  43  57
BRANCH  44  68
ATOM     68  C   UNL     1      -3.127   8.252   5.298  1.00  0.00     0.064 A 
ATOM     69  C   UNL     1      -2.124   8.139   4.315  1.00  0.00     0.173 A 
ATOM     70  C   UNL     1      -4.123   9.216   5.102  1.00  0.00     0.173 A 
ATOM     71  F   UNL     1      -1.146   7.230   4.458  1.00  0.00    -0.203 F 
ATOM     72  C   UNL     1      -2.195   8.858   3.124  1.00  0.00     0.198 A 
ATOM     73  C   UNL     1      -4.178   9.950   3.914  1.00  0.00     0.198 A 
ATOM     74  F   UNL     1      -5.112   9.362   5.994  1.00  0.00    -0.203 F 
ATOM     75  F   UNL     1      -1.300   8.629   2.152  1.00  0.00    -0.200 F 
ATOM     76  C   UNL     1      -3.240   9.739   2.912  1.00  0.00     0.200 A 
ATOM     77  F   UNL     1      -5.205  10.783   3.694  1.00  0.00    -0.200 F 
ATOM     78  F   UNL     1      -3.374  10.351   1.726  1.00  0.00    -0.200 F 
ENDBRANCH  44  68
BRANCH  56  79
ATOM     79  C   UNL     1      -6.651   6.903  11.436  1.00  0.00     0.064 A 
ATOM     80  C   UNL     1      -6.516   8.235  11.864  1.00  0.00     0.173 A 
ATOM     81  C   UNL     1      -7.418   6.067  12.282  1.00  0.00     0.173 A 
ATOM     82  F   UNL     1      -5.926   9.159  11.095  1.00  0.00    -0.203 F 
ATOM     83  C   UNL     1      -7.042   8.678  13.082  1.00  0.00     0.198 A 
ATOM     84  C   UNL     1      -7.991   6.527  13.468  1.00  0.00     0.198 A 
ATOM     85  F   UNL     1      -7.657   4.785  11.970  1.00  0.00    -0.203 F 
ATOM     86  F   UNL     1      -6.846   9.947  13.466  1.00  0.00    -0.200 F 
ATOM     87  C   UNL     1      -7.787   7.827  13.878  1.00  0.00     0.200 A 
ATOM     88  F   UNL     1      -8.757   5.706  14.200  1.00  0.00    -0.200 F 
ATOM     89  F   UNL     1      -8.325   8.268  15.023  1.00  0.00    -0.200 F 
ENDBRANCH  56  79
ENDBRANCH  30  31
ENDBRANCH  22  25
ENDBRANCH  20  21
ENDBRANCH   1  20
TORSDOF 12
