REMARK SMILES CC(C)c1ocnc1C(=O)N[C@H](CC(=O)NCCCCNC(=O)c1ccc(-c2c3nc(c(-c4c(F)c(F)c(F)c(F)c4F)c4ccc([nH]4)c(-c4c(F)c(F)c(F)c(F)c4F)c4nc(c(-c5c(F)c(F)c(F)c(F)c5F)c5ccc2[nH]5)C=C4)C=C3)cc1)c1ccccc1Cl
REMARK SMILES IDX 17 1 16 2 14 3 15 4 13 6 12 7 11 8 9 9 10 10 8 12 4 13 5 14
REMARK SMILES IDX 6 15 7 16 2 17 1 18 3 19 87 20 88 21 92 22 89 23 91 24 93 25
REMARK SMILES IDX 90 26 18 27 19 28 20 29 21 30 22 31 23 33 24 34 25 35 86 36
REMARK SMILES IDX 26 37 85 38 27 39 28 40 29 41 79 42 30 43 84 44 78 45 80 46
REMARK SMILES IDX 31 47 83 48 77 49 76 50 32 52 64 53 44 54 63 55 45 56 48 57
REMARK SMILES IDX 62 58 81 59 46 60 47 61 61 63 82 64 49 65 33 66 34 67 42 68
REMARK SMILES IDX 35 69 36 70 40 71 43 72 37 73 38 74 41 75 39 76 65 77 66 78
REMARK SMILES IDX 74 79 67 80 68 81 72 82 75 83 69 84 70 85 73 86 71 87 50 88
REMARK SMILES IDX 51 89 59 90 52 91 53 92 57 93 60 94 54 95 55 96 58 97 56 98
REMARK H PARENT 16 5 11 11 21 32 80 51 48 62
REMARK Flexibility Score: inf
ROOT
ATOM      1  C   UNL     1      -2.579  -2.144  -0.880  1.00  0.00     0.116 C 
ENDROOT
BRANCH   1   2
ATOM      2  N   UNL     1      -1.821  -2.482   0.305  1.00  0.00    -0.356 N 
ATOM      3  C   UNL     1      -1.636  -3.680   0.915  1.00  0.00     0.222 C 
ATOM      4  O   UNL     1      -1.009  -3.684   1.976  1.00  0.00    -0.275 OA
ATOM      5  H   UNL     1      -1.368  -1.723   0.738  1.00  0.00     0.163 HD
BRANCH   3   6
ATOM      6  C   UNL     1      -2.136  -4.962   0.288  1.00  0.00     0.129 C 
BRANCH   6   7
ATOM      7  C   UNL     1      -3.670  -5.184   0.253  1.00  0.00     0.123 C 
BRANCH   7   8
ATOM      8  N   UNL     1      -4.032  -5.886  -0.985  1.00  0.00    -0.343 N 
ATOM      9  C   UNL     1      -3.680  -7.111  -1.505  1.00  0.00     0.274 C 
ATOM     10  O   UNL     1      -3.988  -7.326  -2.679  1.00  0.00    -0.267 OA
ATOM     11  H   UNL     1      -4.651  -5.379  -1.558  1.00  0.00     0.164 HD
BRANCH   9  12
ATOM     12  C   UNL     1      -3.030  -8.124  -0.677  1.00  0.00     0.170 A 
ATOM     13  C   UNL     1      -3.047  -9.493  -0.909  1.00  0.00     0.139 A 
ATOM     14  O   UNL     1      -2.380 -10.098   0.125  1.00  0.00    -0.447 OA
ATOM     15  C   UNL     1      -2.004  -9.073   0.927  1.00  0.00     0.309 A 
ATOM     16  N   UNL     1      -2.363  -7.885   0.509  1.00  0.00    -0.211 NA
BRANCH  13  17
ATOM     17  C   UNL     1      -3.646 -10.376  -1.960  1.00  0.00     0.052 C 
ATOM     18  C   UNL     1      -3.196 -11.834  -1.818  1.00  0.00     0.016 C 
ATOM     19  C   UNL     1      -5.175 -10.319  -1.926  1.00  0.00     0.016 C 
ENDBRANCH  13  17
ENDBRANCH   9  12
ENDBRANCH   7   8
BRANCH   7  20
ATOM     20  C   UNL     1      -4.328  -5.618   1.570  1.00  0.00    -0.006 A 
ATOM     21  C   UNL     1      -4.044  -4.819   2.705  1.00  0.00     0.007 A 
ATOM     22  C   UNL     1      -5.225  -6.681   1.786  1.00  0.00     0.046 A 
ATOM     23  C   UNL     1      -4.492  -5.136   3.990  1.00  0.00     0.000 A 
ATOM     24  C   UNL     1      -5.636  -7.028   3.088  1.00  0.00     0.021 A 
ATOM     25  Cl  UNL     1      -6.025  -7.573   0.542  1.00  0.00    -0.084 Cl
ATOM     26  C   UNL     1      -5.257  -6.270   4.189  1.00  0.00     0.002 A 
ENDBRANCH   7  20
ENDBRANCH   6   7
ENDBRANCH   3   6
ENDBRANCH   1   2
BRANCH   1  27
ATOM     27  C   UNL     1      -3.875  -1.420  -0.512  1.00  0.00     0.023 C 
BRANCH  27  28
ATOM     28  C   UNL     1      -3.685  -0.129   0.291  1.00  0.00     0.023 C 
BRANCH  28  29
ATOM     29  C   UNL     1      -2.765   0.901  -0.350  1.00  0.00     0.116 C 
BRANCH  29  30
ATOM     30  N   UNL     1      -3.231   1.337  -1.656  1.00  0.00    -0.352 N 
ATOM     31  C   UNL     1      -3.198   2.600  -2.194  1.00  0.00     0.251 C 
ATOM     32  H   UNL     1      -3.620   0.637  -2.228  1.00  0.00     0.163 HD
ATOM     33  O   UNL     1      -3.744   2.836  -3.267  1.00  0.00    -0.269 OA
BRANCH  31  34
ATOM     34  C   UNL     1      -2.529   3.684  -1.448  1.00  0.00     0.039 A 
ATOM     35  C   UNL     1      -3.221   4.877  -1.229  1.00  0.00     0.014 A 
ATOM     36  C   UNL     1      -1.240   3.506  -0.940  1.00  0.00     0.014 A 
ATOM     37  C   UNL     1      -2.642   5.874  -0.443  1.00  0.00     0.010 A 
ATOM     38  C   UNL     1      -0.689   4.475  -0.107  1.00  0.00     0.010 A 
ATOM     39  C   UNL     1      -1.386   5.666   0.150  1.00  0.00    -0.014 A 
BRANCH  39  40
ATOM     40  C   UNL     1      -0.780   6.684   1.042  1.00  0.00     0.031 A 
ATOM     41  C   UNL     1       0.479   7.389   0.627  1.00  0.00     0.074 A 
ATOM     42  C   UNL     1      -1.321   6.915   2.253  1.00  0.00     0.049 A 
ATOM     43  N   UNL     1       1.209   8.243   1.297  1.00  0.00    -0.248 NA
ATOM     44  C   UNL     1       1.003   7.070  -0.711  1.00  0.00     0.031 C 
ATOM     45  C   UNL     1      -2.513   6.256   2.787  1.00  0.00     0.029 A 
ATOM     46  N   UNL     1      -0.928   7.760   3.260  1.00  0.00    -0.354 N 
ATOM     47  C   UNL     1       2.286   8.545   0.475  1.00  0.00     0.074 A 
ATOM     48  C   UNL     1       2.139   7.751  -0.726  1.00  0.00     0.031 C 
ATOM     49  C   UNL     1      -2.764   6.732   4.017  1.00  0.00     0.029 A 
ATOM     50  C   UNL     1      -1.735   7.705   4.370  1.00  0.00     0.049 A 
ATOM     51  H   UNL     1      -0.142   8.349   3.194  1.00  0.00     0.167 HD
ATOM     52  C   UNL     1       3.295   9.421   0.694  1.00  0.00     0.037 A 
ATOM     53  C   UNL     1      -1.650   8.364   5.541  1.00  0.00     0.037 A 
ATOM     54  C   UNL     1       3.417  10.235   1.874  1.00  0.00     0.049 A 
ATOM     55  C   UNL     1      -0.532   9.348   5.750  1.00  0.00     0.074 A 
ATOM     56  C   UNL     1       4.366  11.200   2.163  1.00  0.00     0.029 A 
ATOM     57  N   UNL     1       2.556  10.181   2.960  1.00  0.00    -0.354 N 
ATOM     58  N   UNL     1       0.445   9.674   4.939  1.00  0.00    -0.248 NA
ATOM     59  C   UNL     1      -0.509  10.063   7.035  1.00  0.00     0.031 C 
ATOM     60  C   UNL     1       4.098  11.708   3.438  1.00  0.00     0.029 A 
ATOM     61  C   UNL     1       2.960  11.087   3.927  1.00  0.00     0.049 A 
ATOM     62  H   UNL     1       1.775   9.587   3.033  1.00  0.00     0.167 HD
ATOM     63  C   UNL     1       1.180  10.649   5.599  1.00  0.00     0.074 A 
ATOM     64  C   UNL     1       0.532  10.868   6.876  1.00  0.00     0.031 C 
ATOM     65  C   UNL     1       2.291  11.304   5.184  1.00  0.00     0.037 A 
BRANCH  52  66
ATOM     66  C   UNL     1       4.343   9.549  -0.371  1.00  0.00     0.064 A 
ATOM     67  C   UNL     1       4.069  10.170  -1.598  1.00  0.00     0.173 A 
ATOM     68  C   UNL     1       5.644   9.075  -0.150  1.00  0.00     0.173 A 
ATOM     69  F   UNL     1       2.836  10.629  -1.863  1.00  0.00    -0.203 F 
ATOM     70  C   UNL     1       5.052  10.287  -2.577  1.00  0.00     0.198 A 
ATOM     71  C   UNL     1       6.633   9.217  -1.120  1.00  0.00     0.198 A 
ATOM     72  F   UNL     1       5.959   8.477   1.009  1.00  0.00    -0.203 F 
ATOM     73  F   UNL     1       4.755  10.841  -3.760  1.00  0.00    -0.200 F 
ATOM     74  C   UNL     1       6.334   9.816  -2.335  1.00  0.00     0.200 A 
ATOM     75  F   UNL     1       7.874   8.771  -0.882  1.00  0.00    -0.200 F 
ATOM     76  F   UNL     1       7.281   9.934  -3.276  1.00  0.00    -0.200 F 
ENDBRANCH  52  66
BRANCH  53  77
ATOM     77  C   UNL     1      -2.674   8.140   6.593  1.00  0.00     0.064 A 
ATOM     78  C   UNL     1      -3.626   9.126   6.887  1.00  0.00     0.173 A 
ATOM     79  C   UNL     1      -2.728   6.942   7.318  1.00  0.00     0.173 A 
ATOM     80  F   UNL     1      -3.601  10.296   6.232  1.00  0.00    -0.203 F 
ATOM     81  C   UNL     1      -4.582   8.929   7.880  1.00  0.00     0.198 A 
ATOM     82  C   UNL     1      -3.700   6.736   8.295  1.00  0.00     0.198 A 
ATOM     83  F   UNL     1      -1.843   5.965   7.069  1.00  0.00    -0.203 F 
ATOM     84  F   UNL     1      -5.456   9.903   8.169  1.00  0.00    -0.200 F 
ATOM     85  C   UNL     1      -4.622   7.732   8.580  1.00  0.00     0.200 A 
ATOM     86  F   UNL     1      -3.743   5.573   8.960  1.00  0.00    -0.200 F 
ATOM     87  F   UNL     1      -5.545   7.541   9.532  1.00  0.00    -0.200 F 
ENDBRANCH  53  77
BRANCH  65  88
ATOM     88  C   UNL     1       2.855  12.350   6.097  1.00  0.00     0.064 A 
ATOM     89  C   UNL     1       3.566  12.007   7.255  1.00  0.00     0.173 A 
ATOM     90  C   UNL     1       2.727  13.710   5.778  1.00  0.00     0.173 A 
ATOM     91  F   UNL     1       3.701  10.720   7.608  1.00  0.00    -0.203 F 
ATOM     92  C   UNL     1       4.117  12.991   8.072  1.00  0.00     0.198 A 
ATOM     93  C   UNL     1       3.299  14.690   6.583  1.00  0.00     0.198 A 
ATOM     94  F   UNL     1       2.059  14.087   4.677  1.00  0.00    -0.203 F 
ATOM     95  F   UNL     1       4.763  12.645   9.193  1.00  0.00    -0.200 F 
ATOM     96  C   UNL     1       3.990  14.330   7.731  1.00  0.00     0.200 A 
ATOM     97  F   UNL     1       3.185  15.982   6.248  1.00  0.00    -0.200 F 
ATOM     98  F   UNL     1       4.529  15.275   8.514  1.00  0.00    -0.200 F 
ENDBRANCH  65  88
ENDBRANCH  39  40
ENDBRANCH  31  34
ENDBRANCH  29  30
ENDBRANCH  28  29
ENDBRANCH  27  28
ENDBRANCH   1  27
TORSDOF 16
