REMARK SMILES O=C(NCCCCNC(=O)c1ccc(-c2c3nc(c(-c4c(F)c(F)c(F)c(F)c4F)c4ccc([nH]4)c(-c4c(F)c(F)c(F)c(F)c4F)c4nc(c(-c5c(F)c(F)c(F)c(F)c5F)c5ccc2[nH]5)C=C4)C=C3)cc1)C1=Cc2c(cc(Cl)c(Cl)c2Cl)O[C@H]1C(F)(F)F
REMARK SMILES IDX 6 1 5 2 4 3 3 4 1 5 2 6 74 8 75 9 86 10 76 11 85 12 77 13
REMARK SMILES IDX 83 14 78 15 81 16 84 17 79 18 82 19 80 20 87 21 88 22 89 23
REMARK SMILES IDX 90 24 7 25 8 26 9 27 10 29 11 30 12 31 73 32 13 33 72 34
REMARK SMILES IDX 14 35 15 36 16 37 66 38 17 39 71 40 65 41 67 42 18 43 70 44
REMARK SMILES IDX 64 45 63 46 19 48 51 49 31 50 50 51 32 52 35 53 49 54 68 55
REMARK SMILES IDX 33 56 34 57 48 59 69 60 36 61 20 62 21 63 29 64 22 65 23 66
REMARK SMILES IDX 27 67 30 68 24 69 25 70 28 71 26 72 52 73 53 74 61 75 54 76
REMARK SMILES IDX 55 77 59 78 62 79 56 80 57 81 60 82 58 83 37 84 38 85 46 86
REMARK SMILES IDX 39 87 40 88 44 89 47 90 41 91 42 92 45 93 43 94
REMARK H PARENT 3 7 8 28 67 47 35 58
REMARK Flexibility Score: inf
ROOT
ATOM      1  C   UNL     1       3.812  -2.064  -3.642  1.00  0.00     0.023 C 
ENDROOT
BRANCH   1   2
ATOM      2  C   UNL     1       4.149  -2.203  -2.162  1.00  0.00     0.023 C 
BRANCH   2   3
ATOM      3  C   UNL     1       3.902  -0.972  -1.301  1.00  0.00     0.116 C 
BRANCH   3   4
ATOM      4  N   UNL     1       2.524  -0.723  -0.927  1.00  0.00    -0.352 N 
ATOM      5  O   UNL     1       0.841   0.117   0.319  1.00  0.00    -0.270 OA
ATOM      6  C   UNL     1       2.046   0.053   0.098  1.00  0.00     0.251 C 
ATOM      7  H   UNL     1       1.843  -1.168  -1.481  1.00  0.00     0.163 HD
BRANCH   6   8
ATOM      8  C   UNL     1       2.987   0.801   0.974  1.00  0.00     0.067 C 
ATOM      9  C   UNL     1       3.542   1.907   0.450  1.00  0.00     0.027 C 
ATOM     10  C   UNL     1       3.694  -0.011   2.025  1.00  0.00     0.314 C 
ATOM     11  C   UNL     1       4.985   1.728   0.162  1.00  0.00     0.037 A 
ATOM     12  O   UNL     1       5.148   0.010   1.893  1.00  0.00    -0.475 OA
ATOM     13  C   UNL     1       5.689   0.743   0.868  1.00  0.00     0.131 A 
ATOM     14  C   UNL     1       5.592   2.376  -0.934  1.00  0.00     0.072 A 
ATOM     15  C   UNL     1       6.966   0.370   0.461  1.00  0.00     0.069 A 
ATOM     16  C   UNL     1       6.865   1.972  -1.370  1.00  0.00     0.079 A 
ATOM     17  Cl  UNL     1       4.700   3.599  -1.794  1.00  0.00    -0.082 Cl
ATOM     18  C   UNL     1       7.537   0.955  -0.674  1.00  0.00     0.064 A 
ATOM     19  Cl  UNL     1       7.566   2.666  -2.800  1.00  0.00    -0.081 Cl
ATOM     20  Cl  UNL     1       9.051   0.310  -1.205  1.00  0.00    -0.083 Cl
BRANCH  10  21
ATOM     21  C   UNL     1       3.278   0.391   3.455  1.00  0.00     0.429 C 
ATOM     22  F   UNL     1       2.276   1.300   3.478  1.00  0.00    -0.167 F 
ATOM     23  F   UNL     1       2.855  -0.688   4.157  1.00  0.00    -0.167 F 
ATOM     24  F   UNL     1       4.310   0.934   4.146  1.00  0.00    -0.167 F 
ENDBRANCH  10  21
ENDBRANCH   6   8
ENDBRANCH   3   4
ENDBRANCH   2   3
ENDBRANCH   1   2
BRANCH   1  25
ATOM     25  C   UNL     1       4.439  -0.885  -4.384  1.00  0.00     0.116 C 
BRANCH  25  26
ATOM     26  N   UNL     1       5.894  -0.832  -4.332  1.00  0.00    -0.352 N 
ATOM     27  C   UNL     1       6.799  -0.607  -5.348  1.00  0.00     0.251 C 
ATOM     28  H   UNL     1       6.288  -0.978  -3.442  1.00  0.00     0.163 HD
ATOM     29  O   UNL     1       8.004  -0.635  -5.114  1.00  0.00    -0.269 OA
BRANCH  27  30
ATOM     30  C   UNL     1       6.325  -0.414  -6.737  1.00  0.00     0.039 A 
ATOM     31  C   UNL     1       6.909  -1.177  -7.753  1.00  0.00     0.014 A 
ATOM     32  C   UNL     1       5.264   0.445  -7.030  1.00  0.00     0.014 A 
ATOM     33  C   UNL     1       6.345  -1.179  -9.031  1.00  0.00     0.010 A 
ATOM     34  C   UNL     1       4.654   0.382  -8.281  1.00  0.00     0.010 A 
ATOM     35  C   UNL     1       5.169  -0.454  -9.284  1.00  0.00    -0.014 A 
BRANCH  35  36
ATOM     36  C   UNL     1       4.430  -0.608 -10.565  1.00  0.00     0.031 A 
ATOM     37  C   UNL     1       4.244   0.566 -11.484  1.00  0.00     0.074 A 
ATOM     38  C   UNL     1       3.843  -1.788 -10.852  1.00  0.00     0.049 A 
ATOM     39  N   UNL     1       3.556   0.645 -12.595  1.00  0.00    -0.248 NA
ATOM     40  C   UNL     1       4.891   1.825 -11.086  1.00  0.00     0.031 C 
ATOM     41  C   UNL     1       3.893  -2.985 -10.009  1.00  0.00     0.029 A 
ATOM     42  N   UNL     1       3.075  -2.172 -11.923  1.00  0.00    -0.354 N 
ATOM     43  C   UNL     1       3.667   1.964 -13.015  1.00  0.00     0.074 A 
ATOM     44  C   UNL     1       4.454   2.659 -12.019  1.00  0.00     0.031 C 
ATOM     45  C   UNL     1       3.205  -3.973 -10.604  1.00  0.00     0.029 A 
ATOM     46  C   UNL     1       2.635  -3.472 -11.850  1.00  0.00     0.049 A 
ATOM     47  H   UNL     1       2.859  -1.572 -12.674  1.00  0.00     0.167 HD
ATOM     48  C   UNL     1       3.174   2.536 -14.139  1.00  0.00     0.037 A 
ATOM     49  C   UNL     1       1.854  -4.180 -12.689  1.00  0.00     0.037 A 
ATOM     50  C   UNL     1       2.424   1.834 -15.146  1.00  0.00     0.049 A 
ATOM     51  C   UNL     1       1.343  -3.525 -13.944  1.00  0.00     0.074 A 
ATOM     52  C   UNL     1       1.953   2.307 -16.358  1.00  0.00     0.029 A 
ATOM     53  N   UNL     1       2.035   0.505 -15.057  1.00  0.00    -0.354 N 
ATOM     54  N   UNL     1       1.528  -2.300 -14.371  1.00  0.00    -0.248 NA
ATOM     55  C   UNL     1       0.520  -4.354 -14.836  1.00  0.00     0.031 C 
ATOM     56  C   UNL     1       1.246   1.276 -16.986  1.00  0.00     0.029 A 
ATOM     57  C   UNL     1       1.312   0.148 -16.184  1.00  0.00     0.049 A 
ATOM     58  H   UNL     1       2.242  -0.095 -14.305  1.00  0.00     0.167 HD
ATOM     59  C   UNL     1       0.870  -2.218 -15.590  1.00  0.00     0.074 A 
ATOM     60  C   UNL     1       0.292  -3.522 -15.842  1.00  0.00     0.031 C 
ATOM     61  C   UNL     1       0.754  -1.157 -16.425  1.00  0.00     0.037 A 
BRANCH  48  62
ATOM     62  C   UNL     1       3.435   4.000 -14.343  1.00  0.00     0.064 A 
ATOM     63  C   UNL     1       4.714   4.481 -14.658  1.00  0.00     0.173 A 
ATOM     64  C   UNL     1       2.385   4.927 -14.262  1.00  0.00     0.173 A 
ATOM     65  F   UNL     1       5.753   3.636 -14.737  1.00  0.00    -0.203 F 
ATOM     66  C   UNL     1       4.939   5.841 -14.856  1.00  0.00     0.198 A 
ATOM     67  C   UNL     1       2.608   6.283 -14.488  1.00  0.00     0.198 A 
ATOM     68  F   UNL     1       1.141   4.518 -13.970  1.00  0.00    -0.203 F 
ATOM     69  F   UNL     1       6.178   6.283 -15.111  1.00  0.00    -0.200 F 
ATOM     70  C   UNL     1       3.885   6.739 -14.778  1.00  0.00     0.200 A 
ATOM     71  F   UNL     1       1.587   7.148 -14.424  1.00  0.00    -0.200 F 
ATOM     72  F   UNL     1       4.102   8.047 -14.976  1.00  0.00    -0.200 F 
ENDBRANCH  48  62
BRANCH  49  73
ATOM     73  C   UNL     1       1.528  -5.598 -12.387  1.00  0.00     0.064 A 
ATOM     74  C   UNL     1       2.070  -6.639 -13.154  1.00  0.00     0.173 A 
ATOM     75  C   UNL     1       0.662  -5.943 -11.339  1.00  0.00     0.173 A 
ATOM     76  F   UNL     1       2.885  -6.358 -14.181  1.00  0.00    -0.203 F 
ATOM     77  C   UNL     1       1.741  -7.969 -12.899  1.00  0.00     0.198 A 
ATOM     78  C   UNL     1       0.356  -7.275 -11.068  1.00  0.00     0.198 A 
ATOM     79  F   UNL     1       0.121  -4.985 -10.572  1.00  0.00    -0.203 F 
ATOM     80  F   UNL     1       2.237  -8.940 -13.678  1.00  0.00    -0.200 F 
ATOM     81  C   UNL     1       0.888  -8.286 -11.853  1.00  0.00     0.200 A 
ATOM     82  F   UNL     1      -0.459  -7.579 -10.048  1.00  0.00    -0.200 F 
ATOM     83  F   UNL     1       0.573  -9.565 -11.607  1.00  0.00    -0.200 F 
ENDBRANCH  49  73
BRANCH  61  84
ATOM     84  C   UNL     1       0.004  -1.370 -17.705  1.00  0.00     0.064 A 
ATOM     85  C   UNL     1      -1.393  -1.491 -17.726  1.00  0.00     0.173 A 
ATOM     86  C   UNL     1       0.688  -1.412 -18.930  1.00  0.00     0.173 A 
ATOM     87  F   UNL     1      -2.089  -1.475 -16.579  1.00  0.00    -0.203 F 
ATOM     88  C   UNL     1      -2.077  -1.667 -18.926  1.00  0.00     0.198 A 
ATOM     89  C   UNL     1      -0.002  -1.560 -20.130  1.00  0.00     0.198 A 
ATOM     90  F   UNL     1       2.024  -1.296 -18.962  1.00  0.00    -0.203 F 
ATOM     91  F   UNL     1      -3.408  -1.822 -18.920  1.00  0.00    -0.200 F 
ATOM     92  C   UNL     1      -1.382  -1.694 -20.127  1.00  0.00     0.200 A 
ATOM     93  F   UNL     1       0.670  -1.575 -21.289  1.00  0.00    -0.200 F 
ATOM     94  F   UNL     1      -2.043  -1.855 -21.281  1.00  0.00    -0.200 F 
ENDBRANCH  61  84
ENDBRANCH  35  36
ENDBRANCH  27  30
ENDBRANCH  25  26
ENDBRANCH   1  25
TORSDOF 12
