REMARK SMILES O=C(NCCCCNC(=O)c1cncc(Sc2ccc(Cl)cn2)n1)c1ccc(-c2c3nc(c(-c4c(F)c(F)c(F)c(F)c4F)c4ccc([nH]4)c(-c4c(F)c(F)c(F)c(F)c4F)c4nc(c(-c5c(F)c(F)c(F)c(F)c5F)c5ccc2[nH]5)C=C4)C=C3)cc1
REMARK SMILES IDX 5 1 4 2 3 3 1 4 2 5 25 7 26 8 87 9 27 10 86 11 28 12 29 13
REMARK SMILES IDX 30 14 80 15 31 16 85 17 79 18 81 19 32 20 84 21 78 22 77 23
REMARK SMILES IDX 33 25 65 26 45 27 64 28 46 29 49 30 63 31 82 32 47 33 48 34
REMARK SMILES IDX 62 36 83 37 50 38 34 39 35 40 43 41 36 42 37 43 41 44 44 45
REMARK SMILES IDX 38 46 39 47 42 48 40 49 66 50 67 51 75 52 68 53 69 54 73 55
REMARK SMILES IDX 76 56 70 57 71 58 74 59 72 60 51 61 52 62 60 63 53 64 54 65
REMARK SMILES IDX 58 66 61 67 55 68 56 69 59 70 57 71 6 72 7 73 8 74 9 75
REMARK SMILES IDX 10 77 11 78 12 79 24 80 13 81 15 82 14 83 16 84 17 85 18 86
REMARK SMILES IDX 23 87 19 88 22 89 20 90 21 91
REMARK H PARENT 3 6 81 24 49 35 8 76
REMARK Flexibility Score: inf
ROOT
ATOM      1  C   UNL     1       4.791  -2.529   0.693  1.00  0.00     0.023 C 
ENDROOT
BRANCH   1   2
ATOM      2  C   UNL     1       4.485  -1.303  -0.159  1.00  0.00     0.116 C 
BRANCH   2   3
ATOM      3  N   UNL     1       3.060  -1.071  -0.339  1.00  0.00    -0.352 N 
ATOM      4  O   UNL     1       1.091   0.017  -0.185  1.00  0.00    -0.269 OA
ATOM      5  C   UNL     1       2.314   0.054  -0.079  1.00  0.00     0.251 C 
ATOM      6  H   UNL     1       2.554  -1.833  -0.702  1.00  0.00     0.163 HD
BRANCH   5   7
ATOM      7  C   UNL     1       2.974   1.301   0.367  1.00  0.00     0.039 A 
ATOM      8  C   UNL     1       4.134   1.765  -0.256  1.00  0.00     0.014 A 
ATOM      9  C   UNL     1       2.420   2.016   1.434  1.00  0.00     0.014 A 
ATOM     10  C   UNL     1       4.828   2.840   0.289  1.00  0.00     0.010 A 
ATOM     11  C   UNL     1       3.075   3.149   1.927  1.00  0.00     0.010 A 
ATOM     12  C   UNL     1       4.309   3.543   1.389  1.00  0.00    -0.014 A 
BRANCH  12  13
ATOM     13  C   UNL     1       5.066   4.694   1.944  1.00  0.00     0.031 A 
ATOM     14  C   UNL     1       5.643   4.645   3.333  1.00  0.00     0.074 A 
ATOM     15  C   UNL     1       5.266   5.778   1.171  1.00  0.00     0.049 A 
ATOM     16  N   UNL     1       6.365   5.542   3.960  1.00  0.00    -0.248 NA
ATOM     17  C   UNL     1       5.368   3.438   4.126  1.00  0.00     0.031 C 
ATOM     18  C   UNL     1       4.750   5.947  -0.188  1.00  0.00     0.029 A 
ATOM     19  N   UNL     1       5.973   6.930   1.405  1.00  0.00    -0.354 N 
ATOM     20  C   UNL     1       6.608   5.020   5.224  1.00  0.00     0.074 A 
ATOM     21  C   UNL     1       5.937   3.739   5.285  1.00  0.00     0.031 C 
ATOM     22  C   UNL     1       5.200   7.107  -0.687  1.00  0.00     0.029 A 
ATOM     23  C   UNL     1       5.990   7.788   0.334  1.00  0.00     0.049 A 
ATOM     24  H   UNL     1       6.424   7.122   2.259  1.00  0.00     0.167 HD
ATOM     25  C   UNL     1       7.331   5.558   6.237  1.00  0.00     0.037 A 
ATOM     26  C   UNL     1       6.574   8.991   0.189  1.00  0.00     0.037 A 
ATOM     27  C   UNL     1       8.020   6.821   6.163  1.00  0.00     0.049 A 
ATOM     28  C   UNL     1       7.363   9.567   1.329  1.00  0.00     0.074 A 
ATOM     29  C   UNL     1       8.818   7.428   7.119  1.00  0.00     0.029 A 
ATOM     30  N   UNL     1       7.989   7.676   5.071  1.00  0.00    -0.354 N 
ATOM     31  N   UNL     1       7.617   9.046   2.505  1.00  0.00    -0.248 NA
ATOM     32  C   UNL     1       7.944  10.900   1.122  1.00  0.00     0.031 C 
ATOM     33  C   UNL     1       9.234   8.668   6.621  1.00  0.00     0.029 A 
ATOM     34  C   UNL     1       8.735   8.814   5.337  1.00  0.00     0.049 A 
ATOM     35  H   UNL     1       7.509   7.500   4.229  1.00  0.00     0.167 HD
ATOM     36  C   UNL     1       8.406   9.974   3.169  1.00  0.00     0.074 A 
ATOM     37  C   UNL     1       8.599  11.085   2.260  1.00  0.00     0.031 C 
ATOM     38  C   UNL     1       8.923   9.910   4.420  1.00  0.00     0.037 A 
BRANCH  25  39
ATOM     39  C   UNL     1       7.398   4.790   7.526  1.00  0.00     0.064 A 
ATOM     40  C   UNL     1       8.136   3.603   7.644  1.00  0.00     0.173 A 
ATOM     41  C   UNL     1       6.739   5.267   8.669  1.00  0.00     0.173 A 
ATOM     42  F   UNL     1       8.776   3.097   6.579  1.00  0.00    -0.203 F 
ATOM     43  C   UNL     1       8.187   2.907   8.850  1.00  0.00     0.198 A 
ATOM     44  C   UNL     1       6.814   4.584   9.880  1.00  0.00     0.198 A 
ATOM     45  F   UNL     1       6.024   6.402   8.614  1.00  0.00    -0.203 F 
ATOM     46  F   UNL     1       8.858   1.749   8.925  1.00  0.00    -0.200 F 
ATOM     47  C   UNL     1       7.531   3.400   9.967  1.00  0.00     0.200 A 
ATOM     48  F   UNL     1       6.188   5.068  10.962  1.00  0.00    -0.200 F 
ATOM     49  F   UNL     1       7.582   2.730  11.127  1.00  0.00    -0.200 F 
ENDBRANCH  25  39
BRANCH  26  50
ATOM     50  C   UNL     1       6.450   9.714  -1.101  1.00  0.00     0.064 A 
ATOM     51  C   UNL     1       7.552   9.854  -1.954  1.00  0.00     0.173 A 
ATOM     52  C   UNL     1       5.224  10.253  -1.520  1.00  0.00     0.173 A 
ATOM     53  F   UNL     1       8.748   9.371  -1.587  1.00  0.00    -0.203 F 
ATOM     54  C   UNL     1       7.436  10.513  -3.176  1.00  0.00     0.198 A 
ATOM     55  C   UNL     1       5.103  10.888  -2.753  1.00  0.00     0.198 A 
ATOM     56  F   UNL     1       4.139  10.139  -0.740  1.00  0.00    -0.203 F 
ATOM     57  F   UNL     1       8.512  10.660  -3.960  1.00  0.00    -0.200 F 
ATOM     58  C   UNL     1       6.210  11.022  -3.578  1.00  0.00     0.200 A 
ATOM     59  F   UNL     1       3.913  11.363  -3.145  1.00  0.00    -0.200 F 
ATOM     60  F   UNL     1       6.095  11.643  -4.760  1.00  0.00    -0.200 F 
ENDBRANCH  26  50
BRANCH  38  61
ATOM     61  C   UNL     1       9.780  11.059   4.864  1.00  0.00     0.064 A 
ATOM     62  C   UNL     1       9.228  12.309   5.181  1.00  0.00     0.173 A 
ATOM     63  C   UNL     1      11.167  10.899   4.994  1.00  0.00     0.173 A 
ATOM     64  F   UNL     1       7.908  12.515   5.057  1.00  0.00    -0.203 F 
ATOM     65  C   UNL     1      10.039  13.366   5.586  1.00  0.00     0.198 A 
ATOM     66  C   UNL     1      11.972  11.950   5.425  1.00  0.00     0.198 A 
ATOM     67  F   UNL     1      11.743   9.722   4.707  1.00  0.00    -0.203 F 
ATOM     68  F   UNL     1       9.497  14.566   5.837  1.00  0.00    -0.200 F 
ATOM     69  C   UNL     1      11.408  13.184   5.713  1.00  0.00     0.200 A 
ATOM     70  F   UNL     1      13.293  11.771   5.556  1.00  0.00    -0.200 F 
ATOM     71  F   UNL     1      12.187  14.202   6.104  1.00  0.00    -0.200 F 
ENDBRANCH  38  61
ENDBRANCH  12  13
ENDBRANCH   5   7
ENDBRANCH   2   3
ENDBRANCH   1   2
BRANCH   1  72
ATOM     72  C   UNL     1       4.296  -3.864   0.135  1.00  0.00     0.023 C 
BRANCH  72  73
ATOM     73  C   UNL     1       4.707  -4.166  -1.305  1.00  0.00     0.116 C 
BRANCH  73  74
ATOM     74  N   UNL     1       6.149  -4.174  -1.479  1.00  0.00    -0.351 N 
ATOM     75  C   UNL     1       6.970  -5.195  -1.901  1.00  0.00     0.271 C 
ATOM     76  H   UNL     1       6.604  -3.328  -1.265  1.00  0.00     0.163 HD
ATOM     77  O   UNL     1       8.187  -5.037  -1.886  1.00  0.00    -0.267 OA
BRANCH  75  78
ATOM     78  C   UNL     1       6.384  -6.463  -2.389  1.00  0.00     0.147 A 
ATOM     79  C   UNL     1       5.563  -6.460  -3.506  1.00  0.00     0.145 A 
ATOM     80  N   UNL     1       6.702  -7.595  -1.710  1.00  0.00    -0.233 NA
ATOM     81  N   UNL     1       4.993  -7.591  -3.981  1.00  0.00    -0.259 NA
ATOM     82  C   UNL     1       6.179  -8.741  -2.203  1.00  0.00     0.122 A 
ATOM     83  C   UNL     1       5.328  -8.725  -3.309  1.00  0.00     0.146 A 
BRANCH  82  84
ATOM     84  S   UNL     1       6.529 -10.289  -1.398  1.00  0.00    -0.048 SA
BRANCH  84  85
ATOM     85  C   UNL     1       7.986  -9.919  -0.450  1.00  0.00     0.102 A 
ATOM     86  C   UNL     1       7.906  -9.150   0.709  1.00  0.00     0.037 A 
ATOM     87  N   UNL     1       9.140 -10.494  -0.865  1.00  0.00    -0.248 NA
ATOM     88  C   UNL     1       9.059  -8.936   1.463  1.00  0.00     0.025 A 
ATOM     89  C   UNL     1      10.247 -10.265  -0.114  1.00  0.00     0.132 A 
ATOM     90  C   UNL     1      10.254  -9.504   1.044  1.00  0.00     0.059 A 
ATOM     91  Cl  UNL     1      11.694  -9.279   1.949  1.00  0.00    -0.083 Cl
ENDBRANCH  84  85
ENDBRANCH  82  84
ENDBRANCH  75  78
ENDBRANCH  73  74
ENDBRANCH  72  73
ENDBRANCH   1  72
TORSDOF 13
