REMARK SMILES CCC[NH2+][C@@H]1COC[C@@H]1C(=O)N[C@@](C)(CC)C(=O)NCCCCNC(=O)c1ccc(-c2c3nc(c(-c4c(F)c(F)c(F)c(F)c4F)c4ccc([nH]4)c(-c4c(F)c(F)c(F)c(F)c4F)c4nc(c(-c5c(F)c(F)c(F)c(F)c5F)c5ccc2[nH]5)C=C4)C=C3)cc1
REMARK SMILES IDX 20 1 19 2 17 3 18 4 13 6 14 7 12 8 10 9 11 10 9 12 5 13 6 14
REMARK SMILES IDX 7 15 8 16 4 17 3 20 2 21 1 22 15 23 16 24 21 25 22 26 23 27
REMARK SMILES IDX 24 28 25 29 26 31 27 32 28 33 89 34 29 35 88 36 30 37 31 38
REMARK SMILES IDX 32 39 82 40 33 41 87 42 81 43 83 44 34 45 86 46 80 47 79 48
REMARK SMILES IDX 35 50 67 51 47 52 66 53 48 54 51 55 65 56 84 57 49 58 50 59
REMARK SMILES IDX 64 61 85 62 52 63 36 64 37 65 45 66 38 67 39 68 43 69 46 70
REMARK SMILES IDX 40 71 41 72 44 73 42 74 68 75 69 76 77 77 70 78 71 79 75 80
REMARK SMILES IDX 78 81 72 82 73 83 76 84 74 85 53 86 54 87 62 88 55 89 56 90
REMARK SMILES IDX 60 91 63 92 57 93 58 94 61 95 59 96
REMARK H PARENT 19 5 12 11 4 18 4 19 24 30 83 49 51 60
REMARK Flexibility Score: inf
ROOT
ATOM      1  C   UNL     1       0.312   0.700   5.621  1.00  0.00     0.116 C 
ENDROOT
BRANCH   1   2
ATOM      2  N   UNL     1       0.799  -0.405   4.821  1.00  0.00    -0.354 N 
ATOM      3  C   UNL     1       0.231  -1.360   4.047  1.00  0.00     0.245 C 
ATOM      4  O   UNL     1       1.076  -1.994   3.407  1.00  0.00    -0.272 OA
ATOM      5  H   UNL     1       1.780  -0.480   4.847  1.00  0.00     0.163 HD
BRANCH   3   6
ATOM      6  C   UNL     1      -1.312  -1.595   3.891  1.00  0.00     0.116 C 
ATOM      7  C   UNL     1      -1.820  -0.346   3.122  1.00  0.00     0.045 C 
BRANCH   6   8
ATOM      8  N   UNL     1      -1.790  -2.732   3.031  1.00  0.00    -0.341 N 
ATOM      9  C   UNL     1      -1.471  -4.044   2.846  1.00  0.00     0.232 C 
ATOM     10  O   UNL     1      -2.408  -4.787   2.537  1.00  0.00    -0.274 OA
ATOM     11  H   UNL     1      -2.531  -2.455   2.445  1.00  0.00     0.164 HD
BRANCH   9  12
ATOM     12  C   UNL     1      -0.037  -4.541   2.907  1.00  0.00     0.164 C 
ATOM     13  C   UNL     1       0.745  -4.244   1.613  1.00  0.00     0.223 C 
ATOM     14  C   UNL     1       0.454  -5.483   0.775  1.00  0.00     0.225 C 
ATOM     15  O   UNL     1       0.424  -6.581   1.694  1.00  0.00    -0.374 OA
ATOM     16  C   UNL     1       0.040  -6.067   2.981  1.00  0.00     0.180 C 
BRANCH  13  17
ATOM     17  N   UNL     1       0.432  -2.956   0.987  1.00  0.00    -0.341 N 
ATOM     18  H   UNL     1      -0.572  -2.931   0.807  1.00  0.00     0.346 HD
ATOM     19  H   UNL     1       0.754  -2.244   1.642  1.00  0.00     0.346 HD
BRANCH  17  20
ATOM     20  C   UNL     1       1.117  -2.678  -0.266  1.00  0.00     0.260 C 
BRANCH  20  21
ATOM     21  C   UNL     1       0.654  -1.321  -0.816  1.00  0.00     0.058 C 
ATOM     22  C   UNL     1       1.149  -0.124  -0.012  1.00  0.00     0.010 C 
ENDBRANCH  20  21
ENDBRANCH  17  20
ENDBRANCH  13  17
ENDBRANCH   9  12
ENDBRANCH   6   8
BRANCH   6  23
ATOM     23  C   UNL     1      -2.049  -1.688   5.249  1.00  0.00     0.035 C 
ATOM     24  C   UNL     1      -1.705  -2.914   6.084  1.00  0.00     0.007 C 
ENDBRANCH   6  23
ENDBRANCH   3   6
ENDBRANCH   1   2
BRANCH   1  25
ATOM     25  C   UNL     1       0.593   0.505   7.108  1.00  0.00     0.023 C 
BRANCH  25  26
ATOM     26  C   UNL     1       2.040   0.155   7.471  1.00  0.00     0.023 C 
BRANCH  26  27
ATOM     27  C   UNL     1       3.127   1.022   6.843  1.00  0.00     0.116 C 
BRANCH  27  28
ATOM     28  N   UNL     1       2.990   2.434   7.147  1.00  0.00    -0.352 N 
ATOM     29  C   UNL     1       3.965   3.334   7.510  1.00  0.00     0.251 C 
ATOM     30  H   UNL     1       2.077   2.797   7.085  1.00  0.00     0.163 HD
ATOM     31  O   UNL     1       3.669   4.485   7.804  1.00  0.00    -0.269 OA
BRANCH  29  32
ATOM     32  C   UNL     1       5.372   2.889   7.587  1.00  0.00     0.039 A 
ATOM     33  C   UNL     1       6.082   3.119   8.769  1.00  0.00     0.014 A 
ATOM     34  C   UNL     1       5.976   2.226   6.516  1.00  0.00     0.014 A 
ATOM     35  C   UNL     1       7.379   2.617   8.906  1.00  0.00     0.010 A 
ATOM     36  C   UNL     1       7.248   1.681   6.673  1.00  0.00     0.010 A 
ATOM     37  C   UNL     1       7.957   1.863   7.872  1.00  0.00    -0.014 A 
BRANCH  37  38
ATOM     38  C   UNL     1       9.298   1.244   8.021  1.00  0.00     0.031 A 
ATOM     39  C   UNL     1      10.433   1.704   7.152  1.00  0.00     0.074 A 
ATOM     40  C   UNL     1       9.466   0.205   8.861  1.00  0.00     0.049 A 
ATOM     41  N   UNL     1      11.630   1.193   7.014  1.00  0.00    -0.248 NA
ATOM     42  C   UNL     1      10.178   2.878   6.302  1.00  0.00     0.031 C 
ATOM     43  C   UNL     1       8.429  -0.360   9.727  1.00  0.00     0.029 A 
ATOM     44  N   UNL     1      10.565  -0.582   9.104  1.00  0.00    -0.354 N 
ATOM     45  C   UNL     1      12.256   1.959   6.040  1.00  0.00     0.074 A 
ATOM     46  C   UNL     1      11.302   2.955   5.604  1.00  0.00     0.031 C 
ATOM     47  C   UNL     1       8.939  -1.405  10.399  1.00  0.00     0.029 A 
ATOM     48  C   UNL     1      10.324  -1.608   9.986  1.00  0.00     0.049 A 
ATOM     49  H   UNL     1      11.442  -0.426   8.684  1.00  0.00     0.167 HD
ATOM     50  C   UNL     1      13.518   1.845   5.562  1.00  0.00     0.037 A 
ATOM     51  C   UNL     1      11.124  -2.611  10.396  1.00  0.00     0.037 A 
ATOM     52  C   UNL     1      14.481   0.886   6.036  1.00  0.00     0.049 A 
ATOM     53  C   UNL     1      12.531  -2.694   9.870  1.00  0.00     0.074 A 
ATOM     54  C   UNL     1      15.811   0.753   5.678  1.00  0.00     0.029 A 
ATOM     55  N   UNL     1      14.216  -0.100   6.974  1.00  0.00    -0.354 N 
ATOM     56  N   UNL     1      13.134  -1.922   8.999  1.00  0.00    -0.248 NA
ATOM     57  C   UNL     1      13.371  -3.786  10.384  1.00  0.00     0.031 C 
ATOM     58  C   UNL     1      16.343  -0.337   6.373  1.00  0.00     0.029 A 
ATOM     59  C   UNL     1      15.355  -0.858   7.193  1.00  0.00     0.049 A 
ATOM     60  H   UNL     1      13.349  -0.240   7.418  1.00  0.00     0.167 HD
ATOM     61  C   UNL     1      14.427  -2.415   8.883  1.00  0.00     0.074 A 
ATOM     62  C   UNL     1      14.526  -3.548   9.779  1.00  0.00     0.031 C 
ATOM     63  C   UNL     1      15.440  -1.969   8.103  1.00  0.00     0.037 A 
BRANCH  50  64
ATOM     64  C   UNL     1      13.940   2.779   4.469  1.00  0.00     0.064 A 
ATOM     65  C   UNL     1      14.202   4.133   4.720  1.00  0.00     0.173 A 
ATOM     66  C   UNL     1      14.146   2.298   3.168  1.00  0.00     0.173 A 
ATOM     67  F   UNL     1      14.009   4.643   5.945  1.00  0.00    -0.203 F 
ATOM     68  C   UNL     1      14.639   4.977   3.702  1.00  0.00     0.198 A 
ATOM     69  C   UNL     1      14.607   3.138   2.158  1.00  0.00     0.198 A 
ATOM     70  F   UNL     1      13.914   1.008   2.879  1.00  0.00    -0.203 F 
ATOM     71  F   UNL     1      14.852   6.275   3.955  1.00  0.00    -0.200 F 
ATOM     72  C   UNL     1      14.849   4.477   2.425  1.00  0.00     0.200 A 
ATOM     73  F   UNL     1      14.820   2.651   0.928  1.00  0.00    -0.200 F 
ATOM     74  F   UNL     1      15.283   5.288   1.450  1.00  0.00    -0.200 F 
ENDBRANCH  50  64
BRANCH  51  75
ATOM     75  C   UNL     1      10.614  -3.624  11.356  1.00  0.00     0.064 A 
ATOM     76  C   UNL     1      11.087  -3.669  12.675  1.00  0.00     0.173 A 
ATOM     77  C   UNL     1       9.660  -4.577  10.971  1.00  0.00     0.173 A 
ATOM     78  F   UNL     1      12.016  -2.792  13.082  1.00  0.00    -0.203 F 
ATOM     79  C   UNL     1      10.643  -4.644  13.566  1.00  0.00     0.198 A 
ATOM     80  C   UNL     1       9.197  -5.536  11.871  1.00  0.00     0.198 A 
ATOM     81  F   UNL     1       9.173  -4.574   9.722  1.00  0.00    -0.203 F 
ATOM     82  F   UNL     1      11.148  -4.695  14.806  1.00  0.00    -0.200 F 
ATOM     83  C   UNL     1       9.696  -5.574  13.164  1.00  0.00     0.200 A 
ATOM     84  F   UNL     1       8.273  -6.424  11.483  1.00  0.00    -0.200 F 
ATOM     85  F   UNL     1       9.270  -6.512  14.021  1.00  0.00    -0.200 F 
ENDBRANCH  51  75
BRANCH  63  86
ATOM     86  C   UNL     1      16.758  -2.676   8.210  1.00  0.00     0.064 A 
ATOM     87  C   UNL     1      16.962  -3.936   7.632  1.00  0.00     0.173 A 
ATOM     88  C   UNL     1      17.844  -2.055   8.845  1.00  0.00     0.173 A 
ATOM     89  F   UNL     1      15.948  -4.574   7.028  1.00  0.00    -0.203 F 
ATOM     90  C   UNL     1      18.207  -4.556   7.696  1.00  0.00     0.198 A 
ATOM     91  C   UNL     1      19.093  -2.668   8.885  1.00  0.00     0.198 A 
ATOM     92  F   UNL     1      17.698  -0.847   9.408  1.00  0.00    -0.203 F 
ATOM     93  F   UNL     1      18.374  -5.775   7.164  1.00  0.00    -0.200 F 
ATOM     94  C   UNL     1      19.272  -3.919   8.314  1.00  0.00     0.200 A 
ATOM     95  F   UNL     1      20.124  -2.046   9.473  1.00  0.00    -0.200 F 
ATOM     96  F   UNL     1      20.473  -4.513   8.364  1.00  0.00    -0.200 F 
ENDBRANCH  63  86
ENDBRANCH  37  38
ENDBRANCH  29  32
ENDBRANCH  27  28
ENDBRANCH  26  27
ENDBRANCH  25  26
ENDBRANCH   1  25
TORSDOF 17
