REMARK SMILES CC[C@@](C)([NH2+]CC(=O)N[C@@H](C)C(C)C)C(=O)NCCCCNC(=O)c1ccc(-c2c3nc(c(-c4c(F)c(F)c(F)c(F)c4F)c4ccc([nH]4)c(-c4c(F)c(F)c(F)c(F)c4F)c4nc(c(-c5c(F)c(F)c(F)c(F)c5F)c5ccc2[nH]5)C=C4)C=C3)cc1
REMARK SMILES IDX 18 1 17 2 15 3 16 4 3 6 4 7 2 8 1 9 5 10 6 13 7 14 8 15 9 16
REMARK SMILES IDX 10 18 11 19 12 20 13 21 14 22 19 23 20 24 21 25 22 26 23 27
REMARK SMILES IDX 24 29 25 30 26 31 87 32 27 33 86 34 28 35 29 36 30 37 80 38
REMARK SMILES IDX 31 39 85 40 79 41 81 42 32 43 84 44 78 45 77 46 33 48 65 49
REMARK SMILES IDX 45 50 64 51 46 52 49 53 63 54 82 55 47 56 48 57 62 59 83 60
REMARK SMILES IDX 50 61 34 62 35 63 43 64 36 65 37 66 41 67 44 68 38 69 39 70
REMARK SMILES IDX 42 71 40 72 66 73 67 74 75 75 68 76 69 77 73 78 76 79 70 80
REMARK SMILES IDX 71 81 74 82 72 83 51 84 52 85 60 86 53 87 54 88 58 89 61 90
REMARK SMILES IDX 55 91 56 92 59 93 57 94
REMARK H PARENT 17 5 5 11 5 12 9 17 22 28 81 47 49 58
REMARK Flexibility Score: inf
ROOT
ATOM      1  C   UNL     1       3.382   1.946   4.231  1.00  0.00     0.116 C 
ENDROOT
BRANCH   1   2
ATOM      2  N   UNL     1       2.768   0.712   3.746  1.00  0.00    -0.351 N 
ATOM      3  C   UNL     1       2.146   0.670   2.506  1.00  0.00     0.281 C 
ATOM      4  O   UNL     1       2.850   0.574   1.499  1.00  0.00    -0.268 OA
ATOM      5  H   UNL     1       2.796  -0.098   4.304  1.00  0.00     0.163 HD
BRANCH   3   6
ATOM      6  C   UNL     1       0.571   0.507   2.458  1.00  0.00     0.172 C 
ATOM      7  C   UNL     1      -0.241   1.168   1.336  1.00  0.00     0.090 C 
BRANCH   6   8
ATOM      8  C   UNL     1       0.373  -1.037   2.243  1.00  0.00     0.075 C 
ATOM      9  C   UNL     1       0.566  -1.488   0.777  1.00  0.00     0.011 C 
ENDBRANCH   6   8
BRANCH   6  10
ATOM     10  N   UNL     1      -0.056   0.965   3.705  1.00  0.00    -0.326 N 
ATOM     11  H   UNL     1       0.281   0.343   4.440  1.00  0.00     0.347 HD
ATOM     12  H   UNL     1      -1.047   0.954   3.467  1.00  0.00     0.347 HD
BRANCH  10  13
ATOM     13  C   UNL     1       0.130   2.344   4.210  1.00  0.00     0.362 C 
BRANCH  13  14
ATOM     14  C   UNL     1       0.025   3.677   3.415  1.00  0.00     0.275 C 
ATOM     15  O   UNL     1      -0.851   4.481   3.780  1.00  0.00    -0.268 OA
ATOM     16  N   UNL     1       0.909   4.225   2.521  1.00  0.00    -0.349 N 
ATOM     17  H   UNL     1       1.073   5.181   2.691  1.00  0.00     0.163 HD
BRANCH  16  18
ATOM     18  C   UNL     1       1.670   3.718   1.367  1.00  0.00     0.081 C 
ATOM     19  C   UNL     1       0.825   3.899   0.086  1.00  0.00     0.031 C 
BRANCH  18  20
ATOM     20  C   UNL     1       3.058   4.381   1.098  1.00  0.00     0.005 C 
ATOM     21  C   UNL     1       3.811   4.897   2.318  1.00  0.00     0.009 C 
ATOM     22  C   UNL     1       3.979   3.410   0.331  1.00  0.00     0.009 C 
ENDBRANCH  18  20
ENDBRANCH  16  18
ENDBRANCH  13  14
ENDBRANCH  10  13
ENDBRANCH   6  10
ENDBRANCH   3   6
ENDBRANCH   1   2
BRANCH   1  23
ATOM     23  C   UNL     1       3.395   2.057   5.763  1.00  0.00     0.023 C 
BRANCH  23  24
ATOM     24  C   UNL     1       4.716   2.550   6.353  1.00  0.00     0.023 C 
BRANCH  24  25
ATOM     25  C   UNL     1       5.181   3.933   5.907  1.00  0.00     0.116 C 
BRANCH  25  26
ATOM     26  N   UNL     1       4.374   5.038   6.396  1.00  0.00    -0.352 N 
ATOM     27  C   UNL     1       4.806   6.293   6.801  1.00  0.00     0.251 C 
ATOM     28  H   UNL     1       3.404   4.878   6.447  1.00  0.00     0.163 HD
ATOM     29  O   UNL     1       4.036   7.116   7.241  1.00  0.00    -0.269 OA
BRANCH  27  30
ATOM     30  C   UNL     1       6.259   6.589   6.735  1.00  0.00     0.039 A 
ATOM     31  C   UNL     1       6.920   6.972   7.905  1.00  0.00     0.014 A 
ATOM     32  C   UNL     1       6.971   6.405   5.547  1.00  0.00     0.014 A 
ATOM     33  C   UNL     1       8.314   7.071   7.907  1.00  0.00     0.010 A 
ATOM     34  C   UNL     1       8.364   6.443   5.568  1.00  0.00     0.010 A 
ATOM     35  C   UNL     1       9.050   6.756   6.752  1.00  0.00    -0.014 A 
BRANCH  35  36
ATOM     36  C   UNL     1      10.536   6.710   6.778  1.00  0.00     0.031 A 
ATOM     37  C   UNL     1      11.342   7.673   5.954  1.00  0.00     0.074 A 
ATOM     38  C   UNL     1      11.160   5.748   7.487  1.00  0.00     0.049 A 
ATOM     39  N   UNL     1      12.641   7.748   5.803  1.00  0.00    -0.248 NA
ATOM     40  C   UNL     1      10.588   8.668   5.177  1.00  0.00     0.031 C 
ATOM     41  C   UNL     1      10.494   4.716   8.284  1.00  0.00     0.029 A 
ATOM     42  N   UNL     1      12.497   5.474   7.645  1.00  0.00    -0.354 N 
ATOM     43  C   UNL     1      12.857   8.784   4.904  1.00  0.00     0.074 A 
ATOM     44  C   UNL     1      11.555   9.277   4.507  1.00  0.00     0.031 C 
ATOM     45  C   UNL     1      11.423   3.938   8.864  1.00  0.00     0.029 A 
ATOM     46  C   UNL     1      12.748   4.394   8.457  1.00  0.00     0.049 A 
ATOM     47  H   UNL     1      13.209   6.002   7.216  1.00  0.00     0.167 HD
ATOM     48  C   UNL     1      14.034   9.293   4.467  1.00  0.00     0.037 A 
ATOM     49  C   UNL     1      13.915   3.834   8.829  1.00  0.00     0.037 A 
ATOM     50  C   UNL     1      15.328   8.823   4.886  1.00  0.00     0.049 A 
ATOM     51  C   UNL     1      15.208   4.424   8.335  1.00  0.00     0.074 A 
ATOM     52  C   UNL     1      16.576   9.324   4.555  1.00  0.00     0.029 A 
ATOM     53  N   UNL     1      15.542   7.742   5.727  1.00  0.00    -0.354 N 
ATOM     54  N   UNL     1      15.400   5.455   7.549  1.00  0.00    -0.248 NA
ATOM     55  C   UNL     1      16.448   3.774   8.785  1.00  0.00     0.031 C 
ATOM     56  C   UNL     1      17.546   8.520   5.163  1.00  0.00     0.029 A 
ATOM     57  C   UNL     1      16.902   7.546   5.909  1.00  0.00     0.049 A 
ATOM     58  H   UNL     1      14.832   7.194   6.135  1.00  0.00     0.167 HD
ATOM     59  C   UNL     1      16.777   5.597   7.435  1.00  0.00     0.074 A 
ATOM     60  C   UNL     1      17.373   4.553   8.242  1.00  0.00     0.031 C 
ATOM     61  C   UNL     1      17.482   6.511   6.725  1.00  0.00     0.037 A 
BRANCH  48  62
ATOM     62  C   UNL     1      13.976  10.426   3.485  1.00  0.00     0.064 A 
ATOM     63  C   UNL     1      13.554  11.708   3.868  1.00  0.00     0.173 A 
ATOM     64  C   UNL     1      14.382  10.238   2.156  1.00  0.00     0.173 A 
ATOM     65  F   UNL     1      13.145  11.936   5.125  1.00  0.00    -0.203 F 
ATOM     66  C   UNL     1      13.513  12.753   2.949  1.00  0.00     0.198 A 
ATOM     67  C   UNL     1      14.368  11.292   1.247  1.00  0.00     0.198 A 
ATOM     68  F   UNL     1      14.801   9.033   1.740  1.00  0.00    -0.203 F 
ATOM     69  F   UNL     1      13.061  13.957   3.326  1.00  0.00    -0.200 F 
ATOM     70  C   UNL     1      13.926  12.546   1.642  1.00  0.00     0.200 A 
ATOM     71  F   UNL     1      14.778  11.094  -0.014  1.00  0.00    -0.200 F 
ATOM     72  F   UNL     1      13.892  13.555   0.760  1.00  0.00    -0.200 F 
ENDBRANCH  48  62
BRANCH  49  73
ATOM     73  C   UNL     1      13.921   2.666   9.748  1.00  0.00     0.064 A 
ATOM     74  C   UNL     1      14.380   2.794  11.067  1.00  0.00     0.173 A 
ATOM     75  C   UNL     1      13.486   1.401   9.329  1.00  0.00     0.173 A 
ATOM     76  F   UNL     1      14.828   3.979  11.507  1.00  0.00    -0.203 F 
ATOM     77  C   UNL     1      14.423   1.697  11.925  1.00  0.00     0.198 A 
ATOM     78  C   UNL     1      13.505   0.310  10.196  1.00  0.00     0.198 A 
ATOM     79  F   UNL     1      13.035   1.226   8.078  1.00  0.00    -0.203 F 
ATOM     80  F   UNL     1      14.909   1.838  13.165  1.00  0.00    -0.200 F 
ATOM     81  C   UNL     1      13.981   0.457  11.490  1.00  0.00     0.200 A 
ATOM     82  F   UNL     1      13.066  -0.885   9.776  1.00  0.00    -0.200 F 
ATOM     83  F   UNL     1      14.021  -0.598  12.315  1.00  0.00    -0.200 F 
ENDBRANCH  49  73
BRANCH  61  84
ATOM     84  C   UNL     1      18.978   6.449   6.817  1.00  0.00     0.064 A 
ATOM     85  C   UNL     1      19.713   5.435   6.185  1.00  0.00     0.173 A 
ATOM     86  C   UNL     1      19.688   7.441   7.511  1.00  0.00     0.173 A 
ATOM     87  F   UNL     1      19.080   4.455   5.523  1.00  0.00    -0.203 F 
ATOM     88  C   UNL     1      21.103   5.405   6.263  1.00  0.00     0.198 A 
ATOM     89  C   UNL     1      21.078   7.424   7.563  1.00  0.00     0.198 A 
ATOM     90  F   UNL     1      19.031   8.435   8.127  1.00  0.00    -0.203 F 
ATOM     91  F   UNL     1      21.783   4.404   5.688  1.00  0.00    -0.200 F 
ATOM     92  C   UNL     1      21.784   6.403   6.945  1.00  0.00     0.200 A 
ATOM     93  F   UNL     1      21.736   8.395   8.212  1.00  0.00    -0.200 F 
ATOM     94  F   UNL     1      23.123   6.376   7.012  1.00  0.00    -0.200 F 
ENDBRANCH  61  84
ENDBRANCH  35  36
ENDBRANCH  27  30
ENDBRANCH  25  26
ENDBRANCH  24  25
ENDBRANCH  23  24
ENDBRANCH   1  23
TORSDOF 17
