REMARK SMILES Cc1ccc(C)n1-c1ccccc1S[C@H](C)C(=O)NCCCCNC(=O)c1ccc(-c2c3nc(c(-c4c(F)c(F)c(F)c(F)c4F)c4ccc([nH]4)c(-c4c(F)c(F)c(F)c(F)c4F)c4nc(c(-c5c(F)c(F)c(F)c(F)c5F)c5ccc2[nH]5)C=C4)C=C3)cc1
REMARK SMILES IDX 21 1 20 2 19 3 17 4 18 5 15 7 16 8 14 9 13 10 8 11 9 12
REMARK SMILES IDX 10 13 12 14 11 15 7 16 1 17 2 18 3 19 4 20 5 21 6 22 22 23
REMARK SMILES IDX 23 24 24 25 25 26 26 28 27 29 28 30 89 31 29 32 88 33 30 34
REMARK SMILES IDX 31 35 32 36 82 37 33 38 87 39 81 40 83 41 34 42 86 43 80 44
REMARK SMILES IDX 79 45 35 47 67 48 47 49 66 50 48 51 51 52 65 53 84 54 49 55
REMARK SMILES IDX 50 56 64 58 85 59 52 60 36 61 37 62 45 63 38 64 39 65 43 66
REMARK SMILES IDX 46 67 40 68 41 69 44 70 42 71 68 72 69 73 77 74 70 75 71 76
REMARK SMILES IDX 75 77 78 78 72 79 73 80 76 81 74 82 53 83 54 84 62 85 55 86
REMARK SMILES IDX 56 87 60 88 63 89 57 90 58 91 61 92 59 93
REMARK H PARENT 19 6 24 27 83 46 51 57
REMARK Flexibility Score: inf
ROOT
ATOM      1  C   UNL     1      -1.632  -1.255   3.945  1.00  0.00     0.023 C 
ENDROOT
BRANCH   1   2
ATOM      2  C   UNL     1      -0.756  -1.389   2.714  1.00  0.00     0.116 C 
BRANCH   2   3
ATOM      3  N   UNL     1      -1.207  -2.272   1.678  1.00  0.00    -0.355 N 
ATOM      4  C   UNL     1      -1.127  -2.040   0.330  1.00  0.00     0.233 C 
ATOM      5  O   UNL     1      -1.358  -3.002  -0.411  1.00  0.00    -0.274 OA
ATOM      6  H   UNL     1      -1.612  -3.124   1.962  1.00  0.00     0.163 HD
BRANCH   4   7
ATOM      7  C   UNL     1      -0.867  -0.639  -0.262  1.00  0.00     0.137 C 
ATOM      8  C   UNL     1      -1.973   0.376  -0.022  1.00  0.00     0.030 C 
BRANCH   7   9
ATOM      9  S   UNL     1       0.896  -0.081  -0.212  1.00  0.00    -0.111 SA
BRANCH   9  10
ATOM     10  C   UNL     1       1.343   0.805   1.297  1.00  0.00     0.032 A 
ATOM     11  C   UNL     1       2.675   0.753   1.780  1.00  0.00     0.059 A 
ATOM     12  C   UNL     1       2.983   1.165   3.093  1.00  0.00     0.028 A 
ATOM     13  C   UNL     1       1.992   1.682   3.919  1.00  0.00     0.002 A 
ATOM     14  C   UNL     1       0.422   1.510   2.084  1.00  0.00     0.017 A 
ATOM     15  C   UNL     1       0.724   1.895   3.400  1.00  0.00     0.001 A 
BRANCH  11  16
ATOM     16  N   UNL     1       3.775   0.389   0.941  1.00  0.00    -0.317 N 
ATOM     17  C   UNL     1       3.312   2.048  -0.975  1.00  0.00     0.065 C 
ATOM     18  C   UNL     1       4.073   0.950  -0.305  1.00  0.00     0.020 A 
ATOM     19  C   UNL     1       5.226   0.356  -0.780  1.00  0.00     0.023 A 
ATOM     20  C   UNL     1       5.704  -0.512   0.213  1.00  0.00     0.023 A 
ATOM     21  C   UNL     1       4.822  -0.471   1.277  1.00  0.00     0.020 A 
ATOM     22  C   UNL     1       4.921  -1.263   2.537  1.00  0.00     0.065 C 
ENDBRANCH  11  16
ENDBRANCH   9  10
ENDBRANCH   7   9
ENDBRANCH   4   7
ENDBRANCH   2   3
ENDBRANCH   1   2
BRANCH   1  23
ATOM     23  C   UNL     1      -1.708  -2.436   4.914  1.00  0.00     0.023 C 
BRANCH  23  24
ATOM     24  C   UNL     1      -0.520  -3.404   4.986  1.00  0.00     0.116 C 
BRANCH  24  25
ATOM     25  N   UNL     1       0.394  -3.165   6.073  1.00  0.00    -0.352 N 
ATOM     26  C   UNL     1       1.229  -4.089   6.685  1.00  0.00     0.251 C 
ATOM     27  H   UNL     1       0.430  -2.244   6.420  1.00  0.00     0.163 HD
ATOM     28  O   UNL     1       1.881  -3.728   7.648  1.00  0.00    -0.269 OA
BRANCH  26  29
ATOM     29  C   UNL     1       1.217  -5.555   6.298  1.00  0.00     0.039 A 
ATOM     30  C   UNL     1       0.748  -6.402   7.270  1.00  0.00     0.014 A 
ATOM     31  C   UNL     1       1.708  -6.183   5.135  1.00  0.00     0.014 A 
ATOM     32  C   UNL     1       0.735  -7.804   7.052  1.00  0.00     0.010 A 
ATOM     33  C   UNL     1       1.804  -7.659   4.984  1.00  0.00     0.010 A 
ATOM     34  C   UNL     1       1.343  -8.554   5.967  1.00  0.00    -0.014 A 
BRANCH  34  35
ATOM     35  C   UNL     1       1.611 -10.194   6.253  1.00  0.00     0.031 A 
ATOM     36  C   UNL     1       1.681 -10.218   7.739  1.00  0.00     0.074 A 
ATOM     37  C   UNL     1       1.969 -11.467   5.759  1.00  0.00     0.049 A 
ATOM     38  N   UNL     1       2.619  -9.498   8.280  1.00  0.00    -0.248 NA
ATOM     39  C   UNL     1       0.572 -10.558   8.633  1.00  0.00     0.031 C 
ATOM     40  C   UNL     1       2.348 -11.870   4.391  1.00  0.00     0.029 A 
ATOM     41  N   UNL     1       2.118 -12.760   6.409  1.00  0.00    -0.354 N 
ATOM     42  C   UNL     1       2.353  -9.419   9.617  1.00  0.00     0.074 A 
ATOM     43  C   UNL     1       1.006  -9.966   9.757  1.00  0.00     0.031 C 
ATOM     44  C   UNL     1       2.520 -13.226   4.272  1.00  0.00     0.029 A 
ATOM     45  C   UNL     1       2.352 -13.916   5.556  1.00  0.00     0.049 A 
ATOM     46  H   UNL     1       2.062 -12.850   7.388  1.00  0.00     0.167 HD
ATOM     47  C   UNL     1       3.455  -9.542  10.405  1.00  0.00     0.037 A 
ATOM     48  C   UNL     1       2.508 -15.285   5.849  1.00  0.00     0.037 A 
ATOM     49  C   UNL     1       3.581 -10.901  10.851  1.00  0.00     0.049 A 
ATOM     50  C   UNL     1       3.083 -15.329   7.195  1.00  0.00     0.074 A 
ATOM     51  C   UNL     1       2.643 -11.817  11.290  1.00  0.00     0.029 A 
ATOM     52  N   UNL     1       4.630 -11.630  10.338  1.00  0.00    -0.354 N 
ATOM     53  N   UNL     1       4.347 -15.100   7.380  1.00  0.00    -0.248 NA
ATOM     54  C   UNL     1       2.348 -15.792   8.366  1.00  0.00     0.031 C 
ATOM     55  C   UNL     1       2.878 -12.947  10.478  1.00  0.00     0.029 A 
ATOM     56  C   UNL     1       4.163 -12.865   9.958  1.00  0.00     0.049 A 
ATOM     57  H   UNL     1       5.561 -11.318  10.258  1.00  0.00     0.167 HD
ATOM     58  C   UNL     1       4.415 -14.858   8.707  1.00  0.00     0.074 A 
ATOM     59  C   UNL     1       3.287 -15.565   9.288  1.00  0.00     0.031 C 
ATOM     60  C   UNL     1       4.933 -13.652   9.034  1.00  0.00     0.037 A 
BRANCH  47  61
ATOM     61  C   UNL     1       4.599  -8.675   9.916  1.00  0.00     0.064 A 
ATOM     62  C   UNL     1       4.928  -7.527  10.641  1.00  0.00     0.173 A 
ATOM     63  C   UNL     1       5.228  -8.838   8.658  1.00  0.00     0.173 A 
ATOM     64  F   UNL     1       4.420  -7.342  11.869  1.00  0.00    -0.203 F 
ATOM     65  C   UNL     1       5.778  -6.556  10.107  1.00  0.00     0.198 A 
ATOM     66  C   UNL     1       6.001  -7.830   8.092  1.00  0.00     0.198 A 
ATOM     67  F   UNL     1       5.091  -9.979   7.960  1.00  0.00    -0.203 F 
ATOM     68  F   UNL     1       6.110  -5.484  10.839  1.00  0.00    -0.200 F 
ATOM     69  C   UNL     1       6.274  -6.686   8.817  1.00  0.00     0.200 A 
ATOM     70  F   UNL     1       6.476  -7.970   6.845  1.00  0.00    -0.200 F 
ATOM     71  F   UNL     1       7.040  -5.723   8.285  1.00  0.00    -0.200 F 
ENDBRANCH  47  61
BRANCH  48  72
ATOM     72  C   UNL     1       2.579 -16.768   5.299  1.00  0.00     0.064 A 
ATOM     73  C   UNL     1       3.467 -17.755   5.881  1.00  0.00     0.173 A 
ATOM     74  C   UNL     1       1.516 -17.357   4.596  1.00  0.00     0.173 A 
ATOM     75  F   UNL     1       4.573 -17.399   6.548  1.00  0.00    -0.203 F 
ATOM     76  C   UNL     1       3.233 -19.145   5.878  1.00  0.00     0.198 A 
ATOM     77  C   UNL     1       1.309 -18.767   4.554  1.00  0.00     0.198 A 
ATOM     78  F   UNL     1       0.596 -16.580   4.012  1.00  0.00    -0.203 F 
ATOM     79  F   UNL     1       4.036 -19.969   6.573  1.00  0.00    -0.200 F 
ATOM     80  C   UNL     1       2.139 -19.652   5.226  1.00  0.00     0.200 A 
ATOM     81  F   UNL     1       0.242 -19.267   3.912  1.00  0.00    -0.200 F 
ATOM     82  F   UNL     1       1.871 -20.968   5.272  1.00  0.00    -0.200 F 
ENDBRANCH  48  72
BRANCH  60  83
ATOM     83  C   UNL     1       6.160 -13.195   8.260  1.00  0.00     0.064 A 
ATOM     84  C   UNL     1       6.328 -13.167   6.852  1.00  0.00     0.173 A 
ATOM     85  C   UNL     1       7.288 -12.842   9.013  1.00  0.00     0.173 A 
ATOM     86  F   UNL     1       5.309 -13.360   6.003  1.00  0.00    -0.203 F 
ATOM     87  C   UNL     1       7.569 -12.906   6.261  1.00  0.00     0.198 A 
ATOM     88  C   UNL     1       8.508 -12.522   8.418  1.00  0.00     0.198 A 
ATOM     89  F   UNL     1       7.207 -12.788  10.351  1.00  0.00    -0.203 F 
ATOM     90  F   UNL     1       7.705 -12.966   4.927  1.00  0.00    -0.200 F 
ATOM     91  C   UNL     1       8.658 -12.585   7.045  1.00  0.00     0.200 A 
ATOM     92  F   UNL     1       9.540 -12.154   9.189  1.00  0.00    -0.200 F 
ATOM     93  F   UNL     1       9.845 -12.318   6.483  1.00  0.00    -0.200 F 
ENDBRANCH  60  83
ENDBRANCH  34  35
ENDBRANCH  26  29
ENDBRANCH  24  25
ENDBRANCH  23  24
ENDBRANCH   1  23
TORSDOF 14
