REMARK SMILES CC[NH2+][C@@]1(C(=O)NCCCCNC(=O)c2ccc(-c3c4nc(c(-c5c(F)c(F)c(F)c(F)c5F)c5ccc([nH]5)c(-c5c(F)c(F)c(F)c(F)c5F)c5nc(c(-c6c(F)c(F)c(F)c(F)c6F)c6ccc3[nH]6)C=C5)C=C4)cc2)CCC[C@@H]([N@@H+](C)[C@@H](C)C2CC2)C1
REMARK SMILES IDX 9 1 8 2 7 3 5 4 6 5 4 7 78 8 89 9 79 10 81 11 80 12 3 13
REMARK SMILES IDX 2 16 1 17 82 18 83 19 84 21 85 22 86 23 87 24 88 25 10 26
REMARK SMILES IDX 11 27 12 28 13 29 14 31 15 32 16 33 77 34 17 35 76 36 18 37
REMARK SMILES IDX 19 38 20 39 70 40 21 41 75 42 69 43 71 44 22 45 74 46 68 47
REMARK SMILES IDX 67 48 23 50 55 51 35 52 54 53 36 54 39 55 53 56 72 57 37 58
REMARK SMILES IDX 38 59 52 61 73 62 40 63 24 64 25 65 33 66 26 67 27 68 31 69
REMARK SMILES IDX 34 70 28 71 29 72 32 73 30 74 56 75 57 76 65 77 58 78 59 79
REMARK SMILES IDX 63 80 66 81 60 82 61 83 64 84 62 85 41 86 42 87 50 88 43 89
REMARK SMILES IDX 44 90 48 91 51 92 45 93 46 94 49 95 47 96
REMARK H PARENT 7 6 3 14 3 15 82 20 12 30 71 49 39 60
REMARK Flexibility Score: inf
ROOT
ATOM      1  C   UNL     1      -2.191   5.057   4.710  1.00  0.00     0.023 C 
ENDROOT
BRANCH   1   2
ATOM      2  C   UNL     1      -1.902   3.572   4.925  1.00  0.00     0.116 C 
BRANCH   2   3
ATOM      3  N   UNL     1      -2.167   2.791   3.749  1.00  0.00    -0.351 N 
ATOM      4  C   UNL     1      -1.388   2.291   2.757  1.00  0.00     0.281 C 
ATOM      5  O   UNL     1      -2.060   1.741   1.872  1.00  0.00    -0.268 OA
ATOM      6  H   UNL     1      -3.120   2.570   3.639  1.00  0.00     0.163 HD
BRANCH   4   7
ATOM      7  C   UNL     1       0.208   2.398   2.683  1.00  0.00     0.181 C 
ATOM      8  C   UNL     1       0.971   1.687   3.829  1.00  0.00     0.079 C 
ATOM      9  C   UNL     1       0.631   3.881   2.459  1.00  0.00     0.144 C 
ATOM     10  C   UNL     1       1.545   2.527   4.963  1.00  0.00     0.013 C 
ATOM     11  C   UNL     1       1.223   4.668   3.645  1.00  0.00     0.190 C 
ATOM     12  C   UNL     1       2.181   3.826   4.484  1.00  0.00     0.065 C 
BRANCH   7  13
ATOM     13  N   UNL     1       0.627   1.720   1.389  1.00  0.00    -0.334 N 
ATOM     14  H   UNL     1       0.103   2.158   0.631  1.00  0.00     0.347 HD
ATOM     15  H   UNL     1       1.639   1.840   1.349  1.00  0.00     0.347 HD
BRANCH  13  16
ATOM     16  C   UNL     1       0.421   0.274   1.283  1.00  0.00     0.257 C 
ATOM     17  C   UNL     1       0.957  -0.196  -0.065  1.00  0.00     0.071 C 
ENDBRANCH  13  16
ENDBRANCH   7  13
BRANCH  11  18
ATOM     18  N   UNL     1       1.651   6.033   3.227  1.00  0.00    -0.332 N 
ATOM     19  C   UNL     1       1.058   7.038   4.131  1.00  0.00     0.333 C 
ATOM     20  H   UNL     1       1.295   6.019   2.271  1.00  0.00     0.348 HD
BRANCH  18  21
ATOM     21  C   UNL     1       3.060   6.396   2.946  1.00  0.00     0.184 C 
ATOM     22  C   UNL     1       4.091   6.173   4.062  1.00  0.00     0.075 C 
BRANCH  21  23
ATOM     23  C   UNL     1       3.673   6.052   1.606  1.00  0.00     0.047 C 
ATOM     24  C   UNL     1       3.848   4.653   1.084  1.00  0.00     0.010 C 
ATOM     25  C   UNL     1       2.897   5.605   0.395  1.00  0.00     0.010 C 
ENDBRANCH  21  23
ENDBRANCH  18  21
ENDBRANCH  11  18
ENDBRANCH   4   7
ENDBRANCH   2   3
ENDBRANCH   1   2
BRANCH   1  26
ATOM     26  C   UNL     1      -3.568   5.524   5.166  1.00  0.00     0.023 C 
BRANCH  26  27
ATOM     27  C   UNL     1      -3.875   5.262   6.635  1.00  0.00     0.116 C 
BRANCH  27  28
ATOM     28  N   UNL     1      -2.861   5.737   7.571  1.00  0.00    -0.352 N 
ATOM     29  C   UNL     1      -3.034   5.998   8.913  1.00  0.00     0.251 C 
ATOM     30  H   UNL     1      -1.960   5.888   7.206  1.00  0.00     0.163 HD
ATOM     31  O   UNL     1      -2.126   6.435   9.609  1.00  0.00    -0.269 OA
BRANCH  29  32
ATOM     32  C   UNL     1      -4.382   5.789   9.472  1.00  0.00     0.039 A 
ATOM     33  C   UNL     1      -5.088   6.891   9.955  1.00  0.00     0.014 A 
ATOM     34  C   UNL     1      -4.996   4.544   9.324  1.00  0.00     0.014 A 
ATOM     35  C   UNL     1      -6.455   6.766  10.200  1.00  0.00     0.010 A 
ATOM     36  C   UNL     1      -6.370   4.448   9.480  1.00  0.00     0.010 A 
ATOM     37  C   UNL     1      -7.114   5.559   9.909  1.00  0.00    -0.014 A 
BRANCH  37  38
ATOM     38  C   UNL     1      -8.586   5.433  10.034  1.00  0.00     0.031 A 
ATOM     39  C   UNL     1      -9.165   4.446  11.004  1.00  0.00     0.074 A 
ATOM     40  C   UNL     1      -9.392   6.130   9.209  1.00  0.00     0.049 A 
ATOM     41  N   UNL     1     -10.414   4.109  11.199  1.00  0.00    -0.248 NA
ATOM     42  C   UNL     1      -8.206   3.702  11.836  1.00  0.00     0.031 C 
ATOM     43  C   UNL     1      -8.946   7.066   8.175  1.00  0.00     0.029 A 
ATOM     44  N   UNL     1     -10.760   6.151   9.107  1.00  0.00    -0.354 N 
ATOM     45  C   UNL     1     -10.384   3.092  12.142  1.00  0.00     0.074 A 
ATOM     46  C   UNL     1      -8.994   2.828  12.441  1.00  0.00     0.031 C 
ATOM     47  C   UNL     1     -10.021   7.600   7.572  1.00  0.00     0.029 A 
ATOM     48  C   UNL     1     -11.228   7.021   8.154  1.00  0.00     0.049 A 
ATOM     49  H   UNL     1     -11.351   5.594   9.665  1.00  0.00     0.167 HD
ATOM     50  C   UNL     1     -11.425   2.453  12.727  1.00  0.00     0.037 A 
ATOM     51  C   UNL     1     -12.492   7.322   7.799  1.00  0.00     0.037 A 
ATOM     52  C   UNL     1     -12.805   2.765  12.474  1.00  0.00     0.049 A 
ATOM     53  C   UNL     1     -13.632   6.636   8.499  1.00  0.00     0.074 A 
ATOM     54  C   UNL     1     -13.933   2.255  13.090  1.00  0.00     0.029 A 
ATOM     55  N   UNL     1     -13.241   3.682  11.528  1.00  0.00    -0.354 N 
ATOM     56  N   UNL     1     -13.597   5.735   9.450  1.00  0.00    -0.248 NA
ATOM     57  C   UNL     1     -14.989   7.013   8.079  1.00  0.00     0.031 C 
ATOM     58  C   UNL     1     -15.056   2.843  12.496  1.00  0.00     0.029 A 
ATOM     59  C   UNL     1     -14.625   3.742  11.533  1.00  0.00     0.049 A 
ATOM     60  H   UNL     1     -12.655   4.210  10.941  1.00  0.00     0.167 HD
ATOM     61  C   UNL     1     -14.920   5.457   9.762  1.00  0.00     0.074 A 
ATOM     62  C   UNL     1     -15.735   6.292   8.904  1.00  0.00     0.031 C 
ATOM     63  C   UNL     1     -15.415   4.590  10.678  1.00  0.00     0.037 A 
BRANCH  50  64
ATOM     64  C   UNL     1     -11.097   1.362  13.702  1.00  0.00     0.064 A 
ATOM     65  C   UNL     1     -10.521   1.639  14.951  1.00  0.00     0.173 A 
ATOM     66  C   UNL     1     -11.351   0.021  13.378  1.00  0.00     0.173 A 
ATOM     67  F   UNL     1     -10.242   2.904  15.300  1.00  0.00    -0.203 F 
ATOM     68  C   UNL     1     -10.171   0.612  15.822  1.00  0.00     0.198 A 
ATOM     69  C   UNL     1     -11.028  -1.002  14.266  1.00  0.00     0.198 A 
ATOM     70  F   UNL     1     -11.902  -0.298  12.198  1.00  0.00    -0.203 F 
ATOM     71  F   UNL     1      -9.561   0.897  16.981  1.00  0.00    -0.200 F 
ATOM     72  C   UNL     1     -10.428  -0.708  15.481  1.00  0.00     0.200 A 
ATOM     73  F   UNL     1     -11.284  -2.276  13.938  1.00  0.00    -0.200 F 
ATOM     74  F   UNL     1     -10.085  -1.696  16.318  1.00  0.00    -0.200 F 
ENDBRANCH  50  64
BRANCH  51  75
ATOM     75  C   UNL     1     -12.746   8.368   6.776  1.00  0.00     0.064 A 
ATOM     76  C   UNL     1     -13.238   9.625   7.155  1.00  0.00     0.173 A 
ATOM     77  C   UNL     1     -12.498   8.145   5.415  1.00  0.00     0.173 A 
ATOM     78  F   UNL     1     -13.507   9.876   8.444  1.00  0.00    -0.203 F 
ATOM     79  C   UNL     1     -13.486  10.617   6.209  1.00  0.00     0.198 A 
ATOM     80  C   UNL     1     -12.727   9.145   4.471  1.00  0.00     0.198 A 
ATOM     81  F   UNL     1     -12.022   6.961   5.004  1.00  0.00    -0.203 F 
ATOM     82  F   UNL     1     -13.986  11.798   6.595  1.00  0.00    -0.200 F 
ATOM     83  C   UNL     1     -13.225  10.378   4.868  1.00  0.00     0.200 A 
ATOM     84  F   UNL     1     -12.465   8.916   3.177  1.00  0.00    -0.200 F 
ATOM     85  F   UNL     1     -13.459  11.333   3.958  1.00  0.00    -0.200 F 
ENDBRANCH  51  75
BRANCH  63  86
ATOM     86  C   UNL     1     -16.905   4.525  10.825  1.00  0.00     0.064 A 
ATOM     87  C   UNL     1     -17.707   3.880   9.873  1.00  0.00     0.173 A 
ATOM     88  C   UNL     1     -17.530   5.073  11.954  1.00  0.00     0.173 A 
ATOM     89  F   UNL     1     -17.154   3.356   8.768  1.00  0.00    -0.203 F 
ATOM     90  C   UNL     1     -19.086   3.800  10.040  1.00  0.00     0.198 A 
ATOM     91  C   UNL     1     -18.906   4.969  12.130  1.00  0.00     0.198 A 
ATOM     92  F   UNL     1     -16.803   5.696  12.894  1.00  0.00    -0.203 F 
ATOM     93  F   UNL     1     -19.839   3.210   9.101  1.00  0.00    -0.200 F 
ATOM     94  C   UNL     1     -19.684   4.337  11.171  1.00  0.00     0.200 A 
ATOM     95  F   UNL     1     -19.481   5.481  13.227  1.00  0.00    -0.200 F 
ATOM     96  F   UNL     1     -21.011   4.252  11.333  1.00  0.00    -0.200 F 
ENDBRANCH  63  86
ENDBRANCH  37  38
ENDBRANCH  29  32
ENDBRANCH  27  28
ENDBRANCH  26  27
ENDBRANCH   1  26
TORSDOF 16
