REMARK SMILES C[C@H](C(=O)NCCCCNC(=O)c1ccc(-c2c3nc(c(-c4c(F)c(F)c(F)c(F)c4F)c4ccc([nH]4)c(-c4c(F)c(F)c(F)c(F)c4F)c4nc(c(-c5c(F)c(F)c(F)c(F)c5F)c5ccc2[nH]5)C=C4)C=C3)cc1)[C@@H](C)Sc1ccc2c(c1)OCCCO2
REMARK SMILES IDX 3 1 4 2 5 3 2 5 1 6 76 7 77 8 78 9 79 10 80 11 84 12 81 13
REMARK SMILES IDX 83 14 82 15 85 16 86 17 87 18 89 20 88 21 6 23 7 24 8 25
REMARK SMILES IDX 9 26 10 27 11 28 12 30 13 31 14 32 75 33 15 34 74 35 16 36
REMARK SMILES IDX 17 37 18 38 68 39 19 40 73 41 67 42 69 43 20 44 72 45 66 46
REMARK SMILES IDX 65 47 21 49 53 50 33 51 52 52 34 53 37 54 51 55 70 56 35 57
REMARK SMILES IDX 36 58 50 60 71 61 38 62 22 63 23 64 31 65 24 66 25 67 29 68
REMARK SMILES IDX 32 69 26 70 27 71 30 72 28 73 54 74 55 75 63 76 56 77 57 78
REMARK SMILES IDX 61 79 64 80 58 81 59 82 62 83 60 84 39 85 40 86 48 87 41 88
REMARK SMILES IDX 42 89 46 90 49 91 43 92 44 93 47 94 45 95
REMARK H PARENT 5 4 10 29 69 48 37 59
REMARK Flexibility Score: 80.00
ROOT
ATOM      1  C   UNL     1       0.548  -0.025   0.220  1.00  0.00     0.223 C 
ATOM      2  O   UNL     1       1.759   0.206   0.075  1.00  0.00    -0.275 OA
ATOM      3  N   UNL     1      -0.235   0.469  -0.776  1.00  0.00    -0.356 N 
ATOM      4  H   UNL     1       0.215   1.167  -1.304  1.00  0.00     0.163 HD
ENDROOT
BRANCH   1   5
ATOM      5  C   UNL     1       0.097  -0.763   1.512  1.00  0.00     0.088 C 
ATOM      6  C   UNL     1       0.609   0.094   2.682  1.00  0.00     0.019 C 
BRANCH   5   7
ATOM      7  C   UNL     1      -1.374  -1.218   1.614  1.00  0.00     0.061 C 
ATOM      8  C   UNL     1      -1.612  -2.360   0.606  1.00  0.00     0.020 C 
BRANCH   7   9
ATOM      9  S   UNL     1      -2.139  -1.649   3.288  1.00  0.00    -0.122 SA
BRANCH   9  10
ATOM     10  C   UNL     1      -1.391  -3.227   3.635  1.00  0.00     0.011 A 
ATOM     11  C   UNL     1      -1.786  -4.359   2.907  1.00  0.00     0.019 A 
ATOM     12  C   UNL     1      -0.258  -3.268   4.443  1.00  0.00     0.065 A 
ATOM     13  C   UNL     1      -0.864  -5.375   2.680  1.00  0.00     0.051 A 
ATOM     14  C   UNL     1       0.639  -4.303   4.250  1.00  0.00     0.162 A 
ATOM     15  C   UNL     1       0.393  -5.249   3.256  1.00  0.00     0.161 A 
BRANCH  14  16
ATOM     16  O   UNL     1       1.835  -4.326   4.907  1.00  0.00    -0.490 OA
BRANCH  16  17
ATOM     17  C   UNL     1       2.804  -3.554   4.202  1.00  0.00     0.233 C 
BRANCH  17  18
ATOM     18  C   UNL     1       3.292  -4.189   2.897  1.00  0.00     0.083 CG0
ATOM     19  G   UNL     1       2.210  -4.770   1.985  1.00  0.00     0.000 G0
ENDBRANCH  17  18
ENDBRANCH  16  17
ENDBRANCH  14  16
BRANCH  15  20
ATOM     20  O   UNL     1       1.462  -5.836   2.618  1.00  0.00    -0.490 OA
BRANCH  20  21
ATOM     21  C   UNL     1       2.210  -4.770   1.985  1.00  0.00     0.233 CG0
ATOM     22  G   UNL     1       3.292  -4.189   2.897  1.00  0.00     0.000 G0
ENDBRANCH  20  21
ENDBRANCH  15  20
ENDBRANCH   9  10
ENDBRANCH   7   9
ENDBRANCH   5   7
ENDBRANCH   1   5
BRANCH   3  23
ATOM     23  C   UNL     1      -1.587   0.198  -1.236  1.00  0.00     0.116 C 
BRANCH  23  24
ATOM     24  C   UNL     1      -2.338   1.410  -1.764  1.00  0.00     0.023 C 
BRANCH  24  25
ATOM     25  C   UNL     1      -2.051   1.781  -3.212  1.00  0.00     0.023 C 
BRANCH  25  26
ATOM     26  C   UNL     1      -2.122   0.643  -4.225  1.00  0.00     0.116 C 
BRANCH  26  27
ATOM     27  N   UNL     1      -3.343  -0.151  -4.162  1.00  0.00    -0.352 N 
ATOM     28  C   UNL     1      -4.151  -0.583  -5.188  1.00  0.00     0.251 C 
ATOM     29  H   UNL     1      -3.630  -0.415  -3.258  1.00  0.00     0.163 HD
ATOM     30  O   UNL     1      -5.179  -1.209  -4.951  1.00  0.00    -0.269 OA
BRANCH  28  31
ATOM     31  C   UNL     1      -3.796  -0.245  -6.581  1.00  0.00     0.039 A 
ATOM     32  C   UNL     1      -4.768   0.323  -7.407  1.00  0.00     0.014 A 
ATOM     33  C   UNL     1      -2.493  -0.431  -7.046  1.00  0.00     0.014 A 
ATOM     34  C   UNL     1      -4.410   0.778  -8.677  1.00  0.00     0.010 A 
ATOM     35  C   UNL     1      -2.117   0.111  -8.269  1.00  0.00     0.010 A 
ATOM     36  C   UNL     1      -3.072   0.713  -9.102  1.00  0.00    -0.014 A 
BRANCH  36  37
ATOM     37  C   UNL     1      -2.658   1.242 -10.425  1.00  0.00     0.031 A 
ATOM     38  C   UNL     1      -2.088   0.309 -11.458  1.00  0.00     0.074 A 
ATOM     39  C   UNL     1      -2.736   2.564 -10.675  1.00  0.00     0.049 A 
ATOM     40  N   UNL     1      -1.632   0.577 -12.656  1.00  0.00    -0.248 NA
ATOM     41  C   UNL     1      -1.981  -1.109 -11.081  1.00  0.00     0.031 C 
ATOM     42  C   UNL     1      -3.207   3.580  -9.732  1.00  0.00     0.029 A 
ATOM     43  N   UNL     1      -2.417   3.280 -11.802  1.00  0.00    -0.354 N 
ATOM     44  C   UNL     1      -1.163  -0.630 -13.157  1.00  0.00     0.074 A 
ATOM     45  C   UNL     1      -1.329  -1.617 -12.115  1.00  0.00     0.031 C 
ATOM     46  C   UNL     1      -3.184   4.781 -10.332  1.00  0.00     0.029 A 
ATOM     47  C   UNL     1      -2.670   4.626 -11.690  1.00  0.00     0.049 A 
ATOM     48  H   UNL     1      -2.042   2.869 -12.614  1.00  0.00     0.167 HD
ATOM     49  C   UNL     1      -0.667  -0.899 -14.388  1.00  0.00     0.037 A 
ATOM     50  C   UNL     1      -2.515   5.617 -12.588  1.00  0.00     0.037 A 
ATOM     51  C   UNL     1      -0.549   0.075 -15.439  1.00  0.00     0.049 A 
ATOM     52  C   UNL     1      -1.996   5.286 -13.961  1.00  0.00     0.074 A 
ATOM     53  C   UNL     1      -0.137  -0.109 -16.747  1.00  0.00     0.029 A 
ATOM     54  N   UNL     1      -0.851   1.422 -15.300  1.00  0.00    -0.354 N 
ATOM     55  N   UNL     1      -1.638   4.125 -14.455  1.00  0.00    -0.248 NA
ATOM     56  C   UNL     1      -1.873   6.403 -14.908  1.00  0.00     0.031 C 
ATOM     57  C   UNL     1      -0.151   1.134 -17.388  1.00  0.00     0.029 A 
ATOM     58  C   UNL     1      -0.618   2.084 -16.494  1.00  0.00     0.049 A 
ATOM     59  H   UNL     1      -1.181   1.845 -14.474  1.00  0.00     0.167 HD
ATOM     60  C   UNL     1      -1.284   4.364 -15.776  1.00  0.00     0.074 A 
ATOM     61  C   UNL     1      -1.482   5.780 -16.010  1.00  0.00     0.031 C 
ATOM     62  C   UNL     1      -0.838   3.491 -16.712  1.00  0.00     0.037 A 
BRANCH  49  63
ATOM     63  C   UNL     1      -0.224  -2.307 -14.663  1.00  0.00     0.064 A 
ATOM     64  C   UNL     1      -1.143  -3.365 -14.754  1.00  0.00     0.173 A 
ATOM     65  C   UNL     1       1.135  -2.602 -14.851  1.00  0.00     0.173 A 
ATOM     66  F   UNL     1      -2.452  -3.140 -14.567  1.00  0.00    -0.203 F 
ATOM     67  C   UNL     1      -0.714  -4.670 -14.985  1.00  0.00     0.198 A 
ATOM     68  C   UNL     1       1.556  -3.902 -15.115  1.00  0.00     0.198 A 
ATOM     69  F   UNL     1       2.055  -1.628 -14.778  1.00  0.00    -0.203 F 
ATOM     70  F   UNL     1      -1.604  -5.671 -15.006  1.00  0.00    -0.200 F 
ATOM     71  C   UNL     1       0.634  -4.936 -15.171  1.00  0.00     0.200 A 
ATOM     72  F   UNL     1       2.858  -4.157 -15.306  1.00  0.00    -0.200 F 
ATOM     73  F   UNL     1       1.045  -6.192 -15.396  1.00  0.00    -0.200 F 
ENDBRANCH  49  63
BRANCH  50  74
ATOM     74  C   UNL     1      -2.910   7.007 -12.241  1.00  0.00     0.064 A 
ATOM     75  C   UNL     1      -4.034   7.600 -12.836  1.00  0.00     0.173 A 
ATOM     76  C   UNL     1      -2.178   7.774 -11.325  1.00  0.00     0.173 A 
ATOM     77  F   UNL     1      -4.756   6.913 -13.734  1.00  0.00    -0.203 F 
ATOM     78  C   UNL     1      -4.395   8.914 -12.546  1.00  0.00     0.198 A 
ATOM     79  C   UNL     1      -2.556   9.079 -11.015  1.00  0.00     0.198 A 
ATOM     80  F   UNL     1      -1.099   7.252 -10.723  1.00  0.00    -0.203 F 
ATOM     81  F   UNL     1      -5.446   9.470 -13.165  1.00  0.00    -0.200 F 
ATOM     82  C   UNL     1      -3.658   9.651 -11.632  1.00  0.00     0.200 A 
ATOM     83  F   UNL     1      -1.849   9.785 -10.121  1.00  0.00    -0.200 F 
ATOM     84  F   UNL     1      -4.006  10.914 -11.352  1.00  0.00    -0.200 F 
ENDBRANCH  50  74
BRANCH  62  85
ATOM     85  C   UNL     1      -0.581   4.032 -18.088  1.00  0.00     0.064 A 
ATOM     86  C   UNL     1       0.511   4.869 -18.360  1.00  0.00     0.173 A 
ATOM     87  C   UNL     1      -1.422   3.679 -19.154  1.00  0.00     0.173 A 
ATOM     88  F   UNL     1       1.336   5.247 -17.372  1.00  0.00    -0.203 F 
ATOM     89  C   UNL     1       0.732   5.359 -19.645  1.00  0.00     0.198 A 
ATOM     90  C   UNL     1      -1.180   4.145 -20.442  1.00  0.00     0.198 A 
ATOM     91  F   UNL     1      -2.475   2.874 -18.947  1.00  0.00    -0.203 F 
ATOM     92  F   UNL     1       1.750   6.200 -19.872  1.00  0.00    -0.200 F 
ATOM     93  C   UNL     1      -0.108   4.992 -20.685  1.00  0.00     0.200 A 
ATOM     94  F   UNL     1      -1.984   3.778 -21.449  1.00  0.00    -0.200 F 
ATOM     95  F   UNL     1       0.109   5.461 -21.921  1.00  0.00    -0.200 F 
ENDBRANCH  62  85
ENDBRANCH  36  37
ENDBRANCH  28  31
ENDBRANCH  26  27
ENDBRANCH  25  26
ENDBRANCH  24  25
ENDBRANCH  23  24
ENDBRANCH   3  23
TORSDOF 14
