REMARK SMILES COc1cc([C@H]2c3c(-c4ccccc4)n[nH]c3C(=O)N2c2ccc(C(=O)NCCCCNC(=O)c3ccc(-c4c5nc(c(-c6c(F)c(F)c(F)c(F)c6F)c6ccc([nH]6)c(-c6c(F)c(F)c(F)c(F)c6F)c6nc(c(-c7c(F)c(F)c(F)c(F)c7F)c7ccc4[nH]7)C=C6)C=C5)cc3)cc2)ccc1O
REMARK SMILES IDX 29 1 28 2 27 3 25 4 26 5 24 7 21 8 22 9 99 10 23 11 98 12
REMARK SMILES IDX 20 13 6 14 7 15 8 16 17 17 18 18 15 19 16 20 19 21 5 23 3 24
REMARK SMILES IDX 4 25 102 26 101 27 100 28 2 29 1 30 103 31 9 33 10 34 14 35
REMARK SMILES IDX 11 36 13 37 12 38 30 39 31 40 32 41 33 42 34 44 35 45 36 46
REMARK SMILES IDX 97 47 37 48 96 49 38 50 39 51 40 52 90 53 41 54 95 55 89 56
REMARK SMILES IDX 91 57 42 58 94 59 88 60 87 61 43 63 75 64 55 65 74 66 56 67
REMARK SMILES IDX 59 68 73 69 92 70 57 71 58 72 72 74 93 75 60 76 44 77 45 78
REMARK SMILES IDX 53 79 46 80 47 81 51 82 54 83 48 84 49 85 52 86 50 87 76 88
REMARK SMILES IDX 77 89 85 90 78 91 79 92 83 93 86 94 80 95 81 96 84 97 82 98
REMARK SMILES IDX 61 99 62 100 70 101 63 102 64 103 68 104 71 105 65 106
REMARK SMILES IDX 66 107 69 108 67 109
REMARK H PARENT 27 6 16 22 103 32 32 43 91 62 59 73
REMARK Flexibility Score: inf
ROOT
ATOM      1  C   UNL     1       4.769  -0.366   9.711  1.00  0.00     0.023 C 
ENDROOT
BRANCH   1   2
ATOM      2  C   UNL     1       5.122  -0.151   8.233  1.00  0.00     0.116 C 
BRANCH   2   3
ATOM      3  N   UNL     1       6.075  -1.137   7.764  1.00  0.00    -0.352 N 
ATOM      4  C   UNL     1       5.947  -2.355   7.143  1.00  0.00     0.251 C 
ATOM      5  O   UNL     1       6.995  -2.942   6.866  1.00  0.00    -0.269 OA
ATOM      6  H   UNL     1       7.012  -0.880   7.926  1.00  0.00     0.163 HD
BRANCH   4   7
ATOM      7  C   UNL     1       4.644  -2.973   6.749  1.00  0.00     0.039 A 
ATOM      8  C   UNL     1       2.282  -4.185   5.797  1.00  0.00     0.045 A 
ATOM      9  C   UNL     1       3.522  -4.663   5.381  1.00  0.00     0.027 A 
ATOM     10  C   UNL     1       2.218  -3.147   6.723  1.00  0.00     0.027 A 
ATOM     11  C   UNL     1       4.692  -4.037   5.829  1.00  0.00     0.016 A 
ATOM     12  C   UNL     1       3.393  -2.590   7.235  1.00  0.00     0.016 A 
BRANCH   8  13
ATOM     13  N   UNL     1       1.097  -4.759   5.325  1.00  0.00    -0.295 N 
ATOM     14  C   UNL     1       0.044  -3.956   4.640  1.00  0.00     0.156 C 
ATOM     15  C   UNL     1      -1.024  -4.979   4.548  1.00  0.00     0.038 A 
ATOM     16  C   UNL     1      -2.353  -5.207   4.160  1.00  0.00     0.099 A 
ATOM     17  C   UNL     1      -0.598  -6.155   5.090  1.00  0.00     0.129 A 
ATOM     18  C   UNL     1       0.741  -6.102   5.564  1.00  0.00     0.277 C 
ATOM     19  N   UNL     1      -2.724  -6.462   4.508  1.00  0.00    -0.174 NA
ATOM     20  N   UNL     1      -1.620  -7.021   5.060  1.00  0.00    -0.272 N 
ATOM     21  O   UNL     1       1.368  -6.989   6.091  1.00  0.00    -0.267 OA
ATOM     22  H   UNL     1      -1.575  -7.946   5.397  1.00  0.00     0.190 HD
BRANCH  14  23
ATOM     23  C   UNL     1       0.442  -3.553   3.233  1.00  0.00    -0.016 A 
ATOM     24  C   UNL     1       0.750  -1.763   1.568  1.00  0.00     0.160 A 
ATOM     25  C   UNL     1       0.375  -2.199   2.852  1.00  0.00     0.056 A 
ATOM     26  C   UNL     1       1.195  -2.715   0.650  1.00  0.00     0.157 A 
ATOM     27  C   UNL     1       1.264  -4.063   1.002  1.00  0.00     0.050 A 
ATOM     28  C   UNL     1       0.908  -4.478   2.285  1.00  0.00     0.010 A 
BRANCH  24  29
ATOM     29  O   UNL     1       0.611  -0.413   1.409  1.00  0.00    -0.493 OA
ATOM     30  C   UNL     1       0.854   0.176   0.142  1.00  0.00     0.278 C 
ENDBRANCH  24  29
BRANCH  26  31
ATOM     31  O   UNL     1       1.605  -2.430  -0.620  1.00  0.00    -0.504 OA
ATOM     32  H   UNL     1       1.589  -1.546  -0.930  1.00  0.00     0.293 HD
ENDBRANCH  26  31
ENDBRANCH  14  23
BRANCH  16  33
ATOM     33  C   UNL     1      -3.281  -4.303   3.496  1.00  0.00     0.002 A 
ATOM     34  C   UNL     1      -4.528  -4.026   4.068  1.00  0.00     0.010 A 
ATOM     35  C   UNL     1      -2.954  -3.731   2.261  1.00  0.00     0.010 A 
ATOM     36  C   UNL     1      -5.426  -3.174   3.422  1.00  0.00     0.001 A 
ATOM     37  C   UNL     1      -3.851  -2.879   1.615  1.00  0.00     0.001 A 
ATOM     38  C   UNL     1      -5.086  -2.599   2.197  1.00  0.00     0.000 A 
ENDBRANCH  16  33
ENDBRANCH   8  13
ENDBRANCH   4   7
ENDBRANCH   2   3
ENDBRANCH   1   2
BRANCH   1  39
ATOM     39  C   UNL     1       5.830   0.115  10.713  1.00  0.00     0.023 C 
BRANCH  39  40
ATOM     40  C   UNL     1       6.030   1.625  10.759  1.00  0.00     0.116 C 
BRANCH  40  41
ATOM     41  N   UNL     1       4.824   2.363  11.161  1.00  0.00    -0.352 N 
ATOM     42  C   UNL     1       4.585   3.725  11.065  1.00  0.00     0.251 C 
ATOM     43  H   UNL     1       4.096   1.823  11.545  1.00  0.00     0.163 HD
ATOM     44  O   UNL     1       3.748   4.286  11.760  1.00  0.00    -0.269 OA
BRANCH  42  45
ATOM     45  C   UNL     1       5.342   4.481  10.058  1.00  0.00     0.039 A 
ATOM     46  C   UNL     1       5.916   5.733  10.300  1.00  0.00     0.014 A 
ATOM     47  C   UNL     1       5.526   3.829   8.848  1.00  0.00     0.014 A 
ATOM     48  C   UNL     1       6.737   6.285   9.318  1.00  0.00     0.010 A 
ATOM     49  C   UNL     1       6.526   4.240   8.024  1.00  0.00     0.010 A 
ATOM     50  C   UNL     1       7.040   5.518   8.184  1.00  0.00    -0.014 A 
BRANCH  50  51
ATOM     51  C   UNL     1       7.946   5.962   7.139  1.00  0.00     0.031 A 
ATOM     52  C   UNL     1       9.324   6.270   7.597  1.00  0.00     0.074 A 
ATOM     53  C   UNL     1       7.620   5.820   5.834  1.00  0.00     0.049 A 
ATOM     54  N   UNL     1       9.915   7.416   7.579  1.00  0.00    -0.248 NA
ATOM     55  C   UNL     1      10.093   5.215   8.278  1.00  0.00     0.031 C 
ATOM     56  C   UNL     1       6.410   5.229   5.240  1.00  0.00     0.029 A 
ATOM     57  N   UNL     1       8.383   6.072   4.740  1.00  0.00    -0.354 N 
ATOM     58  C   UNL     1      11.203   7.194   8.057  1.00  0.00     0.074 A 
ATOM     59  C   UNL     1      11.192   5.879   8.643  1.00  0.00     0.031 C 
ATOM     60  C   UNL     1       6.630   4.948   3.937  1.00  0.00     0.029 A 
ATOM     61  C   UNL     1       7.917   5.496   3.562  1.00  0.00     0.049 A 
ATOM     62  H   UNL     1       9.200   6.620   4.778  1.00  0.00     0.167 HD
ATOM     63  C   UNL     1      12.229   8.016   7.703  1.00  0.00     0.037 A 
ATOM     64  C   UNL     1       8.588   5.448   2.384  1.00  0.00     0.037 A 
ATOM     65  C   UNL     1      11.733   9.246   7.135  1.00  0.00     0.049 A 
ATOM     66  C   UNL     1       9.625   6.516   2.442  1.00  0.00     0.074 A 
ATOM     67  C   UNL     1      10.903  10.252   7.595  1.00  0.00     0.029 A 
ATOM     68  N   UNL     1      11.742   9.376   5.766  1.00  0.00    -0.354 N 
ATOM     69  N   UNL     1       9.335   7.790   2.476  1.00  0.00    -0.248 NA
ATOM     70  C   UNL     1      10.924   6.155   2.997  1.00  0.00     0.031 C 
ATOM     71  C   UNL     1      10.062  10.564   6.484  1.00  0.00     0.029 A 
ATOM     72  C   UNL     1      10.492   9.805   5.395  1.00  0.00     0.049 A 
ATOM     73  H   UNL     1      12.501   9.195   5.165  1.00  0.00     0.167 HD
ATOM     74  C   UNL     1      10.198   8.326   3.422  1.00  0.00     0.074 A 
ATOM     75  C   UNL     1      11.190   7.279   3.670  1.00  0.00     0.031 C 
ATOM     76  C   UNL     1       9.861   9.432   4.151  1.00  0.00     0.037 A 
BRANCH  63  77
ATOM     77  C   UNL     1      13.658   7.572   7.511  1.00  0.00     0.064 A 
ATOM     78  C   UNL     1      14.650   8.548   7.287  1.00  0.00     0.173 A 
ATOM     79  C   UNL     1      14.038   6.243   7.230  1.00  0.00     0.173 A 
ATOM     80  F   UNL     1      14.394   9.846   7.511  1.00  0.00    -0.203 F 
ATOM     81  C   UNL     1      15.891   8.225   6.733  1.00  0.00     0.198 A 
ATOM     82  C   UNL     1      15.297   5.918   6.729  1.00  0.00     0.198 A 
ATOM     83  F   UNL     1      13.179   5.221   7.312  1.00  0.00    -0.203 F 
ATOM     84  F   UNL     1      16.750   9.202   6.410  1.00  0.00    -0.200 F 
ATOM     85  C   UNL     1      16.210   6.911   6.446  1.00  0.00     0.200 A 
ATOM     86  F   UNL     1      15.581   4.639   6.442  1.00  0.00    -0.200 F 
ATOM     87  F   UNL     1      17.371   6.605   5.852  1.00  0.00    -0.200 F 
ENDBRANCH  63  77
BRANCH  64  88
ATOM     88  C   UNL     1       8.614   4.338   1.399  1.00  0.00     0.064 A 
ATOM     89  C   UNL     1       9.119   4.522   0.102  1.00  0.00     0.173 A 
ATOM     90  C   UNL     1       8.387   3.003   1.794  1.00  0.00     0.173 A 
ATOM     91  F   UNL     1       9.407   5.755  -0.340  1.00  0.00    -0.203 F 
ATOM     92  C   UNL     1       9.396   3.438  -0.741  1.00  0.00     0.198 A 
ATOM     93  C   UNL     1       8.659   1.924   0.952  1.00  0.00     0.198 A 
ATOM     94  F   UNL     1       7.979   2.713   3.038  1.00  0.00    -0.203 F 
ATOM     95  F   UNL     1       9.927   3.651  -1.954  1.00  0.00    -0.200 F 
ATOM     96  C   UNL     1       9.175   2.140  -0.312  1.00  0.00     0.200 A 
ATOM     97  F   UNL     1       8.471   0.672   1.394  1.00  0.00    -0.200 F 
ATOM     98  F   UNL     1       9.492   1.100  -1.096  1.00  0.00    -0.200 F 
ENDBRANCH  64  88
BRANCH  76  99
ATOM     99  C   UNL     1       8.612  10.184   3.776  1.00  0.00     0.064 A 
ATOM    100  C   UNL     1       7.316   9.639   3.831  1.00  0.00     0.173 A 
ATOM    101  C   UNL     1       8.714  11.557   3.520  1.00  0.00     0.173 A 
ATOM    102  F   UNL     1       7.119   8.363   4.174  1.00  0.00    -0.203 F 
ATOM    103  C   UNL     1       6.185  10.422   3.601  1.00  0.00     0.198 A 
ATOM    104  C   UNL     1       7.582  12.345   3.325  1.00  0.00     0.198 A 
ATOM    105  F   UNL     1       9.918  12.150   3.515  1.00  0.00    -0.203 F 
ATOM    106  F   UNL     1       4.963   9.870   3.657  1.00  0.00    -0.200 F 
ATOM    107  C   UNL     1       6.319  11.776   3.355  1.00  0.00     0.200 A 
ATOM    108  F   UNL     1       7.715  13.665   3.140  1.00  0.00    -0.200 F 
ATOM    109  F   UNL     1       5.231  12.539   3.175  1.00  0.00    -0.200 F 
ENDBRANCH  76  99
ENDBRANCH  50  51
ENDBRANCH  42  45
ENDBRANCH  40  41
ENDBRANCH  39  40
ENDBRANCH   1  39
TORSDOF 16
