REMARK SMILES Cc1ccc(O[C@H](C)C(=O)NNC(=O)[C@@H]2[C@@H](C(=O)NCCCCNC(=O)c3ccc(-c4c5nc(c(-c6c(F)c(F)c(F)c(F)c6F)c6ccc([nH]6)c(-c6c(F)c(F)c(F)c(F)c6F)c6nc(c(-c7c(F)c(F)c(F)c(F)c7F)c7ccc4[nH]7)C=C6)C=C5)cc3)[C@@H]3C=C[C@H]2C3)cc1C
REMARK SMILES IDX 20 1 19 2 17 3 18 4 16 6 15 7 93 8 90 9 92 10 94 11 91 12
REMARK SMILES IDX 13 13 12 14 14 16 11 17 9 18 10 19 7 21 8 22 6 23 5 24 1 25
REMARK SMILES IDX 2 26 3 27 96 28 4 29 95 30 97 31 21 32 22 33 23 34 24 35
REMARK SMILES IDX 25 36 26 38 27 39 28 40 89 41 29 42 88 43 30 44 31 45 32 46
REMARK SMILES IDX 82 47 33 48 87 49 81 50 83 51 34 52 86 53 80 54 79 55 35 57
REMARK SMILES IDX 67 58 47 59 66 60 48 61 51 62 65 63 84 64 49 65 50 66 64 68
REMARK SMILES IDX 85 69 52 70 36 71 37 72 45 73 38 74 39 75 43 76 46 77 40 78
REMARK SMILES IDX 41 79 44 80 42 81 68 82 69 83 77 84 70 85 71 86 75 87 78 88
REMARK SMILES IDX 72 89 73 90 76 91 74 92 53 93 54 94 62 95 55 96 56 97 60 98
REMARK SMILES IDX 63 99 57 100 58 101 61 102 59 103
REMARK H PARENT 19 5 12 15 11 20 24 37 83 56 51 67
REMARK Flexibility Score: inf
ROOT
ATOM      1  C   UNL     1       0.674   4.737   0.052  1.00  0.00     0.116 C 
ENDROOT
BRANCH   1   2
ATOM      2  N   UNL     1       0.467   5.466  -1.179  1.00  0.00    -0.356 N 
ATOM      3  C   UNL     1      -0.664   5.599  -1.923  1.00  0.00     0.224 C 
ATOM      4  O   UNL     1      -0.584   6.293  -2.938  1.00  0.00    -0.275 OA
ATOM      5  H   UNL     1       1.259   5.934  -1.530  1.00  0.00     0.163 HD
BRANCH   3   6
ATOM      6  C   UNL     1      -1.967   4.922  -1.491  1.00  0.00     0.098 C 
ATOM      7  C   UNL     1      -2.054   3.388  -1.881  1.00  0.00     0.100 C 
ATOM      8  C   UNL     1      -3.268   3.375  -2.850  1.00  0.00     0.025 C 
ATOM      9  C   UNL     1      -3.161   5.528  -2.281  1.00  0.00     0.025 C 
ATOM     10  C   UNL     1      -4.519   3.679  -2.068  1.00  0.00    -0.027 C 
ATOM     11  C   UNL     1      -3.119   4.714  -3.574  1.00  0.00     0.017 C 
ATOM     12  C   UNL     1      -4.446   4.968  -1.706  1.00  0.00    -0.027 C 
BRANCH   7  13
ATOM     13  C   UNL     1      -2.154   2.507  -0.623  1.00  0.00     0.242 C 
ATOM     14  N   UNL     1      -2.546   1.199  -0.654  1.00  0.00    -0.267 N 
ATOM     15  H   UNL     1      -2.302   0.646   0.123  1.00  0.00     0.191 HD
ATOM     16  O   UNL     1      -1.761   2.914   0.475  1.00  0.00    -0.273 OA
BRANCH  14  17
ATOM     17  N   UNL     1      -3.250   0.571  -1.663  1.00  0.00    -0.264 N 
ATOM     18  C   UNL     1      -4.167  -0.429  -1.437  1.00  0.00     0.279 C 
ATOM     19  O   UNL     1      -4.920  -0.758  -2.357  1.00  0.00    -0.269 OA
ATOM     20  H   UNL     1      -3.087   0.853  -2.592  1.00  0.00     0.191 HD
BRANCH  18  21
ATOM     21  C   UNL     1      -4.139  -1.210  -0.107  1.00  0.00     0.260 C 
ATOM     22  C   UNL     1      -2.847  -2.037  -0.081  1.00  0.00     0.064 C 
BRANCH  21  23
ATOM     23  O   UNL     1      -4.228  -0.348   1.030  1.00  0.00    -0.481 OA
BRANCH  23  24
ATOM     24  C   UNL     1      -4.505  -0.912   2.252  1.00  0.00     0.120 A 
ATOM     25  C   UNL     1      -5.143  -2.407   6.271  1.00  0.00     0.044 C 
ATOM     26  C   UNL     1      -4.938  -1.845   4.891  1.00  0.00    -0.048 A 
ATOM     27  C   UNL     1      -4.994  -2.715   3.794  1.00  0.00     0.007 A 
ATOM     28  C   UNL     1      -4.693  -0.479   4.660  1.00  0.00    -0.045 A 
ATOM     29  C   UNL     1      -4.790  -2.253   2.490  1.00  0.00     0.047 A 
ATOM     30  C   UNL     1      -4.475  -0.032   3.339  1.00  0.00     0.050 A 
ATOM     31  C   UNL     1      -4.660   0.541   5.767  1.00  0.00     0.045 C 
ENDBRANCH  23  24
ENDBRANCH  21  23
ENDBRANCH  18  21
ENDBRANCH  14  17
ENDBRANCH   7  13
ENDBRANCH   3   6
ENDBRANCH   1   2
BRANCH   1  32
ATOM     32  C   UNL     1       1.245   3.347  -0.224  1.00  0.00     0.023 C 
BRANCH  32  33
ATOM     33  C   UNL     1       2.743   3.334  -0.538  1.00  0.00     0.023 C 
BRANCH  33  34
ATOM     34  C   UNL     1       3.636   3.857   0.581  1.00  0.00     0.116 C 
BRANCH  34  35
ATOM     35  N   UNL     1       3.445   3.167   1.848  1.00  0.00    -0.352 N 
ATOM     36  C   UNL     1       4.364   2.957   2.847  1.00  0.00     0.251 C 
ATOM     37  H   UNL     1       2.544   2.806   2.010  1.00  0.00     0.163 HD
ATOM     38  O   UNL     1       4.085   2.272   3.826  1.00  0.00    -0.269 OA
BRANCH  36  39
ATOM     39  C   UNL     1       5.715   3.530   2.705  1.00  0.00     0.039 A 
ATOM     40  C   UNL     1       6.821   2.690   2.856  1.00  0.00     0.014 A 
ATOM     41  C   UNL     1       5.884   4.877   2.374  1.00  0.00     0.014 A 
ATOM     42  C   UNL     1       8.099   3.186   2.603  1.00  0.00     0.010 A 
ATOM     43  C   UNL     1       7.151   5.351   2.056  1.00  0.00     0.010 A 
ATOM     44  C   UNL     1       8.268   4.510   2.165  1.00  0.00    -0.014 A 
BRANCH  44  45
ATOM     45  C   UNL     1       9.608   5.036   1.812  1.00  0.00     0.031 A 
ATOM     46  C   UNL     1      10.216   6.143   2.625  1.00  0.00     0.074 A 
ATOM     47  C   UNL     1      10.238   4.571   0.717  1.00  0.00     0.049 A 
ATOM     48  N   UNL     1      11.334   6.794   2.432  1.00  0.00    -0.248 NA
ATOM     49  C   UNL     1       9.448   6.600   3.794  1.00  0.00     0.031 C 
ATOM     50  C   UNL     1       9.720   3.539  -0.183  1.00  0.00     0.029 A 
ATOM     51  N   UNL     1      11.446   4.916   0.166  1.00  0.00    -0.354 N 
ATOM     52  C   UNL     1      11.392   7.748   3.438  1.00  0.00     0.074 A 
ATOM     53  C   UNL     1      10.175   7.625   4.211  1.00  0.00     0.031 C 
ATOM     54  C   UNL     1      10.613   3.321  -1.162  1.00  0.00     0.029 A 
ATOM     55  C   UNL     1      11.750   4.217  -0.976  1.00  0.00     0.049 A 
ATOM     56  H   UNL     1      12.039   5.600   0.553  1.00  0.00     0.167 HD
ATOM     57  C   UNL     1      12.382   8.633   3.705  1.00  0.00     0.037 A 
ATOM     58  C   UNL     1      12.826   4.294  -1.781  1.00  0.00     0.037 A 
ATOM     59  C   UNL     1      13.606   8.725   2.956  1.00  0.00     0.049 A 
ATOM     60  C   UNL     1      13.926   5.263  -1.444  1.00  0.00     0.074 A 
ATOM     61  C   UNL     1      14.700   9.540   3.186  1.00  0.00     0.029 A 
ATOM     62  N   UNL     1      13.898   7.970   1.830  1.00  0.00    -0.354 N 
ATOM     63  N   UNL     1      14.001   6.114  -0.450  1.00  0.00    -0.248 NA
ATOM     64  C   UNL     1      15.094   5.275  -2.335  1.00  0.00     0.031 C 
ATOM     65  C   UNL     1      15.642   9.300   2.179  1.00  0.00     0.029 A 
ATOM     66  C   UNL     1      15.152   8.308   1.346  1.00  0.00     0.049 A 
ATOM     67  H   UNL     1      13.303   7.293   1.433  1.00  0.00     0.167 HD
ATOM     68  C   UNL     1      15.231   6.744  -0.579  1.00  0.00     0.074 A 
ATOM     69  C   UNL     1      15.875   6.167  -1.741  1.00  0.00     0.031 C 
ATOM     70  C   UNL     1      15.779   7.712   0.195  1.00  0.00     0.037 A 
BRANCH  57  71
ATOM     71  C   UNL     1      12.181   9.563   4.864  1.00  0.00     0.064 A 
ATOM     72  C   UNL     1      12.219   9.104   6.189  1.00  0.00     0.173 A 
ATOM     73  C   UNL     1      11.975  10.934   4.650  1.00  0.00     0.173 A 
ATOM     74  F   UNL     1      12.399   7.799   6.446  1.00  0.00    -0.203 F 
ATOM     75  C   UNL     1      12.027   9.977   7.256  1.00  0.00     0.198 A 
ATOM     76  C   UNL     1      11.811  11.809   5.721  1.00  0.00     0.198 A 
ATOM     77  F   UNL     1      11.934  11.426   3.403  1.00  0.00    -0.203 F 
ATOM     78  F   UNL     1      12.017   9.507   8.511  1.00  0.00    -0.200 F 
ATOM     79  C   UNL     1      11.829  11.329   7.022  1.00  0.00     0.200 A 
ATOM     80  F   UNL     1      11.631  13.118   5.493  1.00  0.00    -0.200 F 
ATOM     81  F   UNL     1      11.649  12.169   8.050  1.00  0.00    -0.200 F 
ENDBRANCH  57  71
BRANCH  58  82
ATOM     82  C   UNL     1      12.933   3.401  -2.962  1.00  0.00     0.064 A 
ATOM     83  C   UNL     1      13.850   2.340  -2.978  1.00  0.00     0.173 A 
ATOM     84  C   UNL     1      12.126   3.583  -4.093  1.00  0.00     0.173 A 
ATOM     85  F   UNL     1      14.657   2.138  -1.925  1.00  0.00    -0.203 F 
ATOM     86  C   UNL     1      13.969   1.508  -4.088  1.00  0.00     0.198 A 
ATOM     87  C   UNL     1      12.229   2.735  -5.194  1.00  0.00     0.198 A 
ATOM     88  F   UNL     1      11.229   4.580  -4.125  1.00  0.00    -0.203 F 
ATOM     89  F   UNL     1      14.881   0.526  -4.092  1.00  0.00    -0.200 F 
ATOM     90  C   UNL     1      13.155   1.702  -5.193  1.00  0.00     0.200 A 
ATOM     91  F   UNL     1      11.431   2.918  -6.255  1.00  0.00    -0.200 F 
ATOM     92  F   UNL     1      13.267   0.899  -6.260  1.00  0.00    -0.200 F 
ENDBRANCH  58  82
BRANCH  70  93
ATOM     93  C   UNL     1      17.154   8.184  -0.169  1.00  0.00     0.064 A 
ATOM     94  C   UNL     1      17.378   9.007  -1.281  1.00  0.00     0.173 A 
ATOM     95  C   UNL     1      18.255   7.841   0.631  1.00  0.00     0.173 A 
ATOM     96  F   UNL     1      16.358   9.348  -2.084  1.00  0.00    -0.203 F 
ATOM     97  C   UNL     1      18.659   9.454  -1.592  1.00  0.00     0.198 A 
ATOM     98  C   UNL     1      19.530   8.311   0.331  1.00  0.00     0.198 A 
ATOM     99  F   UNL     1      18.091   7.060   1.709  1.00  0.00    -0.203 F 
ATOM    100  F   UNL     1      18.857  10.207  -2.683  1.00  0.00    -0.200 F 
ATOM    101  C   UNL     1      19.732   9.112  -0.782  1.00  0.00     0.200 A 
ATOM    102  F   UNL     1      20.564   7.989   1.121  1.00  0.00    -0.200 F 
ATOM    103  F   UNL     1      20.963   9.549  -1.080  1.00  0.00    -0.200 F 
ENDBRANCH  70  93
ENDBRANCH  44  45
ENDBRANCH  36  39
ENDBRANCH  34  35
ENDBRANCH  33  34
ENDBRANCH  32  33
ENDBRANCH   1  32
TORSDOF 16
