REMARK SMILES C[C@@H](Sc1nc(-c2ccc3c(c2)OCO3)ccc1C#N)C(=O)NCCCCNC(=O)c1ccc(-c2c3nc(c(-c4c(F)c(F)c(F)c(F)c4F)c4ccc([nH]4)c(-c4c(F)c(F)c(F)c(F)c4F)c4nc(c(-c5c(F)c(F)c(F)c(F)c5F)c5ccc2[nH]5)C=C4)C=C3)cc1
REMARK SMILES IDX 25 1 24 2 23 3 21 4 22 5 2 7 1 8 3 9 4 10 5 11 18 12 6 13
REMARK SMILES IDX 17 14 16 15 19 16 20 17 7 18 8 19 12 20 9 21 11 22 10 23
REMARK SMILES IDX 13 24 15 25 14 26 26 27 27 28 28 29 29 30 30 32 31 33 32 34
REMARK SMILES IDX 93 35 33 36 92 37 34 38 35 39 36 40 86 41 37 42 91 43 85 44
REMARK SMILES IDX 87 45 38 46 90 47 84 48 83 49 39 51 71 52 51 53 70 54 52 55
REMARK SMILES IDX 55 56 69 57 88 58 53 59 54 60 68 62 89 63 56 64 40 65 41 66
REMARK SMILES IDX 49 67 42 68 43 69 47 70 50 71 44 72 45 73 48 74 46 75 72 76
REMARK SMILES IDX 73 77 81 78 74 79 75 80 79 81 82 82 76 83 77 84 80 85 78 86
REMARK SMILES IDX 57 87 58 88 66 89 59 90 60 91 64 92 67 93 61 94 62 95 65 96
REMARK SMILES IDX 63 97
REMARK H PARENT 23 6 28 31 87 50 55 61
REMARK Flexibility Score: inf
ROOT
ATOM      1  C   UNL     1      -1.358   0.139   2.663  1.00  0.00     0.023 C 
ENDROOT
BRANCH   1   2
ATOM      2  C   UNL     1      -0.990  -1.171   1.980  1.00  0.00     0.116 C 
BRANCH   2   3
ATOM      3  N   UNL     1      -1.498  -1.230   0.620  1.00  0.00    -0.355 N 
ATOM      4  C   UNL     1      -0.820  -1.321  -0.566  1.00  0.00     0.233 C 
ATOM      5  O   UNL     1      -1.488  -1.374  -1.603  1.00  0.00    -0.274 OA
ATOM      6  H   UNL     1      -2.479  -1.200   0.539  1.00  0.00     0.163 HD
BRANCH   4   7
ATOM      7  C   UNL     1       0.717  -1.336  -0.609  1.00  0.00     0.139 C 
ATOM      8  C   UNL     1       1.254   0.011  -0.134  1.00  0.00     0.030 C 
BRANCH   7   9
ATOM      9  S   UNL     1       1.239  -2.894   0.243  1.00  0.00    -0.092 SA
BRANCH   9  10
ATOM     10  C   UNL     1       3.017  -2.899   0.221  1.00  0.00     0.115 A 
ATOM     11  N   UNL     1       3.643  -1.699   0.249  1.00  0.00    -0.240 NA
ATOM     12  C   UNL     1       3.713  -4.108   0.301  1.00  0.00     0.084 A 
ATOM     13  C   UNL     1       4.997  -1.677   0.325  1.00  0.00     0.072 A 
ATOM     14  C   UNL     1       5.104  -4.069   0.402  1.00  0.00     0.024 A 
ATOM     15  C   UNL     1       5.754  -2.841   0.413  1.00  0.00     0.030 A 
BRANCH  12  16
ATOM     16  C   UNL     1       3.056  -5.382   0.300  1.00  0.00     0.102 C 
ATOM     17  N   UNL     1       2.560  -6.429   0.302  1.00  0.00    -0.192 NA
ENDBRANCH  12  16
BRANCH  13  18
ATOM     18  C   UNL     1       5.635  -0.357   0.289  1.00  0.00     0.004 A 
ATOM     19  C   UNL     1       6.567  -0.049  -0.735  1.00  0.00     0.014 A 
ATOM     20  C   UNL     1       5.366   0.610   1.274  1.00  0.00     0.061 A 
ATOM     21  C   UNL     1       7.237   1.178  -0.771  1.00  0.00     0.051 A 
ATOM     22  C   UNL     1       6.053   1.808   1.222  1.00  0.00     0.166 A 
ATOM     23  C   UNL     1       6.963   2.081   0.229  1.00  0.00     0.165 A 
ATOM     24  O   UNL     1       5.942   2.830   2.114  1.00  0.00    -0.454 OA
ATOM     25  O   UNL     1       7.536   3.306   0.368  1.00  0.00    -0.454 OA
ATOM     26  C   UNL     1       6.910   3.761   1.584  1.00  0.00     0.468 C 
ENDBRANCH  13  18
ENDBRANCH   9  10
ENDBRANCH   7   9
ENDBRANCH   4   7
ENDBRANCH   2   3
ENDBRANCH   1   2
BRANCH   1  27
ATOM     27  C   UNL     1      -2.844   0.274   2.985  1.00  0.00     0.023 C 
BRANCH  27  28
ATOM     28  C   UNL     1      -3.413  -0.851   3.841  1.00  0.00     0.116 C 
BRANCH  28  29
ATOM     29  N   UNL     1      -2.744  -0.977   5.129  1.00  0.00    -0.352 N 
ATOM     30  C   UNL     1      -3.296  -1.046   6.385  1.00  0.00     0.251 C 
ATOM     31  H   UNL     1      -1.761  -1.017   5.094  1.00  0.00     0.163 HD
ATOM     32  O   UNL     1      -2.585  -0.990   7.382  1.00  0.00    -0.269 OA
BRANCH  30  33
ATOM     33  C   UNL     1      -4.762  -1.156   6.524  1.00  0.00     0.039 A 
ATOM     34  C   UNL     1      -5.418  -0.329   7.437  1.00  0.00     0.014 A 
ATOM     35  C   UNL     1      -5.489  -2.045   5.727  1.00  0.00     0.014 A 
ATOM     36  C   UNL     1      -6.812  -0.343   7.499  1.00  0.00     0.010 A 
ATOM     37  C   UNL     1      -6.878  -1.989   5.723  1.00  0.00     0.010 A 
ATOM     38  C   UNL     1      -7.555  -1.140   6.612  1.00  0.00    -0.014 A 
BRANCH  38  39
ATOM     39  C   UNL     1      -9.039  -1.094   6.598  1.00  0.00     0.031 A 
ATOM     40  C   UNL     1      -9.838  -2.328   6.912  1.00  0.00     0.074 A 
ATOM     41  C   UNL     1      -9.668   0.046   6.250  1.00  0.00     0.049 A 
ATOM     42  N   UNL     1     -11.136  -2.499   6.902  1.00  0.00    -0.248 NA
ATOM     43  C   UNL     1      -9.078  -3.539   7.258  1.00  0.00     0.031 C 
ATOM     44  C   UNL     1      -9.004   1.297   5.878  1.00  0.00     0.029 A 
ATOM     45  N   UNL     1     -11.005   0.337   6.144  1.00  0.00    -0.354 N 
ATOM     46  C   UNL     1     -11.344  -3.831   7.233  1.00  0.00     0.074 A 
ATOM     47  C   UNL     1     -10.040  -4.441   7.371  1.00  0.00     0.031 C 
ATOM     48  C   UNL     1      -9.935   2.227   5.614  1.00  0.00     0.029 A 
ATOM     49  C   UNL     1     -11.259   1.627   5.746  1.00  0.00     0.049 A 
ATOM     50  H   UNL     1     -11.716  -0.317   6.334  1.00  0.00     0.167 HD
ATOM     51  C   UNL     1     -12.516  -4.480   7.433  1.00  0.00     0.037 A 
ATOM     52  C   UNL     1     -12.426   2.253   5.501  1.00  0.00     0.037 A 
ATOM     53  C   UNL     1     -13.812  -3.867   7.297  1.00  0.00     0.049 A 
ATOM     54  C   UNL     1     -13.715   1.497   5.690  1.00  0.00     0.074 A 
ATOM     55  C   UNL     1     -15.058  -4.426   7.519  1.00  0.00     0.029 A 
ATOM     56  N   UNL     1     -14.029  -2.558   6.890  1.00  0.00    -0.354 N 
ATOM     57  N   UNL     1     -13.901   0.257   6.075  1.00  0.00    -0.248 NA
ATOM     58  C   UNL     1     -14.958   2.230   5.416  1.00  0.00     0.031 C 
ATOM     59  C   UNL     1     -16.029  -3.480   7.178  1.00  0.00     0.029 A 
ATOM     60  C   UNL     1     -15.390  -2.303   6.822  1.00  0.00     0.049 A 
ATOM     61  H   UNL     1     -13.321  -1.907   6.680  1.00  0.00     0.167 HD
ATOM     62  C   UNL     1     -15.276   0.073   6.122  1.00  0.00     0.074 A 
ATOM     63  C   UNL     1     -15.878   1.334   5.743  1.00  0.00     0.031 C 
ATOM     64  C   UNL     1     -15.978  -1.041   6.449  1.00  0.00     0.037 A 
BRANCH  51  65
ATOM     65  C   UNL     1     -12.450  -5.934   7.812  1.00  0.00     0.064 A 
ATOM     66  C   UNL     1     -11.929  -6.353   9.047  1.00  0.00     0.173 A 
ATOM     67  C   UNL     1     -12.947  -6.919   6.946  1.00  0.00     0.173 A 
ATOM     68  F   UNL     1     -11.432  -5.454   9.911  1.00  0.00    -0.203 F 
ATOM     69  C   UNL     1     -11.872  -7.703   9.382  1.00  0.00     0.198 A 
ATOM     70  C   UNL     1     -12.925  -8.266   7.301  1.00  0.00     0.198 A 
ATOM     71  F   UNL     1     -13.464  -6.577   5.756  1.00  0.00    -0.203 F 
ATOM     72  F   UNL     1     -11.314  -8.081  10.540  1.00  0.00    -0.200 F 
ATOM     73  C   UNL     1     -12.378  -8.657   8.513  1.00  0.00     0.200 A 
ATOM     74  F   UNL     1     -13.432  -9.185   6.468  1.00  0.00    -0.200 F 
ATOM     75  F   UNL     1     -12.332  -9.956   8.841  1.00  0.00    -0.200 F 
ENDBRANCH  51  65
BRANCH  52  76
ATOM     76  C   UNL     1     -12.433   3.673   5.056  1.00  0.00     0.064 A 
ATOM     77  C   UNL     1     -12.964   4.685   5.869  1.00  0.00     0.173 A 
ATOM     78  C   UNL     1     -11.922   4.046   3.804  1.00  0.00     0.173 A 
ATOM     79  F   UNL     1     -13.482   4.378   7.067  1.00  0.00    -0.203 F 
ATOM     80  C   UNL     1     -13.012   6.008   5.434  1.00  0.00     0.198 A 
ATOM     81  C   UNL     1     -11.936   5.375   3.386  1.00  0.00     0.198 A 
ATOM     82  F   UNL     1     -11.396   3.120   2.989  1.00  0.00    -0.203 F 
ATOM     83  F   UNL     1     -13.579   6.944   6.207  1.00  0.00    -0.200 F 
ATOM     84  C   UNL     1     -12.492   6.353   4.196  1.00  0.00     0.200 A 
ATOM     85  F   UNL     1     -11.414   5.706   2.197  1.00  0.00    -0.200 F 
ATOM     86  F   UNL     1     -12.534   7.626   3.780  1.00  0.00    -0.200 F 
ENDBRANCH  52  76
BRANCH  64  87
ATOM     87  C   UNL     1     -17.478  -0.936   6.461  1.00  0.00     0.064 A 
ATOM     88  C   UNL     1     -18.221  -0.773   5.282  1.00  0.00     0.173 A 
ATOM     89  C   UNL     1     -18.184  -1.041   7.670  1.00  0.00     0.173 A 
ATOM     90  F   UNL     1     -17.597  -0.654   4.100  1.00  0.00    -0.203 F 
ATOM     91  C   UNL     1     -19.611  -0.684   5.318  1.00  0.00     0.198 A 
ATOM     92  C   UNL     1     -19.575  -0.993   7.697  1.00  0.00     0.198 A 
ATOM     93  F   UNL     1     -17.525  -1.208   8.827  1.00  0.00    -0.203 F 
ATOM     94  F   UNL     1     -20.295  -0.467   4.186  1.00  0.00    -0.200 F 
ATOM     95  C   UNL     1     -20.287  -0.803   6.523  1.00  0.00     0.200 A 
ATOM     96  F   UNL     1     -20.226  -1.130   8.860  1.00  0.00    -0.200 F 
ATOM     97  F   UNL     1     -21.624  -0.728   6.553  1.00  0.00    -0.200 F 
ENDBRANCH  64  87
ENDBRANCH  38  39
ENDBRANCH  30  33
ENDBRANCH  28  29
ENDBRANCH  27  28
ENDBRANCH   1  27
TORSDOF 15
