REMARK SMILES C[C@@H]1CCCN(C(=O)N[C@]2(C(=O)NCCCCNC(=O)c3ccc(-c4c5nc(c(-c6c(F)c(F)c(F)c(F)c6F)c6ccc([nH]6)c(-c6c(F)c(F)c(F)c(F)c6F)c6nc(c(-c7c(F)c(F)c(F)c(F)c7F)c7ccc4[nH]7)C=C6)C=C5)cc3)CCCC[C@@H]2C)C1
REMARK SMILES IDX 15 1 14 2 13 3 11 4 12 5 10 7 84 8 88 9 85 10 87 11 89 12
REMARK SMILES IDX 86 13 9 14 7 15 8 16 6 18 1 19 2 20 3 21 90 22 4 23 5 24
REMARK SMILES IDX 16 25 17 26 18 27 19 28 20 30 21 31 22 32 83 33 23 34 82 35
REMARK SMILES IDX 24 36 25 37 26 38 76 39 27 40 81 41 75 42 77 43 28 44 80 45
REMARK SMILES IDX 74 46 73 47 29 49 61 50 41 51 60 52 42 53 45 54 59 55 78 56
REMARK SMILES IDX 43 57 44 58 58 60 79 61 46 62 30 63 31 64 39 65 32 66 33 67
REMARK SMILES IDX 37 68 40 69 34 70 35 71 38 72 36 73 62 74 63 75 71 76 64 77
REMARK SMILES IDX 65 78 69 79 72 80 66 81 67 82 70 83 68 84 47 85 48 86 56 87
REMARK SMILES IDX 49 88 50 89 54 90 57 91 51 92 52 93 55 94 53 95
REMARK H PARENT 13 6 9 17 18 29 77 48 45 59
REMARK Flexibility Score: inf
ROOT
ATOM      1  C   UNL     1       6.054   4.519  -2.852  1.00  0.00     0.023 C 
ENDROOT
BRANCH   1   2
ATOM      2  C   UNL     1       5.386   3.537  -1.882  1.00  0.00     0.116 C 
BRANCH   2   3
ATOM      3  N   UNL     1       4.054   3.010  -2.219  1.00  0.00    -0.354 N 
ATOM      4  C   UNL     1       3.328   1.962  -1.619  1.00  0.00     0.246 C 
ATOM      5  O   UNL     1       2.209   1.721  -2.083  1.00  0.00    -0.272 OA
ATOM      6  H   UNL     1       3.605   3.455  -2.973  1.00  0.00     0.163 HD
BRANCH   4   7
ATOM      7  C   UNL     1       4.032   0.953  -0.586  1.00  0.00     0.123 C 
ATOM      8  C   UNL     1       3.399   0.051   0.519  1.00  0.00     0.039 C 
ATOM      9  C   UNL     1       4.694  -0.053  -1.624  1.00  0.00     0.021 C 
ATOM     10  C   UNL     1       2.398  -0.993   0.093  1.00  0.00     0.003 C 
ATOM     11  C   UNL     1       3.658  -1.152  -2.053  1.00  0.00     0.006 C 
ATOM     12  C   UNL     1       6.007  -0.700  -1.199  1.00  0.00     0.011 C 
ATOM     13  C   UNL     1       3.053  -1.937  -0.892  1.00  0.00     0.000 C 
BRANCH   7  14
ATOM     14  N   UNL     1       4.852   1.844   0.236  1.00  0.00    -0.323 N 
ATOM     15  C   UNL     1       4.450   2.910   1.007  1.00  0.00     0.318 C 
ATOM     16  O   UNL     1       5.337   3.451   1.673  1.00  0.00    -0.249 OA
ATOM     17  H   UNL     1       5.818   1.655   0.237  1.00  0.00     0.166 HD
BRANCH  15  18
ATOM     18  N   UNL     1       3.190   3.487   0.849  1.00  0.00    -0.325 N 
ATOM     19  C   UNL     1       1.994   7.108   0.444  1.00  0.00     0.009 C 
ATOM     20  C   UNL     1       2.064   5.606   0.226  1.00  0.00     0.005 C 
ATOM     21  C   UNL     1       0.685   4.992   0.453  1.00  0.00     0.007 C 
ATOM     22  C   UNL     1       3.098   4.921   1.140  1.00  0.00     0.124 C 
ATOM     23  C   UNL     1       0.749   3.513   0.151  1.00  0.00     0.022 C 
ATOM     24  C   UNL     1       1.877   2.814   0.908  1.00  0.00     0.121 C 
ENDBRANCH  15  18
ENDBRANCH   7  14
ENDBRANCH   4   7
ENDBRANCH   2   3
ENDBRANCH   1   2
BRANCH   1  25
ATOM     25  C   UNL     1       5.561   5.974  -2.862  1.00  0.00     0.023 C 
BRANCH  25  26
ATOM     26  C   UNL     1       5.474   6.742  -1.537  1.00  0.00     0.116 C 
BRANCH  26  27
ATOM     27  N   UNL     1       6.721   6.928  -0.810  1.00  0.00    -0.352 N 
ATOM     28  C   UNL     1       7.224   8.062  -0.187  1.00  0.00     0.251 C 
ATOM     29  H   UNL     1       7.295   6.130  -0.752  1.00  0.00     0.163 HD
ATOM     30  O   UNL     1       8.291   8.030   0.397  1.00  0.00    -0.269 OA
BRANCH  28  31
ATOM     31  C   UNL     1       6.483   9.346  -0.274  1.00  0.00     0.039 A 
ATOM     32  C   UNL     1       7.141  10.482  -0.749  1.00  0.00     0.014 A 
ATOM     33  C   UNL     1       5.139   9.428   0.085  1.00  0.00     0.014 A 
ATOM     34  C   UNL     1       6.417  11.655  -0.992  1.00  0.00     0.010 A 
ATOM     35  C   UNL     1       4.399  10.569  -0.230  1.00  0.00     0.010 A 
ATOM     36  C   UNL     1       5.025  11.688  -0.801  1.00  0.00    -0.014 A 
BRANCH  36  37
ATOM     37  C   UNL     1       4.214  12.856  -1.248  1.00  0.00     0.031 A 
ATOM     38  C   UNL     1       3.436  13.683  -0.263  1.00  0.00     0.074 A 
ATOM     39  C   UNL     1       4.116  13.129  -2.566  1.00  0.00     0.049 A 
ATOM     40  N   UNL     1       2.638  14.700  -0.482  1.00  0.00    -0.248 NA
ATOM     41  C   UNL     1       3.546  13.300   1.151  1.00  0.00     0.031 C 
ATOM     42  C   UNL     1       4.764  12.370  -3.636  1.00  0.00     0.029 A 
ATOM     43  N   UNL     1       3.425  14.113  -3.232  1.00  0.00    -0.354 N 
ATOM     44  C   UNL     1       2.143  15.069   0.762  1.00  0.00     0.074 A 
ATOM     45  C   UNL     1       2.689  14.134   1.724  1.00  0.00     0.031 C 
ATOM     46  C   UNL     1       4.463  12.929  -4.819  1.00  0.00     0.029 A 
ATOM     47  C   UNL     1       3.574  14.065  -4.597  1.00  0.00     0.049 A 
ATOM     48  H   UNL     1       2.875  14.789  -2.774  1.00  0.00     0.167 HD
ATOM     49  C   UNL     1       1.328  16.104   1.079  1.00  0.00     0.037 A 
ATOM     50  C   UNL     1       3.054  14.846  -5.565  1.00  0.00     0.037 A 
ATOM     51  C   UNL     1       0.803  17.050   0.128  1.00  0.00     0.049 A 
ATOM     52  C   UNL     1       2.162  15.997  -5.188  1.00  0.00     0.074 A 
ATOM     53  C   UNL     1       0.024  18.170   0.364  1.00  0.00     0.029 A 
ATOM     54  N   UNL     1       1.000  16.985  -1.243  1.00  0.00    -0.354 N 
ATOM     55  N   UNL     1       1.767  16.382  -3.999  1.00  0.00    -0.248 NA
ATOM     56  C   UNL     1       1.650  16.828  -6.288  1.00  0.00     0.031 C 
ATOM     57  C   UNL     1      -0.284  18.759  -0.868  1.00  0.00     0.029 A 
ATOM     58  C   UNL     1       0.342  18.033  -1.868  1.00  0.00     0.049 A 
ATOM     59  H   UNL     1       1.530  16.295  -1.705  1.00  0.00     0.167 HD
ATOM     60  C   UNL     1       0.985  17.511  -4.204  1.00  0.00     0.074 A 
ATOM     61  C   UNL     1       0.971  17.758  -5.630  1.00  0.00     0.031 C 
ATOM     62  C   UNL     1       0.340  18.274  -3.288  1.00  0.00     0.037 A 
BRANCH  49  63
ATOM     63  C   UNL     1       0.956  16.271   2.524  1.00  0.00     0.064 A 
ATOM     64  C   UNL     1       1.897  16.679   3.482  1.00  0.00     0.173 A 
ATOM     65  C   UNL     1      -0.359  16.041   2.954  1.00  0.00     0.173 A 
ATOM     66  F   UNL     1       3.170  16.904   3.124  1.00  0.00    -0.203 F 
ATOM     67  C   UNL     1       1.544  16.812   4.823  1.00  0.00     0.198 A 
ATOM     68  C   UNL     1      -0.716  16.205   4.291  1.00  0.00     0.198 A 
ATOM     69  F   UNL     1      -1.301  15.659   2.079  1.00  0.00    -0.203 F 
ATOM     70  F   UNL     1       2.474  17.147   5.728  1.00  0.00    -0.200 F 
ATOM     71  C   UNL     1       0.238  16.580   5.225  1.00  0.00     0.200 A 
ATOM     72  F   UNL     1      -1.982  15.994   4.676  1.00  0.00    -0.200 F 
ATOM     73  F   UNL     1      -0.100  16.709   6.515  1.00  0.00    -0.200 F 
ENDBRANCH  49  63
BRANCH  50  74
ATOM     74  C   UNL     1       3.394  14.585  -6.988  1.00  0.00     0.064 A 
ATOM     75  C   UNL     1       4.235  15.455  -7.696  1.00  0.00     0.173 A 
ATOM     76  C   UNL     1       2.894  13.464  -7.666  1.00  0.00     0.173 A 
ATOM     77  F   UNL     1       4.720  16.552  -7.096  1.00  0.00    -0.203 F 
ATOM     78  C   UNL     1       4.551  15.222  -9.033  1.00  0.00     0.198 A 
ATOM     79  C   UNL     1       3.231  13.218  -8.996  1.00  0.00     0.198 A 
ATOM     80  F   UNL     1       2.089  12.599  -7.032  1.00  0.00    -0.203 F 
ATOM     81  F   UNL     1       5.324  16.091  -9.697  1.00  0.00    -0.200 F 
ATOM     82  C   UNL     1       4.054  14.101  -9.680  1.00  0.00     0.200 A 
ATOM     83  F   UNL     1       2.760  12.127  -9.614  1.00  0.00    -0.200 F 
ATOM     84  F   UNL     1       4.362  13.874 -10.964  1.00  0.00    -0.200 F 
ENDBRANCH  50  74
BRANCH  62  85
ATOM     85  C   UNL     1      -0.413  19.470  -3.794  1.00  0.00     0.064 A 
ATOM     86  C   UNL     1      -1.622  19.339  -4.493  1.00  0.00     0.173 A 
ATOM     87  C   UNL     1       0.059  20.767  -3.536  1.00  0.00     0.173 A 
ATOM     88  F   UNL     1      -2.107  18.121  -4.779  1.00  0.00    -0.203 F 
ATOM     89  C   UNL     1      -2.321  20.461  -4.931  1.00  0.00     0.198 A 
ATOM     90  C   UNL     1      -0.656  21.886  -3.952  1.00  0.00     0.198 A 
ATOM     91  F   UNL     1       1.208  20.947  -2.868  1.00  0.00    -0.203 F 
ATOM     92  F   UNL     1      -3.453  20.311  -5.633  1.00  0.00    -0.200 F 
ATOM     93  C   UNL     1      -1.842  21.732  -4.654  1.00  0.00     0.200 A 
ATOM     94  F   UNL     1      -0.198  23.114  -3.673  1.00  0.00    -0.200 F 
ATOM     95  F   UNL     1      -2.520  22.811  -5.069  1.00  0.00    -0.200 F 
ENDBRANCH  62  85
ENDBRANCH  36  37
ENDBRANCH  28  31
ENDBRANCH  26  27
ENDBRANCH  25  26
ENDBRANCH   1  25
TORSDOF 13
