REMARK SMILES Cn1cc(S(=O)(=O)NC[C@H]2CC[C@@H](C(=O)NCCCCNC(=O)c3ccc(-c4c5nc(c(-c6c(F)c(F)c(F)c(F)c6F)c6ccc([nH]6)c(-c6c(F)c(F)c(F)c(F)c6F)c6nc(c(-c7c(F)c(F)c(F)c(F)c7F)c7ccc4[nH]7)C=C6)C=C5)cc3)CC2)cn1
REMARK SMILES IDX 17 1 16 2 14 3 15 4 13 6 10 7 11 8 88 9 12 10 87 11 9 12
REMARK SMILES IDX 8 13 5 15 6 16 7 17 4 18 1 19 2 20 3 21 90 22 89 23 18 24
REMARK SMILES IDX 19 25 20 26 21 27 22 28 23 30 24 31 25 32 86 33 26 34 85 35
REMARK SMILES IDX 27 36 28 37 29 38 79 39 30 40 84 41 78 42 80 43 31 44 83 45
REMARK SMILES IDX 77 46 76 47 32 49 64 50 44 51 63 52 45 53 48 54 62 55 81 56
REMARK SMILES IDX 46 57 47 58 61 60 82 61 49 62 33 63 34 64 42 65 35 66 36 67
REMARK SMILES IDX 40 68 43 69 37 70 38 71 41 72 39 73 65 74 66 75 74 76 67 77
REMARK SMILES IDX 68 78 72 79 75 80 69 81 70 82 73 83 71 84 50 85 51 86 59 87
REMARK SMILES IDX 52 88 53 89 57 90 60 91 54 92 55 93 58 94 56 95
REMARK H PARENT 16 5 8 14 21 29 80 48 48 59
REMARK Flexibility Score: inf
ROOT
ATOM      1  C   UNL     1       5.229  -3.112  -0.797  1.00  0.00     0.116 C 
ENDROOT
BRANCH   1   2
ATOM      2  N   UNL     1       6.255  -2.876  -1.787  1.00  0.00    -0.356 N 
ATOM      3  C   UNL     1       6.184  -2.582  -3.110  1.00  0.00     0.223 C 
ATOM      4  O   UNL     1       7.200  -2.066  -3.596  1.00  0.00    -0.275 OA
ATOM      5  H   UNL     1       7.173  -2.939  -1.438  1.00  0.00     0.163 HD
BRANCH   3   6
ATOM      6  C   UNL     1       4.977  -2.848  -4.029  1.00  0.00     0.078 C 
ATOM      7  C   UNL     1       2.143  -2.935  -2.999  1.00  0.00     0.004 C 
ATOM      8  C   UNL     1       2.897  -1.623  -3.219  1.00  0.00     0.006 C 
ATOM      9  C   UNL     1       2.989  -4.215  -3.050  1.00  0.00     0.006 C 
ATOM     10  C   UNL     1       4.020  -1.679  -4.234  1.00  0.00     0.014 C 
ATOM     11  C   UNL     1       4.253  -4.184  -3.906  1.00  0.00     0.014 C 
BRANCH   7  12
ATOM     12  C   UNL     1       1.233  -2.875  -1.746  1.00  0.00     0.102 C 
BRANCH  12  13
ATOM     13  N   UNL     1       1.926  -2.753  -0.431  1.00  0.00    -0.211 NA
ATOM     14  H   UNL     1       1.427  -3.363   0.217  1.00  0.00     0.141 HD
BRANCH  13  15
ATOM     15  S   UNL     1       2.082  -1.246   0.348  1.00  0.00     0.243 S 
ATOM     16  O   UNL     1       3.111  -0.457  -0.286  1.00  0.00    -0.207 OA
ATOM     17  O   UNL     1       2.139  -1.519   1.764  1.00  0.00    -0.207 OA
BRANCH  15  18
ATOM     18  C   UNL     1       0.654  -0.342   0.159  1.00  0.00     0.120 A 
ATOM     19  C   UNL     1      -2.857   0.346  -0.051  1.00  0.00     0.173 C 
ATOM     20  N   UNL     1      -1.416   0.302  -0.005  1.00  0.00    -0.274 N 
ATOM     21  C   UNL     1      -0.644  -0.783   0.285  1.00  0.00     0.130 A 
ATOM     22  N   UNL     1      -0.706   1.411  -0.291  1.00  0.00    -0.180 NA
ATOM     23  C   UNL     1       0.566   1.013  -0.178  1.00  0.00     0.156 A 
ENDBRANCH  15  18
ENDBRANCH  13  15
ENDBRANCH  12  13
ENDBRANCH   7  12
ENDBRANCH   3   6
ENDBRANCH   1   2
BRANCH   1  24
ATOM     24  C   UNL     1       5.180  -4.554  -0.282  1.00  0.00     0.023 C 
BRANCH  24  25
ATOM     25  C   UNL     1       5.623  -4.746   1.170  1.00  0.00     0.023 C 
BRANCH  25  26
ATOM     26  C   UNL     1       4.782  -4.010   2.214  1.00  0.00     0.116 C 
BRANCH  26  27
ATOM     27  N   UNL     1       3.384  -4.412   2.262  1.00  0.00    -0.352 N 
ATOM     28  C   UNL     1       2.479  -4.207   3.285  1.00  0.00     0.251 C 
ATOM     29  H   UNL     1       3.043  -4.888   1.470  1.00  0.00     0.163 HD
ATOM     30  O   UNL     1       1.310  -4.557   3.150  1.00  0.00    -0.269 OA
BRANCH  28  31
ATOM     31  C   UNL     1       2.969  -3.677   4.583  1.00  0.00     0.039 A 
ATOM     32  C   UNL     1       2.752  -4.443   5.732  1.00  0.00     0.014 A 
ATOM     33  C   UNL     1       3.749  -2.520   4.652  1.00  0.00     0.014 A 
ATOM     34  C   UNL     1       3.423  -4.123   6.915  1.00  0.00     0.010 A 
ATOM     35  C   UNL     1       4.469  -2.239   5.813  1.00  0.00     0.010 A 
ATOM     36  C   UNL     1       4.341  -3.060   6.944  1.00  0.00    -0.014 A 
BRANCH  36  37
ATOM     37  C   UNL     1       5.229  -2.848   8.118  1.00  0.00     0.031 A 
ATOM     38  C   UNL     1       5.121  -1.605   8.951  1.00  0.00     0.074 A 
ATOM     39  C   UNL     1       6.194  -3.752   8.386  1.00  0.00     0.049 A 
ATOM     40  N   UNL     1       5.837  -1.238   9.986  1.00  0.00    -0.248 NA
ATOM     41  C   UNL     1       4.088  -0.636   8.559  1.00  0.00     0.031 C 
ATOM     42  C   UNL     1       6.448  -4.971   7.615  1.00  0.00     0.029 A 
ATOM     43  N   UNL     1       7.147  -3.782   9.374  1.00  0.00    -0.354 N 
ATOM     44  C   UNL     1       5.345   0.003  10.364  1.00  0.00     0.074 A 
ATOM     45  C   UNL     1       4.304   0.350   9.419  1.00  0.00     0.031 C 
ATOM     46  C   UNL     1       7.470  -5.640   8.173  1.00  0.00     0.029 A 
ATOM     47  C   UNL     1       7.963  -4.886   9.321  1.00  0.00     0.049 A 
ATOM     48  H   UNL     1       7.237  -3.079  10.057  1.00  0.00     0.167 HD
ATOM     49  C   UNL     1       5.713   0.774  11.415  1.00  0.00     0.037 A 
ATOM     50  C   UNL     1       8.994  -5.251  10.108  1.00  0.00     0.037 A 
ATOM     51  C   UNL     1       6.740   0.426  12.363  1.00  0.00     0.049 A 
ATOM     52  C   UNL     1       9.381  -4.377  11.269  1.00  0.00     0.074 A 
ATOM     53  C   UNL     1       7.145   1.118  13.492  1.00  0.00     0.029 A 
ATOM     54  N   UNL     1       7.530  -0.711  12.288  1.00  0.00    -0.354 N 
ATOM     55  N   UNL     1       8.854  -3.245  11.664  1.00  0.00    -0.248 NA
ATOM     56  C   UNL     1      10.504  -4.838  12.099  1.00  0.00     0.031 C 
ATOM     57  C   UNL     1       8.204   0.418  14.080  1.00  0.00     0.029 A 
ATOM     58  C   UNL     1       8.431  -0.732  13.342  1.00  0.00     0.049 A 
ATOM     59  H   UNL     1       7.461  -1.402  11.590  1.00  0.00     0.167 HD
ATOM     60  C   UNL     1       9.558  -2.872  12.800  1.00  0.00     0.074 A 
ATOM     61  C   UNL     1      10.544  -3.905  13.040  1.00  0.00     0.031 C 
ATOM     62  C   UNL     1       9.400  -1.772  13.575  1.00  0.00     0.037 A 
BRANCH  49  63
ATOM     63  C   UNL     1       4.988   2.074  11.601  1.00  0.00     0.064 A 
ATOM     64  C   UNL     1       3.652   2.111  12.027  1.00  0.00     0.173 A 
ATOM     65  C   UNL     1       5.641   3.296  11.378  1.00  0.00     0.173 A 
ATOM     66  F   UNL     1       2.981   0.970  12.244  1.00  0.00    -0.203 F 
ATOM     67  C   UNL     1       2.987   3.322  12.196  1.00  0.00     0.198 A 
ATOM     68  C   UNL     1       4.980   4.506  11.574  1.00  0.00     0.198 A 
ATOM     69  F   UNL     1       6.921   3.316  10.977  1.00  0.00    -0.203 F 
ATOM     70  F   UNL     1       1.696   3.331  12.558  1.00  0.00    -0.200 F 
ATOM     71  C   UNL     1       3.652   4.518  11.974  1.00  0.00     0.200 A 
ATOM     72  F   UNL     1       5.628   5.662  11.372  1.00  0.00    -0.200 F 
ATOM     73  F   UNL     1       3.012   5.683  12.140  1.00  0.00    -0.200 F 
ENDBRANCH  49  63
BRANCH  50  74
ATOM     74  C   UNL     1       9.712  -6.526   9.849  1.00  0.00     0.064 A 
ATOM     75  C   UNL     1       9.567  -7.618  10.716  1.00  0.00     0.173 A 
ATOM     76  C   UNL     1      10.559  -6.678   8.742  1.00  0.00     0.173 A 
ATOM     77  F   UNL     1       8.785  -7.512  11.800  1.00  0.00    -0.203 F 
ATOM     78  C   UNL     1      10.257  -8.808  10.497  1.00  0.00     0.198 A 
ATOM     79  C   UNL     1      11.229  -7.877   8.510  1.00  0.00     0.198 A 
ATOM     80  F   UNL     1      10.728  -5.664   7.881  1.00  0.00    -0.203 F 
ATOM     81  F   UNL     1      10.134  -9.821  11.366  1.00  0.00    -0.200 F 
ATOM     82  C   UNL     1      11.084  -8.938   9.392  1.00  0.00     0.200 A 
ATOM     83  F   UNL     1      12.019  -8.004   7.435  1.00  0.00    -0.200 F 
ATOM     84  F   UNL     1      11.747 -10.084   9.180  1.00  0.00    -0.200 F 
ENDBRANCH  50  74
BRANCH  62  85
ATOM     85  C   UNL     1      10.289  -1.645  14.778  1.00  0.00     0.064 A 
ATOM     86  C   UNL     1      11.648  -1.322  14.657  1.00  0.00     0.173 A 
ATOM     87  C   UNL     1       9.764  -1.814  16.068  1.00  0.00     0.173 A 
ATOM     88  F   UNL     1      12.200  -1.168  13.444  1.00  0.00    -0.203 F 
ATOM     89  C   UNL     1      12.455  -1.195  15.784  1.00  0.00     0.198 A 
ATOM     90  C   UNL     1      10.568  -1.661  17.194  1.00  0.00     0.198 A 
ATOM     91  F   UNL     1       8.469  -2.120  16.237  1.00  0.00    -0.203 F 
ATOM     92  F   UNL     1      13.761  -0.929  15.644  1.00  0.00    -0.200 F 
ATOM     93  C   UNL     1      11.914  -1.358  17.051  1.00  0.00     0.200 A 
ATOM     94  F   UNL     1      10.041  -1.808  18.417  1.00  0.00    -0.200 F 
ATOM     95  F   UNL     1      12.691  -1.230  18.135  1.00  0.00    -0.200 F 
ENDBRANCH  62  85
ENDBRANCH  36  37
ENDBRANCH  28  31
ENDBRANCH  26  27
ENDBRANCH  25  26
ENDBRANCH  24  25
ENDBRANCH   1  24
TORSDOF 15
