REMARK SMILES CCOc1ccc(-c2csc3ncn([C@H](C)C(=O)NCCCCNC(=O)c4ccc(-c5c6nc(c(-c7c(F)c(F)c(F)c(F)c7F)c7ccc([nH]7)c(-c7c(F)c(F)c(F)c(F)c7F)c7nc(c(-c8c(F)c(F)c(F)c(F)c8F)c8ccc5[nH]8)C=C7)C=C6)cc4)c(=O)c23)cc1
REMARK SMILES IDX 20 1 19 2 17 3 18 4 15 6 16 7 14 8 8 9 9 10 92 11 10 12
REMARK SMILES IDX 11 13 90 14 12 15 91 16 13 17 7 18 4 19 5 20 94 21 6 22
REMARK SMILES IDX 93 23 3 24 2 25 1 26 21 27 22 28 23 29 24 30 25 31 26 33
REMARK SMILES IDX 27 34 28 35 89 36 29 37 88 38 30 39 31 40 32 41 82 42 33 43
REMARK SMILES IDX 87 44 81 45 83 46 34 47 86 48 80 49 79 50 35 52 67 53 47 54
REMARK SMILES IDX 66 55 48 56 51 57 65 58 84 59 49 60 50 61 64 63 85 64 52 65
REMARK SMILES IDX 36 66 37 67 45 68 38 69 39 70 43 71 46 72 40 73 41 74 44 75
REMARK SMILES IDX 42 76 68 77 69 78 77 79 70 80 71 81 75 82 78 83 72 84 73 85
REMARK SMILES IDX 76 86 74 87 53 88 54 89 62 90 55 91 56 92 60 93 63 94 57 95
REMARK SMILES IDX 58 96 61 97 59 98
REMARK H PARENT 19 5 24 32 83 51 51 62
REMARK Flexibility Score: inf
ROOT
ATOM      1  C   UNL     1       5.489  -0.240   4.579  1.00  0.00     0.116 C 
ENDROOT
BRANCH   1   2
ATOM      2  N   UNL     1       6.398  -1.328   4.882  1.00  0.00    -0.354 N 
ATOM      3  C   UNL     1       7.644  -1.326   5.438  1.00  0.00     0.242 C 
ATOM      4  O   UNL     1       8.332  -2.335   5.253  1.00  0.00    -0.273 OA
ATOM      5  H   UNL     1       6.058  -2.222   4.647  1.00  0.00     0.163 HD
BRANCH   3   6
ATOM      6  C   UNL     1       8.249  -0.077   6.127  1.00  0.00     0.177 C 
ATOM      7  C   UNL     1       8.820   0.836   5.047  1.00  0.00     0.042 C 
BRANCH   6   8
ATOM      8  N   UNL     1       7.300   0.529   7.076  1.00  0.00    -0.286 N 
ATOM      9  C   UNL     1       5.028  -0.398   9.925  1.00  0.00     0.007 A 
ATOM     10  C   UNL     1       4.163   0.495  10.526  1.00  0.00     0.076 A 
ATOM     11  C   UNL     1       5.852   0.250   8.956  1.00  0.00     0.085 A 
ATOM     12  S   UNL     1       4.346   2.084   9.903  1.00  0.00    -0.123 S 
ATOM     13  C   UNL     1       5.556   1.584   8.809  1.00  0.00     0.131 A 
ATOM     14  C   UNL     1       6.869  -0.318   8.100  1.00  0.00     0.263 A 
ATOM     15  N   UNL     1       6.114   2.429   7.908  1.00  0.00    -0.227 NA
ATOM     16  O   UNL     1       7.310  -1.452   8.258  1.00  0.00    -0.268 OA
ATOM     17  C   UNL     1       6.945   1.864   7.087  1.00  0.00     0.204 A 
BRANCH   9  18
ATOM     18  C   UNL     1       4.990  -1.822  10.202  1.00  0.00    -0.016 A 
ATOM     19  C   UNL     1       4.956  -4.597  10.586  1.00  0.00     0.119 A 
ATOM     20  C   UNL     1       6.035  -3.838  11.038  1.00  0.00     0.047 A 
ATOM     21  C   UNL     1       3.909  -3.971   9.914  1.00  0.00     0.047 A 
ATOM     22  C   UNL     1       6.060  -2.455  10.839  1.00  0.00     0.012 A 
ATOM     23  C   UNL     1       3.919  -2.586   9.733  1.00  0.00     0.012 A 
BRANCH  19  24
ATOM     24  O   UNL     1       4.942  -5.907  10.973  1.00  0.00    -0.494 OA
BRANCH  24  25
ATOM     25  C   UNL     1       4.558  -6.864   9.986  1.00  0.00     0.226 C 
ATOM     26  C   UNL     1       3.085  -7.213  10.098  1.00  0.00     0.049 C 
ENDBRANCH  24  25
ENDBRANCH  19  24
ENDBRANCH   9  18
ENDBRANCH   6   8
ENDBRANCH   3   6
ENDBRANCH   1   2
BRANCH   1  27
ATOM     27  C   UNL     1       5.424   0.033   3.074  1.00  0.00     0.023 C 
BRANCH  27  28
ATOM     28  C   UNL     1       4.814  -1.085   2.217  1.00  0.00     0.023 C 
BRANCH  28  29
ATOM     29  C   UNL     1       3.355  -1.396   2.524  1.00  0.00     0.116 C 
BRANCH  29  30
ATOM     30  N   UNL     1       2.464  -0.270   2.256  1.00  0.00    -0.352 N 
ATOM     31  C   UNL     1       1.106  -0.186   2.513  1.00  0.00     0.251 C 
ATOM     32  H   UNL     1       2.878   0.523   1.845  1.00  0.00     0.163 HD
ATOM     33  O   UNL     1       0.393   0.598   1.914  1.00  0.00    -0.269 OA
BRANCH  31  34
ATOM     34  C   UNL     1       0.539  -1.070   3.547  1.00  0.00     0.039 A 
ATOM     35  C   UNL     1      -0.657  -1.762   3.337  1.00  0.00     0.014 A 
ATOM     36  C   UNL     1       1.262  -1.228   4.727  1.00  0.00     0.014 A 
ATOM     37  C   UNL     1      -1.070  -2.690   4.290  1.00  0.00     0.010 A 
ATOM     38  C   UNL     1       0.928  -2.234   5.598  1.00  0.00     0.010 A 
ATOM     39  C   UNL     1      -0.255  -2.942   5.407  1.00  0.00    -0.014 A 
BRANCH  39  40
ATOM     40  C   UNL     1      -0.527  -4.068   6.299  1.00  0.00     0.031 A 
ATOM     41  C   UNL     1      -0.577  -5.374   5.595  1.00  0.00     0.074 A 
ATOM     42  C   UNL     1      -0.499  -3.954   7.647  1.00  0.00     0.049 A 
ATOM     43  N   UNL     1      -1.609  -6.130   5.426  1.00  0.00    -0.248 NA
ATOM     44  C   UNL     1       0.612  -5.827   4.851  1.00  0.00     0.031 C 
ATOM     45  C   UNL     1      -0.192  -2.738   8.402  1.00  0.00     0.029 A 
ATOM     46  N   UNL     1      -0.643  -4.890   8.637  1.00  0.00    -0.354 N 
ATOM     47  C   UNL     1      -1.138  -7.274   4.787  1.00  0.00     0.074 A 
ATOM     48  C   UNL     1       0.153  -6.933   4.260  1.00  0.00     0.031 C 
ATOM     49  C   UNL     1       0.025  -3.045   9.696  1.00  0.00     0.029 A 
ATOM     50  C   UNL     1      -0.253  -4.452   9.911  1.00  0.00     0.049 A 
ATOM     51  H   UNL     1      -0.992  -5.795   8.468  1.00  0.00     0.167 HD
ATOM     52  C   UNL     1      -1.701  -8.481   5.077  1.00  0.00     0.037 A 
ATOM     53  C   UNL     1      -0.173  -5.193  11.052  1.00  0.00     0.037 A 
ATOM     54  C   UNL     1      -2.954  -8.287   5.767  1.00  0.00     0.049 A 
ATOM     55  C   UNL     1      -1.083  -6.352  10.841  1.00  0.00     0.074 A 
ATOM     56  C   UNL     1      -4.235  -7.899   5.444  1.00  0.00     0.029 A 
ATOM     57  N   UNL     1      -2.811  -8.138   7.121  1.00  0.00    -0.354 N 
ATOM     58  N   UNL     1      -2.381  -6.230  10.778  1.00  0.00    -0.248 NA
ATOM     59  C   UNL     1      -0.563  -7.632  10.363  1.00  0.00     0.031 C 
ATOM     60  C   UNL     1      -4.812  -7.384   6.645  1.00  0.00     0.029 A 
ATOM     61  C   UNL     1      -3.889  -7.513   7.679  1.00  0.00     0.049 A 
ATOM     62  H   UNL     1      -2.026  -8.444   7.630  1.00  0.00     0.167 HD
ATOM     63  C   UNL     1      -2.769  -7.191   9.866  1.00  0.00     0.074 A 
ATOM     64  C   UNL     1      -1.662  -8.130   9.793  1.00  0.00     0.031 C 
ATOM     65  C   UNL     1      -3.798  -6.952   9.005  1.00  0.00     0.037 A 
BRANCH  52  66
ATOM     66  C   UNL     1      -0.931  -9.782   5.274  1.00  0.00     0.064 A 
ATOM     67  C   UNL     1      -1.662 -10.941   5.623  1.00  0.00     0.173 A 
ATOM     68  C   UNL     1       0.462  -9.870   5.484  1.00  0.00     0.173 A 
ATOM     69  F   UNL     1      -2.993 -10.985   5.461  1.00  0.00    -0.203 F 
ATOM     70  C   UNL     1      -1.061 -12.043   6.240  1.00  0.00     0.198 A 
ATOM     71  C   UNL     1       1.063 -10.989   6.061  1.00  0.00     0.198 A 
ATOM     72  F   UNL     1       1.294  -8.851   5.249  1.00  0.00    -0.203 F 
ATOM     73  F   UNL     1      -1.819 -13.058   6.677  1.00  0.00    -0.200 F 
ATOM     74  C   UNL     1       0.300 -12.059   6.473  1.00  0.00     0.200 A 
ATOM     75  F   UNL     1       2.384 -10.976   6.293  1.00  0.00    -0.200 F 
ATOM     76  F   UNL     1       0.870 -13.077   7.131  1.00  0.00    -0.200 F 
ENDBRANCH  52  66
BRANCH  53  77
ATOM     77  C   UNL     1       0.687  -5.068  12.275  1.00  0.00     0.064 A 
ATOM     78  C   UNL     1       0.693  -6.101  13.237  1.00  0.00     0.173 A 
ATOM     79  C   UNL     1       1.697  -4.104  12.445  1.00  0.00     0.173 A 
ATOM     80  F   UNL     1      -0.259  -7.045  13.231  1.00  0.00    -0.203 F 
ATOM     81  C   UNL     1       1.712  -6.237  14.188  1.00  0.00     0.198 A 
ATOM     82  C   UNL     1       2.720  -4.240  13.393  1.00  0.00     0.198 A 
ATOM     83  F   UNL     1       1.754  -3.014  11.676  1.00  0.00    -0.203 F 
ATOM     84  F   UNL     1       1.706  -7.286  15.022  1.00  0.00    -0.200 F 
ATOM     85  C   UNL     1       2.750  -5.329  14.237  1.00  0.00     0.200 A 
ATOM     86  F   UNL     1       3.697  -3.323  13.452  1.00  0.00    -0.200 F 
ATOM     87  F   UNL     1       3.769  -5.502  15.090  1.00  0.00    -0.200 F 
ENDBRANCH  53  77
BRANCH  65  88
ATOM     88  C   UNL     1      -4.813  -5.949   9.439  1.00  0.00     0.064 A 
ATOM     89  C   UNL     1      -4.567  -4.576   9.595  1.00  0.00     0.173 A 
ATOM     90  C   UNL     1      -6.110  -6.415   9.691  1.00  0.00     0.173 A 
ATOM     91  F   UNL     1      -3.370  -4.052   9.303  1.00  0.00    -0.203 F 
ATOM     92  C   UNL     1      -5.572  -3.718  10.037  1.00  0.00     0.198 A 
ATOM     93  C   UNL     1      -7.118  -5.551  10.096  1.00  0.00     0.198 A 
ATOM     94  F   UNL     1      -6.401  -7.715   9.523  1.00  0.00    -0.203 F 
ATOM     95  F   UNL     1      -5.312  -2.414  10.214  1.00  0.00    -0.200 F 
ATOM     96  C   UNL     1      -6.846  -4.206  10.284  1.00  0.00     0.200 A 
ATOM     97  F   UNL     1      -8.356  -6.023  10.297  1.00  0.00    -0.200 F 
ATOM     98  F   UNL     1      -7.818  -3.377  10.690  1.00  0.00    -0.200 F 
ENDBRANCH  65  88
ENDBRANCH  39  40
ENDBRANCH  31  34
ENDBRANCH  29  30
ENDBRANCH  28  29
ENDBRANCH  27  28
ENDBRANCH   1  27
TORSDOF 15
