REMARK SMILES O=C(NCCCCNC(=O)C1(O)CCC(F)(F)CC1)c1ccc(-c2c3nc(c(-c4c(F)c(F)c(F)c(F)c4F)c4ccc([nH]4)c(-c4c(F)c(F)c(F)c(F)c4F)c4nc(c(-c5c(F)c(F)c(F)c(F)c5F)c5ccc2[nH]5)C=C4)C=C3)cc1
REMARK SMILES IDX 5 1 4 2 3 3 1 4 2 5 20 7 21 8 82 9 22 10 81 11 23 12 24 13
REMARK SMILES IDX 25 14 75 15 26 16 80 17 74 18 76 19 27 20 79 21 73 22 72 23
REMARK SMILES IDX 28 25 60 26 40 27 59 28 41 29 44 30 58 31 77 32 42 33 43 34
REMARK SMILES IDX 57 36 78 37 45 38 29 39 30 40 38 41 31 42 32 43 36 44 39 45
REMARK SMILES IDX 33 46 34 47 37 48 35 49 61 50 62 51 70 52 63 53 64 54 68 55
REMARK SMILES IDX 71 56 65 57 66 58 69 59 67 60 46 61 47 62 55 63 48 64 49 65
REMARK SMILES IDX 53 66 56 67 50 68 51 69 54 70 52 71 6 72 7 73 8 74 9 75
REMARK SMILES IDX 10 77 11 78 13 79 19 80 14 81 18 82 15 83 16 84 17 85 12 86
REMARK H PARENT 3 6 76 24 44 35 8 76 12 87
REMARK Flexibility Score: inf
ROOT
ATOM      1  C   UNL     1       5.260  -0.043   2.190  1.00  0.00     0.023 C 
ENDROOT
BRANCH   1   2
ATOM      2  C   UNL     1       4.784  -0.677   0.887  1.00  0.00     0.116 C 
BRANCH   2   3
ATOM      3  N   UNL     1       3.335  -0.737   0.762  1.00  0.00    -0.352 N 
ATOM      4  O   UNL     1       1.254  -0.155   0.134  1.00  0.00    -0.269 OA
ATOM      5  C   UNL     1       2.464  -0.004  -0.006  1.00  0.00     0.251 C 
ATOM      6  H   UNL     1       2.905  -1.421   1.325  1.00  0.00     0.163 HD
BRANCH   5   7
ATOM      7  C   UNL     1       2.966   0.999  -0.967  1.00  0.00     0.039 A 
ATOM      8  C   UNL     1       4.000   0.700  -1.856  1.00  0.00     0.014 A 
ATOM      9  C   UNL     1       2.373   2.265  -0.982  1.00  0.00     0.014 A 
ATOM     10  C   UNL     1       4.556   1.711  -2.635  1.00  0.00     0.010 A 
ATOM     11  C   UNL     1       2.880   3.258  -1.822  1.00  0.00     0.010 A 
ATOM     12  C   UNL     1       4.006   3.002  -2.619  1.00  0.00    -0.014 A 
BRANCH  12  13
ATOM     13  C   UNL     1       4.608   4.083  -3.439  1.00  0.00     0.031 A 
ATOM     14  C   UNL     1       5.241   5.275  -2.780  1.00  0.00     0.074 A 
ATOM     15  C   UNL     1       4.573   3.992  -4.781  1.00  0.00     0.049 A 
ATOM     16  N   UNL     1       5.733   6.360  -3.325  1.00  0.00    -0.248 NA
ATOM     17  C   UNL     1       5.323   5.252  -1.311  1.00  0.00     0.031 C 
ATOM     18  C   UNL     1       3.992   2.879  -5.533  1.00  0.00     0.029 A 
ATOM     19  N   UNL     1       5.026   4.851  -5.749  1.00  0.00    -0.354 N 
ATOM     20  C   UNL     1       6.151   7.159  -2.269  1.00  0.00     0.074 A 
ATOM     21  C   UNL     1       5.844   6.443  -1.049  1.00  0.00     0.031 C 
ATOM     22  C   UNL     1       4.133   3.117  -6.845  1.00  0.00     0.029 A 
ATOM     23  C   UNL     1       4.757   4.424  -7.025  1.00  0.00     0.049 A 
ATOM     24  H   UNL     1       5.498   5.691  -5.548  1.00  0.00     0.167 HD
ATOM     25  C   UNL     1       6.738   8.379  -2.318  1.00  0.00     0.037 A 
ATOM     26  C   UNL     1       4.957   5.032  -8.209  1.00  0.00     0.037 A 
ATOM     27  C   UNL     1       7.065   9.073  -3.537  1.00  0.00     0.049 A 
ATOM     28  C   UNL     1       5.593   6.391  -8.238  1.00  0.00     0.074 A 
ATOM     29  C   UNL     1       7.702  10.291  -3.693  1.00  0.00     0.029 A 
ATOM     30  N   UNL     1       6.775   8.606  -4.811  1.00  0.00    -0.354 N 
ATOM     31  N   UNL     1       5.999   7.131  -7.236  1.00  0.00    -0.248 NA
ATOM     32  C   UNL     1       5.794   7.001  -9.559  1.00  0.00     0.031 C 
ATOM     33  C   UNL     1       7.761  10.581  -5.061  1.00  0.00     0.029 A 
ATOM     34  C   UNL     1       7.201   9.523  -5.759  1.00  0.00     0.049 A 
ATOM     35  H   UNL     1       6.332   7.750  -5.012  1.00  0.00     0.167 HD
ATOM     36  C   UNL     1       6.519   8.286  -7.801  1.00  0.00     0.074 A 
ATOM     37  C   UNL     1       6.383   8.146  -9.237  1.00  0.00     0.031 C 
ATOM     38  C   UNL     1       7.061   9.364  -7.184  1.00  0.00     0.037 A 
BRANCH  25  39
ATOM     39  C   UNL     1       7.040   9.057  -1.012  1.00  0.00     0.064 A 
ATOM     40  C   UNL     1       8.072   8.618  -0.170  1.00  0.00     0.173 A 
ATOM     41  C   UNL     1       6.300  10.180  -0.612  1.00  0.00     0.173 A 
ATOM     42  F   UNL     1       8.801   7.541  -0.500  1.00  0.00    -0.203 F 
ATOM     43  C   UNL     1       8.333   9.261   1.038  1.00  0.00     0.198 A 
ATOM     44  C   UNL     1       6.581  10.836   0.583  1.00  0.00     0.198 A 
ATOM     45  F   UNL     1       5.306  10.645  -1.384  1.00  0.00    -0.203 F 
ATOM     46  F   UNL     1       9.293   8.794   1.849  1.00  0.00    -0.200 F 
ATOM     47  C   UNL     1       7.591  10.371   1.411  1.00  0.00     0.200 A 
ATOM     48  F   UNL     1       5.870  11.915   0.938  1.00  0.00    -0.200 F 
ATOM     49  F   UNL     1       7.845  10.989   2.574  1.00  0.00    -0.200 F 
ENDBRANCH  25  39
BRANCH  26  50
ATOM     50  C   UNL     1       4.529   4.344  -9.451  1.00  0.00     0.064 A 
ATOM     51  C   UNL     1       5.467   3.778 -10.323  1.00  0.00     0.173 A 
ATOM     52  C   UNL     1       3.168   4.178  -9.752  1.00  0.00     0.173 A 
ATOM     53  F   UNL     1       6.778   3.925 -10.083  1.00  0.00    -0.203 F 
ATOM     54  C   UNL     1       5.060   3.067 -11.449  1.00  0.00     0.198 A 
ATOM     55  C   UNL     1       2.763   3.446 -10.865  1.00  0.00     0.198 A 
ATOM     56  F   UNL     1       2.234   4.696  -8.941  1.00  0.00    -0.203 F 
ATOM     57  F   UNL     1       5.976   2.546 -12.277  1.00  0.00    -0.200 F 
ATOM     58  C   UNL     1       3.709   2.892 -11.713  1.00  0.00     0.200 A 
ATOM     59  F   UNL     1       1.457   3.264 -11.105  1.00  0.00    -0.200 F 
ATOM     60  F   UNL     1       3.319   2.187 -12.784  1.00  0.00    -0.200 F 
ENDBRANCH  26  50
BRANCH  38  61
ATOM     61  C   UNL     1       7.579  10.466  -8.057  1.00  0.00     0.064 A 
ATOM     62  C   UNL     1       6.713  11.369  -8.688  1.00  0.00     0.173 A 
ATOM     63  C   UNL     1       8.960  10.654  -8.214  1.00  0.00     0.173 A 
ATOM     64  F   UNL     1       5.385  11.219  -8.579  1.00  0.00    -0.203 F 
ATOM     65  C   UNL     1       7.212  12.418  -9.456  1.00  0.00     0.198 A 
ATOM     66  C   UNL     1       9.456  11.716  -8.964  1.00  0.00     0.198 A 
ATOM     67  F   UNL     1       9.828   9.817  -7.626  1.00  0.00    -0.203 F 
ATOM     68  F   UNL     1       6.368  13.254 -10.075  1.00  0.00    -0.200 F 
ATOM     69  C   UNL     1       8.582  12.595  -9.586  1.00  0.00     0.200 A 
ATOM     70  F   UNL     1      10.780  11.892  -9.081  1.00  0.00    -0.200 F 
ATOM     71  F   UNL     1       9.061  13.612 -10.316  1.00  0.00    -0.200 F 
ENDBRANCH  38  61
ENDBRANCH  12  13
ENDBRANCH   5   7
ENDBRANCH   2   3
ENDBRANCH   1   2
BRANCH   1  72
ATOM     72  C   UNL     1       4.790  -0.708   3.485  1.00  0.00     0.023 C 
BRANCH  72  73
ATOM     73  C   UNL     1       4.870  -2.231   3.553  1.00  0.00     0.116 C 
BRANCH  73  74
ATOM     74  N   UNL     1       6.194  -2.772   3.347  1.00  0.00    -0.354 N 
ATOM     75  C   UNL     1       6.706  -4.017   3.526  1.00  0.00     0.251 C 
ATOM     76  H   UNL     1       6.848  -2.115   3.015  1.00  0.00     0.163 HD
ATOM     77  O   UNL     1       7.887  -4.147   3.168  1.00  0.00    -0.272 OA
BRANCH  75  78
ATOM     78  C   UNL     1       5.992  -5.220   4.233  1.00  0.00     0.143 C 
ATOM     79  C   UNL     1       4.468  -5.265   4.379  1.00  0.00     0.051 C 
ATOM     80  C   UNL     1       6.446  -6.542   3.560  1.00  0.00     0.051 C 
ATOM     81  C   UNL     1       3.732  -5.513   3.067  1.00  0.00     0.080 C 
ATOM     82  C   UNL     1       5.747  -6.775   2.221  1.00  0.00     0.080 C 
ATOM     83  C   UNL     1       4.236  -6.768   2.380  1.00  0.00     0.248 C 
ATOM     84  F   UNL     1       3.649  -6.878   1.164  1.00  0.00    -0.207 F 
ATOM     85  F   UNL     1       3.855  -7.853   3.098  1.00  0.00    -0.207 F 
BRANCH  78  86
ATOM     86  O   UNL     1       6.521  -5.225   5.572  1.00  0.00    -0.380 OA
ATOM     87  H   UNL     1       6.257  -4.410   6.028  1.00  0.00     0.212 HD
ENDBRANCH  78  86
ENDBRANCH  75  78
ENDBRANCH  73  74
ENDBRANCH  72  73
ENDBRANCH   1  72
TORSDOF 12
