REMARK SMILES Cc1c(CCC(=O)N[C@@H](C)C(=O)NCCCCNC(=O)c2ccc(-c3c4nc(c(-c5c(F)c(F)c(F)c(F)c5F)c5ccc([nH]5)c(-c5c(F)c(F)c(F)c(F)c5F)c5nc(c(-c6c(F)c(F)c(F)c(F)c6F)c6ccc3[nH]6)C=C5)C=C4)cc2)c(=O)oc2cc3oc4c(c3cc12)CCCC4
REMARK SMILES IDX 14 1 13 2 11 3 12 4 9 6 10 7 8 8 6 9 7 10 5 12 4 13 3 14
REMARK SMILES IDX 1 15 2 16 95 17 84 18 87 19 94 20 85 21 86 22 88 23 93 24
REMARK SMILES IDX 89 25 92 26 90 27 91 28 96 29 99 30 97 31 98 32 15 33 16 34
REMARK SMILES IDX 17 35 18 36 19 37 20 39 21 40 22 41 83 42 23 43 82 44 24 45
REMARK SMILES IDX 25 46 26 47 76 48 27 49 81 50 75 51 77 52 28 53 80 54 74 55
REMARK SMILES IDX 73 56 29 58 61 59 41 60 60 61 42 62 45 63 59 64 78 65 43 66
REMARK SMILES IDX 44 67 58 69 79 70 46 71 30 72 31 73 39 74 32 75 33 76 37 77
REMARK SMILES IDX 40 78 34 79 35 80 38 81 36 82 62 83 63 84 71 85 64 86 65 87
REMARK SMILES IDX 69 88 72 89 66 90 67 91 70 92 68 93 47 94 48 95 56 96 49 97
REMARK SMILES IDX 50 98 54 99 57 100 51 101 52 102 55 103 53 104
REMARK H PARENT 13 5 8 11 18 38 77 57 45 68
REMARK Flexibility Score: inf
ROOT
ATOM      1  C   UNL     1      -1.055  -2.093   2.353  1.00  0.00     0.116 C 
ENDROOT
BRANCH   1   2
ATOM      2  N   UNL     1      -2.480  -2.053   2.070  1.00  0.00    -0.354 N 
ATOM      3  C   UNL     1      -3.164  -1.510   1.021  1.00  0.00     0.242 C 
ATOM      4  O   UNL     1      -4.370  -1.758   0.942  1.00  0.00    -0.273 OA
ATOM      5  H   UNL     1      -3.046  -2.489   2.748  1.00  0.00     0.163 HD
BRANCH   3   6
ATOM      6  C   UNL     1      -2.446  -0.735  -0.099  1.00  0.00     0.168 C 
ATOM      7  C   UNL     1      -1.495  -1.699  -0.784  1.00  0.00     0.041 C 
BRANCH   6   8
ATOM      8  N   UNL     1      -1.744   0.469   0.355  1.00  0.00    -0.345 N 
ATOM      9  C   UNL     1      -1.184   1.480  -0.374  1.00  0.00     0.220 C 
ATOM     10  O   UNL     1      -0.490   2.307   0.221  1.00  0.00    -0.275 OA
ATOM     11  H   UNL     1      -1.664   0.564   1.332  1.00  0.00     0.164 HD
BRANCH   9  12
ATOM     12  C   UNL     1      -1.446   1.601  -1.870  1.00  0.00     0.105 C 
BRANCH  12  13
ATOM     13  C   UNL     1      -0.163   1.698  -2.718  1.00  0.00     0.053 C 
BRANCH  13  14
ATOM     14  C   UNL     1       0.522   0.355  -2.815  1.00  0.00     0.042 A 
ATOM     15  C   UNL     1       2.285   0.869  -1.062  1.00  0.00     0.046 C 
ATOM     16  C   UNL     1       1.496  -0.032  -1.973  1.00  0.00    -0.030 A 
ATOM     17  C   UNL     1       1.682  -1.474  -1.828  1.00  0.00     0.022 A 
ATOM     18  C   UNL     1       0.001  -0.583  -3.858  1.00  0.00     0.339 A 
ATOM     19  C   UNL     1       1.304  -2.341  -2.853  1.00  0.00     0.142 A 
ATOM     20  C   UNL     1       2.071  -2.006  -0.598  1.00  0.00     0.024 A 
ATOM     21  O   UNL     1      -0.911  -0.258  -4.611  1.00  0.00    -0.246 OA
ATOM     22  O   UNL     1       0.623  -1.824  -3.970  1.00  0.00    -0.422 OA
ATOM     23  C   UNL     1       1.504  -3.729  -2.797  1.00  0.00     0.095 A 
ATOM     24  C   UNL     1       2.180  -3.389  -0.467  1.00  0.00     0.025 A 
ATOM     25  C   UNL     1       2.022  -4.194  -1.591  1.00  0.00     0.138 A 
ATOM     26  C   UNL     1       2.584  -4.229   0.582  1.00  0.00     0.001 A 
ATOM     27  O   UNL     1       2.560  -5.431  -1.337  1.00  0.00    -0.461 OA
ATOM     28  C   UNL     1       3.041  -5.351  -0.068  1.00  0.00     0.108 A 
ATOM     29  C   UNL     1       3.075  -3.903   1.938  1.00  0.00     0.040 C 
ATOM     30  C   UNL     1       4.323  -5.995   0.327  1.00  0.00     0.076 C 
ATOM     31  C   UNL     1       4.609  -3.904   1.915  1.00  0.00     0.005 C 
ATOM     32  C   UNL     1       5.237  -4.826   0.822  1.00  0.00     0.008 C 
ENDBRANCH  13  14
ENDBRANCH  12  13
ENDBRANCH   9  12
ENDBRANCH   6   8
ENDBRANCH   3   6
ENDBRANCH   1   2
BRANCH   1  33
ATOM     33  C   UNL     1      -0.778  -2.335   3.837  1.00  0.00     0.023 C 
BRANCH  33  34
ATOM     34  C   UNL     1      -1.174  -3.730   4.330  1.00  0.00     0.023 C 
BRANCH  34  35
ATOM     35  C   UNL     1      -0.271  -4.850   3.801  1.00  0.00     0.116 C 
BRANCH  35  36
ATOM     36  N   UNL     1       0.754  -5.273   4.748  1.00  0.00    -0.352 N 
ATOM     37  C   UNL     1       0.600  -5.951   5.939  1.00  0.00     0.251 C 
ATOM     38  H   UNL     1       1.679  -5.043   4.504  1.00  0.00     0.163 HD
ATOM     39  O   UNL     1       1.552  -6.234   6.641  1.00  0.00    -0.269 OA
BRANCH  37  40
ATOM     40  C   UNL     1      -0.776  -6.250   6.375  1.00  0.00     0.039 A 
ATOM     41  C   UNL     1      -1.595  -7.062   5.587  1.00  0.00     0.014 A 
ATOM     42  C   UNL     1      -1.274  -5.575   7.492  1.00  0.00     0.014 A 
ATOM     43  C   UNL     1      -2.957  -7.097   5.843  1.00  0.00     0.010 A 
ATOM     44  C   UNL     1      -2.635  -5.635   7.764  1.00  0.00     0.010 A 
ATOM     45  C   UNL     1      -3.479  -6.368   6.918  1.00  0.00    -0.014 A 
BRANCH  45  46
ATOM     46  C   UNL     1      -4.908  -6.527   7.202  1.00  0.00     0.031 A 
ATOM     47  C   UNL     1      -5.165  -7.341   8.418  1.00  0.00     0.074 A 
ATOM     48  C   UNL     1      -5.854  -5.657   6.799  1.00  0.00     0.049 A 
ATOM     49  N   UNL     1      -5.115  -6.822   9.610  1.00  0.00    -0.248 NA
ATOM     50  C   UNL     1      -5.191  -8.800   8.397  1.00  0.00     0.031 C 
ATOM     51  C   UNL     1      -5.612  -4.249   6.471  1.00  0.00     0.029 A 
ATOM     52  N   UNL     1      -7.223  -5.776   6.814  1.00  0.00    -0.354 N 
ATOM     53  C   UNL     1      -5.005  -7.871  10.495  1.00  0.00     0.074 A 
ATOM     54  C   UNL     1      -5.092  -9.081   9.705  1.00  0.00     0.031 C 
ATOM     55  C   UNL     1      -6.791  -3.593   6.516  1.00  0.00     0.029 A 
ATOM     56  C   UNL     1      -7.875  -4.554   6.700  1.00  0.00     0.049 A 
ATOM     57  H   UNL     1      -7.693  -6.637   6.898  1.00  0.00     0.167 HD
ATOM     58  C   UNL     1      -4.807  -7.691  11.825  1.00  0.00     0.037 A 
ATOM     59  C   UNL     1      -9.077  -4.253   7.260  1.00  0.00     0.037 A 
ATOM     60  C   UNL     1      -4.724  -6.337  12.279  1.00  0.00     0.049 A 
ATOM     61  C   UNL     1      -8.772  -4.364   8.732  1.00  0.00     0.074 A 
ATOM     62  C   UNL     1      -3.724  -5.426  12.545  1.00  0.00     0.029 A 
ATOM     63  N   UNL     1      -5.895  -5.638  12.448  1.00  0.00    -0.354 N 
ATOM     64  N   UNL     1      -8.212  -3.439   9.467  1.00  0.00    -0.248 NA
ATOM     65  C   UNL     1      -8.801  -5.694   9.346  1.00  0.00     0.031 C 
ATOM     66  C   UNL     1      -4.335  -4.138  12.425  1.00  0.00     0.029 A 
ATOM     67  C   UNL     1      -5.656  -4.350  12.036  1.00  0.00     0.049 A 
ATOM     68  H   UNL     1      -6.744  -5.993  12.797  1.00  0.00     0.167 HD
ATOM     69  C   UNL     1      -7.589  -4.126  10.513  1.00  0.00     0.074 A 
ATOM     70  C   UNL     1      -8.017  -5.503  10.398  1.00  0.00     0.031 C 
ATOM     71  C   UNL     1      -6.621  -3.573  11.296  1.00  0.00     0.037 A 
BRANCH  58  72
ATOM     72  C   UNL     1      -4.822  -8.795  12.792  1.00  0.00     0.064 A 
ATOM     73  C   UNL     1      -6.027  -9.078  13.446  1.00  0.00     0.173 A 
ATOM     74  C   UNL     1      -3.665  -9.463  13.196  1.00  0.00     0.173 A 
ATOM     75  F   UNL     1      -7.152  -8.438  13.083  1.00  0.00    -0.203 F 
ATOM     76  C   UNL     1      -6.072  -9.984  14.496  1.00  0.00     0.198 A 
ATOM     77  C   UNL     1      -3.712 -10.375  14.248  1.00  0.00     0.198 A 
ATOM     78  F   UNL     1      -2.492  -9.211  12.596  1.00  0.00    -0.203 F 
ATOM     79  F   UNL     1      -7.231 -10.215  15.126  1.00  0.00    -0.200 F 
ATOM     80  C   UNL     1      -4.912 -10.626  14.902  1.00  0.00     0.200 A 
ATOM     81  F   UNL     1      -2.594 -10.997  14.646  1.00  0.00    -0.200 F 
ATOM     82  F   UNL     1      -4.950 -11.482  15.933  1.00  0.00    -0.200 F 
ENDBRANCH  58  72
BRANCH  59  83
ATOM     83  C   UNL     1     -10.256  -4.904   6.602  1.00  0.00     0.064 A 
ATOM     84  C   UNL     1     -10.393  -4.793   5.200  1.00  0.00     0.173 A 
ATOM     85  C   UNL     1     -11.267  -5.622   7.258  1.00  0.00     0.173 A 
ATOM     86  F   UNL     1      -9.537  -4.033   4.497  1.00  0.00    -0.203 F 
ATOM     87  C   UNL     1     -11.400  -5.455   4.496  1.00  0.00     0.198 A 
ATOM     88  C   UNL     1     -12.259  -6.307   6.552  1.00  0.00     0.198 A 
ATOM     89  F   UNL     1     -11.314  -5.687   8.595  1.00  0.00    -0.203 F 
ATOM     90  F   UNL     1     -11.468  -5.345   3.162  1.00  0.00    -0.200 F 
ATOM     91  C   UNL     1     -12.316  -6.237   5.172  1.00  0.00     0.200 A 
ATOM     92  F   UNL     1     -13.151  -7.053   7.220  1.00  0.00    -0.200 F 
ATOM     93  F   UNL     1     -13.257  -6.915   4.499  1.00  0.00    -0.200 F 
ENDBRANCH  59  83
BRANCH  71  94
ATOM     94  C   UNL     1      -6.438  -2.106  11.137  1.00  0.00     0.064 A 
ATOM     95  C   UNL     1      -7.384  -1.223  11.675  1.00  0.00     0.173 A 
ATOM     96  C   UNL     1      -5.323  -1.563  10.481  1.00  0.00     0.173 A 
ATOM     97  F   UNL     1      -8.463  -1.698  12.318  1.00  0.00    -0.203 F 
ATOM     98  C   UNL     1      -7.210   0.153  11.579  1.00  0.00     0.198 A 
ATOM     99  C   UNL     1      -5.142  -0.186  10.407  1.00  0.00     0.198 A 
ATOM    100  F   UNL     1      -4.395  -2.361   9.931  1.00  0.00    -0.203 F 
ATOM    101  F   UNL     1      -8.123   0.981  12.108  1.00  0.00    -0.200 F 
ATOM    102  C   UNL     1      -6.084   0.671  10.956  1.00  0.00     0.200 A 
ATOM    103  F   UNL     1      -4.045   0.314   9.819  1.00  0.00    -0.200 F 
ATOM    104  F   UNL     1      -5.901   1.997  10.896  1.00  0.00    -0.200 F 
ENDBRANCH  71  94
ENDBRANCH  45  46
ENDBRANCH  37  40
ENDBRANCH  35  36
ENDBRANCH  34  35
ENDBRANCH  33  34
ENDBRANCH   1  33
TORSDOF 15
