REMARK SMILES C[C@@H](SCCC(=O)NCCCCNC(=O)c1ccc(-c2c3nc(c(-c4c(F)c(F)c(F)c(F)c4F)c4ccc([nH]4)c(-c4c(F)c(F)c(F)c(F)c4F)c4nc(c(-c5c(F)c(F)c(F)c(F)c5F)c5ccc2[nH]5)C=C4)C=C3)cc1)C(=O)Nc1ccc(C(N)=O)cc1
REMARK SMILES IDX 6 1 7 2 8 3 5 5 4 6 3 7 2 8 1 9 79 10 80 11 81 12 82 14
REMARK SMILES IDX 83 15 90 16 84 17 89 18 85 19 86 20 87 21 88 22 9 25 10 26
REMARK SMILES IDX 11 27 12 28 13 29 14 30 15 32 16 33 17 34 78 35 18 36 77 37
REMARK SMILES IDX 19 38 20 39 21 40 71 41 22 42 76 43 70 44 72 45 23 46 75 47
REMARK SMILES IDX 69 48 68 49 24 51 56 52 36 53 55 54 37 55 40 56 54 57 73 58
REMARK SMILES IDX 38 59 39 60 53 62 74 63 41 64 25 65 26 66 34 67 27 68 28 69
REMARK SMILES IDX 32 70 35 71 29 72 30 73 33 74 31 75 57 76 58 77 66 78 59 79
REMARK SMILES IDX 60 80 64 81 67 82 61 83 62 84 65 85 63 86 42 87 43 88 51 89
REMARK SMILES IDX 44 90 45 91 49 92 52 93 46 94 47 95 50 96 48 97
REMARK H PARENT 8 4 81 13 87 23 87 24 13 31 72 50 40 61
REMARK Flexibility Score: inf
ROOT
ATOM      1  C   UNL     1       2.927   2.577  -0.717  1.00  0.00     0.220 C 
ATOM      2  O   UNL     1       3.533   2.073   0.230  1.00  0.00    -0.275 OA
ATOM      3  N   UNL     1       2.053   3.582  -0.450  1.00  0.00    -0.356 N 
ATOM      4  H   UNL     1       2.042   3.875   0.490  1.00  0.00     0.163 HD
ENDROOT
BRANCH   1   5
ATOM      5  C   UNL     1       3.167   2.127  -2.139  1.00  0.00     0.111 C 
BRANCH   5   6
ATOM      6  C   UNL     1       3.148   0.604  -2.287  1.00  0.00     0.080 C 
BRANCH   6   7
ATOM      7  S   UNL     1       1.513  -0.105  -2.746  1.00  0.00    -0.148 SA
BRANCH   7   8
ATOM      8  C   UNL     1       0.600   0.066  -1.169  1.00  0.00     0.133 C 
ATOM      9  C   UNL     1       1.196  -0.707  -0.003  1.00  0.00     0.030 C 
BRANCH   8  10
ATOM     10  C   UNL     1      -0.929  -0.053  -1.388  1.00  0.00     0.237 C 
ATOM     11  O   UNL     1      -1.593   0.887  -1.843  1.00  0.00    -0.273 OA
ATOM     12  N   UNL     1      -1.620  -1.215  -1.136  1.00  0.00    -0.325 N 
ATOM     13  H   UNL     1      -2.388  -1.231  -0.520  1.00  0.00     0.169 HD
BRANCH  12  14
ATOM     14  C   UNL     1      -1.189  -2.375  -1.791  1.00  0.00     0.041 A 
ATOM     15  C   UNL     1      -1.502  -2.504  -3.145  1.00  0.00     0.027 A 
ATOM     16  C   UNL     1      -0.314  -3.251  -1.165  1.00  0.00     0.027 A 
ATOM     17  C   UNL     1      -0.797  -3.415  -3.922  1.00  0.00     0.016 A 
ATOM     18  C   UNL     1       0.405  -4.151  -1.944  1.00  0.00     0.016 A 
ATOM     19  C   UNL     1       0.195  -4.208  -3.330  1.00  0.00     0.039 A 
BRANCH  19  20
ATOM     20  C   UNL     1       1.112  -5.046  -4.138  1.00  0.00     0.248 C 
ATOM     21  N   UNL     1       0.698  -5.429  -5.378  1.00  0.00    -0.366 N 
ATOM     22  O   UNL     1       2.212  -5.386  -3.707  1.00  0.00    -0.270 OA
ATOM     23  H   UNL     1      -0.185  -5.149  -5.710  1.00  0.00     0.159 HD
ATOM     24  H   UNL     1       1.282  -5.986  -5.941  1.00  0.00     0.159 HD
ENDBRANCH  19  20
ENDBRANCH  12  14
ENDBRANCH   8  10
ENDBRANCH   7   8
ENDBRANCH   6   7
ENDBRANCH   5   6
ENDBRANCH   1   5
BRANCH   3  25
ATOM     25  C   UNL     1       1.131   4.298  -1.314  1.00  0.00     0.116 C 
BRANCH  25  26
ATOM     26  C   UNL     1      -0.243   3.634  -1.403  1.00  0.00     0.023 C 
BRANCH  26  27
ATOM     27  C   UNL     1      -0.788   3.203  -0.035  1.00  0.00     0.023 C 
BRANCH  27  28
ATOM     28  C   UNL     1      -2.258   3.494   0.175  1.00  0.00     0.116 C 
BRANCH  28  29
ATOM     29  N   UNL     1      -3.182   2.938  -0.792  1.00  0.00    -0.352 N 
ATOM     30  C   UNL     1      -4.544   2.751  -0.679  1.00  0.00     0.251 C 
ATOM     31  H   UNL     1      -2.783   2.655  -1.647  1.00  0.00     0.163 HD
ATOM     32  O   UNL     1      -5.185   2.288  -1.619  1.00  0.00    -0.269 OA
BRANCH  30  33
ATOM     33  C   UNL     1      -5.228   2.991   0.622  1.00  0.00     0.039 A 
ATOM     34  C   UNL     1      -6.274   2.137   0.991  1.00  0.00     0.014 A 
ATOM     35  C   UNL     1      -4.803   3.964   1.524  1.00  0.00     0.014 A 
ATOM     36  C   UNL     1      -6.811   2.202   2.279  1.00  0.00     0.010 A 
ATOM     37  C   UNL     1      -5.220   3.923   2.846  1.00  0.00     0.010 A 
ATOM     38  C   UNL     1      -6.247   3.058   3.236  1.00  0.00    -0.014 A 
BRANCH  38  39
ATOM     39  C   UNL     1      -6.730   3.111   4.637  1.00  0.00     0.031 A 
ATOM     40  C   UNL     1      -7.230   4.416   5.200  1.00  0.00     0.074 A 
ATOM     41  C   UNL     1      -6.638   2.019   5.420  1.00  0.00     0.049 A 
ATOM     42  N   UNL     1      -7.592   4.709   6.423  1.00  0.00    -0.248 NA
ATOM     43  C   UNL     1      -7.283   5.561   4.274  1.00  0.00     0.031 C 
ATOM     44  C   UNL     1      -6.104   0.719   5.005  1.00  0.00     0.029 A 
ATOM     45  N   UNL     1      -6.982   1.829   6.735  1.00  0.00    -0.354 N 
ATOM     46  C   UNL     1      -7.888   6.066   6.411  1.00  0.00     0.074 A 
ATOM     47  C   UNL     1      -7.583   6.559   5.089  1.00  0.00     0.031 C 
ATOM     48  C   UNL     1      -6.194  -0.142   6.031  1.00  0.00     0.029 A 
ATOM     49  C   UNL     1      -6.745   0.553   7.188  1.00  0.00     0.049 A 
ATOM     50  H   UNL     1      -7.362   2.539   7.300  1.00  0.00     0.167 HD
ATOM     51  C   UNL     1      -8.406   6.827   7.404  1.00  0.00     0.037 A 
ATOM     52  C   UNL     1      -6.949   0.013   8.404  1.00  0.00     0.037 A 
ATOM     53  C   UNL     1      -8.745   6.315   8.704  1.00  0.00     0.049 A 
ATOM     54  C   UNL     1      -7.535   0.877   9.490  1.00  0.00     0.074 A 
ATOM     55  C   UNL     1      -9.335   6.976   9.765  1.00  0.00     0.029 A 
ATOM     56  N   UNL     1      -8.523   5.008   9.115  1.00  0.00    -0.354 N 
ATOM     57  N   UNL     1      -7.882   2.141   9.446  1.00  0.00    -0.248 NA
ATOM     58  C   UNL     1      -7.766   0.236  10.791  1.00  0.00     0.031 C 
ATOM     59  C   UNL     1      -9.422   6.083  10.838  1.00  0.00     0.029 A 
ATOM     60  C   UNL     1      -8.945   4.848  10.424  1.00  0.00     0.049 A 
ATOM     61  H   UNL     1      -8.124   4.301   8.559  1.00  0.00     0.167 HD
ATOM     62  C   UNL     1      -8.400   2.439  10.699  1.00  0.00     0.074 A 
ATOM     63  C   UNL     1      -8.339   1.216  11.474  1.00  0.00     0.031 C 
ATOM     64  C   UNL     1      -8.883   3.616  11.169  1.00  0.00     0.037 A 
BRANCH  51  65
ATOM     65  C   UNL     1      -8.649   8.282   7.112  1.00  0.00     0.064 A 
ATOM     66  C   UNL     1      -9.617   8.699   6.183  1.00  0.00     0.173 A 
ATOM     67  C   UNL     1      -7.918   9.275   7.781  1.00  0.00     0.173 A 
ATOM     68  F   UNL     1     -10.335   7.792   5.503  1.00  0.00    -0.203 F 
ATOM     69  C   UNL     1      -9.814  10.049   5.908  1.00  0.00     0.198 A 
ATOM     70  C   UNL     1      -8.145  10.626   7.531  1.00  0.00     0.198 A 
ATOM     71  F   UNL     1      -6.982   8.936   8.681  1.00  0.00    -0.203 F 
ATOM     72  F   UNL     1     -10.698  10.417   4.969  1.00  0.00    -0.200 F 
ATOM     73  C   UNL     1      -9.085  11.012   6.587  1.00  0.00     0.200 A 
ATOM     74  F   UNL     1      -7.449  11.556   8.199  1.00  0.00    -0.200 F 
ATOM     75  F   UNL     1      -9.280  12.312   6.326  1.00  0.00    -0.200 F 
ENDBRANCH  51  65
BRANCH  52  76
ATOM     76  C   UNL     1      -6.630  -1.419   8.651  1.00  0.00     0.064 A 
ATOM     77  C   UNL     1      -7.647  -2.352   8.898  1.00  0.00     0.173 A 
ATOM     78  C   UNL     1      -5.307  -1.887   8.651  1.00  0.00     0.173 A 
ATOM     79  F   UNL     1      -8.928  -1.953   8.925  1.00  0.00    -0.203 F 
ATOM     80  C   UNL     1      -7.354  -3.688   9.164  1.00  0.00     0.198 A 
ATOM     81  C   UNL     1      -5.017  -3.230   8.884  1.00  0.00     0.198 A 
ATOM     82  F   UNL     1      -4.295  -1.041   8.411  1.00  0.00    -0.203 F 
ATOM     83  F   UNL     1      -8.344  -4.545   9.450  1.00  0.00    -0.200 F 
ATOM     84  C   UNL     1      -6.039  -4.128   9.151  1.00  0.00     0.200 A 
ATOM     85  F   UNL     1      -3.746  -3.654   8.852  1.00  0.00    -0.200 F 
ATOM     86  F   UNL     1      -5.758  -5.413   9.403  1.00  0.00    -0.200 F 
ENDBRANCH  52  76
BRANCH  64  87
ATOM     87  C   UNL     1      -9.422   3.626  12.570  1.00  0.00     0.064 A 
ATOM     88  C   UNL     1      -8.581   3.510  13.686  1.00  0.00     0.173 A 
ATOM     89  C   UNL     1     -10.796   3.798  12.796  1.00  0.00     0.173 A 
ATOM     90  F   UNL     1      -7.261   3.332  13.522  1.00  0.00    -0.203 F 
ATOM     91  C   UNL     1      -9.101   3.534  14.977  1.00  0.00     0.198 A 
ATOM     92  C   UNL     1     -11.308   3.858  14.088  1.00  0.00     0.198 A 
ATOM     93  F   UNL     1     -11.642   3.924  11.762  1.00  0.00    -0.203 F 
ATOM     94  F   UNL     1      -8.286   3.365  16.027  1.00  0.00    -0.200 F 
ATOM     95  C   UNL     1     -10.461   3.716  15.177  1.00  0.00     0.200 A 
ATOM     96  F   UNL     1     -12.619   4.053  14.280  1.00  0.00    -0.200 F 
ATOM     97  F   UNL     1     -10.958   3.748  16.421  1.00  0.00    -0.200 F 
ENDBRANCH  64  87
ENDBRANCH  38  39
ENDBRANCH  30  33
ENDBRANCH  28  29
ENDBRANCH  27  28
ENDBRANCH  26  27
ENDBRANCH  25  26
ENDBRANCH   3  25
TORSDOF 17
