REMARK SMILES CCc1ncc(C[N@H+]2CCC[C@@H](c3cccc(C(=O)NCCCCNC(=O)c4ccc(-c5c6nc(c(-c7c(F)c(F)c(F)c(F)c7F)c7ccc([nH]7)c(-c7c(F)c(F)c(F)c(F)c7F)c7nc(c(-c8c(F)c(F)c(F)c(F)c8F)c8ccc5[nH]8)C=C7)C=C6)cc4)c3)C2)cn1
REMARK SMILES IDX 21 1 20 2 18 3 19 4 17 6 13 7 14 8 91 9 15 10 16 11 12 12
REMARK SMILES IDX 8 13 9 14 92 15 10 17 11 18 7 19 6 20 3 21 4 22 94 23 5 24
REMARK SMILES IDX 93 25 2 26 1 27 22 28 23 29 24 30 25 31 26 32 27 34 28 35
REMARK SMILES IDX 29 36 90 37 30 38 89 39 31 40 32 41 33 42 83 43 34 44 88 45
REMARK SMILES IDX 82 46 84 47 35 48 87 49 81 50 80 51 36 53 68 54 48 55 67 56
REMARK SMILES IDX 49 57 52 58 66 59 85 60 50 61 51 62 65 64 86 65 53 66 37 67
REMARK SMILES IDX 38 68 46 69 39 70 40 71 44 72 47 73 41 74 42 75 45 76 43 77
REMARK SMILES IDX 69 78 70 79 78 80 71 81 72 82 76 83 79 84 73 85 74 86 77 87
REMARK SMILES IDX 75 88 54 89 55 90 63 91 56 92 57 93 61 94 64 95 58 96 59 97
REMARK SMILES IDX 62 98 60 99
REMARK H PARENT 20 5 8 16 25 33 84 52 52 63
REMARK Flexibility Score: inf
ROOT
ATOM      1  C   UNL     1      -0.728  -9.689   7.497  1.00  0.00     0.116 C 
ENDROOT
BRANCH   1   2
ATOM      2  N   UNL     1      -0.806 -10.627   6.387  1.00  0.00    -0.352 N 
ATOM      3  C   UNL     1      -0.995 -10.419   5.035  1.00  0.00     0.251 C 
ATOM      4  O   UNL     1      -1.021 -11.392   4.284  1.00  0.00    -0.269 OA
ATOM      5  H   UNL     1      -0.707 -11.572   6.644  1.00  0.00     0.163 HD
BRANCH   3   6
ATOM      6  C   UNL     1      -1.240  -9.061   4.481  1.00  0.00     0.040 A 
ATOM      7  C   UNL     1      -1.159  -6.651   4.759  1.00  0.00    -0.039 A 
ATOM      8  C   UNL     1      -2.051  -6.508   3.691  1.00  0.00     0.004 A 
ATOM      9  C   UNL     1      -0.658  -7.926   5.039  1.00  0.00     0.018 A 
ATOM     10  C   UNL     1      -2.502  -7.632   2.994  1.00  0.00     0.001 A 
ATOM     11  C   UNL     1      -2.128  -8.911   3.413  1.00  0.00     0.014 A 
BRANCH   7  12
ATOM     12  C   UNL     1      -0.716  -5.509   5.655  1.00  0.00     0.074 C 
ATOM     13  N   UNL     1       0.960  -3.667   5.853  1.00  0.00    -0.331 N 
ATOM     14  C   UNL     1      -0.108  -2.708   6.164  1.00  0.00     0.262 C 
ATOM     15  C   UNL     1       0.467  -4.776   5.021  1.00  0.00     0.270 C 
ATOM     16  H   UNL     1       1.259  -4.061   6.746  1.00  0.00     0.348 HD
ATOM     17  C   UNL     1      -1.284  -3.389   6.871  1.00  0.00     0.062 C 
ATOM     18  C   UNL     1      -1.842  -4.532   6.027  1.00  0.00     0.020 C 
BRANCH  13  19
ATOM     19  C   UNL     1       2.162  -3.031   5.271  1.00  0.00     0.302 C 
BRANCH  19  20
ATOM     20  C   UNL     1       1.988  -2.480   3.887  1.00  0.00     0.043 A 
ATOM     21  C   UNL     1       1.294  -1.604   1.413  1.00  0.00     0.127 A 
ATOM     22  N   UNL     1       1.200  -0.734   2.438  1.00  0.00    -0.241 NA
ATOM     23  N   UNL     1       1.764  -2.860   1.521  1.00  0.00    -0.241 NA
ATOM     24  C   UNL     1       1.564  -1.191   3.651  1.00  0.00     0.124 A 
ATOM     25  C   UNL     1       2.111  -3.263   2.756  1.00  0.00     0.124 A 
BRANCH  21  26
ATOM     26  C   UNL     1       0.707  -1.203   0.088  1.00  0.00     0.074 C 
ATOM     27  C   UNL     1       1.131   0.188  -0.349  1.00  0.00     0.012 C 
ENDBRANCH  21  26
ENDBRANCH  19  20
ENDBRANCH  13  19
ENDBRANCH   7  12
ENDBRANCH   3   6
ENDBRANCH   1   2
BRANCH   1  28
ATOM     28  C   UNL     1      -1.587 -10.038   8.702  1.00  0.00     0.023 C 
BRANCH  28  29
ATOM     29  C   UNL     1      -1.248 -11.336   9.415  1.00  0.00     0.023 C 
BRANCH  29  30
ATOM     30  C   UNL     1       0.220 -11.540   9.757  1.00  0.00     0.116 C 
BRANCH  30  31
ATOM     31  N   UNL     1       0.799 -10.478  10.566  1.00  0.00    -0.352 N 
ATOM     32  C   UNL     1       1.569 -10.569  11.707  1.00  0.00     0.251 C 
ATOM     33  H   UNL     1       0.614  -9.563  10.255  1.00  0.00     0.163 HD
ATOM     34  O   UNL     1       1.922  -9.562  12.297  1.00  0.00    -0.269 OA
BRANCH  32  35
ATOM     35  C   UNL     1       1.926 -11.904  12.236  1.00  0.00     0.039 A 
ATOM     36  C   UNL     1       1.748 -12.158  13.599  1.00  0.00     0.014 A 
ATOM     37  C   UNL     1       2.393 -12.910  11.389  1.00  0.00     0.014 A 
ATOM     38  C   UNL     1       1.962 -13.445  14.095  1.00  0.00     0.010 A 
ATOM     39  C   UNL     1       2.511 -14.211  11.864  1.00  0.00     0.010 A 
ATOM     40  C   UNL     1       2.307 -14.491  13.223  1.00  0.00    -0.014 A 
BRANCH  40  41
ATOM     41  C   UNL     1       2.489 -15.880  13.713  1.00  0.00     0.031 A 
ATOM     42  C   UNL     1       3.834 -16.541  13.599  1.00  0.00     0.074 A 
ATOM     43  C   UNL     1       1.437 -16.569  14.196  1.00  0.00     0.049 A 
ATOM     44  N   UNL     1       4.189 -17.763  13.908  1.00  0.00    -0.248 NA
ATOM     45  C   UNL     1       4.919 -15.729  13.026  1.00  0.00     0.031 C 
ATOM     46  C   UNL     1       0.070 -16.058  14.313  1.00  0.00     0.029 A 
ATOM     47  N   UNL     1       1.354 -17.851  14.677  1.00  0.00    -0.354 N 
ATOM     48  C   UNL     1       5.526 -17.869  13.545  1.00  0.00     0.074 A 
ATOM     49  C   UNL     1       5.899 -16.613  12.933  1.00  0.00     0.031 C 
ATOM     50  C   UNL     1      -0.706 -17.002  14.869  1.00  0.00     0.029 A 
ATOM     51  C   UNL     1       0.099 -18.195  15.115  1.00  0.00     0.049 A 
ATOM     52  H   UNL     1       2.122 -18.467  14.706  1.00  0.00     0.167 HD
ATOM     53  C   UNL     1       6.375 -18.907  13.734  1.00  0.00     0.037 A 
ATOM     54  C   UNL     1      -0.347 -19.343  15.661  1.00  0.00     0.037 A 
ATOM     55  C   UNL     1       6.009 -20.142  14.373  1.00  0.00     0.049 A 
ATOM     56  C   UNL     1       0.615 -20.483  15.860  1.00  0.00     0.074 A 
ATOM     57  C   UNL     1       6.806 -21.233  14.669  1.00  0.00     0.029 A 
ATOM     58  N   UNL     1       4.730 -20.448  14.816  1.00  0.00    -0.354 N 
ATOM     59  N   UNL     1       1.893 -20.548  15.580  1.00  0.00    -0.248 NA
ATOM     60  C   UNL     1       0.068 -21.709  16.458  1.00  0.00     0.031 C 
ATOM     61  C   UNL     1       6.001 -22.216  15.254  1.00  0.00     0.029 A 
ATOM     62  C   UNL     1       4.712 -21.719  15.368  1.00  0.00     0.049 A 
ATOM     63  H   UNL     1       3.950 -19.851  14.748  1.00  0.00     0.167 HD
ATOM     64  C   UNL     1       2.314 -21.802  16.003  1.00  0.00     0.074 A 
ATOM     65  C   UNL     1       1.153 -22.463  16.564  1.00  0.00     0.031 C 
ATOM     66  C   UNL     1       3.550 -22.355  15.937  1.00  0.00     0.037 A 
BRANCH  53  67
ATOM     67  C   UNL     1       7.783 -18.737  13.238  1.00  0.00     0.064 A 
ATOM     68  C   UNL     1       8.667 -17.820  13.830  1.00  0.00     0.173 A 
ATOM     69  C   UNL     1       8.253 -19.491  12.153  1.00  0.00     0.173 A 
ATOM     70  F   UNL     1       8.265 -17.064  14.862  1.00  0.00    -0.203 F 
ATOM     71  C   UNL     1       9.950 -17.630  13.322  1.00  0.00     0.198 A 
ATOM     72  C   UNL     1       9.549 -19.324  11.670  1.00  0.00     0.198 A 
ATOM     73  F   UNL     1       7.453 -20.386  11.553  1.00  0.00    -0.203 F 
ATOM     74  F   UNL     1      10.749 -16.697  13.858  1.00  0.00    -0.200 F 
ATOM     75  C   UNL     1      10.391 -18.384  12.246  1.00  0.00     0.200 A 
ATOM     76  F   UNL     1       9.978 -20.062  10.638  1.00  0.00    -0.200 F 
ATOM     77  F   UNL     1      11.624 -18.197  11.755  1.00  0.00    -0.200 F 
ENDBRANCH  53  67
BRANCH  54  78
ATOM     78  C   UNL     1      -1.756 -19.448  16.119  1.00  0.00     0.064 A 
ATOM     79  C   UNL     1      -2.057 -19.484  17.488  1.00  0.00     0.173 A 
ATOM     80  C   UNL     1      -2.824 -19.512  15.214  1.00  0.00     0.173 A 
ATOM     81  F   UNL     1      -1.067 -19.446  18.392  1.00  0.00    -0.203 F 
ATOM     82  C   UNL     1      -3.372 -19.596  17.934  1.00  0.00     0.198 A 
ATOM     83  C   UNL     1      -4.141 -19.599  15.662  1.00  0.00     0.198 A 
ATOM     84  F   UNL     1      -2.589 -19.478  13.894  1.00  0.00    -0.203 F 
ATOM     85  F   UNL     1      -3.628 -19.668  19.248  1.00  0.00    -0.200 F 
ATOM     86  C   UNL     1      -4.414 -19.648  17.021  1.00  0.00     0.200 A 
ATOM     87  F   UNL     1      -5.147 -19.637  14.777  1.00  0.00    -0.200 F 
ATOM     88  F   UNL     1      -5.679 -19.751  17.450  1.00  0.00    -0.200 F 
ENDBRANCH  54  78
BRANCH  66  89
ATOM     89  C   UNL     1       3.725 -23.721  16.534  1.00  0.00     0.064 A 
ATOM     90  C   UNL     1       3.197 -24.868  15.924  1.00  0.00     0.173 A 
ATOM     91  C   UNL     1       4.463 -23.885  17.717  1.00  0.00     0.173 A 
ATOM     92  F   UNL     1       2.472 -24.762  14.800  1.00  0.00    -0.203 F 
ATOM     93  C   UNL     1       3.378 -26.126  16.491  1.00  0.00     0.198 A 
ATOM     94  C   UNL     1       4.667 -25.148  18.264  1.00  0.00     0.198 A 
ATOM     95  F   UNL     1       4.994 -22.820  18.336  1.00  0.00    -0.203 F 
ATOM     96  F   UNL     1       2.823 -27.203  15.918  1.00  0.00    -0.200 F 
ATOM     97  C   UNL     1       4.119 -26.266  17.656  1.00  0.00     0.200 A 
ATOM     98  F   UNL     1       5.394 -25.282  19.382  1.00  0.00    -0.200 F 
ATOM     99  F   UNL     1       4.296 -27.479  18.197  1.00  0.00    -0.200 F 
ENDBRANCH  66  89
ENDBRANCH  40  41
ENDBRANCH  32  35
ENDBRANCH  30  31
ENDBRANCH  29  30
ENDBRANCH  28  29
ENDBRANCH   1  28
TORSDOF 15
