REMARK SMILES COc1ccc(Cl)c2c1N[C@@H](c1ccc(C(=O)NCCCCNC(=O)c3ccc(-c4c5nc(c(-c6c(F)c(F)c(F)c(F)c6F)c6ccc([nH]6)c(-c6c(F)c(F)c(F)c(F)c6F)c6nc(c(-c7c(F)c(F)c(F)c(F)c7F)c7ccc4[nH]7)C=C6)C=C5)cc3)cc1)[C@@H]1CC=C[C@H]21
REMARK SMILES IDX 20 1 19 2 18 3 16 4 17 5 15 7 12 8 13 9 90 10 14 11 89 12
REMARK SMILES IDX 11 13 3 14 4 15 9 16 5 17 8 18 10 19 6 20 95 21 7 23 91 24
REMARK SMILES IDX 94 25 92 26 93 27 2 28 1 29 21 30 22 31 23 32 24 33 25 35
REMARK SMILES IDX 26 36 27 37 88 38 28 39 87 40 29 41 30 42 31 43 81 44 32 45
REMARK SMILES IDX 86 46 80 47 82 48 33 49 85 50 79 51 78 52 34 54 66 55 46 56
REMARK SMILES IDX 65 57 47 58 50 59 64 60 83 61 48 62 49 63 63 65 84 66 51 67
REMARK SMILES IDX 35 68 36 69 44 70 37 71 38 72 42 73 45 74 39 75 40 76 43 77
REMARK SMILES IDX 41 78 67 79 68 80 76 81 69 82 70 83 74 84 77 85 71 86 72 87
REMARK SMILES IDX 75 88 73 89 52 90 53 91 61 92 54 93 55 94 59 95 62 96 56 97
REMARK SMILES IDX 57 98 60 99 58 100
REMARK H PARENT 18 6 10 22 23 34 82 53 50 64
REMARK Flexibility Score: inf
ROOT
ATOM      1  C   UNL     1      10.042  -0.756  -2.338  1.00  0.00     0.023 C 
ENDROOT
BRANCH   1   2
ATOM      2  C   UNL     1      10.131   0.262  -1.199  1.00  0.00     0.116 C 
BRANCH   2   3
ATOM      3  N   UNL     1       9.450   1.492  -1.548  1.00  0.00    -0.352 N 
ATOM      4  C   UNL     1       8.193   1.946  -1.238  1.00  0.00     0.251 C 
ATOM      5  O   UNL     1       7.879   3.076  -1.610  1.00  0.00    -0.269 OA
ATOM      6  H   UNL     1       9.980   2.108  -2.104  1.00  0.00     0.163 HD
BRANCH   4   7
ATOM      7  C   UNL     1       7.221   1.149  -0.438  1.00  0.00     0.039 A 
ATOM      8  C   UNL     1       5.296  -0.227   1.116  1.00  0.00    -0.025 A 
ATOM      9  C   UNL     1       5.402   1.171   1.177  1.00  0.00     0.006 A 
ATOM     10  C   UNL     1       6.154  -0.919   0.253  1.00  0.00     0.006 A 
ATOM     11  C   UNL     1       6.342   1.851   0.396  1.00  0.00     0.014 A 
ATOM     12  C   UNL     1       7.096  -0.238  -0.518  1.00  0.00     0.014 A 
BRANCH   8  13
ATOM     13  C   UNL     1       4.271  -1.010   1.925  1.00  0.00     0.114 C 
ATOM     14  C   UNL     1       0.663  -0.285   2.450  1.00  0.00     0.142 A 
ATOM     15  C   UNL     1      -0.416  -0.669   3.240  1.00  0.00     0.050 A 
ATOM     16  C   UNL     1       1.971  -0.727   2.728  1.00  0.00     0.083 A 
ATOM     17  C   UNL     1      -0.206  -1.537   4.305  1.00  0.00     0.025 A 
ATOM     18  C   UNL     1       2.189  -1.607   3.805  1.00  0.00     0.005 A 
ATOM     19  N   UNL     1       3.032  -0.262   1.966  1.00  0.00    -0.375 N 
ATOM     20  C   UNL     1       1.083  -2.003   4.586  1.00  0.00     0.047 A 
ATOM     21  C   UNL     1       3.596  -2.050   4.135  1.00  0.00     0.051 C 
ATOM     22  H   UNL     1       2.942   0.574   1.453  1.00  0.00     0.161 HD
ATOM     23  Cl  UNL     1       1.252  -3.049   5.955  1.00  0.00    -0.084 Cl
ATOM     24  C   UNL     1       4.730  -1.325   3.363  1.00  0.00     0.031 C 
ATOM     25  C   UNL     1       3.902  -3.494   3.816  1.00  0.00    -0.023 C 
ATOM     26  C   UNL     1       5.891  -2.338   3.413  1.00  0.00     0.034 C 
ATOM     27  C   UNL     1       5.174  -3.650   3.431  1.00  0.00    -0.030 C 
BRANCH  14  28
ATOM     28  O   UNL     1       0.413   0.591   1.420  1.00  0.00    -0.495 OA
ATOM     29  C   UNL     1       0.375  -0.096   0.167  1.00  0.00     0.278 C 
ENDBRANCH  14  28
ENDBRANCH   8  13
ENDBRANCH   4   7
ENDBRANCH   2   3
ENDBRANCH   1   2
BRANCH   1  30
ATOM     30  C   UNL     1      10.966  -0.474  -3.521  1.00  0.00     0.023 C 
BRANCH  30  31
ATOM     31  C   UNL     1      12.450  -0.489  -3.189  1.00  0.00     0.116 C 
BRANCH  31  32
ATOM     32  N   UNL     1      12.887  -1.739  -2.588  1.00  0.00    -0.352 N 
ATOM     33  C   UNL     1      14.097  -2.368  -2.747  1.00  0.00     0.251 C 
ATOM     34  H   UNL     1      12.239  -2.187  -1.997  1.00  0.00     0.163 HD
ATOM     35  O   UNL     1      14.316  -3.464  -2.254  1.00  0.00    -0.269 OA
BRANCH  33  36
ATOM     36  C   UNL     1      15.123  -1.695  -3.561  1.00  0.00     0.039 A 
ATOM     37  C   UNL     1      15.624  -2.349  -4.687  1.00  0.00     0.014 A 
ATOM     38  C   UNL     1      15.529  -0.397  -3.237  1.00  0.00     0.014 A 
ATOM     39  C   UNL     1      16.513  -1.679  -5.525  1.00  0.00     0.010 A 
ATOM     40  C   UNL     1      16.378   0.286  -4.097  1.00  0.00     0.010 A 
ATOM     41  C   UNL     1      16.881  -0.354  -5.241  1.00  0.00    -0.014 A 
BRANCH  41  42
ATOM     42  C   UNL     1      17.852   0.363  -6.094  1.00  0.00     0.031 A 
ATOM     43  C   UNL     1      19.235   0.612  -5.570  1.00  0.00     0.074 A 
ATOM     44  C   UNL     1      17.480   0.820  -7.302  1.00  0.00     0.049 A 
ATOM     45  N   UNL     1      20.220   1.277  -6.116  1.00  0.00    -0.248 NA
ATOM     46  C   UNL     1      19.545   0.053  -4.244  1.00  0.00     0.031 C 
ATOM     47  C   UNL     1      16.156   0.649  -7.901  1.00  0.00     0.029 A 
ATOM     48  N   UNL     1      18.183   1.532  -8.240  1.00  0.00    -0.354 N 
ATOM     49  C   UNL     1      21.262   1.216  -5.202  1.00  0.00     0.074 A 
ATOM     50  C   UNL     1      20.776   0.497  -4.045  1.00  0.00     0.031 C 
ATOM     51  C   UNL     1      16.147   1.228  -9.114  1.00  0.00     0.029 A 
ATOM     52  C   UNL     1      17.453   1.832  -9.363  1.00  0.00     0.049 A 
ATOM     53  H   UNL     1      19.123   1.801  -8.120  1.00  0.00     0.167 HD
ATOM     54  C   UNL     1      22.520   1.695  -5.331  1.00  0.00     0.037 A 
ATOM     55  C   UNL     1      17.806   2.522 -10.464  1.00  0.00     0.037 A 
ATOM     56  C   UNL     1      23.001   2.396  -6.489  1.00  0.00     0.049 A 
ATOM     57  C   UNL     1      19.201   3.078 -10.565  1.00  0.00     0.074 A 
ATOM     58  C   UNL     1      24.267   2.896  -6.732  1.00  0.00     0.029 A 
ATOM     59  N   UNL     1      22.229   2.694  -7.603  1.00  0.00    -0.354 N 
ATOM     60  N   UNL     1      20.192   2.986  -9.712  1.00  0.00    -0.248 NA
ATOM     61  C   UNL     1      19.526   3.834 -11.783  1.00  0.00     0.031 C 
ATOM     62  C   UNL     1      24.254   3.526  -7.981  1.00  0.00     0.029 A 
ATOM     63  C   UNL     1      22.989   3.386  -8.531  1.00  0.00     0.049 A 
ATOM     64  H   UNL     1      21.282   2.450  -7.717  1.00  0.00     0.167 HD
ATOM     65  C   UNL     1      21.261   3.653 -10.294  1.00  0.00     0.074 A 
ATOM     66  C   UNL     1      20.802   4.134 -11.581  1.00  0.00     0.031 C 
ATOM     67  C   UNL     1      22.509   3.853  -9.806  1.00  0.00     0.037 A 
BRANCH  54  68
ATOM     68  C   UNL     1      23.464   1.463  -4.191  1.00  0.00     0.064 A 
ATOM     69  C   UNL     1      23.988   0.188  -3.929  1.00  0.00     0.173 A 
ATOM     70  C   UNL     1      23.871   2.524  -3.371  1.00  0.00     0.173 A 
ATOM     71  F   UNL     1      23.613  -0.862  -4.676  1.00  0.00    -0.203 F 
ATOM     72  C   UNL     1      24.871  -0.019  -2.874  1.00  0.00     0.198 A 
ATOM     73  C   UNL     1      24.774   2.318  -2.331  1.00  0.00     0.198 A 
ATOM     74  F   UNL     1      23.396   3.761  -3.580  1.00  0.00    -0.203 F 
ATOM     75  F   UNL     1      25.328  -1.253  -2.617  1.00  0.00    -0.200 F 
ATOM     76  C   UNL     1      25.269   1.046  -2.080  1.00  0.00     0.200 A 
ATOM     77  F   UNL     1      25.163   3.349  -1.569  1.00  0.00    -0.200 F 
ATOM     78  F   UNL     1      26.124   0.847  -1.069  1.00  0.00    -0.200 F 
ENDBRANCH  54  68
BRANCH  55  79
ATOM     79  C   UNL     1      16.832   2.700 -11.570  1.00  0.00     0.064 A 
ATOM     80  C   UNL     1      16.992   2.012 -12.781  1.00  0.00     0.173 A 
ATOM     81  C   UNL     1      15.726   3.552 -11.443  1.00  0.00     0.173 A 
ATOM     82  F   UNL     1      18.047   1.203 -12.955  1.00  0.00    -0.203 F 
ATOM     83  C   UNL     1      16.089   2.178 -13.828  1.00  0.00     0.198 A 
ATOM     84  C   UNL     1      14.811   3.701 -12.483  1.00  0.00     0.198 A 
ATOM     85  F   UNL     1      15.529   4.231 -10.304  1.00  0.00    -0.203 F 
ATOM     86  F   UNL     1      16.283   1.534 -14.986  1.00  0.00    -0.200 F 
ATOM     87  C   UNL     1      14.996   3.019 -13.677  1.00  0.00     0.200 A 
ATOM     88  F   UNL     1      13.751   4.507 -12.331  1.00  0.00    -0.200 F 
ATOM     89  F   UNL     1      14.124   3.175 -14.682  1.00  0.00    -0.200 F 
ENDBRANCH  55  79
BRANCH  67  90
ATOM     90  C   UNL     1      23.472   4.612 -10.668  1.00  0.00     0.064 A 
ATOM     91  C   UNL     1      23.372   6.002 -10.822  1.00  0.00     0.173 A 
ATOM     92  C   UNL     1      24.542   3.953 -11.290  1.00  0.00     0.173 A 
ATOM     93  F   UNL     1      22.357   6.672 -10.257  1.00  0.00    -0.203 F 
ATOM     94  C   UNL     1      24.305   6.704 -11.580  1.00  0.00     0.198 A 
ATOM     95  C   UNL     1      25.487   4.662 -12.027  1.00  0.00     0.198 A 
ATOM     96  F   UNL     1      24.683   2.624 -11.166  1.00  0.00    -0.203 F 
ATOM     97  F   UNL     1      24.174   8.028 -11.740  1.00  0.00    -0.200 F 
ATOM     98  C   UNL     1      25.365   6.035 -12.174  1.00  0.00     0.200 A 
ATOM     99  F   UNL     1      26.518   4.016 -12.589  1.00  0.00    -0.200 F 
ATOM    100  F   UNL     1      26.269   6.715 -12.892  1.00  0.00    -0.200 F 
ENDBRANCH  67  90
ENDBRANCH  41  42
ENDBRANCH  33  36
ENDBRANCH  31  32
ENDBRANCH  30  31
ENDBRANCH   1  30
TORSDOF 13
