REMARK SMILES CC[C@@H](Oc1cc(Cl)ccc1Cl)C(=O)NNC(=O)[C@@H]1[C@@H]2CC[C@@H](C2)[C@@H]1C(=O)NCCCCNC(=O)c1ccc(-c2c3nc(c(-c4c(F)c(F)c(F)c(F)c4F)c4ccc([nH]4)c(-c4c(F)c(F)c(F)c(F)c4F)c4nc(c(-c5c(F)c(F)c(F)c(F)c5F)c5ccc2[nH]5)C=C4)C=C3)cc1
REMARK SMILES IDX 29 1 28 2 26 3 27 4 25 6 19 7 20 8 21 9 24 10 23 11 22 12
REMARK SMILES IDX 17 13 16 14 18 16 15 17 13 18 14 19 3 21 2 22 1 23 4 24 5 25
REMARK SMILES IDX 6 26 11 27 7 28 10 29 12 30 8 31 9 32 30 33 31 34 32 35
REMARK SMILES IDX 33 36 34 37 35 39 36 40 37 41 98 42 38 43 97 44 39 45 40 46
REMARK SMILES IDX 41 47 91 48 42 49 96 50 90 51 92 52 43 53 95 54 89 55 88 56
REMARK SMILES IDX 44 58 76 59 56 60 75 61 57 62 60 63 74 64 93 65 58 66 59 67
REMARK SMILES IDX 73 69 94 70 61 71 45 72 46 73 54 74 47 75 48 76 52 77 55 78
REMARK SMILES IDX 49 79 50 80 53 81 51 82 77 83 78 84 86 85 79 86 80 87 84 88
REMARK SMILES IDX 87 89 81 90 82 91 85 92 83 93 62 94 63 95 71 96 64 97 65 98
REMARK SMILES IDX 69 99 72 100 66 101 67 102 70 103 68 104
REMARK H PARENT 28 5 16 15 15 20 33 38 92 57 60 68
REMARK Flexibility Score: inf
ROOT
ATOM      1  C   UNL     1      -4.346  -6.314  -4.237  1.00  0.00     0.116 C 
ENDROOT
BRANCH   1   2
ATOM      2  N   UNL     1      -5.355  -5.393  -4.730  1.00  0.00    -0.356 N 
ATOM      3  C   UNL     1      -5.268  -4.053  -4.988  1.00  0.00     0.224 C 
ATOM      4  O   UNL     1      -6.231  -3.502  -5.521  1.00  0.00    -0.275 OA
ATOM      5  H   UNL     1      -6.236  -5.795  -4.905  1.00  0.00     0.163 HD
BRANCH   3   6
ATOM      6  C   UNL     1      -3.949  -3.337  -4.720  1.00  0.00     0.094 C 
ATOM      7  C   UNL     1      -3.975  -1.795  -4.479  1.00  0.00     0.096 C 
ATOM      8  C   UNL     1      -3.106  -1.267  -5.637  1.00  0.00     0.002 C 
ATOM      9  C   UNL     1      -3.784  -1.474  -6.999  1.00  0.00     0.005 C 
ATOM     10  C   UNL     1      -2.002  -2.337  -5.678  1.00  0.00     0.009 C 
ATOM     11  C   UNL     1      -2.987  -3.476  -5.934  1.00  0.00     0.002 C 
ATOM     12  C   UNL     1      -3.644  -2.981  -7.236  1.00  0.00     0.005 C 
BRANCH   7  13
ATOM     13  C   UNL     1      -5.335  -1.229  -4.084  1.00  0.00     0.242 C 
ATOM     14  N   UNL     1      -5.796  -0.015  -4.495  1.00  0.00    -0.267 N 
ATOM     15  H   UNL     1      -6.691   0.236  -4.171  1.00  0.00     0.191 HD
ATOM     16  O   UNL     1      -6.007  -1.827  -3.232  1.00  0.00    -0.273 OA
BRANCH  14  17
ATOM     17  N   UNL     1      -5.167   0.907  -5.309  1.00  0.00    -0.264 N 
ATOM     18  C   UNL     1      -5.848   1.788  -6.121  1.00  0.00     0.279 C 
ATOM     19  O   UNL     1      -5.203   2.609  -6.780  1.00  0.00    -0.269 OA
ATOM     20  H   UNL     1      -4.183   0.936  -5.308  1.00  0.00     0.191 HD
BRANCH  18  21
ATOM     21  C   UNL     1      -7.384   1.697  -6.243  1.00  0.00     0.263 C 
BRANCH  21  22
ATOM     22  C   UNL     1      -7.754   0.571  -7.223  1.00  0.00     0.052 C 
ATOM     23  C   UNL     1      -8.918   0.952  -8.136  1.00  0.00     0.008 C 
ENDBRANCH  21  22
BRANCH  21  24
ATOM     24  O   UNL     1      -7.940   1.441  -4.937  1.00  0.00    -0.479 OA
BRANCH  24  25
ATOM     25  C   UNL     1      -9.197   1.952  -4.762  1.00  0.00     0.140 A 
ATOM     26  C   UNL     1     -10.280   1.095  -4.965  1.00  0.00     0.068 A 
ATOM     27  C   UNL     1      -9.405   3.247  -4.276  1.00  0.00     0.083 A 
ATOM     28  C   UNL     1     -11.575   1.561  -4.756  1.00  0.00     0.044 A 
ATOM     29  C   UNL     1     -10.706   3.702  -4.051  1.00  0.00     0.026 A 
ATOM     30  Cl  UNL     1      -8.084   4.297  -3.922  1.00  0.00    -0.080 Cl
ATOM     31  Cl  UNL     1     -12.913   0.525  -5.063  1.00  0.00    -0.084 Cl
ATOM     32  C   UNL     1     -11.794   2.861  -4.302  1.00  0.00     0.022 A 
ENDBRANCH  24  25
ENDBRANCH  21  24
ENDBRANCH  18  21
ENDBRANCH  14  17
ENDBRANCH   7  13
ENDBRANCH   3   6
ENDBRANCH   1   2
BRANCH   1  33
ATOM     33  C   UNL     1      -4.626  -6.792  -2.813  1.00  0.00     0.023 C 
BRANCH  33  34
ATOM     34  C   UNL     1      -5.944  -7.548  -2.618  1.00  0.00     0.023 C 
BRANCH  34  35
ATOM     35  C   UNL     1      -6.179  -8.745  -3.538  1.00  0.00     0.116 C 
BRANCH  35  36
ATOM     36  N   UNL     1      -5.176  -9.787  -3.398  1.00  0.00    -0.352 N 
ATOM     37  C   UNL     1      -5.318 -11.152  -3.332  1.00  0.00     0.251 C 
ATOM     38  H   UNL     1      -4.248  -9.463  -3.342  1.00  0.00     0.163 HD
ATOM     39  O   UNL     1      -4.330 -11.847  -3.111  1.00  0.00    -0.269 OA
BRANCH  37  40
ATOM     40  C   UNL     1      -6.644 -11.802  -3.484  1.00  0.00     0.039 A 
ATOM     41  C   UNL     1      -6.945 -12.888  -2.655  1.00  0.00     0.014 A 
ATOM     42  C   UNL     1      -7.574 -11.391  -4.443  1.00  0.00     0.014 A 
ATOM     43  C   UNL     1      -8.191 -13.516  -2.742  1.00  0.00     0.010 A 
ATOM     44  C   UNL     1      -8.843 -11.977  -4.487  1.00  0.00     0.010 A 
ATOM     45  C   UNL     1      -9.167 -13.043  -3.635  1.00  0.00    -0.014 A 
BRANCH  45  46
ATOM     46  C   UNL     1     -10.526 -13.648  -3.660  1.00  0.00     0.031 A 
ATOM     47  C   UNL     1     -11.017 -14.398  -4.869  1.00  0.00     0.074 A 
ATOM     48  C   UNL     1     -11.336 -13.502  -2.591  1.00  0.00     0.049 A 
ATOM     49  N   UNL     1     -12.171 -14.987  -5.065  1.00  0.00    -0.248 NA
ATOM     50  C   UNL     1     -10.100 -14.483  -6.015  1.00  0.00     0.031 C 
ATOM     51  C   UNL     1     -11.001 -12.761  -1.374  1.00  0.00     0.029 A 
ATOM     52  N   UNL     1     -12.606 -13.969  -2.356  1.00  0.00    -0.354 N 
ATOM     53  C   UNL     1     -12.117 -15.514  -6.349  1.00  0.00     0.074 A 
ATOM     54  C   UNL     1     -10.838 -15.127  -6.908  1.00  0.00     0.031 C 
ATOM     55  C   UNL     1     -12.025 -12.848  -0.510  1.00  0.00     0.029 A 
ATOM     56  C   UNL     1     -13.101 -13.623  -1.121  1.00  0.00     0.049 A 
ATOM     57  H   UNL     1     -13.113 -14.502  -3.009  1.00  0.00     0.167 HD
ATOM     58  C   UNL     1     -13.035 -16.273  -6.994  1.00  0.00     0.037 A 
ATOM     59  C   UNL     1     -14.287 -13.899  -0.546  1.00  0.00     0.037 A 
ATOM     60  C   UNL     1     -14.303 -16.671  -6.438  1.00  0.00     0.049 A 
ATOM     61  C   UNL     1     -15.292 -14.735  -1.294  1.00  0.00     0.074 A 
ATOM     62  C   UNL     1     -15.287 -17.462  -7.008  1.00  0.00     0.029 A 
ATOM     63  N   UNL     1     -14.763 -16.309  -5.181  1.00  0.00    -0.354 N 
ATOM     64  N   UNL     1     -15.199 -15.277  -2.482  1.00  0.00    -0.248 NA
ATOM     65  C   UNL     1     -16.565 -15.004  -0.609  1.00  0.00     0.031 C 
ATOM     66  C   UNL     1     -16.356 -17.551  -6.110  1.00  0.00     0.029 A 
ATOM     67  C   UNL     1     -16.020 -16.852  -4.963  1.00  0.00     0.049 A 
ATOM     68  H   UNL     1     -14.270 -15.749  -4.538  1.00  0.00     0.167 HD
ATOM     69  C   UNL     1     -16.384 -15.975  -2.675  1.00  0.00     0.074 A 
ATOM     70  C   UNL     1     -17.170 -15.806  -1.472  1.00  0.00     0.031 C 
ATOM     71  C   UNL     1     -16.787 -16.688  -3.755  1.00  0.00     0.037 A 
BRANCH  58  72
ATOM     72  C   UNL     1     -12.697 -16.750  -8.377  1.00  0.00     0.064 A 
ATOM     73  C   UNL     1     -11.735 -17.750  -8.587  1.00  0.00     0.173 A 
ATOM     74  C   UNL     1     -13.387 -16.257  -9.495  1.00  0.00     0.173 A 
ATOM     75  F   UNL     1     -11.042 -18.247  -7.551  1.00  0.00    -0.203 F 
ATOM     76  C   UNL     1     -11.463 -18.225  -9.867  1.00  0.00     0.198 A 
ATOM     77  C   UNL     1     -13.131 -16.755 -10.770  1.00  0.00     0.198 A 
ATOM     78  F   UNL     1     -14.322 -15.307  -9.348  1.00  0.00    -0.203 F 
ATOM     79  F   UNL     1     -10.515 -19.156 -10.046  1.00  0.00    -0.200 F 
ATOM     80  C   UNL     1     -12.167 -17.734 -10.956  1.00  0.00     0.200 A 
ATOM     81  F   UNL     1     -13.822 -16.289 -11.821  1.00  0.00    -0.200 F 
ATOM     82  F   UNL     1     -11.914 -18.204 -12.185  1.00  0.00    -0.200 F 
ENDBRANCH  58  72
BRANCH  59  83
ATOM     83  C   UNL     1     -14.591 -13.406   0.823  1.00  0.00     0.064 A 
ATOM     84  C   UNL     1     -14.718 -14.299   1.897  1.00  0.00     0.173 A 
ATOM     85  C   UNL     1     -14.802 -12.044   1.078  1.00  0.00     0.173 A 
ATOM     86  F   UNL     1     -14.548 -15.614   1.698  1.00  0.00    -0.203 F 
ATOM     87  C   UNL     1     -15.078 -13.851   3.167  1.00  0.00     0.198 A 
ATOM     88  C   UNL     1     -15.131 -11.594   2.355  1.00  0.00     0.198 A 
ATOM     89  F   UNL     1     -14.689 -11.149   0.086  1.00  0.00    -0.203 F 
ATOM     90  F   UNL     1     -15.254 -14.733   4.160  1.00  0.00    -0.200 F 
ATOM     91  C   UNL     1     -15.281 -12.499   3.395  1.00  0.00     0.200 A 
ATOM     92  F   UNL     1     -15.316 -10.285   2.575  1.00  0.00    -0.200 F 
ATOM     93  F   UNL     1     -15.635 -12.070   4.614  1.00  0.00    -0.200 F 
ENDBRANCH  59  83
BRANCH  71  94
ATOM     94  C   UNL     1     -18.121 -17.371  -3.665  1.00  0.00     0.064 A 
ATOM     95  C   UNL     1     -19.322 -16.646  -3.687  1.00  0.00     0.173 A 
ATOM     96  C   UNL     1     -18.198 -18.768  -3.567  1.00  0.00     0.173 A 
ATOM     97  F   UNL     1     -19.301 -15.307  -3.764  1.00  0.00    -0.203 F 
ATOM     98  C   UNL     1     -20.550 -17.293  -3.577  1.00  0.00     0.198 A 
ATOM     99  C   UNL     1     -19.429 -19.414  -3.488  1.00  0.00     0.198 A 
ATOM    100  F   UNL     1     -17.080 -19.509  -3.549  1.00  0.00    -0.203 F 
ATOM    101  F   UNL     1     -21.682 -16.576  -3.541  1.00  0.00    -0.200 F 
ATOM    102  C   UNL     1     -20.603 -18.676  -3.482  1.00  0.00     0.200 A 
ATOM    103  F   UNL     1     -19.479 -20.751  -3.408  1.00  0.00    -0.200 F 
ATOM    104  F   UNL     1     -21.786 -19.297  -3.375  1.00  0.00    -0.200 F 
ENDBRANCH  71  94
ENDBRANCH  45  46
ENDBRANCH  37  40
ENDBRANCH  35  36
ENDBRANCH  34  35
ENDBRANCH  33  34
ENDBRANCH   1  33
TORSDOF 17
