REMARK SMILES CCc1cc(Nc2ccc(C(=O)NCCCCNC(=O)c3ccc(-c4c5nc(c(-c6c(F)c(F)c(F)c(F)c6F)c6ccc([nH]6)c(-c6c(F)c(F)c(F)c(F)c6F)c6nc(c(-c7c(F)c(F)c(F)c(F)c7F)c7ccc4[nH]7)C=C6)C=C5)cc3)cc2)nc(C(C)C)n1
REMARK SMILES IDX 15 1 14 2 13 3 11 4 12 5 10 7 7 8 8 9 85 10 9 11 84 12 6 13
REMARK SMILES IDX 5 15 3 16 4 17 91 18 87 19 86 20 2 21 1 22 88 23 89 24 90 25
REMARK SMILES IDX 16 26 17 27 18 28 19 29 20 31 21 32 22 33 83 34 23 35 82 36
REMARK SMILES IDX 24 37 25 38 26 39 76 40 27 41 81 42 75 43 77 44 28 45 80 46
REMARK SMILES IDX 74 47 73 48 29 50 61 51 41 52 60 53 42 54 45 55 59 56 78 57
REMARK SMILES IDX 43 58 44 59 58 61 79 62 46 63 30 64 31 65 39 66 32 67 33 68
REMARK SMILES IDX 37 69 40 70 34 71 35 72 38 73 36 74 62 75 63 76 71 77 64 78
REMARK SMILES IDX 65 79 69 80 72 81 66 82 67 83 70 84 68 85 47 86 48 87 56 88
REMARK SMILES IDX 49 89 50 90 54 91 57 92 51 93 52 94 55 95 53 96
REMARK H PARENT 13 6 6 14 18 30 77 49 45 60
REMARK Flexibility Score: inf
ROOT
ATOM      1  C   UNL     1       6.102   4.865   8.546  1.00  0.00     0.023 C 
ENDROOT
BRANCH   1   2
ATOM      2  C   UNL     1       4.901   4.194   9.218  1.00  0.00     0.116 C 
BRANCH   2   3
ATOM      3  N   UNL     1       3.881   5.180   9.513  1.00  0.00    -0.352 N 
ATOM      4  C   UNL     1       2.758   5.569   8.828  1.00  0.00     0.251 C 
ATOM      5  O   UNL     1       2.076   6.468   9.322  1.00  0.00    -0.269 OA
ATOM      6  H   UNL     1       4.020   5.659  10.362  1.00  0.00     0.163 HD
BRANCH   4   7
ATOM      7  C   UNL     1       2.300   4.916   7.569  1.00  0.00     0.039 A 
ATOM      8  C   UNL     1       1.240   3.578   5.318  1.00  0.00     0.040 A 
ATOM      9  C   UNL     1       0.400   4.291   6.176  1.00  0.00     0.027 A 
ATOM     10  C   UNL     1       2.612   3.583   5.568  1.00  0.00     0.027 A 
ATOM     11  C   UNL     1       0.924   4.943   7.299  1.00  0.00     0.016 A 
ATOM     12  C   UNL     1       3.141   4.288   6.649  1.00  0.00     0.016 A 
BRANCH   8  13
ATOM     13  N   UNL     1       0.721   2.864   4.234  1.00  0.00    -0.340 N 
ATOM     14  H   UNL     1       0.144   3.369   3.616  1.00  0.00     0.168 HD
BRANCH  13  15
ATOM     15  C   UNL     1       0.927   1.508   3.924  1.00  0.00     0.134 A 
ATOM     16  C   UNL     1       0.806  -0.270   2.375  1.00  0.00     0.046 A 
ATOM     17  C   UNL     1       0.558   1.055   2.674  1.00  0.00     0.071 A 
ATOM     18  N   UNL     1       1.346  -1.114   3.275  1.00  0.00    -0.238 NA
ATOM     19  C   UNL     1       1.657  -0.605   4.482  1.00  0.00     0.133 A 
ATOM     20  N   UNL     1       1.488   0.684   4.828  1.00  0.00    -0.216 NA
BRANCH  16  21
ATOM     21  C   UNL     1       0.433  -0.850   1.034  1.00  0.00     0.053 C 
ATOM     22  C   UNL     1       1.010  -0.077  -0.145  1.00  0.00     0.011 C 
ENDBRANCH  16  21
BRANCH  19  23
ATOM     23  C   UNL     1       2.170  -1.548   5.550  1.00  0.00     0.051 C 
ATOM     24  C   UNL     1       1.109  -2.593   5.902  1.00  0.00     0.016 C 
ATOM     25  C   UNL     1       3.477  -2.216   5.129  1.00  0.00     0.016 C 
ENDBRANCH  19  23
ENDBRANCH  13  15
ENDBRANCH   8  13
ENDBRANCH   4   7
ENDBRANCH   2   3
ENDBRANCH   1   2
BRANCH   1  26
ATOM     26  C   UNL     1       7.007   5.625   9.519  1.00  0.00     0.023 C 
BRANCH  26  27
ATOM     27  C   UNL     1       7.659   4.754  10.585  1.00  0.00     0.116 C 
BRANCH  27  28
ATOM     28  N   UNL     1       8.456   3.675  10.027  1.00  0.00    -0.352 N 
ATOM     29  C   UNL     1       9.608   3.114  10.521  1.00  0.00     0.251 C 
ATOM     30  H   UNL     1       8.126   3.295   9.181  1.00  0.00     0.163 HD
ATOM     31  O   UNL     1      10.232   2.297   9.859  1.00  0.00    -0.269 OA
BRANCH  29  32
ATOM     32  C   UNL     1      10.105   3.532  11.848  1.00  0.00     0.039 A 
ATOM     33  C   UNL     1      11.465   3.810  11.994  1.00  0.00     0.014 A 
ATOM     34  C   UNL     1       9.238   3.652  12.937  1.00  0.00     0.014 A 
ATOM     35  C   UNL     1      11.948   4.246  13.227  1.00  0.00     0.010 A 
ATOM     36  C   UNL     1       9.704   4.171  14.139  1.00  0.00     0.010 A 
ATOM     37  C   UNL     1      11.068   4.452  14.302  1.00  0.00    -0.014 A 
BRANCH  37  38
ATOM     38  C   UNL     1      11.572   4.933  15.612  1.00  0.00     0.031 A 
ATOM     39  C   UNL     1      11.456   4.063  16.832  1.00  0.00     0.074 A 
ATOM     40  C   UNL     1      12.095   6.169  15.710  1.00  0.00     0.049 A 
ATOM     41  N   UNL     1      11.836   4.305  18.062  1.00  0.00    -0.248 NA
ATOM     42  C   UNL     1      10.794   2.761  16.655  1.00  0.00     0.031 C 
ATOM     43  C   UNL     1      12.194   7.133  14.612  1.00  0.00     0.029 A 
ATOM     44  N   UNL     1      12.636   6.830  16.783  1.00  0.00    -0.354 N 
ATOM     45  C   UNL     1      11.448   3.195  18.801  1.00  0.00     0.074 A 
ATOM     46  C   UNL     1      10.741   2.313  17.899  1.00  0.00     0.031 C 
ATOM     47  C   UNL     1      12.783   8.251  15.063  1.00  0.00     0.029 A 
ATOM     48  C   UNL     1      13.073   8.096  16.485  1.00  0.00     0.049 A 
ATOM     49  H   UNL     1      12.703   6.433  17.682  1.00  0.00     0.167 HD
ATOM     50  C   UNL     1      11.685   2.923  20.107  1.00  0.00     0.037 A 
ATOM     51  C   UNL     1      13.642   9.028  17.272  1.00  0.00     0.037 A 
ATOM     52  C   UNL     1      12.403   3.802  20.992  1.00  0.00     0.049 A 
ATOM     53  C   UNL     1      13.917   8.699  18.714  1.00  0.00     0.074 A 
ATOM     54  C   UNL     1      12.763   3.593  22.312  1.00  0.00     0.029 A 
ATOM     55  N   UNL     1      12.862   5.066  20.648  1.00  0.00    -0.354 N 
ATOM     56  N   UNL     1      13.634   7.606  19.382  1.00  0.00    -0.248 NA
ATOM     57  C   UNL     1      14.607   9.725  19.506  1.00  0.00     0.031 C 
ATOM     58  C   UNL     1      13.383   4.755  22.785  1.00  0.00     0.029 A 
ATOM     59  C   UNL     1      13.473   5.663  21.740  1.00  0.00     0.049 A 
ATOM     60  H   UNL     1      12.766   5.479  19.760  1.00  0.00     0.167 HD
ATOM     61  C   UNL     1      14.130   7.802  20.664  1.00  0.00     0.074 A 
ATOM     62  C   UNL     1      14.750   9.112  20.672  1.00  0.00     0.031 C 
ATOM     63  C   UNL     1      14.079   6.972  21.736  1.00  0.00     0.037 A 
BRANCH  50  64
ATOM     64  C   UNL     1      11.149   1.627  20.650  1.00  0.00     0.064 A 
ATOM     65  C   UNL     1      11.633   0.383  20.215  1.00  0.00     0.173 A 
ATOM     66  C   UNL     1      10.134   1.629  21.620  1.00  0.00     0.173 A 
ATOM     67  F   UNL     1      12.596   0.320  19.283  1.00  0.00    -0.203 F 
ATOM     68  C   UNL     1      11.088  -0.807  20.692  1.00  0.00     0.198 A 
ATOM     69  C   UNL     1       9.619   0.437  22.123  1.00  0.00     0.198 A 
ATOM     70  F   UNL     1       9.638   2.787  22.079  1.00  0.00    -0.203 F 
ATOM     71  F   UNL     1      11.516  -1.980  20.205  1.00  0.00    -0.200 F 
ATOM     72  C   UNL     1      10.086  -0.780  21.648  1.00  0.00     0.200 A 
ATOM     73  F   UNL     1       8.661   0.466  23.060  1.00  0.00    -0.200 F 
ATOM     74  F   UNL     1       9.561  -1.925  22.105  1.00  0.00    -0.200 F 
ENDBRANCH  50  64
BRANCH  51  75
ATOM     75  C   UNL     1      14.011  10.347  16.695  1.00  0.00     0.064 A 
ATOM     76  C   UNL     1      15.352  10.709  16.508  1.00  0.00     0.173 A 
ATOM     77  C   UNL     1      13.027  11.262  16.293  1.00  0.00     0.173 A 
ATOM     78  F   UNL     1      16.331   9.876  16.892  1.00  0.00    -0.203 F 
ATOM     79  C   UNL     1      15.695  11.941  15.955  1.00  0.00     0.198 A 
ATOM     80  C   UNL     1      13.370  12.480  15.712  1.00  0.00     0.198 A 
ATOM     81  F   UNL     1      11.729  10.960  16.442  1.00  0.00    -0.203 F 
ATOM     82  F   UNL     1      16.985  12.278  15.822  1.00  0.00    -0.200 F 
ATOM     83  C   UNL     1      14.703  12.822  15.549  1.00  0.00     0.200 A 
ATOM     84  F   UNL     1      12.408  13.320  15.304  1.00  0.00    -0.200 F 
ATOM     85  F   UNL     1      15.033  14.001  15.005  1.00  0.00    -0.200 F 
ENDBRANCH  51  75
BRANCH  63  86
ATOM     86  C   UNL     1      14.736   7.444  23.002  1.00  0.00     0.064 A 
ATOM     87  C   UNL     1      14.214   8.505  23.757  1.00  0.00     0.173 A 
ATOM     88  C   UNL     1      15.892   6.808  23.481  1.00  0.00     0.173 A 
ATOM     89  F   UNL     1      13.118   9.157  23.339  1.00  0.00    -0.203 F 
ATOM     90  C   UNL     1      14.844   8.934  24.923  1.00  0.00     0.198 A 
ATOM     91  C   UNL     1      16.498   7.215  24.666  1.00  0.00     0.198 A 
ATOM     92  F   UNL     1      16.429   5.782  22.803  1.00  0.00    -0.203 F 
ATOM     93  F   UNL     1      14.361   9.989  25.594  1.00  0.00    -0.200 F 
ATOM     94  C   UNL     1      15.981   8.284  25.380  1.00  0.00     0.200 A 
ATOM     95  F   UNL     1      17.586   6.574  25.114  1.00  0.00    -0.200 F 
ATOM     96  F   UNL     1      16.584   8.695  26.504  1.00  0.00    -0.200 F 
ENDBRANCH  63  86
ENDBRANCH  37  38
ENDBRANCH  29  32
ENDBRANCH  27  28
ENDBRANCH  26  27
ENDBRANCH   1  26
TORSDOF 15
