REMARK SMILES O=C(NCCCCNC(=O)c1cc(NC(=O)c2ccc(F)cc2)ccc1N1CCCN(c2ccc(Cl)nn2)CC1)c1ccc(-c2c3nc(c(-c4c(F)c(F)c(F)c(F)c4F)c4ccc([nH]4)c(-c4c(F)c(F)c(F)c(F)c4F)c4nc(c(-c5c(F)c(F)c(F)c(F)c5F)c5ccc2[nH]5)C=C4)C=C3)cc1
REMARK SMILES IDX 7 1 6 2 5 3 4 4 3 5 1 6 2 7 41 9 42 10 103 11 43 12 102 13
REMARK SMILES IDX 44 14 45 15 46 16 96 17 47 18 101 19 95 20 97 21 48 22
REMARK SMILES IDX 100 23 94 24 93 25 49 27 81 28 61 29 80 30 62 31 65 32 79 33
REMARK SMILES IDX 98 34 63 35 64 36 78 38 99 39 66 40 50 41 51 42 59 43 52 44
REMARK SMILES IDX 53 45 57 46 60 47 54 48 55 49 58 50 56 51 82 52 83 53 91 54
REMARK SMILES IDX 84 55 85 56 89 57 92 58 86 59 87 60 90 61 88 62 67 63 68 64
REMARK SMILES IDX 76 65 69 66 70 67 74 68 77 69 71 70 72 71 75 72 73 73 8 74
REMARK SMILES IDX 9 75 10 77 11 78 12 79 26 80 13 81 25 82 24 83 27 84 28 85
REMARK SMILES IDX 29 86 40 88 39 89 31 90 30 91 32 93 33 94 38 95 34 96 37 97
REMARK SMILES IDX 35 98 36 99 14 100 15 101 16 103 17 104 18 105 23 106 19 107
REMARK SMILES IDX 22 108 20 109 21 110
REMARK H PARENT 3 8 97 26 65 37 8 76 14 102
REMARK Flexibility Score: 90.00
ROOT
ATOM      1  C   UNL     1       5.074   0.251  -4.448  1.00  0.00     0.116 C 
ENDROOT
BRANCH   1   2
ATOM      2  C   UNL     1       4.713  -1.104  -3.856  1.00  0.00     0.023 C 
BRANCH   2   3
ATOM      3  C   UNL     1       5.104  -1.309  -2.394  1.00  0.00     0.023 C 
BRANCH   3   4
ATOM      4  C   UNL     1       4.736  -0.180  -1.436  1.00  0.00     0.116 C 
BRANCH   4   5
ATOM      5  N   UNL     1       3.302   0.008  -1.273  1.00  0.00    -0.352 N 
ATOM      6  O   UNL     1       1.315   0.058  -0.206  1.00  0.00    -0.269 OA
ATOM      7  C   UNL     1       2.527  -0.076  -0.136  1.00  0.00     0.251 C 
ATOM      8  H   UNL     1       2.812   0.228  -2.098  1.00  0.00     0.163 HD
BRANCH   7   9
ATOM      9  C   UNL     1       3.167  -0.356   1.170  1.00  0.00     0.039 A 
ATOM     10  C   UNL     1       4.294   0.359   1.574  1.00  0.00     0.014 A 
ATOM     11  C   UNL     1       2.644  -1.362   1.989  1.00  0.00     0.014 A 
ATOM     12  C   UNL     1       4.999  -0.048   2.701  1.00  0.00     0.010 A 
ATOM     13  C   UNL     1       3.303  -1.706   3.175  1.00  0.00     0.010 A 
ATOM     14  C   UNL     1       4.511  -1.081   3.520  1.00  0.00    -0.014 A 
BRANCH  14  15
ATOM     15  C   UNL     1       5.268  -1.445   4.747  1.00  0.00     0.031 A 
ATOM     16  C   UNL     1       5.910  -2.797   4.902  1.00  0.00     0.074 A 
ATOM     17  C   UNL     1       5.427  -0.511   5.705  1.00  0.00     0.049 A 
ATOM     18  N   UNL     1       6.650  -3.251   5.884  1.00  0.00    -0.248 NA
ATOM     19  C   UNL     1       5.691  -3.771   3.822  1.00  0.00     0.031 C 
ATOM     20  C   UNL     1       4.840   0.830   5.673  1.00  0.00     0.029 A 
ATOM     21  N   UNL     1       6.145  -0.532   6.873  1.00  0.00    -0.354 N 
ATOM     22  C   UNL     1       6.979  -4.557   5.546  1.00  0.00     0.074 A 
ATOM     23  C   UNL     1       6.331  -4.838   4.283  1.00  0.00     0.031 C 
ATOM     24  C   UNL     1       5.264   1.521   6.741  1.00  0.00     0.029 A 
ATOM     25  C   UNL     1       6.101   0.654   7.563  1.00  0.00     0.049 A 
ATOM     26  H   UNL     1       6.643  -1.321   7.186  1.00  0.00     0.167 HD
ATOM     27  C   UNL     1       7.760  -5.435   6.222  1.00  0.00     0.037 A 
ATOM     28  C   UNL     1       6.661   1.005   8.735  1.00  0.00     0.037 A 
ATOM     29  C   UNL     1       8.411  -5.149   7.476  1.00  0.00     0.049 A 
ATOM     30  C   UNL     1       7.507   0.005   9.468  1.00  0.00     0.074 A 
ATOM     31  C   UNL     1       9.227  -5.973   8.235  1.00  0.00     0.029 A 
ATOM     32  N   UNL     1       8.321  -3.944   8.157  1.00  0.00    -0.354 N 
ATOM     33  N   UNL     1       7.823  -1.219   9.125  1.00  0.00    -0.248 NA
ATOM     34  C   UNL     1       8.074   0.437  10.752  1.00  0.00     0.031 C 
ATOM     35  C   UNL     1       9.601  -5.278   9.391  1.00  0.00     0.029 A 
ATOM     36  C   UNL     1       9.056  -4.006   9.332  1.00  0.00     0.049 A 
ATOM     37  H   UNL     1       7.812  -3.159   7.851  1.00  0.00     0.167 HD
ATOM     38  C   UNL     1       8.633  -1.701  10.143  1.00  0.00     0.074 A 
ATOM     39  C   UNL     1       8.783  -0.627  11.102  1.00  0.00     0.031 C 
ATOM     40  C   UNL     1       9.194  -2.928  10.275  1.00  0.00     0.037 A 
BRANCH  27  41
ATOM     41  C   UNL     1       7.957  -6.800   5.625  1.00  0.00     0.064 A 
ATOM     42  C   UNL     1       8.765  -6.996   4.496  1.00  0.00     0.173 A 
ATOM     43  C   UNL     1       7.384  -7.931   6.226  1.00  0.00     0.173 A 
ATOM     44  F   UNL     1       9.328  -5.947   3.878  1.00  0.00    -0.203 F 
ATOM     45  C   UNL     1       8.978  -8.272   3.979  1.00  0.00     0.198 A 
ATOM     46  C   UNL     1       7.620  -9.208   5.722  1.00  0.00     0.198 A 
ATOM     47  F   UNL     1       6.609  -7.801   7.313  1.00  0.00    -0.203 F 
ATOM     48  F   UNL     1       9.726  -8.432   2.879  1.00  0.00    -0.200 F 
ATOM     49  C   UNL     1       8.412  -9.377   4.597  1.00  0.00     0.200 A 
ATOM     50  F   UNL     1       7.082 -10.276   6.328  1.00  0.00    -0.200 F 
ATOM     51  F   UNL     1       8.627 -10.605   4.105  1.00  0.00    -0.200 F 
ENDBRANCH  27  41
BRANCH  28  52
ATOM     52  C   UNL     1       6.427   2.365   9.285  1.00  0.00     0.064 A 
ATOM     53  C   UNL     1       7.466   3.302   9.368  1.00  0.00     0.173 A 
ATOM     54  C   UNL     1       5.157   2.756   9.733  1.00  0.00     0.173 A 
ATOM     55  F   UNL     1       8.702   2.968   8.970  1.00  0.00    -0.203 F 
ATOM     56  C   UNL     1       7.246   4.572   9.896  1.00  0.00     0.198 A 
ATOM     57  C   UNL     1       4.931   4.036  10.230  1.00  0.00     0.198 A 
ATOM     58  F   UNL     1       4.128   1.897   9.668  1.00  0.00    -0.203 F 
ATOM     59  F   UNL     1       8.266   5.434  10.007  1.00  0.00    -0.200 F 
ATOM     60  C   UNL     1       5.978   4.941  10.320  1.00  0.00     0.200 A 
ATOM     61  F   UNL     1       3.700   4.393  10.622  1.00  0.00    -0.200 F 
ATOM     62  F   UNL     1       5.766   6.165  10.822  1.00  0.00    -0.200 F 
ENDBRANCH  28  52
BRANCH  40  63
ATOM     63  C   UNL     1      10.038  -3.159  11.494  1.00  0.00     0.064 A 
ATOM     64  C   UNL     1       9.465  -3.293  12.767  1.00  0.00     0.173 A 
ATOM     65  C   UNL     1      11.433  -3.256  11.385  1.00  0.00     0.173 A 
ATOM     66  F   UNL     1       8.136  -3.189  12.924  1.00  0.00    -0.203 F 
ATOM     67  C   UNL     1      10.261  -3.487  13.892  1.00  0.00     0.198 A 
ATOM     68  C   UNL     1      12.224  -3.478  12.509  1.00  0.00     0.198 A 
ATOM     69  F   UNL     1      12.028  -3.138  10.189  1.00  0.00    -0.203 F 
ATOM     70  F   UNL     1       9.696  -3.560  15.105  1.00  0.00    -0.200 F 
ATOM     71  C   UNL     1      11.638  -3.584  13.762  1.00  0.00     0.200 A 
ATOM     72  F   UNL     1      13.554  -3.580  12.381  1.00  0.00    -0.200 F 
ATOM     73  F   UNL     1      12.403  -3.769  14.846  1.00  0.00    -0.200 F 
ENDBRANCH  40  63
ENDBRANCH  14  15
ENDBRANCH   7   9
ENDBRANCH   4   5
ENDBRANCH   3   4
ENDBRANCH   2   3
ENDBRANCH   1   2
BRANCH   1  74
ATOM     74  N   UNL     1       6.477   0.597  -4.382  1.00  0.00    -0.352 N 
ATOM     75  C   UNL     1       7.144   1.504  -5.175  1.00  0.00     0.253 C 
ATOM     76  H   UNL     1       7.012   0.135  -3.697  1.00  0.00     0.163 HD
ATOM     77  O   UNL     1       8.315   1.786  -4.934  1.00  0.00    -0.269 OA
BRANCH  75  78
ATOM     78  C   UNL     1       6.492   2.037  -6.397  1.00  0.00     0.065 A 
ATOM     79  C   UNL     1       7.090   1.563  -7.580  1.00  0.00     0.042 A 
ATOM     80  C   UNL     1       5.327   2.829  -6.421  1.00  0.00     0.050 A 
ATOM     81  C   UNL     1       6.479   1.726  -8.814  1.00  0.00     0.042 A 
ATOM     82  C   UNL     1       4.752   3.028  -7.689  1.00  0.00     0.029 A 
ATOM     83  C   UNL     1       5.306   2.480  -8.860  1.00  0.00     0.028 A 
BRANCH  80  84
ATOM     84  N   UNL     1       4.734   3.422  -5.314  1.00  0.00    -0.369 N 
BRANCH  84  85
ATOM     85  C   UNL     1       5.546   4.058  -4.268  1.00  0.00     0.118 C 
BRANCH  85  86
ATOM     86  C   UNL     1       5.517   5.583  -4.347  1.00  0.00     0.043 CG0
ATOM     87  G   UNL     1       4.141   6.248  -4.327  1.00  0.00     0.000 G0
ENDBRANCH  85  86
ENDBRANCH  84  85
BRANCH  84  88
ATOM     88  C   UNL     1       3.305   3.182  -5.027  1.00  0.00     0.138 C 
BRANCH  88  89
ATOM     89  C   UNL     1       2.481   4.450  -4.767  1.00  0.00     0.139 C 
BRANCH  89  90
ATOM     90  N   UNL     1       3.113   5.358  -3.810  1.00  0.00    -0.353 N 
BRANCH  90  91
ATOM     91  C   UNL     1       4.141   6.248  -4.327  1.00  0.00     0.120 CG0
ATOM     92  G   UNL     1       5.517   5.583  -4.347  1.00  0.00     0.000 G0
ENDBRANCH  90  91
BRANCH  90  93
ATOM     93  C   UNL     1       2.701   5.467  -2.502  1.00  0.00     0.151 A 
ATOM     94  C   UNL     1       2.424   4.346  -1.724  1.00  0.00     0.052 A 
ATOM     95  N   UNL     1       2.571   6.690  -1.942  1.00  0.00    -0.131 NA
ATOM     96  C   UNL     1       2.000   4.488  -0.402  1.00  0.00     0.047 A 
ATOM     97  N   UNL     1       2.121   6.850  -0.646  1.00  0.00    -0.137 NA
ATOM     98  C   UNL     1       1.844   5.763   0.089  1.00  0.00     0.151 A 
ATOM     99  Cl  UNL     1       1.297   6.057   1.682  1.00  0.00    -0.060 Cl
ENDBRANCH  90  93
ENDBRANCH  89  90
ENDBRANCH  88  89
ENDBRANCH  84  88
ENDBRANCH  80  84
BRANCH  81 100
ATOM    100  N   UNL     1       6.962   1.192 -10.024  1.00  0.00    -0.322 N 
ATOM    101  C   UNL     1       7.961   0.285 -10.316  1.00  0.00     0.255 C 
ATOM    102  H   UNL     1       6.494   1.533 -10.821  1.00  0.00     0.170 HD
ATOM    103  O   UNL     1       8.320   0.120 -11.480  1.00  0.00    -0.269 OA
BRANCH 101 104
ATOM    104  C   UNL     1       8.594  -0.539  -9.270  1.00  0.00     0.040 A 
ATOM    105  C   UNL     1       9.979  -0.441  -9.084  1.00  0.00     0.017 A 
ATOM    106  C   UNL     1       7.824  -1.391  -8.464  1.00  0.00     0.017 A 
ATOM    107  C   UNL     1      10.583  -1.141  -8.039  1.00  0.00     0.040 A 
ATOM    108  C   UNL     1       8.435  -2.082  -7.417  1.00  0.00     0.040 A 
ATOM    109  C   UNL     1       9.805  -1.943  -7.208  1.00  0.00     0.123 A 
ATOM    110  F   UNL     1      10.382  -2.590  -6.187  1.00  0.00    -0.207 F 
ENDBRANCH 101 104
ENDBRANCH  81 100
ENDBRANCH  75  78
ENDBRANCH   1  74
TORSDOF 15
