REMARK SMILES CC(C)C[C@H](NC(=O)[C@H](C)NC(=O)[C@@H](NC(=O)CNC(=O)OCc1ccccc1)C(C)C)C(=O)NCCCCNC(=O)c1ccc(-c2c3nc(c(-c4c(F)c(F)c(F)c(F)c4F)c4ccc([nH]4)c(-c4c(F)c(F)c(F)c(F)c4F)c4nc(c(-c5c(F)c(F)c(F)c(F)c5F)c5ccc2[nH]5)C=C4)C=C3)cc1
REMARK SMILES IDX 6 1 7 2 8 3 5 5 4 6 2 7 1 8 3 9 33 10 34 11 35 12 36 14
REMARK SMILES IDX 37 15 38 16 39 17 40 18 41 19 42 21 43 22 44 23 105 24 45 25
REMARK SMILES IDX 104 26 46 27 47 28 48 29 98 30 49 31 103 32 97 33 99 34
REMARK SMILES IDX 50 35 102 36 96 37 95 38 51 40 83 41 63 42 82 43 64 44 67 45
REMARK SMILES IDX 81 46 100 47 65 48 66 49 80 51 101 52 68 53 52 54 53 55
REMARK SMILES IDX 61 56 54 57 55 58 59 59 62 60 56 61 57 62 60 63 58 64 84 65
REMARK SMILES IDX 85 66 93 67 86 68 87 69 91 70 94 71 88 72 89 73 92 74 90 75
REMARK SMILES IDX 69 76 70 77 78 78 71 79 72 80 76 81 79 82 73 83 74 84 77 85
REMARK SMILES IDX 75 86 9 87 10 88 11 89 12 90 13 92 14 93 15 94 16 95 17 97
REMARK SMILES IDX 18 98 19 99 20 100 21 102 22 103 23 104 24 105 25 106 29 107
REMARK SMILES IDX 26 108 28 109 27 110 30 111 31 112 32 113
REMARK H PARENT 6 4 35 13 40 20 99 39 67 50 11 91 15 96 19 101
REMARK Flexibility Score: inf
ROOT
ATOM      1  N   UNL     1      -0.465  -1.436   0.728  1.00  0.00    -0.343 N 
ATOM      2  C   UNL     1      -1.314  -1.040  -0.271  1.00  0.00     0.242 C 
ATOM      3  O   UNL     1      -2.227  -1.814  -0.576  1.00  0.00    -0.273 OA
ATOM      4  H   UNL     1      -0.101  -2.350   0.683  1.00  0.00     0.164 HD
ENDROOT
BRANCH   1   5
ATOM      5  C   UNL     1      -0.061  -0.599   1.853  1.00  0.00     0.171 C 
BRANCH   5   6
ATOM      6  C   UNL     1      -0.823  -0.990   3.133  1.00  0.00     0.038 C 
BRANCH   6   7
ATOM      7  C   UNL     1      -1.430   0.243   3.836  1.00  0.00    -0.015 C 
ATOM      8  C   UNL     1      -2.606   0.835   3.050  1.00  0.00     0.007 C 
ATOM      9  C   UNL     1      -1.899  -0.129   5.240  1.00  0.00     0.007 C 
ENDBRANCH   6   7
ENDBRANCH   5   6
BRANCH   5  10
ATOM     10  C   UNL     1       1.457  -0.471   2.057  1.00  0.00     0.242 C 
ATOM     11  O   UNL     1       2.014   0.625   1.939  1.00  0.00    -0.273 OA
ATOM     12  N   UNL     1       2.238  -1.520   2.410  1.00  0.00    -0.354 N 
ATOM     13  H   UNL     1       3.192  -1.302   2.521  1.00  0.00     0.163 HD
BRANCH  12  14
ATOM     14  C   UNL     1       1.906  -2.907   2.651  1.00  0.00     0.116 C 
BRANCH  14  15
ATOM     15  C   UNL     1       2.864  -3.843   1.920  1.00  0.00     0.023 C 
BRANCH  15  16
ATOM     16  C   UNL     1       4.346  -3.650   2.261  1.00  0.00     0.023 C 
BRANCH  16  17
ATOM     17  C   UNL     1       4.679  -3.629   3.749  1.00  0.00     0.116 C 
BRANCH  17  18
ATOM     18  N   UNL     1       4.284  -4.850   4.431  1.00  0.00    -0.352 N 
ATOM     19  C   UNL     1       5.029  -5.669   5.243  1.00  0.00     0.251 C 
ATOM     20  H   UNL     1       3.351  -5.130   4.291  1.00  0.00     0.163 HD
ATOM     21  O   UNL     1       4.578  -6.746   5.620  1.00  0.00    -0.269 OA
BRANCH  19  22
ATOM     22  C   UNL     1       6.394  -5.262   5.636  1.00  0.00     0.039 A 
ATOM     23  C   UNL     1       7.434  -6.186   5.515  1.00  0.00     0.014 A 
ATOM     24  C   UNL     1       6.649  -3.969   6.100  1.00  0.00     0.014 A 
ATOM     25  C   UNL     1       8.743  -5.791   5.794  1.00  0.00     0.010 A 
ATOM     26  C   UNL     1       7.962  -3.554   6.299  1.00  0.00     0.010 A 
ATOM     27  C   UNL     1       9.023  -4.462   6.150  1.00  0.00    -0.014 A 
BRANCH  27  28
ATOM     28  C   UNL     1      10.419  -4.003   6.365  1.00  0.00     0.031 A 
ATOM     29  C   UNL     1      10.851  -3.502   7.715  1.00  0.00     0.074 A 
ATOM     30  C   UNL     1      11.280  -3.980   5.329  1.00  0.00     0.049 A 
ATOM     31  N   UNL     1      12.004  -3.003   8.084  1.00  0.00    -0.248 NA
ATOM     32  C   UNL     1       9.844  -3.542   8.787  1.00  0.00     0.031 C 
ATOM     33  C   UNL     1      10.967  -4.392   3.960  1.00  0.00     0.029 A 
ATOM     34  N   UNL     1      12.593  -3.583   5.263  1.00  0.00    -0.354 N 
ATOM     35  C   UNL     1      11.857  -2.665   9.423  1.00  0.00     0.074 A 
ATOM     36  C   UNL     1      10.486  -2.954   9.784  1.00  0.00     0.031 C 
ATOM     37  C   UNL     1      12.061  -4.248   3.196  1.00  0.00     0.029 A 
ATOM     38  C   UNL     1      13.140  -3.694   4.008  1.00  0.00     0.049 A 
ATOM     39  H   UNL     1      13.095  -3.250   6.042  1.00  0.00     0.167 HD
ATOM     40  C   UNL     1      12.788  -2.183  10.280  1.00  0.00     0.037 A 
ATOM     41  C   UNL     1      14.369  -3.375   3.560  1.00  0.00     0.037 A 
ATOM     42  C   UNL     1      14.154  -1.908   9.918  1.00  0.00     0.049 A 
ATOM     43  C   UNL     1      15.380  -2.820   4.528  1.00  0.00     0.074 A 
ATOM     44  C   UNL     1      15.188  -1.464  10.723  1.00  0.00     0.029 A 
ATOM     45  N   UNL     1      14.675  -2.045   8.639  1.00  0.00    -0.354 N 
ATOM     46  N   UNL     1      15.251  -2.571   5.808  1.00  0.00    -0.248 NA
ATOM     47  C   UNL     1      16.712  -2.511   3.989  1.00  0.00     0.031 C 
ATOM     48  C   UNL     1      16.319  -1.279   9.922  1.00  0.00     0.029 A 
ATOM     49  C   UNL     1      16.009  -1.669   8.629  1.00  0.00     0.049 A 
ATOM     50  H   UNL     1      14.172  -2.363   7.855  1.00  0.00     0.167 HD
ATOM     51  C   UNL     1      16.488  -2.105   6.234  1.00  0.00     0.074 A 
ATOM     52  C   UNL     1      17.360  -2.123   5.078  1.00  0.00     0.031 C 
ATOM     53  C   UNL     1      16.867  -1.698   7.471  1.00  0.00     0.037 A 
BRANCH  40  54
ATOM     54  C   UNL     1      12.359  -1.922  11.696  1.00  0.00     0.064 A 
ATOM     55  C   UNL     1      12.019  -2.970  12.567  1.00  0.00     0.173 A 
ATOM     56  C   UNL     1      12.314  -0.614  12.200  1.00  0.00     0.173 A 
ATOM     57  F   UNL     1      12.034  -4.240  12.135  1.00  0.00    -0.203 F 
ATOM     58  C   UNL     1      11.618  -2.714  13.876  1.00  0.00     0.198 A 
ATOM     59  C   UNL     1      11.947  -0.364  13.520  1.00  0.00     0.198 A 
ATOM     60  F   UNL     1      12.634   0.426  11.414  1.00  0.00    -0.203 F 
ATOM     61  F   UNL     1      11.243  -3.727  14.670  1.00  0.00    -0.200 F 
ATOM     62  C   UNL     1      11.590  -1.413  14.354  1.00  0.00     0.200 A 
ATOM     63  F   UNL     1      11.935   0.893  13.984  1.00  0.00    -0.200 F 
ATOM     64  F   UNL     1      11.211  -1.169  15.616  1.00  0.00    -0.200 F 
ENDBRANCH  40  54
BRANCH  41  65
ATOM     65  C   UNL     1      14.717  -3.586   2.130  1.00  0.00     0.064 A 
ATOM     66  C   UNL     1      15.651  -4.559   1.749  1.00  0.00     0.173 A 
ATOM     67  C   UNL     1      14.128  -2.817   1.115  1.00  0.00     0.173 A 
ATOM     68  F   UNL     1      16.256  -5.307   2.683  1.00  0.00    -0.203 F 
ATOM     69  C   UNL     1      16.001  -4.739   0.412  1.00  0.00     0.198 A 
ATOM     70  C   UNL     1      14.454  -3.020  -0.225  1.00  0.00     0.198 A 
ATOM     71  F   UNL     1      13.223  -1.876   1.423  1.00  0.00    -0.203 F 
ATOM     72  F   UNL     1      16.934  -5.642   0.082  1.00  0.00    -0.200 F 
ATOM     73  C   UNL     1      15.397  -3.974  -0.574  1.00  0.00     0.200 A 
ATOM     74  F   UNL     1      13.856  -2.290  -1.176  1.00  0.00    -0.200 F 
ATOM     75  F   UNL     1      15.730  -4.151  -1.860  1.00  0.00    -0.200 F 
ENDBRANCH  41  65
BRANCH  53  76
ATOM     76  C   UNL     1      18.298  -1.276   7.650  1.00  0.00     0.064 A 
ATOM     77  C   UNL     1      18.794  -0.087   7.094  1.00  0.00     0.173 A 
ATOM     78  C   UNL     1      19.174  -2.054   8.423  1.00  0.00     0.173 A 
ATOM     79  F   UNL     1      18.002   0.685   6.335  1.00  0.00    -0.203 F 
ATOM     80  C   UNL     1      20.121   0.292   7.282  1.00  0.00     0.198 A 
ATOM     81  C   UNL     1      20.490  -1.654   8.638  1.00  0.00     0.198 A 
ATOM     82  F   UNL     1      18.749  -3.196   8.984  1.00  0.00    -0.203 F 
ATOM     83  F   UNL     1      20.587   1.404   6.697  1.00  0.00    -0.200 F 
ATOM     84  C   UNL     1      20.965  -0.486   8.060  1.00  0.00     0.200 A 
ATOM     85  F   UNL     1      21.298  -2.398   9.405  1.00  0.00    -0.200 F 
ATOM     86  F   UNL     1      22.238  -0.115   8.248  1.00  0.00    -0.200 F 
ENDBRANCH  53  76
ENDBRANCH  27  28
ENDBRANCH  19  22
ENDBRANCH  17  18
ENDBRANCH  16  17
ENDBRANCH  15  16
ENDBRANCH  14  15
ENDBRANCH  12  14
ENDBRANCH   5  10
ENDBRANCH   1   5
BRANCH   2  87
ATOM     87  C   UNL     1      -0.988   0.202  -1.142  1.00  0.00     0.168 C 
ATOM     88  C   UNL     1      -0.501   1.484  -0.489  1.00  0.00     0.041 C 
BRANCH  87  89
ATOM     89  N   UNL     1      -2.133   0.536  -1.973  1.00  0.00    -0.343 N 
ATOM     90  C   UNL     1      -2.149   1.034  -3.237  1.00  0.00     0.243 C 
ATOM     91  H   UNL     1      -3.015   0.381  -1.565  1.00  0.00     0.164 HD
ATOM     92  O   UNL     1      -3.238   1.427  -3.669  1.00  0.00    -0.273 OA
BRANCH  90  93
ATOM     93  C   UNL     1      -0.919   0.926  -4.195  1.00  0.00     0.174 C 
BRANCH  93  94
ATOM     94  N   UNL     1       0.381   1.363  -3.616  1.00  0.00    -0.343 N 
ATOM     95  C   UNL     1       1.578   0.828  -3.248  1.00  0.00     0.240 C 
ATOM     96  H   UNL     1       0.373   2.333  -3.447  1.00  0.00     0.164 HD
ATOM     97  O   UNL     1       2.308   1.578  -2.586  1.00  0.00    -0.273 OA
BRANCH  95  98
ATOM     98  C   UNL     1       2.059  -0.610  -3.534  1.00  0.00     0.219 C 
BRANCH  98  99
ATOM     99  N   UNL     1       1.571  -1.609  -2.602  1.00  0.00    -0.312 N 
ATOM    100  C   UNL     1       0.904  -2.762  -2.908  1.00  0.00     0.407 C 
ATOM    101  H   UNL     1       1.737  -1.438  -1.647  1.00  0.00     0.167 HD
ATOM    102  O   UNL     1       0.323  -3.381  -2.034  1.00  0.00    -0.225 OA
BRANCH 100 103
ATOM    103  O   UNL     1       0.915  -3.050  -4.235  1.00  0.00    -0.445 OA
BRANCH 103 104
ATOM    104  C   UNL     1      -0.126  -3.917  -4.722  1.00  0.00     0.270 C 
BRANCH 104 105
ATOM    105  C   UNL     1       0.059  -5.360  -4.352  1.00  0.00    -0.011 A 
ATOM    106  C   UNL     1      -0.673  -5.896  -3.282  1.00  0.00     0.007 A 
ATOM    107  C   UNL     1       0.978  -6.170  -5.027  1.00  0.00     0.007 A 
ATOM    108  C   UNL     1      -0.450  -7.201  -2.855  1.00  0.00     0.000 A 
ATOM    109  C   UNL     1       1.189  -7.484  -4.607  1.00  0.00     0.000 A 
ATOM    110  C   UNL     1       0.488  -7.992  -3.513  1.00  0.00     0.000 A 
ENDBRANCH 104 105
ENDBRANCH 103 104
ENDBRANCH 100 103
ENDBRANCH  98  99
ENDBRANCH  95  98
ENDBRANCH  93  94
BRANCH  93 111
ATOM    111  C   UNL     1      -0.897  -0.424  -4.924  1.00  0.00     0.015 C 
ATOM    112  C   UNL     1      -2.275  -1.028  -5.225  1.00  0.00     0.010 C 
ATOM    113  C   UNL     1      -0.094  -0.334  -6.224  1.00  0.00     0.010 C 
ENDBRANCH  93 111
ENDBRANCH  90  93
ENDBRANCH  87  89
ENDBRANCH   2  87
TORSDOF 24
