REMARK SMILES CC[C@H](C)[C@@H](Nc1nc(C(F)(F)F)nc2ccccc12)C(=O)NCCCCNC(=O)c1ccc(-c2c3nc(c(-c4c(F)c(F)c(F)c(F)c4F)c4ccc([nH]4)c(-c4c(F)c(F)c(F)c(F)c4F)c4nc(c(-c5c(F)c(F)c(F)c(F)c5F)c5ccc2[nH]5)C=C4)C=C3)cc1
REMARK SMILES IDX 25 1 24 2 23 3 21 4 22 5 5 7 3 8 4 9 2 10 1 11 6 12 7 14
REMARK SMILES IDX 8 15 20 16 9 17 15 18 19 19 14 20 16 21 18 22 17 23 10 24
REMARK SMILES IDX 11 25 12 26 13 27 26 28 27 29 28 30 29 31 30 33 31 34 32 35
REMARK SMILES IDX 93 36 33 37 92 38 34 39 35 40 36 41 86 42 37 43 91 44 85 45
REMARK SMILES IDX 87 46 38 47 90 48 84 49 83 50 39 52 71 53 51 54 70 55 52 56
REMARK SMILES IDX 55 57 69 58 88 59 53 60 54 61 68 63 89 64 56 65 40 66 41 67
REMARK SMILES IDX 49 68 42 69 43 70 47 71 50 72 44 73 45 74 48 75 46 76 72 77
REMARK SMILES IDX 73 78 81 79 74 80 75 81 79 82 82 83 76 84 77 85 80 86 78 87
REMARK SMILES IDX 57 88 58 89 66 90 59 91 60 92 64 93 67 94 61 95 62 96 65 97
REMARK SMILES IDX 63 98
REMARK H PARENT 23 6 6 13 28 32 87 51 55 62
REMARK Flexibility Score: inf
ROOT
ATOM      1  C   UNL     1       4.295   2.705   2.426  1.00  0.00     0.023 C 
ENDROOT
BRANCH   1   2
ATOM      2  C   UNL     1       3.458   2.196   3.592  1.00  0.00     0.116 C 
BRANCH   2   3
ATOM      3  N   UNL     1       2.407   3.142   3.905  1.00  0.00    -0.354 N 
ATOM      4  C   UNL     1       1.055   2.987   3.831  1.00  0.00     0.242 C 
ATOM      5  O   UNL     1       0.354   3.988   4.010  1.00  0.00    -0.273 OA
ATOM      6  H   UNL     1       2.713   4.025   4.216  1.00  0.00     0.163 HD
BRANCH   4   7
ATOM      7  C   UNL     1       0.416   1.612   3.506  1.00  0.00     0.173 C 
BRANCH   7   8
ATOM      8  C   UNL     1       0.636   1.270   1.993  1.00  0.00     0.018 C 
ATOM      9  C   UNL     1       0.021  -0.083   1.616  1.00  0.00     0.010 C 
BRANCH   8  10
ATOM     10  C   UNL     1       0.101   2.427   1.107  1.00  0.00     0.002 C 
ATOM     11  C   UNL     1       0.218   2.204  -0.394  1.00  0.00     0.004 C 
ENDBRANCH   8  10
ENDBRANCH   7   8
BRANCH   7  12
ATOM     12  N   UNL     1       0.855   0.522   4.414  1.00  0.00    -0.358 N 
ATOM     13  H   UNL     1       0.711  -0.403   4.109  1.00  0.00     0.162 HD
BRANCH  12  14
ATOM     14  C   UNL     1       1.447   0.695   5.649  1.00  0.00     0.138 A 
ATOM     15  N   UNL     1       2.529  -0.093   5.796  1.00  0.00    -0.207 NA
ATOM     16  C   UNL     1       1.094   1.652   6.613  1.00  0.00     0.043 A 
ATOM     17  C   UNL     1       3.353   0.138   6.843  1.00  0.00     0.237 A 
ATOM     18  C   UNL     1       2.046   1.863   7.619  1.00  0.00     0.076 A 
ATOM     19  C   UNL     1      -0.097   2.422   6.631  1.00  0.00     0.014 A 
ATOM     20  N   UNL     1       3.159   1.135   7.731  1.00  0.00    -0.224 NA
ATOM     21  C   UNL     1       1.850   2.896   8.526  1.00  0.00     0.029 A 
ATOM     22  C   UNL     1      -0.274   3.454   7.550  1.00  0.00     0.001 A 
ATOM     23  C   UNL     1       0.714   3.706   8.489  1.00  0.00     0.002 A 
BRANCH  17  24
ATOM     24  C   UNL     1       4.630  -0.703   6.953  1.00  0.00     0.451 C 
ATOM     25  F   UNL     1       4.391  -2.045   7.029  1.00  0.00    -0.163 F 
ATOM     26  F   UNL     1       5.458  -0.535   5.876  1.00  0.00    -0.163 F 
ATOM     27  F   UNL     1       5.399  -0.407   8.045  1.00  0.00    -0.163 F 
ENDBRANCH  17  24
ENDBRANCH  12  14
ENDBRANCH   7  12
ENDBRANCH   4   7
ENDBRANCH   2   3
ENDBRANCH   1   2
BRANCH   1  28
ATOM     28  C   UNL     1       5.107   3.953   2.767  1.00  0.00     0.023 C 
BRANCH  28  29
ATOM     29  C   UNL     1       6.009   3.799   3.984  1.00  0.00     0.116 C 
BRANCH  29  30
ATOM     30  N   UNL     1       6.955   2.704   3.839  1.00  0.00    -0.352 N 
ATOM     31  C   UNL     1       8.302   2.705   4.094  1.00  0.00     0.251 C 
ATOM     32  H   UNL     1       6.581   1.853   3.516  1.00  0.00     0.163 HD
ATOM     33  O   UNL     1       9.008   1.765   3.739  1.00  0.00    -0.269 OA
BRANCH  31  34
ATOM     34  C   UNL     1       8.899   3.864   4.783  1.00  0.00     0.039 A 
ATOM     35  C   UNL     1      10.087   4.408   4.293  1.00  0.00     0.014 A 
ATOM     36  C   UNL     1       8.273   4.419   5.904  1.00  0.00     0.014 A 
ATOM     37  C   UNL     1      10.632   5.532   4.912  1.00  0.00     0.010 A 
ATOM     38  C   UNL     1       8.765   5.593   6.457  1.00  0.00     0.010 A 
ATOM     39  C   UNL     1       9.966   6.143   5.988  1.00  0.00    -0.014 A 
BRANCH  39  40
ATOM     40  C   UNL     1      10.548   7.321   6.675  1.00  0.00     0.031 A 
ATOM     41  C   UNL     1      10.955   7.215   8.120  1.00  0.00     0.074 A 
ATOM     42  C   UNL     1      10.678   8.488   6.017  1.00  0.00     0.049 A 
ATOM     43  N   UNL     1      11.469   8.127   8.907  1.00  0.00    -0.248 NA
ATOM     44  C   UNL     1      10.723   5.920   8.780  1.00  0.00     0.031 C 
ATOM     45  C   UNL     1      10.275   8.727   4.630  1.00  0.00     0.029 A 
ATOM     46  N   UNL     1      11.188   9.693   6.428  1.00  0.00    -0.354 N 
ATOM     47  C   UNL     1      11.600   7.521  10.150  1.00  0.00     0.074 A 
ATOM     48  C   UNL     1      11.049   6.190  10.034  1.00  0.00     0.031 C 
ATOM     49  C   UNL     1      10.594   9.987   4.292  1.00  0.00     0.029 A 
ATOM     50  C   UNL     1      11.187  10.654   5.447  1.00  0.00     0.049 A 
ATOM     51  H   UNL     1      11.524   9.853   7.340  1.00  0.00     0.167 HD
ATOM     52  C   UNL     1      12.156   8.019  11.280  1.00  0.00     0.037 A 
ATOM     53  C   UNL     1      11.624  11.927   5.479  1.00  0.00     0.037 A 
ATOM     54  C   UNL     1      12.729   9.335  11.379  1.00  0.00     0.049 A 
ATOM     55  C   UNL     1      12.240  12.457   6.747  1.00  0.00     0.074 A 
ATOM     56  C   UNL     1      13.375   9.916  12.455  1.00  0.00     0.029 A 
ATOM     57  N   UNL     1      12.718  10.278  10.361  1.00  0.00    -0.354 N 
ATOM     58  N   UNL     1      12.432  11.851   7.894  1.00  0.00    -0.248 NA
ATOM     59  C   UNL     1      12.713  13.847   6.717  1.00  0.00     0.031 C 
ATOM     60  C   UNL     1      13.701  11.232  12.109  1.00  0.00     0.029 A 
ATOM     61  C   UNL     1      13.325  11.446  10.793  1.00  0.00     0.049 A 
ATOM     62  H   UNL     1      12.336  10.137   9.464  1.00  0.00     0.167 HD
ATOM     63  C   UNL     1      13.088  12.768   8.705  1.00  0.00     0.074 A 
ATOM     64  C   UNL     1      13.267  13.968   7.914  1.00  0.00     0.031 C 
ATOM     65  C   UNL     1      13.510  12.627   9.987  1.00  0.00     0.037 A 
BRANCH  52  66
ATOM     66  C   UNL     1      12.160   7.137  12.497  1.00  0.00     0.064 A 
ATOM     67  C   UNL     1      12.920   5.958  12.559  1.00  0.00     0.173 A 
ATOM     68  C   UNL     1      11.397   7.481  13.624  1.00  0.00     0.173 A 
ATOM     69  F   UNL     1      13.659   5.574  11.507  1.00  0.00    -0.203 F 
ATOM     70  C   UNL     1      12.883   5.137  13.684  1.00  0.00     0.198 A 
ATOM     71  C   UNL     1      11.393   6.678  14.761  1.00  0.00     0.198 A 
ATOM     72  F   UNL     1      10.655   8.598  13.624  1.00  0.00    -0.203 F 
ATOM     73  F   UNL     1      13.564   3.983  13.691  1.00  0.00    -0.200 F 
ATOM     74  C   UNL     1      12.125   5.501  14.786  1.00  0.00     0.200 A 
ATOM     75  F   UNL     1      10.672   7.039  15.832  1.00  0.00    -0.200 F 
ATOM     76  F   UNL     1      12.092   4.712  15.868  1.00  0.00    -0.200 F 
ENDBRANCH  52  66
BRANCH  53  77
ATOM     77  C   UNL     1      11.547  12.772   4.258  1.00  0.00     0.064 A 
ATOM     78  C   UNL     1      12.712  13.164   3.582  1.00  0.00     0.173 A 
ATOM     79  C   UNL     1      10.318  13.211   3.746  1.00  0.00     0.173 A 
ATOM     80  F   UNL     1      13.913  12.785   4.043  1.00  0.00    -0.203 F 
ATOM     81  C   UNL     1      12.651  13.985   2.458  1.00  0.00     0.198 A 
ATOM     82  C   UNL     1      10.257  14.006   2.604  1.00  0.00     0.198 A 
ATOM     83  F   UNL     1       9.174  12.858   4.350  1.00  0.00    -0.203 F 
ATOM     84  F   UNL     1      13.783  14.387   1.864  1.00  0.00    -0.200 F 
ATOM     85  C   UNL     1      11.424  14.401   1.967  1.00  0.00     0.200 A 
ATOM     86  F   UNL     1       9.068  14.393   2.122  1.00  0.00    -0.200 F 
ATOM     87  F   UNL     1      11.365  15.188   0.884  1.00  0.00    -0.200 F 
ENDBRANCH  53  77
BRANCH  65  88
ATOM     88  C   UNL     1      14.269  13.774  10.592  1.00  0.00     0.064 A 
ATOM     89  C   UNL     1      13.654  14.997  10.900  1.00  0.00     0.173 A 
ATOM     90  C   UNL     1      15.634  13.634  10.892  1.00  0.00     0.173 A 
ATOM     91  F   UNL     1      12.355  15.189  10.624  1.00  0.00    -0.203 F 
ATOM     92  C   UNL     1      14.386  16.049  11.446  1.00  0.00     0.198 A 
ATOM     93  C   UNL     1      16.352  14.673  11.475  1.00  0.00     0.198 A 
ATOM     94  F   UNL     1      16.270  12.482  10.629  1.00  0.00    -0.203 F 
ATOM     95  F   UNL     1      13.792  17.229  11.671  1.00  0.00    -0.200 F 
ATOM     96  C   UNL     1      15.732  15.884  11.740  1.00  0.00     0.200 A 
ATOM     97  F   UNL     1      17.648  14.505  11.774  1.00  0.00    -0.200 F 
ATOM     98  F   UNL     1      16.433  16.896  12.269  1.00  0.00    -0.200 F 
ENDBRANCH  65  88
ENDBRANCH  39  40
ENDBRANCH  31  34
ENDBRANCH  29  30
ENDBRANCH  28  29
ENDBRANCH   1  28
TORSDOF 16
