REMARK SMILES C[C@@H]1CC(C)(C)C[C@@](CC(=O)Nc2cccc(C(F)(F)F)c2)(C(=O)NCCCCNC(=O)c2ccc(-c3c4nc(c(-c5c(F)c(F)c(F)c(F)c5F)c5ccc([nH]5)c(-c5c(F)c(F)c(F)c(F)c5F)c5nc(c(-c6c(F)c(F)c(F)c(F)c6F)c6ccc3[nH]6)C=C5)C=C4)cc2)C1
REMARK SMILES IDX 26 1 25 2 23 3 24 4 8 6 1 7 2 8 3 9 96 10 4 11 5 12 6 13
REMARK SMILES IDX 7 14 9 15 10 16 11 17 12 18 13 20 14 21 22 22 15 23 17 24
REMARK SMILES IDX 16 25 18 26 19 27 20 28 21 29 27 30 28 31 29 32 30 33 31 34
REMARK SMILES IDX 32 36 33 37 34 38 95 39 35 40 94 41 36 42 37 43 38 44 88 45
REMARK SMILES IDX 39 46 93 47 87 48 89 49 40 50 92 51 86 52 85 53 41 55 73 56
REMARK SMILES IDX 53 57 72 58 54 59 57 60 71 61 90 62 55 63 56 64 70 66 91 67
REMARK SMILES IDX 58 68 42 69 43 70 51 71 44 72 45 73 49 74 52 75 46 76 47 77
REMARK SMILES IDX 50 78 48 79 74 80 75 81 83 82 76 83 77 84 81 85 84 86 78 87
REMARK SMILES IDX 79 88 82 89 80 90 59 91 60 92 68 93 61 94 62 95 66 96 69 97
REMARK SMILES IDX 63 98 64 99 67 100 65 101
REMARK H PARENT 25 5 12 19 30 35 89 54 57 65
REMARK Flexibility Score: inf
ROOT
ATOM      1  C   UNL     1       0.182  -3.716   2.759  1.00  0.00     0.116 C 
ENDROOT
BRANCH   1   2
ATOM      2  N   UNL     1       0.641  -3.703   1.367  1.00  0.00    -0.356 N 
ATOM      3  C   UNL     1       0.758  -2.721   0.408  1.00  0.00     0.226 C 
ATOM      4  O   UNL     1       1.218  -3.098  -0.674  1.00  0.00    -0.274 OA
ATOM      5  H   UNL     1       0.929  -4.589   1.047  1.00  0.00     0.163 HD
BRANCH   3   6
ATOM      6  C   UNL     1       0.359  -1.207   0.642  1.00  0.00     0.059 C 
ATOM      7  C   UNL     1       0.619   2.166   0.172  1.00  0.00     0.008 C 
ATOM      8  C   UNL     1       0.184   1.049  -0.769  1.00  0.00    -0.013 C 
ATOM      9  C   UNL     1      -1.321   0.930  -0.861  1.00  0.00     0.009 C 
ATOM     10  C   UNL     1       0.783  -0.347  -0.574  1.00  0.00     0.020 C 
ATOM     11  C   UNL     1      -1.990   0.102   0.256  1.00  0.00    -0.034 C 
ATOM     12  C   UNL     1      -2.225   0.936   1.525  1.00  0.00     0.011 C 
ATOM     13  C   UNL     1      -3.390  -0.255  -0.314  1.00  0.00     0.011 C 
ATOM     14  C   UNL     1      -1.216  -1.206   0.636  1.00  0.00     0.024 C 
BRANCH   6  15
ATOM     15  C   UNL     1       1.107  -0.871   1.956  1.00  0.00     0.117 C 
BRANCH  15  16
ATOM     16  C   UNL     1       1.895   0.360   2.324  1.00  0.00     0.225 C 
ATOM     17  O   UNL     1       1.458   1.050   3.261  1.00  0.00    -0.275 OA
ATOM     18  N   UNL     1       3.088   0.776   1.844  1.00  0.00    -0.326 N 
ATOM     19  H   UNL     1       3.451   1.483   2.425  1.00  0.00     0.169 HD
BRANCH  18  20
ATOM     20  C   UNL     1       3.982   0.529   0.784  1.00  0.00     0.041 A 
ATOM     21  C   UNL     1       4.869   1.593   0.535  1.00  0.00     0.026 A 
ATOM     22  C   UNL     1       3.988  -0.548  -0.100  1.00  0.00     0.039 A 
ATOM     23  C   UNL     1       5.632   1.659  -0.628  1.00  0.00     0.003 A 
ATOM     24  C   UNL     1       4.669  -0.441  -1.341  1.00  0.00     0.058 A 
ATOM     25  C   UNL     1       5.505   0.661  -1.581  1.00  0.00     0.013 A 
BRANCH  24  26
ATOM     26  C   UNL     1       4.448  -1.441  -2.458  1.00  0.00     0.416 C 
ATOM     27  F   UNL     1       4.689  -0.907  -3.694  1.00  0.00    -0.166 F 
ATOM     28  F   UNL     1       5.258  -2.528  -2.362  1.00  0.00    -0.166 F 
ATOM     29  F   UNL     1       3.174  -1.907  -2.515  1.00  0.00    -0.166 F 
ENDBRANCH  24  26
ENDBRANCH  18  20
ENDBRANCH  15  16
ENDBRANCH   6  15
ENDBRANCH   3   6
ENDBRANCH   1   2
BRANCH   1  30
ATOM     30  C   UNL     1       0.306  -5.087   3.447  1.00  0.00     0.023 C 
BRANCH  30  31
ATOM     31  C   UNL     1       1.729  -5.589   3.740  1.00  0.00     0.023 C 
BRANCH  31  32
ATOM     32  C   UNL     1       2.603  -4.731   4.661  1.00  0.00     0.116 C 
BRANCH  32  33
ATOM     33  N   UNL     1       2.061  -4.569   6.001  1.00  0.00    -0.352 N 
ATOM     34  C   UNL     1       2.604  -4.819   7.243  1.00  0.00     0.251 C 
ATOM     35  H   UNL     1       1.142  -4.217   6.025  1.00  0.00     0.163 HD
ATOM     36  O   UNL     1       1.896  -4.689   8.235  1.00  0.00    -0.269 OA
BRANCH  34  37
ATOM     37  C   UNL     1       4.011  -5.266   7.416  1.00  0.00     0.039 A 
ATOM     38  C   UNL     1       4.288  -6.212   8.412  1.00  0.00     0.014 A 
ATOM     39  C   UNL     1       5.065  -4.732   6.673  1.00  0.00     0.014 A 
ATOM     40  C   UNL     1       5.596  -6.665   8.614  1.00  0.00     0.010 A 
ATOM     41  C   UNL     1       6.361  -5.239   6.824  1.00  0.00     0.010 A 
ATOM     42  C   UNL     1       6.644  -6.209   7.799  1.00  0.00    -0.014 A 
BRANCH  42  43
ATOM     43  C   UNL     1       8.026  -6.743   7.959  1.00  0.00     0.031 A 
ATOM     44  C   UNL     1       9.161  -5.842   8.368  1.00  0.00     0.074 A 
ATOM     45  C   UNL     1       8.276  -8.040   7.690  1.00  0.00     0.049 A 
ATOM     46  N   UNL     1      10.429  -6.127   8.538  1.00  0.00    -0.248 NA
ATOM     47  C   UNL     1       8.832  -4.427   8.589  1.00  0.00     0.031 C 
ATOM     48  C   UNL     1       7.285  -9.010   7.225  1.00  0.00     0.029 A 
ATOM     49  N   UNL     1       9.442  -8.764   7.758  1.00  0.00    -0.354 N 
ATOM     50  C   UNL     1      11.047  -4.930   8.876  1.00  0.00     0.074 A 
ATOM     51  C   UNL     1      10.027  -3.904   8.824  1.00  0.00     0.031 C 
ATOM     52  C   UNL     1       7.877 -10.204   7.067  1.00  0.00     0.029 A 
ATOM     53  C   UNL     1       9.296 -10.079   7.388  1.00  0.00     0.049 A 
ATOM     54  H   UNL     1      10.301  -8.377   8.044  1.00  0.00     0.167 HD
ATOM     55  C   UNL     1      12.339  -4.706   9.223  1.00  0.00     0.037 A 
ATOM     56  C   UNL     1      10.201 -11.074   7.309  1.00  0.00     0.037 A 
ATOM     57  C   UNL     1      13.353  -5.728   9.284  1.00  0.00     0.049 A 
ATOM     58  C   UNL     1      11.628 -10.807   7.707  1.00  0.00     0.074 A 
ATOM     59  C   UNL     1      14.675  -5.613   9.679  1.00  0.00     0.029 A 
ATOM     60  N   UNL     1      13.160  -7.056   8.929  1.00  0.00    -0.354 N 
ATOM     61  N   UNL     1      12.181  -9.688   8.105  1.00  0.00    -0.248 NA
ATOM     62  C   UNL     1      12.553 -11.948   7.660  1.00  0.00     0.031 C 
ATOM     63  C   UNL     1      15.295  -6.856   9.510  1.00  0.00     0.029 A 
ATOM     64  C   UNL     1      14.345  -7.764   9.072  1.00  0.00     0.049 A 
ATOM     65  H   UNL     1      12.307  -7.439   8.621  1.00  0.00     0.167 HD
ATOM     66  C   UNL     1      13.508  -9.992   8.380  1.00  0.00     0.074 A 
ATOM     67  C   UNL     1      13.671 -11.408   8.122  1.00  0.00     0.031 C 
ATOM     68  C   UNL     1      14.500  -9.173   8.808  1.00  0.00     0.037 A 
BRANCH  55  69
ATOM     69  C   UNL     1      12.728  -3.292   9.561  1.00  0.00     0.064 A 
ATOM     70  C   UNL     1      12.234  -2.643  10.704  1.00  0.00     0.173 A 
ATOM     71  C   UNL     1      13.616  -2.580   8.740  1.00  0.00     0.173 A 
ATOM     72  F   UNL     1      11.376  -3.273  11.521  1.00  0.00    -0.203 F 
ATOM     73  C   UNL     1      12.575  -1.322  10.985  1.00  0.00     0.198 A 
ATOM     74  C   UNL     1      13.984  -1.271   9.044  1.00  0.00     0.198 A 
ATOM     75  F   UNL     1      14.129  -3.152   7.641  1.00  0.00    -0.203 F 
ATOM     76  F   UNL     1      12.035  -0.703  12.044  1.00  0.00    -0.200 F 
ATOM     77  C   UNL     1      13.453  -0.639  10.158  1.00  0.00     0.200 A 
ATOM     78  F   UNL     1      14.847  -0.618   8.253  1.00  0.00    -0.200 F 
ATOM     79  F   UNL     1      13.780   0.632  10.429  1.00  0.00    -0.200 F 
ENDBRANCH  55  69
BRANCH  56  80
ATOM     80  C   UNL     1       9.773 -12.424   6.856  1.00  0.00     0.064 A 
ATOM     81  C   UNL     1       9.727 -13.507   7.744  1.00  0.00     0.173 A 
ATOM     82  C   UNL     1       9.390 -12.655   5.526  1.00  0.00     0.173 A 
ATOM     83  F   UNL     1      10.104 -13.343   9.021  1.00  0.00    -0.203 F 
ATOM     84  C   UNL     1       9.331 -14.773   7.316  1.00  0.00     0.198 A 
ATOM     85  C   UNL     1       8.964 -13.913   5.107  1.00  0.00     0.198 A 
ATOM     86  F   UNL     1       9.410 -11.650   4.637  1.00  0.00    -0.203 F 
ATOM     87  F   UNL     1       9.337 -15.801   8.176  1.00  0.00    -0.200 F 
ATOM     88  C   UNL     1       8.942 -14.973   6.000  1.00  0.00     0.200 A 
ATOM     89  F   UNL     1       8.572 -14.098   3.839  1.00  0.00    -0.200 F 
ATOM     90  F   UNL     1       8.550 -16.188   5.592  1.00  0.00    -0.200 F 
ENDBRANCH  56  80
BRANCH  68  91
ATOM     91  C   UNL     1      15.847  -9.794   9.056  1.00  0.00     0.064 A 
ATOM     92  C   UNL     1      16.650 -10.268   8.007  1.00  0.00     0.173 A 
ATOM     93  C   UNL     1      16.350  -9.899  10.363  1.00  0.00     0.173 A 
ATOM     94  F   UNL     1      16.212 -10.205   6.740  1.00  0.00    -0.203 F 
ATOM     95  C   UNL     1      17.886 -10.857   8.260  1.00  0.00     0.198 A 
ATOM     96  C   UNL     1      17.602 -10.456  10.608  1.00  0.00     0.198 A 
ATOM     97  F   UNL     1      15.629  -9.455  11.403  1.00  0.00    -0.203 F 
ATOM     98  F   UNL     1      18.607 -11.358   7.247  1.00  0.00    -0.200 F 
ATOM     99  C   UNL     1      18.364 -10.945   9.559  1.00  0.00     0.200 A 
ATOM    100  F   UNL     1      18.068 -10.525  11.863  1.00  0.00    -0.200 F 
ATOM    101  F   UNL     1      19.555 -11.510   9.800  1.00  0.00    -0.200 F 
ENDBRANCH  68  91
ENDBRANCH  42  43
ENDBRANCH  34  37
ENDBRANCH  32  33
ENDBRANCH  31  32
ENDBRANCH  30  31
ENDBRANCH   1  30
TORSDOF 15
