REMARK SMILES Cc1cc2c(c(C)c1Cl)C=C(C(=O)NCCCCNC(=O)c1ccc(-c3c4nc(c(-c5c(F)c(F)c(F)c(F)c5F)c5ccc([nH]5)c(-c5c(F)c(F)c(F)c(F)c5F)c5nc(c(-c6c(F)c(F)c(F)c(F)c6F)c6ccc3[nH]6)C=C5)C=C4)cc1)[C@@H](C(F)(F)F)O2
REMARK SMILES IDX 17 1 16 2 15 3 14 4 12 5 13 6 11 8 1 9 2 10 3 11 8 12 4 13
REMARK SMILES IDX 6 14 9 15 5 16 90 17 7 18 10 19 85 20 86 21 87 22 88 23
REMARK SMILES IDX 89 24 18 25 19 26 20 27 21 29 22 30 23 31 84 32 24 33 83 34
REMARK SMILES IDX 25 35 26 36 27 37 77 38 28 39 82 40 76 41 78 42 29 43 81 44
REMARK SMILES IDX 75 45 74 46 30 48 62 49 42 50 61 51 43 52 46 53 60 54 79 55
REMARK SMILES IDX 44 56 45 57 59 59 80 60 47 61 31 62 32 63 40 64 33 65 34 66
REMARK SMILES IDX 38 67 41 68 35 69 36 70 39 71 37 72 63 73 64 74 72 75 65 76
REMARK SMILES IDX 66 77 70 78 73 79 67 80 68 81 71 82 69 83 48 84 49 85 57 86
REMARK SMILES IDX 50 87 51 88 55 89 58 90 52 91 53 92 56 93 54 94
REMARK H PARENT 14 7 19 28 78 47 46 58
REMARK Flexibility Score: inf
ROOT
ATOM      1  C   UNL     1       0.260  -6.114   9.120  1.00  0.00     0.023 C 
ENDROOT
BRANCH   1   2
ATOM      2  C   UNL     1       0.327  -5.572   7.690  1.00  0.00     0.023 C 
BRANCH   2   3
ATOM      3  C   UNL     1      -1.004  -5.050   7.158  1.00  0.00     0.116 C 
BRANCH   3   4
ATOM      4  N   UNL     1      -1.253  -3.682   7.573  1.00  0.00    -0.352 N 
ATOM      5  C   UNL     1      -1.202  -2.453   7.008  1.00  0.00     0.251 C 
ATOM      6  O   UNL     1      -1.497  -1.520   7.763  1.00  0.00    -0.270 OA
ATOM      7  H   UNL     1      -1.535  -3.635   8.515  1.00  0.00     0.163 HD
BRANCH   5   8
ATOM      8  C   UNL     1      -0.829  -2.166   5.590  1.00  0.00     0.067 C 
ATOM      9  C   UNL     1       0.917   0.371  -0.151  1.00  0.00     0.046 C 
ATOM     10  C   UNL     1       0.440   0.119   1.254  1.00  0.00    -0.028 A 
ATOM     11  C   UNL     1       0.449  -1.197   1.726  1.00  0.00     0.052 A 
ATOM     12  C   UNL     1       0.046   1.152   2.129  1.00  0.00     0.047 A 
ATOM     13  C   UNL     1       0.051  -1.485   3.027  1.00  0.00     0.128 A 
ATOM     14  C   UNL     1      -0.376   0.870   3.453  1.00  0.00    -0.021 A 
ATOM     15  Cl  UNL     1       0.120   2.793   1.560  1.00  0.00    -0.084 Cl
ATOM     16  C   UNL     1      -0.353  -0.473   3.903  1.00  0.00     0.022 A 
ATOM     17  O   UNL     1       0.136  -2.799   3.387  1.00  0.00    -0.475 OA
ATOM     18  C   UNL     1      -0.821   1.964   4.395  1.00  0.00     0.047 C 
ATOM     19  C   UNL     1      -0.684  -0.865   5.277  1.00  0.00     0.026 C 
ATOM     20  C   UNL     1      -0.655  -3.213   4.531  1.00  0.00     0.314 C 
BRANCH  20  21
ATOM     21  C   UNL     1      -1.993  -3.797   4.043  1.00  0.00     0.429 C 
ATOM     22  F   UNL     1      -1.782  -4.936   3.336  1.00  0.00    -0.167 F 
ATOM     23  F   UNL     1      -2.816  -4.130   5.065  1.00  0.00    -0.167 F 
ATOM     24  F   UNL     1      -2.677  -2.945   3.248  1.00  0.00    -0.167 F 
ENDBRANCH  20  21
ENDBRANCH   5   8
ENDBRANCH   3   4
ENDBRANCH   2   3
ENDBRANCH   1   2
BRANCH   1  25
ATOM     25  C   UNL     1      -0.791  -7.196   9.362  1.00  0.00     0.116 C 
BRANCH  25  26
ATOM     26  N   UNL     1      -0.739  -8.294   8.406  1.00  0.00    -0.352 N 
ATOM     27  C   UNL     1      -1.048  -9.616   8.619  1.00  0.00     0.251 C 
ATOM     28  H   UNL     1      -0.447  -8.060   7.496  1.00  0.00     0.163 HD
ATOM     29  O   UNL     1      -0.895 -10.451   7.734  1.00  0.00    -0.269 OA
BRANCH  27  30
ATOM     30  C   UNL     1      -1.521 -10.022   9.953  1.00  0.00     0.039 A 
ATOM     31  C   UNL     1      -0.811 -11.006  10.644  1.00  0.00     0.014 A 
ATOM     32  C   UNL     1      -2.608  -9.372  10.544  1.00  0.00     0.014 A 
ATOM     33  C   UNL     1      -1.147 -11.287  11.967  1.00  0.00     0.010 A 
ATOM     34  C   UNL     1      -2.903  -9.611  11.881  1.00  0.00     0.010 A 
ATOM     35  C   UNL     1      -2.169 -10.563  12.604  1.00  0.00    -0.014 A 
BRANCH  35  36
ATOM     36  C   UNL     1      -2.479 -10.790  14.034  1.00  0.00     0.031 A 
ATOM     37  C   UNL     1      -3.786 -11.412  14.426  1.00  0.00     0.074 A 
ATOM     38  C   UNL     1      -1.602 -10.393  14.975  1.00  0.00     0.049 A 
ATOM     39  N   UNL     1      -4.256 -11.661  15.621  1.00  0.00    -0.248 NA
ATOM     40  C   UNL     1      -4.696 -11.783  13.331  1.00  0.00     0.031 C 
ATOM     41  C   UNL     1      -0.320  -9.737  14.713  1.00  0.00     0.029 A 
ATOM     42  N   UNL     1      -1.657 -10.482  16.343  1.00  0.00    -0.354 N 
ATOM     43  C   UNL     1      -5.513 -12.211  15.421  1.00  0.00     0.074 A 
ATOM     44  C   UNL     1      -5.759 -12.210  13.996  1.00  0.00     0.031 C 
ATOM     45  C   UNL     1       0.307  -9.517  15.880  1.00  0.00     0.029 A 
ATOM     46  C   UNL     1      -0.540  -9.989  16.971  1.00  0.00     0.049 A 
ATOM     47  H   UNL     1      -2.424 -10.864  16.828  1.00  0.00     0.167 HD
ATOM     48  C   UNL     1      -6.373 -12.701  16.344  1.00  0.00     0.037 A 
ATOM     49  C   UNL     1      -0.234  -9.934  18.281  1.00  0.00     0.037 A 
ATOM     50  C   UNL     1      -6.113 -12.728  17.757  1.00  0.00     0.049 A 
ATOM     51  C   UNL     1      -1.212 -10.474  19.287  1.00  0.00     0.074 A 
ATOM     52  C   UNL     1      -6.898 -13.253  18.769  1.00  0.00     0.029 A 
ATOM     53  N   UNL     1      -4.975 -12.210  18.358  1.00  0.00    -0.354 N 
ATOM     54  N   UNL     1      -2.376 -11.040  19.084  1.00  0.00    -0.248 NA
ATOM     55  C   UNL     1      -0.834 -10.367  20.704  1.00  0.00     0.031 C 
ATOM     56  C   UNL     1      -6.247 -13.028  19.986  1.00  0.00     0.029 A 
ATOM     57  C   UNL     1      -5.043 -12.390  19.729  1.00  0.00     0.049 A 
ATOM     58  H   UNL     1      -4.230 -11.780  17.880  1.00  0.00     0.167 HD
ATOM     59  C   UNL     1      -2.863 -11.373  20.340  1.00  0.00     0.074 A 
ATOM     60  C   UNL     1      -1.863 -10.955  21.301  1.00  0.00     0.031 C 
ATOM     61  C   UNL     1      -4.034 -11.969  20.666  1.00  0.00     0.037 A 
BRANCH  48  62
ATOM     62  C   UNL     1      -7.667 -13.269  15.847  1.00  0.00     0.064 A 
ATOM     63  C   UNL     1      -7.710 -14.501  15.177  1.00  0.00     0.173 A 
ATOM     64  C   UNL     1      -8.877 -12.595  16.068  1.00  0.00     0.173 A 
ATOM     65  F   UNL     1      -6.577 -15.174  14.930  1.00  0.00    -0.203 F 
ATOM     66  C   UNL     1      -8.917 -15.028  14.728  1.00  0.00     0.198 A 
ATOM     67  C   UNL     1     -10.085 -13.138  15.637  1.00  0.00     0.198 A 
ATOM     68  F   UNL     1      -8.887 -11.415  16.705  1.00  0.00    -0.203 F 
ATOM     69  F   UNL     1      -8.930 -16.187  14.055  1.00  0.00    -0.200 F 
ATOM     70  C   UNL     1     -10.103 -14.350  14.963  1.00  0.00     0.200 A 
ATOM     71  F   UNL     1     -11.232 -12.486  15.872  1.00  0.00    -0.200 F 
ATOM     72  F   UNL     1     -11.265 -14.862  14.534  1.00  0.00    -0.200 F 
ENDBRANCH  48  62
BRANCH  49  73
ATOM     73  C   UNL     1       1.079  -9.389  18.709  1.00  0.00     0.064 A 
ATOM     74  C   UNL     1       2.089 -10.245  19.168  1.00  0.00     0.173 A 
ATOM     75  C   UNL     1       1.360  -8.017  18.648  1.00  0.00     0.173 A 
ATOM     76  F   UNL     1       1.857 -11.563  19.260  1.00  0.00    -0.203 F 
ATOM     77  C   UNL     1       3.330  -9.749  19.558  1.00  0.00     0.198 A 
ATOM     78  C   UNL     1       2.609  -7.524  19.020  1.00  0.00     0.198 A 
ATOM     79  F   UNL     1       0.427  -7.159  18.211  1.00  0.00    -0.203 F 
ATOM     80  F   UNL     1       4.270 -10.586  20.017  1.00  0.00    -0.200 F 
ATOM     81  C   UNL     1       3.591  -8.389  19.478  1.00  0.00     0.200 A 
ATOM     82  F   UNL     1       2.862  -6.211  18.932  1.00  0.00    -0.200 F 
ATOM     83  F   UNL     1       4.789  -7.913  19.846  1.00  0.00    -0.200 F 
ENDBRANCH  49  73
BRANCH  61  84
ATOM     84  C   UNL     1      -4.303 -12.218  22.118  1.00  0.00     0.064 A 
ATOM     85  C   UNL     1      -4.710 -11.181  22.969  1.00  0.00     0.173 A 
ATOM     86  C   UNL     1      -4.236 -13.517  22.642  1.00  0.00     0.173 A 
ATOM     87  F   UNL     1      -4.775  -9.921  22.513  1.00  0.00    -0.203 F 
ATOM     88  C   UNL     1      -5.038 -11.436  24.297  1.00  0.00     0.198 A 
ATOM     89  C   UNL     1      -4.585 -13.772  23.965  1.00  0.00     0.198 A 
ATOM     90  F   UNL     1      -3.856 -14.541  21.863  1.00  0.00    -0.203 F 
ATOM     91  F   UNL     1      -5.407 -10.429  25.099  1.00  0.00    -0.200 F 
ATOM     92  C   UNL     1      -4.985 -12.732  24.790  1.00  0.00     0.200 A 
ATOM     93  F   UNL     1      -4.543 -15.025  24.438  1.00  0.00    -0.200 F 
ATOM     94  F   UNL     1      -5.319 -12.978  26.065  1.00  0.00    -0.200 F 
ENDBRANCH  61  84
ENDBRANCH  35  36
ENDBRANCH  27  30
ENDBRANCH  25  26
ENDBRANCH   1  25
TORSDOF 12
