REMARK SMILES CC[C@@](C)([NH3+])C(=O)Nc1cc(C(=O)NCCCCNC(=O)c2ccc(-c3c4nc(c(-c5c(F)c(F)c(F)c(F)c5F)c5ccc([nH]5)c(-c5c(F)c(F)c(F)c(F)c5F)c5nc(c(-c6c(F)c(F)c(F)c(F)c6F)c6ccc3[nH]6)C=C5)C=C4)cc2)cc(C(F)(F)F)c1
REMARK SMILES IDX 16 1 15 2 14 3 12 4 13 5 11 7 9 8 10 9 91 10 86 11 85 12
REMARK SMILES IDX 8 13 6 14 7 15 3 17 4 18 2 19 1 20 5 21 87 25 88 26 89 27
REMARK SMILES IDX 90 28 17 29 18 30 19 31 20 32 21 34 22 35 23 36 84 37 24 38
REMARK SMILES IDX 83 39 25 40 26 41 27 42 77 43 28 44 82 45 76 46 78 47 29 48
REMARK SMILES IDX 81 49 75 50 74 51 30 53 62 54 42 55 61 56 43 57 46 58 60 59
REMARK SMILES IDX 79 60 44 61 45 62 59 64 80 65 47 66 31 67 32 68 40 69 33 70
REMARK SMILES IDX 34 71 38 72 41 73 35 74 36 75 39 76 37 77 63 78 64 79 72 80
REMARK SMILES IDX 65 81 66 82 70 83 73 84 67 85 68 86 71 87 69 88 48 89 49 90
REMARK SMILES IDX 57 91 50 92 51 93 55 94 58 95 52 96 53 97 56 98 54 99
REMARK H PARENT 14 6 8 16 5 22 5 23 5 24 19 33 78 52 46 63
REMARK Flexibility Score: inf
ROOT
ATOM      1  C   UNL     1       2.087  -4.650  10.065  1.00  0.00     0.023 C 
ENDROOT
BRANCH   1   2
ATOM      2  C   UNL     1       1.482  -3.483   9.304  1.00  0.00     0.116 C 
BRANCH   2   3
ATOM      3  N   UNL     1       2.339  -2.314   9.143  1.00  0.00    -0.352 N 
ATOM      4  C   UNL     1       2.628  -1.556   8.021  1.00  0.00     0.251 C 
ATOM      5  O   UNL     1       3.379  -0.590   8.122  1.00  0.00    -0.269 OA
ATOM      6  H   UNL     1       2.785  -2.015   9.967  1.00  0.00     0.163 HD
BRANCH   4   7
ATOM      7  C   UNL     1       2.104  -1.940   6.684  1.00  0.00     0.042 A 
ATOM      8  C   UNL     1       2.460  -2.288   4.330  1.00  0.00     0.042 A 
ATOM      9  C   UNL     1       2.890  -1.745   5.540  1.00  0.00     0.040 A 
ATOM     10  C   UNL     1       1.444  -3.236   4.351  1.00  0.00     0.039 A 
ATOM     11  C   UNL     1       0.583  -3.330   5.437  1.00  0.00     0.058 A 
ATOM     12  C   UNL     1       0.854  -2.545   6.553  1.00  0.00     0.027 A 
BRANCH   8  13
ATOM     13  N   UNL     1       3.057  -1.910   3.124  1.00  0.00    -0.321 N 
ATOM     14  C   UNL     1       2.481  -1.708   1.883  1.00  0.00     0.285 C 
ATOM     15  O   UNL     1       3.264  -1.615   0.929  1.00  0.00    -0.267 OA
ATOM     16  H   UNL     1       4.030  -1.766   3.164  1.00  0.00     0.170 HD
BRANCH  14  17
ATOM     17  C   UNL     1       0.921  -1.448   1.690  1.00  0.00     0.171 C 
ATOM     18  C   UNL     1       0.416  -0.363   2.659  1.00  0.00     0.090 C 
BRANCH  17  19
ATOM     19  C   UNL     1       0.614  -1.026   0.222  1.00  0.00     0.075 C 
ATOM     20  C   UNL     1       1.085   0.362  -0.190  1.00  0.00     0.011 C 
ENDBRANCH  17  19
BRANCH  17  21
ATOM     21  N   UNL     1       0.149  -2.701   1.887  1.00  0.00    -0.345 N 
ATOM     22  H   UNL     1      -0.845  -2.513   1.759  1.00  0.00     0.345 HD
ATOM     23  H   UNL     1       0.310  -3.054   2.830  1.00  0.00     0.345 HD
ATOM     24  H   UNL     1       0.454  -3.398   1.207  1.00  0.00     0.345 HD
ENDBRANCH  17  21
ENDBRANCH  14  17
ENDBRANCH   8  13
BRANCH  11  25
ATOM     25  C   UNL     1      -0.556  -4.310   5.457  1.00  0.00     0.416 C 
ATOM     26  F   UNL     1      -0.251  -5.421   6.183  1.00  0.00    -0.166 F 
ATOM     27  F   UNL     1      -1.677  -3.789   6.029  1.00  0.00    -0.166 F 
ATOM     28  F   UNL     1      -0.930  -4.747   4.227  1.00  0.00    -0.166 F 
ENDBRANCH  11  25
ENDBRANCH   4   7
ENDBRANCH   2   3
ENDBRANCH   1   2
BRANCH   1  29
ATOM     29  C   UNL     1       2.403  -4.403  11.528  1.00  0.00     0.023 C 
BRANCH  29  30
ATOM     30  C   UNL     1       1.293  -3.754  12.343  1.00  0.00     0.116 C 
BRANCH  30  31
ATOM     31  N   UNL     1       0.035  -4.488  12.331  1.00  0.00    -0.352 N 
ATOM     32  C   UNL     1      -0.746  -4.901  13.385  1.00  0.00     0.251 C 
ATOM     33  H   UNL     1      -0.306  -4.724  11.438  1.00  0.00     0.163 HD
ATOM     34  O   UNL     1      -1.752  -5.575  13.184  1.00  0.00    -0.269 OA
BRANCH  32  35
ATOM     35  C   UNL     1      -0.346  -4.571  14.769  1.00  0.00     0.039 A 
ATOM     36  C   UNL     1      -0.351  -5.583  15.731  1.00  0.00     0.014 A 
ATOM     37  C   UNL     1       0.077  -3.283  15.106  1.00  0.00     0.014 A 
ATOM     38  C   UNL     1       0.155  -5.326  17.007  1.00  0.00     0.010 A 
ATOM     39  C   UNL     1       0.670  -3.055  16.343  1.00  0.00     0.010 A 
ATOM     40  C   UNL     1       0.714  -4.073  17.308  1.00  0.00    -0.014 A 
BRANCH  40  41
ATOM     41  C   UNL     1       1.344  -3.805  18.626  1.00  0.00     0.031 A 
ATOM     42  C   UNL     1       0.778  -2.744  19.529  1.00  0.00     0.074 A 
ATOM     43  C   UNL     1       2.462  -4.468  18.982  1.00  0.00     0.049 A 
ATOM     44  N   UNL     1       1.218  -2.318  20.686  1.00  0.00    -0.248 NA
ATOM     45  C   UNL     1      -0.426  -2.044  19.052  1.00  0.00     0.031 C 
ATOM     46  C   UNL     1       3.144  -5.477  18.169  1.00  0.00     0.029 A 
ATOM     47  N   UNL     1       3.229  -4.385  20.117  1.00  0.00    -0.354 N 
ATOM     48  C   UNL     1       0.358  -1.296  21.063  1.00  0.00     0.074 A 
ATOM     49  C   UNL     1      -0.591  -1.121  19.986  1.00  0.00     0.031 C 
ATOM     50  C   UNL     1       4.208  -5.941  18.845  1.00  0.00     0.029 A 
ATOM     51  C   UNL     1       4.306  -5.237  20.120  1.00  0.00     0.049 A 
ATOM     52  H   UNL     1       3.026  -3.772  20.861  1.00  0.00     0.167 HD
ATOM     53  C   UNL     1       0.341  -0.587  22.217  1.00  0.00     0.037 A 
ATOM     54  C   UNL     1       5.264  -5.428  21.046  1.00  0.00     0.037 A 
ATOM     55  C   UNL     1       1.267  -0.784  23.300  1.00  0.00     0.049 A 
ATOM     56  C   UNL     1       5.218  -4.633  22.323  1.00  0.00     0.074 A 
ATOM     57  C   UNL     1       1.299  -0.159  24.534  1.00  0.00     0.029 A 
ATOM     58  N   UNL     1       2.329  -1.677  23.276  1.00  0.00    -0.354 N 
ATOM     59  N   UNL     1       4.356  -3.721  22.701  1.00  0.00    -0.248 NA
ATOM     60  C   UNL     1       6.275  -4.903  23.308  1.00  0.00     0.031 C 
ATOM     61  C   UNL     1       2.405  -0.642  25.241  1.00  0.00     0.029 A 
ATOM     62  C   UNL     1       3.032  -1.606  24.468  1.00  0.00     0.049 A 
ATOM     63  H   UNL     1       2.550  -2.272  22.524  1.00  0.00     0.167 HD
ATOM     64  C   UNL     1       4.746  -3.331  23.975  1.00  0.00     0.074 A 
ATOM     65  C   UNL     1       5.914  -4.118  24.313  1.00  0.00     0.031 C 
ATOM     66  C   UNL     1       4.187  -2.405  24.793  1.00  0.00     0.037 A 
BRANCH  53  67
ATOM     67  C   UNL     1      -0.723   0.462  22.369  1.00  0.00     0.064 A 
ATOM     68  C   UNL     1      -2.077   0.121  22.509  1.00  0.00     0.173 A 
ATOM     69  C   UNL     1      -0.383   1.823  22.400  1.00  0.00     0.173 A 
ATOM     70  F   UNL     1      -2.458  -1.165  22.472  1.00  0.00    -0.203 F 
ATOM     71  C   UNL     1      -3.054   1.104  22.642  1.00  0.00     0.198 A 
ATOM     72  C   UNL     1      -1.360   2.802  22.566  1.00  0.00     0.198 A 
ATOM     73  F   UNL     1       0.897   2.204  22.275  1.00  0.00    -0.203 F 
ATOM     74  F   UNL     1      -4.346   0.756  22.717  1.00  0.00    -0.200 F 
ATOM     75  C   UNL     1      -2.695   2.443  22.677  1.00  0.00     0.200 A 
ATOM     76  F   UNL     1      -1.009   4.095  22.613  1.00  0.00    -0.200 F 
ATOM     77  F   UNL     1      -3.635   3.388  22.811  1.00  0.00    -0.200 F 
ENDBRANCH  53  67
BRANCH  54  78
ATOM     78  C   UNL     1       6.329  -6.441  20.819  1.00  0.00     0.064 A 
ATOM     79  C   UNL     1       6.374  -7.619  21.579  1.00  0.00     0.173 A 
ATOM     80  C   UNL     1       7.325  -6.252  19.851  1.00  0.00     0.173 A 
ATOM     81  F   UNL     1       5.455  -7.835  22.532  1.00  0.00    -0.203 F 
ATOM     82  C   UNL     1       7.387  -8.557  21.396  1.00  0.00     0.198 A 
ATOM     83  C   UNL     1       8.322  -7.205  19.649  1.00  0.00     0.198 A 
ATOM     84  F   UNL     1       7.324  -5.145  19.093  1.00  0.00    -0.203 F 
ATOM     85  F   UNL     1       7.434  -9.649  22.170  1.00  0.00    -0.200 F 
ATOM     86  C   UNL     1       8.358  -8.351  20.427  1.00  0.00     0.200 A 
ATOM     87  F   UNL     1       9.249  -7.009  18.701  1.00  0.00    -0.200 F 
ATOM     88  F   UNL     1       9.331  -9.255  20.250  1.00  0.00    -0.200 F 
ENDBRANCH  54  78
BRANCH  66  89
ATOM     89  C   UNL     1       4.805  -2.222  26.148  1.00  0.00     0.064 A 
ATOM     90  C   UNL     1       6.056  -1.609  26.313  1.00  0.00     0.173 A 
ATOM     91  C   UNL     1       4.119  -2.636  27.301  1.00  0.00     0.173 A 
ATOM     92  F   UNL     1       6.758  -1.209  25.242  1.00  0.00    -0.203 F 
ATOM     93  C   UNL     1       6.611  -1.445  27.579  1.00  0.00     0.198 A 
ATOM     94  C   UNL     1       4.662  -2.442  28.567  1.00  0.00     0.198 A 
ATOM     95  F   UNL     1       2.916  -3.221  27.199  1.00  0.00    -0.203 F 
ATOM     96  F   UNL     1       7.830  -0.905  27.709  1.00  0.00    -0.200 F 
ATOM     97  C   UNL     1       5.911  -1.855  28.705  1.00  0.00     0.200 A 
ATOM     98  F   UNL     1       3.979  -2.825  29.654  1.00  0.00    -0.200 F 
ATOM     99  F   UNL     1       6.444  -1.691  29.923  1.00  0.00    -0.200 F 
ENDBRANCH  66  89
ENDBRANCH  40  41
ENDBRANCH  32  35
ENDBRANCH  30  31
ENDBRANCH  29  30
ENDBRANCH   1  29
TORSDOF 16
