REMARK SMILES COc1ccc(-c2[nH]nc3nc(-c4ccc(C(F)(F)F)cc4)cc(C(=O)NCCCCNC(=O)c4ccc(-c5c6nc(c(-c7c(F)c(F)c(F)c(F)c7F)c7ccc([nH]7)c(-c7c(F)c(F)c(F)c(F)c7F)c7nc(c(-c8c(F)c(F)c(F)c(F)c8F)c8ccc5[nH]8)C=C7)C=C6)cc4)c23)cc1
REMARK SMILES IDX 29 1 28 2 27 3 25 4 26 5 24 7 7 8 8 9 98 10 9 11 10 13 11 14
REMARK SMILES IDX 23 15 12 16 6 17 3 18 4 19 100 20 5 21 99 22 2 23 1 24 13 25
REMARK SMILES IDX 14 26 22 27 15 28 21 29 16 30 17 31 18 32 19 33 20 34 30 35
REMARK SMILES IDX 31 36 32 37 33 38 34 40 35 41 36 42 97 43 37 44 96 45 38 46
REMARK SMILES IDX 39 47 40 48 90 49 41 50 95 51 89 52 91 53 42 54 94 55 88 56
REMARK SMILES IDX 87 57 43 59 75 60 55 61 74 62 56 63 59 64 73 65 92 66 57 67
REMARK SMILES IDX 58 68 72 70 93 71 60 72 44 73 45 74 53 75 46 76 47 77 51 78
REMARK SMILES IDX 54 79 48 80 49 81 52 82 50 83 76 84 77 85 85 86 78 87 79 88
REMARK SMILES IDX 83 89 86 90 80 91 81 92 84 93 82 94 61 95 62 96 70 97 63 98
REMARK SMILES IDX 64 99 68 100 71 101 65 102 66 103 69 104 67 105
REMARK H PARENT 27 6 8 12 32 39 91 58 59 69
REMARK Flexibility Score: inf
ROOT
ATOM      1  C   UNL     1       7.651   0.908  -6.822  1.00  0.00     0.023 C 
ENDROOT
BRANCH   1   2
ATOM      2  C   UNL     1       6.285   0.469  -7.348  1.00  0.00     0.116 C 
BRANCH   2   3
ATOM      3  N   UNL     1       5.239   0.514  -6.348  1.00  0.00    -0.352 N 
ATOM      4  C   UNL     1       4.223   1.379  -6.027  1.00  0.00     0.252 C 
ATOM      5  O   UNL     1       3.368   0.880  -5.302  1.00  0.00    -0.269 OA
ATOM      6  H   UNL     1       5.261  -0.268  -5.751  1.00  0.00     0.163 HD
BRANCH   4   7
ATOM      7  C   UNL     1       4.083   2.767  -6.529  1.00  0.00     0.055 A 
ATOM      8  C   UNL     1       2.064   3.678  -5.256  1.00  0.00     0.075 A 
ATOM      9  N   UNL     1       1.393   4.870  -5.423  1.00  0.00    -0.275 N 
ATOM     10  C   UNL     1       3.070   3.702  -6.214  1.00  0.00     0.059 A 
ATOM     11  N   UNL     1       1.860   5.660  -6.395  1.00  0.00    -0.154 NA
ATOM     12  H   UNL     1       0.623   5.122  -4.864  1.00  0.00     0.190 HD
ATOM     13  C   UNL     1       2.887   4.973  -6.889  1.00  0.00     0.182 A 
ATOM     14  N   UNL     1       3.670   5.391  -7.916  1.00  0.00    -0.226 NA
ATOM     15  C   UNL     1       4.931   3.321  -7.496  1.00  0.00     0.043 A 
ATOM     16  C   UNL     1       4.669   4.525  -8.192  1.00  0.00     0.074 A 
BRANCH   8  17
ATOM     17  C   UNL     1       1.633   2.772  -4.194  1.00  0.00     0.001 A 
ATOM     18  C   UNL     1       0.795   0.972  -2.198  1.00  0.00     0.118 A 
ATOM     19  C   UNL     1      -0.074   1.341  -3.225  1.00  0.00     0.047 A 
ATOM     20  C   UNL     1       2.080   1.512  -2.161  1.00  0.00     0.047 A 
ATOM     21  C   UNL     1       0.337   2.240  -4.213  1.00  0.00     0.014 A 
ATOM     22  C   UNL     1       2.489   2.425  -3.142  1.00  0.00     0.014 A 
BRANCH  18  23
ATOM     23  O   UNL     1       0.299   0.042  -1.326  1.00  0.00    -0.497 OA
ATOM     24  C   UNL     1       0.860   0.060  -0.019  1.00  0.00     0.278 C 
ENDBRANCH  18  23
ENDBRANCH   8  17
BRANCH  16  25
ATOM     25  C   UNL     1       5.487   4.804  -9.385  1.00  0.00     0.000 A 
ATOM     26  C   UNL     1       6.330   5.917  -9.466  1.00  0.00     0.011 A 
ATOM     27  C   UNL     1       5.506   3.875 -10.445  1.00  0.00     0.011 A 
ATOM     28  C   UNL     1       7.206   6.067 -10.550  1.00  0.00     0.014 A 
ATOM     29  C   UNL     1       6.376   4.022 -11.526  1.00  0.00     0.014 A 
ATOM     30  C   UNL     1       7.249   5.113 -11.581  1.00  0.00     0.056 A 
BRANCH  30  31
ATOM     31  C   UNL     1       8.227   5.264 -12.722  1.00  0.00     0.416 C 
ATOM     32  F   UNL     1       8.029   6.405 -13.436  1.00  0.00    -0.166 F 
ATOM     33  F   UNL     1       9.519   5.307 -12.293  1.00  0.00    -0.166 F 
ATOM     34  F   UNL     1       8.171   4.243 -13.624  1.00  0.00    -0.166 F 
ENDBRANCH  30  31
ENDBRANCH  16  25
ENDBRANCH   4   7
ENDBRANCH   2   3
ENDBRANCH   1   2
BRANCH   1  35
ATOM     35  C   UNL     1       8.370  -0.120  -5.932  1.00  0.00     0.023 C 
BRANCH  35  36
ATOM     36  C   UNL     1       8.690  -1.464  -6.588  1.00  0.00     0.116 C 
BRANCH  36  37
ATOM     37  N   UNL     1       9.525  -1.351  -7.787  1.00  0.00    -0.352 N 
ATOM     38  C   UNL     1       9.729  -2.292  -8.788  1.00  0.00     0.251 C 
ATOM     39  H   UNL     1      10.003  -0.497  -7.898  1.00  0.00     0.163 HD
ATOM     40  O   UNL     1      10.718  -2.262  -9.498  1.00  0.00    -0.269 OA
BRANCH  38  41
ATOM     41  C   UNL     1       8.691  -3.316  -9.004  1.00  0.00     0.039 A 
ATOM     42  C   UNL     1       8.984  -4.657  -9.253  1.00  0.00     0.014 A 
ATOM     43  C   UNL     1       7.376  -2.885  -8.919  1.00  0.00     0.014 A 
ATOM     44  C   UNL     1       7.929  -5.568  -9.320  1.00  0.00     0.010 A 
ATOM     45  C   UNL     1       6.364  -3.793  -8.782  1.00  0.00     0.010 A 
ATOM     46  C   UNL     1       6.620  -5.126  -9.061  1.00  0.00    -0.014 A 
BRANCH  46  47
ATOM     47  C   UNL     1       5.500  -6.054  -8.960  1.00  0.00     0.031 A 
ATOM     48  C   UNL     1       5.698  -7.131  -7.954  1.00  0.00     0.074 A 
ATOM     49  C   UNL     1       4.301  -5.808  -9.535  1.00  0.00     0.049 A 
ATOM     50  N   UNL     1       5.829  -8.398  -8.169  1.00  0.00    -0.248 NA
ATOM     51  C   UNL     1       5.932  -6.740  -6.553  1.00  0.00     0.031 C 
ATOM     52  C   UNL     1       3.873  -4.612 -10.274  1.00  0.00     0.029 A 
ATOM     53  N   UNL     1       3.158  -6.546  -9.492  1.00  0.00    -0.354 N 
ATOM     54  C   UNL     1       5.942  -8.988  -6.912  1.00  0.00     0.074 A 
ATOM     55  C   UNL     1       6.208  -7.917  -5.990  1.00  0.00     0.031 C 
ATOM     56  C   UNL     1       2.527  -4.604 -10.397  1.00  0.00     0.029 A 
ATOM     57  C   UNL     1       2.017  -5.872  -9.918  1.00  0.00     0.049 A 
ATOM     58  H   UNL     1       3.140  -7.481  -9.185  1.00  0.00     0.167 HD
ATOM     59  C   UNL     1       5.520 -10.268  -6.711  1.00  0.00     0.037 A 
ATOM     60  C   UNL     1       0.739  -6.324  -9.867  1.00  0.00     0.037 A 
ATOM     61  C   UNL     1       5.384 -10.959  -7.972  1.00  0.00     0.049 A 
ATOM     62  C   UNL     1       0.807  -7.798  -9.722  1.00  0.00     0.074 A 
ATOM     63  C   UNL     1       6.240 -11.287  -9.005  1.00  0.00     0.029 A 
ATOM     64  N   UNL     1       4.117 -11.082  -8.487  1.00  0.00    -0.354 N 
ATOM     65  N   UNL     1       1.266  -8.597 -10.646  1.00  0.00    -0.248 NA
ATOM     66  C   UNL     1       0.798  -8.339  -8.373  1.00  0.00     0.031 C 
ATOM     67  C   UNL     1       5.465 -11.122 -10.194  1.00  0.00     0.029 A 
ATOM     68  C   UNL     1       4.165 -10.779  -9.821  1.00  0.00     0.049 A 
ATOM     69  H   UNL     1       3.313 -11.343  -7.983  1.00  0.00     0.167 HD
ATOM     70  C   UNL     1       2.002  -9.547  -9.953  1.00  0.00     0.074 A 
ATOM     71  C   UNL     1       1.599  -9.392  -8.557  1.00  0.00     0.031 C 
ATOM     72  C   UNL     1       3.074 -10.159 -10.537  1.00  0.00     0.037 A 
BRANCH  59  73
ATOM     73  C   UNL     1       4.815 -10.754  -5.458  1.00  0.00     0.064 A 
ATOM     74  C   UNL     1       4.433 -12.111  -5.385  1.00  0.00     0.173 A 
ATOM     75  C   UNL     1       4.218  -9.912  -4.494  1.00  0.00     0.173 A 
ATOM     76  F   UNL     1       4.935 -13.011  -6.245  1.00  0.00    -0.203 F 
ATOM     77  C   UNL     1       3.445 -12.558  -4.503  1.00  0.00     0.198 A 
ATOM     78  C   UNL     1       3.270 -10.373  -3.581  1.00  0.00     0.198 A 
ATOM     79  F   UNL     1       4.432  -8.594  -4.454  1.00  0.00    -0.203 F 
ATOM     80  F   UNL     1       3.013 -13.824  -4.576  1.00  0.00    -0.200 F 
ATOM     81  C   UNL     1       2.855 -11.685  -3.611  1.00  0.00     0.200 A 
ATOM     82  F   UNL     1       2.702  -9.505  -2.731  1.00  0.00    -0.200 F 
ATOM     83  F   UNL     1       1.857 -12.092  -2.816  1.00  0.00    -0.200 F 
ENDBRANCH  59  73
BRANCH  60  84
ATOM     84  C   UNL     1      -0.507  -5.559  -9.622  1.00  0.00     0.064 A 
ATOM     85  C   UNL     1      -1.767  -6.101  -9.927  1.00  0.00     0.173 A 
ATOM     86  C   UNL     1      -0.502  -4.401  -8.820  1.00  0.00     0.173 A 
ATOM     87  F   UNL     1      -1.858  -7.229 -10.645  1.00  0.00    -0.203 F 
ATOM     88  C   UNL     1      -2.949  -5.533  -9.437  1.00  0.00     0.198 A 
ATOM     89  C   UNL     1      -1.682  -3.834  -8.334  1.00  0.00     0.198 A 
ATOM     90  F   UNL     1       0.653  -3.857  -8.411  1.00  0.00    -0.203 F 
ATOM     91  F   UNL     1      -4.129  -6.114  -9.698  1.00  0.00    -0.200 F 
ATOM     92  C   UNL     1      -2.905  -4.406  -8.632  1.00  0.00     0.200 A 
ATOM     93  F   UNL     1      -1.623  -2.767  -7.524  1.00  0.00    -0.200 F 
ATOM     94  F   UNL     1      -4.031  -3.900  -8.111  1.00  0.00    -0.200 F 
ENDBRANCH  60  84
BRANCH  72  95
ATOM     95  C   UNL     1       3.249  -9.997 -12.023  1.00  0.00     0.064 A 
ATOM     96  C   UNL     1       3.519  -8.774 -12.664  1.00  0.00     0.173 A 
ATOM     97  C   UNL     1       3.289 -11.155 -12.810  1.00  0.00     0.173 A 
ATOM     98  F   UNL     1       3.589  -7.632 -11.972  1.00  0.00    -0.203 F 
ATOM     99  C   UNL     1       3.781  -8.716 -14.033  1.00  0.00     0.198 A 
ATOM    100  C   UNL     1       3.587 -11.099 -14.168  1.00  0.00     0.198 A 
ATOM    101  F   UNL     1       3.089 -12.356 -12.244  1.00  0.00    -0.203 F 
ATOM    102  F   UNL     1       4.028  -7.535 -14.621  1.00  0.00    -0.200 F 
ATOM    103  C   UNL     1       3.824  -9.880 -14.781  1.00  0.00     0.200 A 
ATOM    104  F   UNL     1       3.675 -12.233 -14.877  1.00  0.00    -0.200 F 
ATOM    105  F   UNL     1       4.121  -9.830 -16.088  1.00  0.00    -0.200 F 
ENDBRANCH  72  95
ENDBRANCH  46  47
ENDBRANCH  38  41
ENDBRANCH  36  37
ENDBRANCH  35  36
ENDBRANCH   1  35
TORSDOF 15
