REMARK SMILES CCC(CC)[C@H](C(=O)NCCCCNC(=O)c1ccc(-c2c3nc(c(-c4c(F)c(F)c(F)c(F)c4F)c4ccc([nH]4)c(-c4c(F)c(F)c(F)c(F)c4F)c4nc(c(-c5c(F)c(F)c(F)c(F)c5F)c5ccc2[nH]5)C=C4)C=C3)cc1)c1ccccc1
REMARK SMILES IDX 11 1 10 2 9 3 7 4 8 5 6 7 3 8 2 9 1 10 4 11 5 12 80 13 81 14
REMARK SMILES IDX 85 15 82 16 84 17 83 18 12 19 13 20 14 21 15 22 16 24 17 25
REMARK SMILES IDX 18 26 79 27 19 28 78 29 20 30 21 31 22 32 72 33 23 34 77 35
REMARK SMILES IDX 71 36 73 37 24 38 76 39 70 40 69 41 25 43 57 44 37 45 56 46
REMARK SMILES IDX 38 47 41 48 55 49 74 50 39 51 40 52 54 54 75 55 42 56 26 57
REMARK SMILES IDX 27 58 35 59 28 60 29 61 33 62 36 63 30 64 31 65 34 66 32 67
REMARK SMILES IDX 58 68 59 69 67 70 60 71 61 72 65 73 68 74 62 75 63 76 66 77
REMARK SMILES IDX 64 78 43 79 44 80 52 81 45 82 46 83 50 84 53 85 47 86 48 87
REMARK SMILES IDX 51 88 49 89
REMARK H PARENT 9 6 14 23 73 42 41 53
REMARK Flexibility Score: inf
ROOT
ATOM      1  C   UNL     1      -0.939   1.388  -1.214  1.00  0.00     0.023 C 
ENDROOT
BRANCH   1   2
ATOM      2  C   UNL     1      -0.219   0.262  -1.949  1.00  0.00     0.116 C 
BRANCH   2   3
ATOM      3  N   UNL     1       0.574  -0.625  -1.123  1.00  0.00    -0.356 N 
ATOM      4  C   UNL     1       1.261  -1.764  -1.470  1.00  0.00     0.227 C 
ATOM      5  O   UNL     1       2.156  -2.087  -0.684  1.00  0.00    -0.274 OA
ATOM      6  H   UNL     1       0.629  -0.375  -0.173  1.00  0.00     0.163 HD
BRANCH   4   7
ATOM      7  C   UNL     1       0.876  -2.605  -2.730  1.00  0.00     0.111 C 
BRANCH   7   8
ATOM      8  C   UNL     1       1.470  -2.188  -4.147  1.00  0.00     0.005 C 
BRANCH   8   9
ATOM      9  C   UNL     1       1.719  -0.678  -4.305  1.00  0.00     0.001 C 
ATOM     10  C   UNL     1       2.320  -0.193  -5.617  1.00  0.00     0.004 C 
ENDBRANCH   8   9
BRANCH   8  11
ATOM     11  C   UNL     1       2.652  -3.030  -4.686  1.00  0.00     0.001 C 
ATOM     12  C   UNL     1       3.995  -2.782  -4.021  1.00  0.00     0.004 C 
ENDBRANCH   8  11
ENDBRANCH   7   8
BRANCH   7  13
ATOM     13  C   UNL     1       1.002  -4.130  -2.503  1.00  0.00    -0.035 A 
ATOM     14  C   UNL     1       0.017  -4.998  -3.005  1.00  0.00     0.004 A 
ATOM     15  C   UNL     1       2.154  -4.713  -1.940  1.00  0.00     0.004 A 
ATOM     16  C   UNL     1       0.199  -6.387  -2.975  1.00  0.00     0.000 A 
ATOM     17  C   UNL     1       2.342  -6.097  -1.925  1.00  0.00     0.000 A 
ATOM     18  C   UNL     1       1.367  -6.935  -2.450  1.00  0.00     0.000 A 
ENDBRANCH   7  13
ENDBRANCH   4   7
ENDBRANCH   2   3
ENDBRANCH   1   2
BRANCH   1  19
ATOM     19  C   UNL     1      -0.050   2.317  -0.379  1.00  0.00     0.023 C 
BRANCH  19  20
ATOM     20  C   UNL     1       1.284   2.747  -0.991  1.00  0.00     0.116 C 
BRANCH  20  21
ATOM     21  N   UNL     1       1.159   3.627  -2.146  1.00  0.00    -0.352 N 
ATOM     22  C   UNL     1       1.540   4.943  -2.296  1.00  0.00     0.251 C 
ATOM     23  H   UNL     1       0.739   3.220  -2.938  1.00  0.00     0.163 HD
ATOM     24  O   UNL     1       1.295   5.548  -3.335  1.00  0.00    -0.269 OA
BRANCH  22  25
ATOM     25  C   UNL     1       2.200   5.649  -1.177  1.00  0.00     0.039 A 
ATOM     26  C   UNL     1       1.655   6.853  -0.722  1.00  0.00     0.014 A 
ATOM     27  C   UNL     1       3.309   5.093  -0.538  1.00  0.00     0.014 A 
ATOM     28  C   UNL     1       2.144   7.433   0.452  1.00  0.00     0.010 A 
ATOM     29  C   UNL     1       3.741   5.628   0.672  1.00  0.00     0.010 A 
ATOM     30  C   UNL     1       3.144   6.787   1.195  1.00  0.00    -0.014 A 
BRANCH  30  31
ATOM     31  C   UNL     1       3.561   7.266   2.540  1.00  0.00     0.031 A 
ATOM     32  C   UNL     1       4.986   7.672   2.785  1.00  0.00     0.074 A 
ATOM     33  C   UNL     1       2.690   7.218   3.568  1.00  0.00     0.049 A 
ATOM     34  N   UNL     1       5.593   7.932   3.915  1.00  0.00    -0.248 NA
ATOM     35  C   UNL     1       5.854   7.764   1.600  1.00  0.00     0.031 C 
ATOM     36  C   UNL     1       1.288   6.807   3.475  1.00  0.00     0.029 A 
ATOM     37  N   UNL     1       2.865   7.492   4.904  1.00  0.00    -0.354 N 
ATOM     38  C   UNL     1       6.916   8.186   3.582  1.00  0.00     0.074 A 
ATOM     39  C   UNL     1       7.034   8.012   2.150  1.00  0.00     0.031 C 
ATOM     40  C   UNL     1       0.729   6.864   4.695  1.00  0.00     0.029 A 
ATOM     41  C   UNL     1       1.743   7.267   5.665  1.00  0.00     0.049 A 
ATOM     42  H   UNL     1       3.714   7.819   5.280  1.00  0.00     0.167 HD
ATOM     43  C   UNL     1       7.938   8.546   4.395  1.00  0.00     0.037 A 
ATOM     44  C   UNL     1       1.557   7.352   6.997  1.00  0.00     0.037 A 
ATOM     45  C   UNL     1       7.811   8.756   5.813  1.00  0.00     0.049 A 
ATOM     46  C   UNL     1       2.709   7.752   7.879  1.00  0.00     0.074 A 
ATOM     47  C   UNL     1       8.773   9.186   6.711  1.00  0.00     0.029 A 
ATOM     48  N   UNL     1       6.647   8.555   6.540  1.00  0.00    -0.354 N 
ATOM     49  N   UNL     1       3.943   8.039   7.546  1.00  0.00    -0.248 NA
ATOM     50  C   UNL     1       2.442   7.839   9.322  1.00  0.00     0.031 C 
ATOM     51  C   UNL     1       8.201   9.208   7.987  1.00  0.00     0.029 A 
ATOM     52  C   UNL     1       6.871   8.836   7.877  1.00  0.00     0.049 A 
ATOM     53  H   UNL     1       5.788   8.256   6.161  1.00  0.00     0.167 HD
ATOM     54  C   UNL     1       4.590   8.370   8.729  1.00  0.00     0.074 A 
ATOM     55  C   UNL     1       3.611   8.254   9.789  1.00  0.00     0.031 C 
ATOM     56  C   UNL     1       5.880   8.738   8.918  1.00  0.00     0.037 A 
BRANCH  43  57
ATOM     57  C   UNL     1       9.287   8.740   3.769  1.00  0.00     0.064 A 
ATOM     58  C   UNL     1       9.558   9.829   2.928  1.00  0.00     0.173 A 
ATOM     59  C   UNL     1      10.332   7.844   4.040  1.00  0.00     0.173 A 
ATOM     60  F   UNL     1       8.589  10.708   2.629  1.00  0.00    -0.203 F 
ATOM     61  C   UNL     1      10.817   9.998   2.358  1.00  0.00     0.198 A 
ATOM     62  C   UNL     1      11.598   8.033   3.492  1.00  0.00     0.198 A 
ATOM     63  F   UNL     1      10.128   6.789   4.844  1.00  0.00    -0.203 F 
ATOM     64  F   UNL     1      11.038  11.019   1.518  1.00  0.00    -0.200 F 
ATOM     65  C   UNL     1      11.837   9.104   2.645  1.00  0.00     0.200 A 
ATOM     66  F   UNL     1      12.587   7.175   3.781  1.00  0.00    -0.200 F 
ATOM     67  F   UNL     1      13.050   9.272   2.100  1.00  0.00    -0.200 F 
ENDBRANCH  43  57
BRANCH  44  68
ATOM     68  C   UNL     1       0.221   7.063   7.581  1.00  0.00     0.064 A 
ATOM     69  C   UNL     1      -0.561   8.092   8.123  1.00  0.00     0.173 A 
ATOM     70  C   UNL     1      -0.298   5.761   7.617  1.00  0.00     0.173 A 
ATOM     71  F   UNL     1      -0.097   9.351   8.132  1.00  0.00    -0.203 F 
ATOM     72  C   UNL     1      -1.803   7.828   8.697  1.00  0.00     0.198 A 
ATOM     73  C   UNL     1      -1.552   5.501   8.167  1.00  0.00     0.198 A 
ATOM     74  F   UNL     1       0.409   4.741   7.109  1.00  0.00    -0.203 F 
ATOM     75  F   UNL     1      -2.510   8.824   9.247  1.00  0.00    -0.200 F 
ATOM     76  C   UNL     1      -2.300   6.533   8.713  1.00  0.00     0.200 A 
ATOM     77  F   UNL     1      -2.034   4.251   8.170  1.00  0.00    -0.200 F 
ATOM     78  F   UNL     1      -3.496   6.280   9.262  1.00  0.00    -0.200 F 
ENDBRANCH  44  68
BRANCH  56  79
ATOM     79  C   UNL     1       6.304   9.093  10.312  1.00  0.00     0.064 A 
ATOM     80  C   UNL     1       6.508   8.112  11.292  1.00  0.00     0.173 A 
ATOM     81  C   UNL     1       6.573  10.429  10.649  1.00  0.00     0.173 A 
ATOM     82  F   UNL     1       6.248   6.824  11.022  1.00  0.00    -0.203 F 
ATOM     83  C   UNL     1       6.956   8.457  12.564  1.00  0.00     0.198 A 
ATOM     84  C   UNL     1       7.046  10.766  11.913  1.00  0.00     0.198 A 
ATOM     85  F   UNL     1       6.398  11.403   9.744  1.00  0.00    -0.203 F 
ATOM     86  F   UNL     1       7.115   7.507  13.497  1.00  0.00    -0.200 F 
ATOM     87  C   UNL     1       7.234   9.781  12.871  1.00  0.00     0.200 A 
ATOM     88  F   UNL     1       7.326  12.045  12.203  1.00  0.00    -0.200 F 
ATOM     89  F   UNL     1       7.681  10.108  14.091  1.00  0.00    -0.200 F 
ENDBRANCH  56  79
ENDBRANCH  30  31
ENDBRANCH  22  25
ENDBRANCH  20  21
ENDBRANCH  19  20
ENDBRANCH   1  19
TORSDOF 15
