REMARK SMILES CC(C)(C)c1ccc(C(=O)C[C@H](C(=O)NCCCCNC(=O)c2ccc(-c3c4nc(c(-c5c(F)c(F)c(F)c(F)c5F)c5ccc([nH]5)c(-c5c(F)c(F)c(F)c(F)c5F)c5nc(c(-c6c(F)c(F)c(F)c(F)c6F)c6ccc3[nH]6)C=C5)C=C4)cc2)[NH+]2CCCC2)cc1
REMARK SMILES IDX 16 1 15 2 13 3 14 4 12 6 11 7 9 8 10 9 8 10 5 11 6 12 92 13
REMARK SMILES IDX 7 14 91 15 2 16 1 17 3 18 4 19 86 20 87 21 90 22 88 24 89 25
REMARK SMILES IDX 17 26 18 27 19 28 20 29 21 30 22 32 23 33 24 34 85 35 25 36
REMARK SMILES IDX 84 37 26 38 27 39 28 40 78 41 29 42 83 43 77 44 79 45 30 46
REMARK SMILES IDX 82 47 76 48 75 49 31 51 63 52 43 53 62 54 44 55 47 56 61 57
REMARK SMILES IDX 80 58 45 59 46 60 60 62 81 63 48 64 32 65 33 66 41 67 34 68
REMARK SMILES IDX 35 69 39 70 42 71 36 72 37 73 40 74 38 75 64 76 65 77 73 78
REMARK SMILES IDX 66 79 67 80 71 81 74 82 68 83 69 84 72 85 70 86 49 87 50 88
REMARK SMILES IDX 58 89 51 90 52 91 56 92 59 93 53 94 54 95 57 96 55 97
REMARK H PARENT 15 5 86 23 20 31 79 50 47 61
REMARK Flexibility Score: inf
ROOT
ATOM      1  C   UNL     1       2.137   9.024  -3.074  1.00  0.00     0.116 C 
ENDROOT
BRANCH   1   2
ATOM      2  N   UNL     1       2.108   7.714  -2.444  1.00  0.00    -0.351 N 
ATOM      3  C   UNL     1       1.170   6.718  -2.443  1.00  0.00     0.278 C 
ATOM      4  O   UNL     1       1.426   5.760  -1.702  1.00  0.00    -0.268 OA
ATOM      5  H   UNL     1       2.914   7.504  -1.919  1.00  0.00     0.163 HD
BRANCH   3   6
ATOM      6  C   UNL     1      -0.106   6.705  -3.360  1.00  0.00     0.281 C 
BRANCH   6   7
ATOM      7  C   UNL     1      -1.111   5.698  -2.736  1.00  0.00     0.156 C 
BRANCH   7   8
ATOM      8  C   UNL     1      -2.407   5.469  -3.500  1.00  0.00     0.169 C 
ATOM      9  O   UNL     1      -2.457   4.717  -4.471  1.00  0.00    -0.294 OA
BRANCH   8  10
ATOM     10  C   UNL     1      -3.619   6.264  -3.131  1.00  0.00     0.018 A 
ATOM     11  C   UNL     1      -5.346   8.462  -2.679  1.00  0.00    -0.043 A 
ATOM     12  C   UNL     1      -5.230   7.874  -3.951  1.00  0.00     0.005 A 
ATOM     13  C   UNL     1      -4.711   7.797  -1.610  1.00  0.00     0.005 A 
ATOM     14  C   UNL     1      -4.381   6.784  -4.176  1.00  0.00     0.012 A 
ATOM     15  C   UNL     1      -3.876   6.688  -1.826  1.00  0.00     0.012 A 
BRANCH  11  16
ATOM     16  C   UNL     1      -6.075   9.803  -2.451  1.00  0.00    -0.013 C 
ATOM     17  C   UNL     1      -7.123   9.656  -1.332  1.00  0.00     0.016 C 
ATOM     18  C   UNL     1      -6.798  10.328  -3.713  1.00  0.00     0.016 C 
ATOM     19  C   UNL     1      -5.079  10.912  -2.029  1.00  0.00     0.016 C 
ENDBRANCH  11  16
ENDBRANCH   8  10
ENDBRANCH   7   8
ENDBRANCH   6   7
BRANCH   6  20
ATOM     20  N   UNL     1      -0.555   8.074  -3.610  1.00  0.00    -0.324 N 
ATOM     21  C   UNL     1      -1.094   8.377  -4.925  1.00  0.00     0.263 C 
ATOM     22  C   UNL     1      -1.333   8.779  -2.620  1.00  0.00     0.263 C 
ATOM     23  H   UNL     1       0.391   8.449  -3.535  1.00  0.00     0.348 HD
ATOM     24  C   UNL     1      -1.336   9.870  -4.784  1.00  0.00     0.067 C 
ATOM     25  C   UNL     1      -1.808  10.026  -3.347  1.00  0.00     0.067 C 
ENDBRANCH   6  20
ENDBRANCH   3   6
ENDBRANCH   1   2
BRANCH   1  26
ATOM     26  C   UNL     1       1.557  10.097  -2.145  1.00  0.00     0.023 C 
BRANCH  26  27
ATOM     27  C   UNL     1       2.567  10.942  -1.394  1.00  0.00     0.023 C 
BRANCH  27  28
ATOM     28  C   UNL     1       3.395  11.848  -2.278  1.00  0.00     0.116 C 
BRANCH  28  29
ATOM     29  N   UNL     1       2.631  12.874  -2.979  1.00  0.00    -0.352 N 
ATOM     30  C   UNL     1       2.970  14.196  -3.171  1.00  0.00     0.251 C 
ATOM     31  H   UNL     1       1.769  12.588  -3.360  1.00  0.00     0.163 HD
ATOM     32  O   UNL     1       2.207  14.976  -3.730  1.00  0.00    -0.269 OA
BRANCH  30  33
ATOM     33  C   UNL     1       4.263  14.668  -2.635  1.00  0.00     0.039 A 
ATOM     34  C   UNL     1       4.294  15.793  -1.809  1.00  0.00     0.014 A 
ATOM     35  C   UNL     1       5.413  13.905  -2.839  1.00  0.00     0.014 A 
ATOM     36  C   UNL     1       5.466  16.098  -1.113  1.00  0.00     0.010 A 
ATOM     37  C   UNL     1       6.524  14.126  -2.042  1.00  0.00     0.010 A 
ATOM     38  C   UNL     1       6.573  15.237  -1.186  1.00  0.00    -0.014 A 
BRANCH  38  39
ATOM     39  C   UNL     1       7.828  15.495  -0.436  1.00  0.00     0.031 A 
ATOM     40  C   UNL     1       9.114  15.644  -1.204  1.00  0.00     0.074 A 
ATOM     41  C   UNL     1       7.833  15.500   0.911  1.00  0.00     0.049 A 
ATOM     42  N   UNL     1      10.344  15.712  -0.763  1.00  0.00    -0.248 NA
ATOM     43  C   UNL     1       9.008  15.655  -2.674  1.00  0.00     0.031 C 
ATOM     44  C   UNL     1       6.666  15.294   1.771  1.00  0.00     0.029 A 
ATOM     45  N   UNL     1       8.867  15.673   1.797  1.00  0.00    -0.354 N 
ATOM     46  C   UNL     1      11.146  15.721  -1.897  1.00  0.00     0.074 A 
ATOM     47  C   UNL     1      10.276  15.579  -3.040  1.00  0.00     0.031 C 
ATOM     48  C   UNL     1       7.043  15.388   3.057  1.00  0.00     0.029 A 
ATOM     49  C   UNL     1       8.482  15.624   3.115  1.00  0.00     0.049 A 
ATOM     50  H   UNL     1       9.799  15.819   1.514  1.00  0.00     0.167 HD
ATOM     51  C   UNL     1      12.488  15.875  -1.981  1.00  0.00     0.037 A 
ATOM     52  C   UNL     1       9.213  15.759   4.238  1.00  0.00     0.037 A 
ATOM     53  C   UNL     1      13.336  16.107  -0.845  1.00  0.00     0.049 A 
ATOM     54  C   UNL     1      10.693  16.010   4.115  1.00  0.00     0.074 A 
ATOM     55  C   UNL     1      14.694  16.363  -0.819  1.00  0.00     0.029 A 
ATOM     56  N   UNL     1      12.893  16.133   0.469  1.00  0.00    -0.354 N 
ATOM     57  N   UNL     1      11.434  16.080   3.035  1.00  0.00    -0.248 NA
ATOM     58  C   UNL     1      11.438  16.213   5.366  1.00  0.00     0.031 C 
ATOM     59  C   UNL     1      15.079  16.524   0.516  1.00  0.00     0.029 A 
ATOM     60  C   UNL     1      13.953  16.404   1.316  1.00  0.00     0.049 A 
ATOM     61  H   UNL     1      11.964  15.981   0.757  1.00  0.00     0.167 HD
ATOM     62  C   UNL     1      12.720  16.369   3.472  1.00  0.00     0.074 A 
ATOM     63  C   UNL     1      12.657  16.472   4.915  1.00  0.00     0.031 C 
ATOM     64  C   UNL     1      13.853  16.531   2.746  1.00  0.00     0.037 A 
BRANCH  51  65
ATOM     65  C   UNL     1      13.108  15.831  -3.346  1.00  0.00     0.064 A 
ATOM     66  C   UNL     1      12.890  16.850  -4.287  1.00  0.00     0.173 A 
ATOM     67  C   UNL     1      13.943  14.766  -3.715  1.00  0.00     0.173 A 
ATOM     68  F   UNL     1      12.086  17.882  -3.990  1.00  0.00    -0.203 F 
ATOM     69  C   UNL     1      13.456  16.787  -5.557  1.00  0.00     0.198 A 
ATOM     70  C   UNL     1      14.534  14.723  -4.975  1.00  0.00     0.198 A 
ATOM     71  F   UNL     1      14.185  13.767  -2.854  1.00  0.00    -0.203 F 
ATOM     72  F   UNL     1      13.184  17.742  -6.457  1.00  0.00    -0.200 F 
ATOM     73  C   UNL     1      14.284  15.728  -5.897  1.00  0.00     0.200 A 
ATOM     74  F   UNL     1      15.342  13.704  -5.300  1.00  0.00    -0.200 F 
ATOM     75  F   UNL     1      14.832  15.671  -7.119  1.00  0.00    -0.200 F 
ENDBRANCH  51  65
BRANCH  52  76
ATOM     76  C   UNL     1       8.559  15.711   5.572  1.00  0.00     0.064 A 
ATOM     77  C   UNL     1       8.444  16.870   6.354  1.00  0.00     0.173 A 
ATOM     78  C   UNL     1       8.052  14.517   6.101  1.00  0.00     0.173 A 
ATOM     79  F   UNL     1       8.931  18.035   5.900  1.00  0.00    -0.203 F 
ATOM     80  C   UNL     1       7.875  16.830   7.626  1.00  0.00     0.198 A 
ATOM     81  C   UNL     1       7.458  14.482   7.362  1.00  0.00     0.198 A 
ATOM     82  F   UNL     1       8.128  13.382   5.391  1.00  0.00    -0.203 F 
ATOM     83  F   UNL     1       7.827  17.942   8.371  1.00  0.00    -0.200 F 
ATOM     84  C   UNL     1       7.379  15.636   8.127  1.00  0.00     0.200 A 
ATOM     85  F   UNL     1       6.968  13.330   7.839  1.00  0.00    -0.200 F 
ATOM     86  F   UNL     1       6.834  15.597   9.351  1.00  0.00    -0.200 F 
ENDBRANCH  52  76
BRANCH  64  87
ATOM     87  C   UNL     1      15.101  16.891   3.493  1.00  0.00     0.064 A 
ATOM     88  C   UNL     1      15.789  15.949   4.271  1.00  0.00     0.173 A 
ATOM     89  C   UNL     1      15.644  18.180   3.380  1.00  0.00     0.173 A 
ATOM     90  F   UNL     1      15.300  14.709   4.418  1.00  0.00    -0.203 F 
ATOM     91  C   UNL     1      16.966  16.293   4.929  1.00  0.00     0.198 A 
ATOM     92  C   UNL     1      16.836  18.511   4.016  1.00  0.00     0.198 A 
ATOM     93  F   UNL     1      15.026  19.111   2.639  1.00  0.00    -0.203 F 
ATOM     94  F   UNL     1      17.587  15.390   5.701  1.00  0.00    -0.200 F 
ATOM     95  C   UNL     1      17.493  17.569   4.795  1.00  0.00     0.200 A 
ATOM     96  F   UNL     1      17.350  19.740   3.875  1.00  0.00    -0.200 F 
ATOM     97  F   UNL     1      18.632  17.894   5.421  1.00  0.00    -0.200 F 
ENDBRANCH  64  87
ENDBRANCH  38  39
ENDBRANCH  30  33
ENDBRANCH  28  29
ENDBRANCH  27  28
ENDBRANCH  26  27
ENDBRANCH   1  26
TORSDOF 16
