REMARK SMILES COc1cc(OC)cc(-n2nnc(C(=O)NCCCCNC(=O)c3ccc(-c4c5nc(c(-c6c(F)c(F)c(F)c(F)c6F)c6ccc([nH]6)c(-c6c(F)c(F)c(F)c(F)c6F)c6nc(c(-c7c(F)c(F)c(F)c(F)c7F)c7ccc4[nH]7)C=C6)C=C5)cc3)c2C(C)(C)C)c1
REMARK SMILES IDX 18 1 17 2 16 3 14 4 15 5 13 7 10 8 11 9 87 10 12 11 9 12
REMARK SMILES IDX 3 13 4 14 92 15 5 16 8 17 2 18 1 19 6 20 7 21 88 22 89 23
REMARK SMILES IDX 90 24 91 25 19 26 20 27 21 28 22 29 23 31 24 32 25 33 86 34
REMARK SMILES IDX 26 35 85 36 27 37 28 38 29 39 79 40 30 41 84 42 78 43 80 44
REMARK SMILES IDX 31 45 83 46 77 47 76 48 32 50 64 51 44 52 63 53 45 54 48 55
REMARK SMILES IDX 62 56 81 57 46 58 47 59 61 61 82 62 49 63 33 64 34 65 42 66
REMARK SMILES IDX 35 67 36 68 40 69 43 70 37 71 38 72 41 73 39 74 65 75 66 76
REMARK SMILES IDX 74 77 67 78 68 79 72 80 75 81 69 82 70 83 73 84 71 85 50 86
REMARK SMILES IDX 51 87 59 88 52 89 53 90 57 91 60 92 54 93 55 94 58 95 56 96
REMARK H PARENT 16 6 21 30 80 49 48 60
REMARK Flexibility Score: inf
ROOT
ATOM      1  C   UNL     1       7.045  -5.527   3.685  1.00  0.00     0.023 C 
ENDROOT
BRANCH   1   2
ATOM      2  C   UNL     1       7.429  -4.497   2.608  1.00  0.00     0.116 C 
BRANCH   2   3
ATOM      3  N   UNL     1       7.622  -5.038   1.261  1.00  0.00    -0.351 N 
ATOM      4  C   UNL     1       7.104  -5.048  -0.016  1.00  0.00     0.273 C 
ATOM      5  O   UNL     1       7.940  -5.507  -0.810  1.00  0.00    -0.267 OA
ATOM      6  H   UNL     1       8.424  -5.611   1.272  1.00  0.00     0.163 HD
BRANCH   4   7
ATOM      7  C   UNL     1       5.770  -4.662  -0.552  1.00  0.00     0.174 A 
ATOM      8  N   UNL     1       3.718  -4.150  -1.191  1.00  0.00    -0.216 N 
ATOM      9  N   UNL     1       4.315  -4.755  -2.225  1.00  0.00    -0.061 NA
ATOM     10  C   UNL     1       4.562  -4.109  -0.080  1.00  0.00     0.083 A 
ATOM     11  N   UNL     1       5.566  -4.993  -1.888  1.00  0.00    -0.124 NA
BRANCH   8  12
ATOM     12  C   UNL     1       2.340  -3.886  -1.243  1.00  0.00     0.074 A 
ATOM     13  C   UNL     1       0.597  -2.331  -0.687  1.00  0.00     0.124 A 
ATOM     14  C   UNL     1      -0.270  -3.419  -0.512  1.00  0.00     0.093 A 
ATOM     15  C   UNL     1       1.905  -2.564  -1.102  1.00  0.00     0.075 A 
ATOM     16  C   UNL     1       0.150  -4.737  -0.743  1.00  0.00     0.124 A 
ATOM     17  C   UNL     1       1.463  -4.974  -1.137  1.00  0.00     0.075 A 
BRANCH  13  18
ATOM     18  O   UNL     1       0.089  -1.120  -0.302  1.00  0.00    -0.497 OA
ATOM     19  C   UNL     1       0.974  -0.004  -0.308  1.00  0.00     0.278 C 
ENDBRANCH  13  18
BRANCH  16  20
ATOM     20  O   UNL     1      -0.786  -5.696  -0.467  1.00  0.00    -0.497 OA
ATOM     21  C   UNL     1      -0.346  -7.050  -0.477  1.00  0.00     0.278 C 
ENDBRANCH  16  20
ENDBRANCH   8  12
BRANCH  10  22
ATOM     22  C   UNL     1       4.164  -3.690   1.321  1.00  0.00     0.007 C 
ATOM     23  C   UNL     1       4.264  -4.983   2.150  1.00  0.00     0.017 C 
ATOM     24  C   UNL     1       5.025  -2.453   1.658  1.00  0.00     0.017 C 
ATOM     25  C   UNL     1       2.746  -3.225   1.692  1.00  0.00     0.017 C 
ENDBRANCH  10  22
ENDBRANCH   4   7
ENDBRANCH   2   3
ENDBRANCH   1   2
BRANCH   1  26
ATOM     26  C   UNL     1       7.714  -5.348   5.054  1.00  0.00     0.023 C 
BRANCH  26  27
ATOM     27  C   UNL     1       7.566  -3.969   5.688  1.00  0.00     0.116 C 
BRANCH  27  28
ATOM     28  N   UNL     1       6.245  -3.664   6.232  1.00  0.00    -0.352 N 
ATOM     29  C   UNL     1       5.877  -2.469   6.854  1.00  0.00     0.251 C 
ATOM     30  H   UNL     1       5.554  -4.361   6.152  1.00  0.00     0.163 HD
ATOM     31  O   UNL     1       4.920  -2.379   7.582  1.00  0.00    -0.269 OA
BRANCH  29  32
ATOM     32  C   UNL     1       6.730  -1.296   6.568  1.00  0.00     0.039 A 
ATOM     33  C   UNL     1       7.407  -0.621   7.585  1.00  0.00     0.014 A 
ATOM     34  C   UNL     1       6.972  -1.018   5.227  1.00  0.00     0.014 A 
ATOM     35  C   UNL     1       8.432   0.259   7.234  1.00  0.00     0.010 A 
ATOM     36  C   UNL     1       8.065  -0.252   4.892  1.00  0.00     0.010 A 
ATOM     37  C   UNL     1       8.793   0.408   5.884  1.00  0.00    -0.014 A 
BRANCH  37  38
ATOM     38  C   UNL     1      10.006   1.145   5.514  1.00  0.00     0.031 A 
ATOM     39  C   UNL     1      11.268   0.775   6.235  1.00  0.00     0.074 A 
ATOM     40  C   UNL     1      10.084   1.944   4.427  1.00  0.00     0.049 A 
ATOM     41  N   UNL     1      12.039   1.543   6.938  1.00  0.00    -0.248 NA
ATOM     42  C   UNL     1      11.707  -0.629   6.205  1.00  0.00     0.031 C 
ATOM     43  C   UNL     1       9.070   2.204   3.399  1.00  0.00     0.029 A 
ATOM     44  N   UNL     1      11.169   2.615   3.950  1.00  0.00    -0.354 N 
ATOM     45  C   UNL     1      13.135   0.768   7.324  1.00  0.00     0.074 A 
ATOM     46  C   UNL     1      12.823  -0.584   6.937  1.00  0.00     0.031 C 
ATOM     47  C   UNL     1       9.655   2.763   2.318  1.00  0.00     0.029 A 
ATOM     48  C   UNL     1      11.033   3.070   2.647  1.00  0.00     0.049 A 
ATOM     49  H   UNL     1      11.982   2.764   4.486  1.00  0.00     0.167 HD
ATOM     50  C   UNL     1      14.293   1.334   7.774  1.00  0.00     0.037 A 
ATOM     51  C   UNL     1      11.991   3.643   1.883  1.00  0.00     0.037 A 
ATOM     52  C   UNL     1      14.085   2.699   8.186  1.00  0.00     0.049 A 
ATOM     53  C   UNL     1      13.032   4.164   2.802  1.00  0.00     0.074 A 
ATOM     54  C   UNL     1      13.273   3.319   9.117  1.00  0.00     0.029 A 
ATOM     55  N   UNL     1      14.522   3.711   7.367  1.00  0.00    -0.354 N 
ATOM     56  N   UNL     1      12.845   5.160   3.622  1.00  0.00    -0.248 NA
ATOM     57  C   UNL     1      14.154   3.293   3.118  1.00  0.00     0.031 C 
ATOM     58  C   UNL     1      12.841   4.521   8.479  1.00  0.00     0.029 A 
ATOM     59  C   UNL     1      13.468   4.577   7.235  1.00  0.00     0.049 A 
ATOM     60  H   UNL     1      15.413   3.796   6.957  1.00  0.00     0.167 HD
ATOM     61  C   UNL     1      13.533   4.802   4.770  1.00  0.00     0.074 A 
ATOM     62  C   UNL     1      14.398   3.695   4.367  1.00  0.00     0.031 C 
ATOM     63  C   UNL     1      13.137   5.244   6.000  1.00  0.00     0.037 A 
BRANCH  50  64
ATOM     64  C   UNL     1      15.682   0.777   7.554  1.00  0.00     0.064 A 
ATOM     65  C   UNL     1      16.787   1.400   8.177  1.00  0.00     0.173 A 
ATOM     66  C   UNL     1      16.005  -0.131   6.524  1.00  0.00     0.173 A 
ATOM     67  F   UNL     1      16.603   2.289   9.166  1.00  0.00    -0.203 F 
ATOM     68  C   UNL     1      18.099   1.201   7.736  1.00  0.00     0.198 A 
ATOM     69  C   UNL     1      17.321  -0.367   6.121  1.00  0.00     0.198 A 
ATOM     70  F   UNL     1      15.064  -0.738   5.793  1.00  0.00    -0.203 F 
ATOM     71  F   UNL     1      19.096   1.919   8.270  1.00  0.00    -0.200 F 
ATOM     72  C   UNL     1      18.363   0.325   6.701  1.00  0.00     0.200 A 
ATOM     73  F   UNL     1      17.557  -1.210   5.106  1.00  0.00    -0.200 F 
ATOM     74  F   UNL     1      19.609   0.185   6.229  1.00  0.00    -0.200 F 
ENDBRANCH  50  64
BRANCH  51  75
ATOM     75  C   UNL     1      12.189   3.545   0.420  1.00  0.00     0.064 A 
ATOM     76  C   UNL     1      13.045   4.431  -0.251  1.00  0.00     0.173 A 
ATOM     77  C   UNL     1      11.768   2.410  -0.301  1.00  0.00     0.173 A 
ATOM     78  F   UNL     1      13.518   5.518   0.377  1.00  0.00    -0.203 F 
ATOM     79  C   UNL     1      13.487   4.177  -1.552  1.00  0.00     0.198 A 
ATOM     80  C   UNL     1      12.202   2.163  -1.603  1.00  0.00     0.198 A 
ATOM     81  F   UNL     1      11.004   1.471   0.276  1.00  0.00    -0.203 F 
ATOM     82  F   UNL     1      14.362   5.010  -2.134  1.00  0.00    -0.200 F 
ATOM     83  C   UNL     1      13.077   3.036  -2.222  1.00  0.00     0.200 A 
ATOM     84  F   UNL     1      11.822   1.039  -2.228  1.00  0.00    -0.200 F 
ATOM     85  F   UNL     1      13.555   2.758  -3.442  1.00  0.00    -0.200 F 
ENDBRANCH  51  75
BRANCH  63  86
ATOM     86  C   UNL     1      12.088   6.317   6.065  1.00  0.00     0.064 A 
ATOM     87  C   UNL     1      10.780   6.168   5.571  1.00  0.00     0.173 A 
ATOM     88  C   UNL     1      12.371   7.486   6.784  1.00  0.00     0.173 A 
ATOM     89  F   UNL     1      10.394   5.037   4.969  1.00  0.00    -0.203 F 
ATOM     90  C   UNL     1       9.820   7.162   5.744  1.00  0.00     0.198 A 
ATOM     91  C   UNL     1      11.399   8.462   6.989  1.00  0.00     0.198 A 
ATOM     92  F   UNL     1      13.583   7.660   7.334  1.00  0.00    -0.203 F 
ATOM     93  F   UNL     1       8.584   6.997   5.248  1.00  0.00    -0.200 F 
ATOM     94  C   UNL     1      10.129   8.306   6.458  1.00  0.00     0.200 A 
ATOM     95  F   UNL     1      11.688   9.544   7.725  1.00  0.00    -0.200 F 
ATOM     96  F   UNL     1       9.195   9.246   6.660  1.00  0.00    -0.200 F 
ENDBRANCH  63  86
ENDBRANCH  37  38
ENDBRANCH  29  32
ENDBRANCH  27  28
ENDBRANCH  26  27
ENDBRANCH   1  26
TORSDOF 15
