REMARK SMILES Cc1cc(Br)cc([N+](=O)[O-])c1OCCC[C@@](C)([NH3+])C(=O)NCCCCNC(=O)c1ccc(-c2c3nc(c(-c4c(F)c(F)c(F)c(F)c4F)c4ccc([nH]4)c(-c4c(F)c(F)c(F)c(F)c4F)c4nc(c(-c5c(F)c(F)c(F)c(F)c5F)c5ccc2[nH]5)C=C4)C=C3)cc1
REMARK SMILES IDX 19 1 20 2 21 3 16 5 17 6 15 7 14 8 13 9 12 10 11 11 1 12
REMARK SMILES IDX 2 13 3 14 4 15 7 16 5 17 6 18 8 19 9 20 10 21 18 22 22 26
REMARK SMILES IDX 23 27 24 28 25 29 26 30 27 31 28 33 29 34 30 35 91 36 31 37
REMARK SMILES IDX 90 38 32 39 33 40 34 41 84 42 35 43 89 44 83 45 85 46 36 47
REMARK SMILES IDX 88 48 82 49 81 50 37 52 69 53 49 54 68 55 50 56 53 57 67 58
REMARK SMILES IDX 86 59 51 60 52 61 66 63 87 64 54 65 38 66 39 67 47 68 40 69
REMARK SMILES IDX 41 70 45 71 48 72 42 73 43 74 46 75 44 76 70 77 71 78 79 79
REMARK SMILES IDX 72 80 73 81 77 82 80 83 74 84 75 85 78 86 76 87 55 88 56 89
REMARK SMILES IDX 64 90 57 91 58 92 62 93 65 94 59 95 60 96 63 97 61 98
REMARK H PARENT 21 4 18 23 18 24 18 25 26 32 85 51 53 62
REMARK Flexibility Score: inf
ROOT
ATOM      1  C   UNL     1      -4.516  -2.629   1.361  1.00  0.00     0.280 C 
ATOM      2  O   UNL     1      -5.336  -1.735   1.603  1.00  0.00    -0.268 OA
ATOM      3  N   UNL     1      -3.809  -3.043   2.446  1.00  0.00    -0.351 N 
ATOM      4  H   UNL     1      -3.807  -2.393   3.185  1.00  0.00     0.163 HD
ENDROOT
BRANCH   1   5
ATOM      5  C   UNL     1      -4.382  -3.224  -0.079  1.00  0.00     0.171 C 
ATOM      6  C   UNL     1      -5.566  -4.187  -0.247  1.00  0.00     0.090 C 
BRANCH   5   7
ATOM      7  C   UNL     1      -4.361  -2.153  -1.230  1.00  0.00     0.082 C 
BRANCH   7   8
ATOM      8  C   UNL     1      -5.091  -0.802  -1.073  1.00  0.00     0.049 C 
BRANCH   8   9
ATOM      9  C   UNL     1      -4.348   0.343  -0.330  1.00  0.00     0.230 C 
BRANCH   9  10
ATOM     10  O   UNL     1      -3.192   0.766  -1.075  1.00  0.00    -0.487 OA
BRANCH  10  11
ATOM     11  C   UNL     1      -2.070   1.145  -0.368  1.00  0.00     0.200 A 
ATOM     12  C   UNL     1      -1.500  -1.267   0.235  1.00  0.00     0.049 C 
ATOM     13  C   UNL     1      -1.144   0.159   0.023  1.00  0.00    -0.001 A 
ATOM     14  C   UNL     1       0.211   0.479   0.203  1.00  0.00     0.023 A 
ATOM     15  C   UNL     1       0.648   1.787   0.086  1.00  0.00     0.025 A 
ATOM     16  C   UNL     1      -1.626   2.480  -0.370  1.00  0.00     0.312 A 
ATOM     17  Br  UNL     1       2.490   2.164   0.256  1.00  0.00    -0.051 Br
ATOM     18  C   UNL     1      -0.269   2.802  -0.145  1.00  0.00     0.105 A 
BRANCH  16  19
ATOM     19  N   UNL     1      -2.559   3.596  -0.520  1.00  0.00     0.066 N 
ATOM     20  O   UNL     1      -2.090   4.684  -0.889  1.00  0.00    -0.258 OA
ATOM     21  O   UNL     1      -3.738   3.424  -0.187  1.00  0.00    -0.258 OA
ENDBRANCH  16  19
ENDBRANCH  10  11
ENDBRANCH   9  10
ENDBRANCH   8   9
ENDBRANCH   7   8
ENDBRANCH   5   7
BRANCH   5  22
ATOM     22  N   UNL     1      -3.175  -4.072  -0.251  1.00  0.00    -0.345 N 
ATOM     23  H   UNL     1      -3.143  -4.428  -1.206  1.00  0.00     0.345 HD
ATOM     24  H   UNL     1      -3.212  -4.854   0.402  1.00  0.00     0.345 HD
ATOM     25  H   UNL     1      -2.339  -3.516  -0.069  1.00  0.00     0.345 HD
ENDBRANCH   5  22
ENDBRANCH   1   5
BRANCH   3  26
ATOM     26  C   UNL     1      -3.059  -4.251   2.733  1.00  0.00     0.116 C 
BRANCH  26  27
ATOM     27  C   UNL     1      -1.676  -3.948   3.314  1.00  0.00     0.023 C 
BRANCH  27  28
ATOM     28  C   UNL     1      -1.666  -3.172   4.637  1.00  0.00     0.023 C 
BRANCH  28  29
ATOM     29  C   UNL     1      -2.608  -3.693   5.718  1.00  0.00     0.116 C 
BRANCH  29  30
ATOM     30  N   UNL     1      -2.454  -5.114   5.976  1.00  0.00    -0.352 N 
ATOM     31  C   UNL     1      -2.552  -5.807   7.155  1.00  0.00     0.251 C 
ATOM     32  H   UNL     1      -2.247  -5.663   5.185  1.00  0.00     0.163 HD
ATOM     33  O   UNL     1      -2.308  -7.012   7.173  1.00  0.00    -0.269 OA
BRANCH  31  34
ATOM     34  C   UNL     1      -2.904  -5.111   8.409  1.00  0.00     0.039 A 
ATOM     35  C   UNL     1      -2.194  -5.440   9.566  1.00  0.00     0.014 A 
ATOM     36  C   UNL     1      -3.921  -4.153   8.462  1.00  0.00     0.014 A 
ATOM     37  C   UNL     1      -2.468  -4.776  10.761  1.00  0.00     0.010 A 
ATOM     38  C   UNL     1      -4.139  -3.434   9.636  1.00  0.00     0.010 A 
ATOM     39  C   UNL     1      -3.420  -3.744  10.800  1.00  0.00    -0.014 A 
BRANCH  39  40
ATOM     40  C   UNL     1      -3.658  -2.991  12.057  1.00  0.00     0.031 A 
ATOM     41  C   UNL     1      -4.990  -3.060  12.752  1.00  0.00     0.074 A 
ATOM     42  C   UNL     1      -2.671  -2.226  12.563  1.00  0.00     0.049 A 
ATOM     43  N   UNL     1      -5.365  -2.504  13.877  1.00  0.00    -0.248 NA
ATOM     44  C   UNL     1      -6.048  -3.833  12.084  1.00  0.00     0.031 C 
ATOM     45  C   UNL     1      -1.358  -2.028  11.947  1.00  0.00     0.029 A 
ATOM     46  N   UNL     1      -2.614  -1.480  13.714  1.00  0.00    -0.354 N 
ATOM     47  C   UNL     1      -6.697  -2.858  14.048  1.00  0.00     0.074 A 
ATOM     48  C   UNL     1      -7.085  -3.619  12.881  1.00  0.00     0.031 C 
ATOM     49  C   UNL     1      -0.611  -1.250  12.745  1.00  0.00     0.029 A 
ATOM     50  C   UNL     1      -1.400  -0.868  13.912  1.00  0.00     0.049 A 
ATOM     51  H   UNL     1      -3.370  -1.392  14.337  1.00  0.00     0.167 HD
ATOM     52  C   UNL     1      -7.514  -2.597  15.097  1.00  0.00     0.037 A 
ATOM     53  C   UNL     1      -0.971  -0.093  14.925  1.00  0.00     0.037 A 
ATOM     54  C   UNL     1      -7.118  -1.849  16.263  1.00  0.00     0.049 A 
ATOM     55  C   UNL     1      -1.895   0.174  16.082  1.00  0.00     0.074 A 
ATOM     56  C   UNL     1      -7.853  -1.572  17.402  1.00  0.00     0.029 A 
ATOM     57  N   UNL     1      -5.876  -1.254  16.434  1.00  0.00    -0.354 N 
ATOM     58  N   UNL     1      -3.126  -0.236  16.273  1.00  0.00    -0.248 NA
ATOM     59  C   UNL     1      -1.363   1.001  17.174  1.00  0.00     0.031 C 
ATOM     60  C   UNL     1      -7.075  -0.765  18.239  1.00  0.00     0.029 A 
ATOM     61  C   UNL     1      -5.832  -0.593  17.652  1.00  0.00     0.049 A 
ATOM     62  H   UNL     1      -5.136  -1.295  15.786  1.00  0.00     0.167 HD
ATOM     63  C   UNL     1      -3.503   0.252  17.517  1.00  0.00     0.074 A 
ATOM     64  C   UNL     1      -2.362   0.972  18.043  1.00  0.00     0.031 C 
ATOM     65  C   UNL     1      -4.687   0.116  18.165  1.00  0.00     0.037 A 
BRANCH  52  66
ATOM     66  C   UNL     1      -8.919  -3.128  15.033  1.00  0.00     0.064 A 
ATOM     67  C   UNL     1      -9.190  -4.505  15.099  1.00  0.00     0.173 A 
ATOM     68  C   UNL     1     -10.010  -2.252  14.939  1.00  0.00     0.173 A 
ATOM     69  F   UNL     1      -8.183  -5.388  15.178  1.00  0.00    -0.203 F 
ATOM     70  C   UNL     1     -10.496  -4.983  15.040  1.00  0.00     0.198 A 
ATOM     71  C   UNL     1     -11.317  -2.732  14.915  1.00  0.00     0.198 A 
ATOM     72  F   UNL     1      -9.811  -0.927  14.879  1.00  0.00    -0.203 F 
ATOM     73  F   UNL     1     -10.725  -6.304  15.049  1.00  0.00    -0.200 F 
ATOM     74  C   UNL     1     -11.559  -4.097  14.956  1.00  0.00     0.200 A 
ATOM     75  F   UNL     1     -12.344  -1.874  14.850  1.00  0.00    -0.200 F 
ATOM     76  F   UNL     1     -12.816  -4.559  14.908  1.00  0.00    -0.200 F 
ENDBRANCH  52  66
BRANCH  53  77
ATOM     77  C   UNL     1       0.414   0.449  14.913  1.00  0.00     0.064 A 
ATOM     78  C   UNL     1       1.372   0.004  15.834  1.00  0.00     0.173 A 
ATOM     79  C   UNL     1       0.806   1.428  13.988  1.00  0.00     0.173 A 
ATOM     80  F   UNL     1       1.042  -0.919  16.750  1.00  0.00    -0.203 F 
ATOM     81  C   UNL     1       2.660   0.535  15.848  1.00  0.00     0.198 A 
ATOM     82  C   UNL     1       2.103   1.935  13.982  1.00  0.00     0.198 A 
ATOM     83  F   UNL     1      -0.070   1.883  13.079  1.00  0.00    -0.203 F 
ATOM     84  F   UNL     1       3.540   0.128  16.774  1.00  0.00    -0.200 F 
ATOM     85  C   UNL     1       3.026   1.496  14.919  1.00  0.00     0.200 A 
ATOM     86  F   UNL     1       2.458   2.851  13.070  1.00  0.00    -0.200 F 
ATOM     87  F   UNL     1       4.266   2.005  14.930  1.00  0.00    -0.200 F 
ENDBRANCH  53  77
BRANCH  65  88
ATOM     88  C   UNL     1      -4.790   0.723  19.536  1.00  0.00     0.064 A 
ATOM     89  C   UNL     1      -4.798   2.112  19.734  1.00  0.00     0.173 A 
ATOM     90  C   UNL     1      -4.894  -0.101  20.668  1.00  0.00     0.173 A 
ATOM     91  F   UNL     1      -4.688   2.944  18.687  1.00  0.00    -0.203 F 
ATOM     92  C   UNL     1      -4.863   2.652  21.015  1.00  0.00     0.198 A 
ATOM     93  C   UNL     1      -4.996   0.444  21.945  1.00  0.00     0.198 A 
ATOM     94  F   UNL     1      -4.901  -1.436  20.535  1.00  0.00    -0.203 F 
ATOM     95  F   UNL     1      -4.801   3.981  21.184  1.00  0.00    -0.200 F 
ATOM     96  C   UNL     1      -4.968   1.819  22.119  1.00  0.00     0.200 A 
ATOM     97  F   UNL     1      -5.114  -0.363  23.008  1.00  0.00    -0.200 F 
ATOM     98  F   UNL     1      -5.030   2.341  23.351  1.00  0.00    -0.200 F 
ENDBRANCH  65  88
ENDBRANCH  39  40
ENDBRANCH  31  34
ENDBRANCH  29  30
ENDBRANCH  28  29
ENDBRANCH  27  28
ENDBRANCH  26  27
ENDBRANCH   3  26
TORSDOF 18
