REMARK SMILES CSCc1ccc(C(=O)N[C@@H](Cc2cnc[nH]2)C(=O)NCCCCNC(=O)c2ccc(-c3c4nc(c(-c5c(F)c(F)c(F)c(F)c5F)c5ccc([nH]5)c(-c5c(F)c(F)c(F)c(F)c5F)c5nc(c(-c6c(F)c(F)c(F)c(F)c6F)c6ccc3[nH]6)C=C5)C=C4)cc2)o1
REMARK SMILES IDX 21 1 20 2 18 3 19 4 11 6 10 7 8 8 9 9 7 11 4 12 5 13 91 14
REMARK SMILES IDX 6 15 3 16 2 17 1 18 12 19 13 20 14 21 17 22 15 23 16 24
REMARK SMILES IDX 22 26 23 27 24 28 25 29 26 30 27 32 28 33 29 34 90 35 30 36
REMARK SMILES IDX 89 37 31 38 32 39 33 40 83 41 34 42 88 43 82 44 84 45 35 46
REMARK SMILES IDX 87 47 81 48 80 49 36 51 68 52 48 53 67 54 49 55 52 56 66 57
REMARK SMILES IDX 85 58 50 59 51 60 65 62 86 63 53 64 37 65 38 66 46 67 39 68
REMARK SMILES IDX 40 69 44 70 47 71 41 72 42 73 45 74 43 75 69 76 70 77 78 78
REMARK SMILES IDX 71 79 72 80 76 81 79 82 73 83 74 84 77 85 75 86 54 87 55 88
REMARK SMILES IDX 63 89 56 90 57 91 61 92 64 93 58 94 59 95 62 96 60 97
REMARK H PARENT 20 5 10 10 17 25 25 31 84 50 52 61
REMARK Flexibility Score: inf
ROOT
ATOM      1  C   UNL     1       0.273   2.146  -8.859  1.00  0.00     0.116 C 
ENDROOT
BRANCH   1   2
ATOM      2  N   UNL     1       0.733   0.775  -8.865  1.00  0.00    -0.354 N 
ATOM      3  C   UNL     1       0.188  -0.324  -8.268  1.00  0.00     0.242 C 
ATOM      4  O   UNL     1       0.477  -1.423  -8.755  1.00  0.00    -0.273 OA
ATOM      5  H   UNL     1       1.559   0.611  -9.374  1.00  0.00     0.163 HD
BRANCH   3   6
ATOM      6  C   UNL     1      -0.805  -0.251  -7.084  1.00  0.00     0.177 C 
BRANCH   6   7
ATOM      7  N   UNL     1      -0.369   0.636  -6.006  1.00  0.00    -0.337 N 
ATOM      8  C   UNL     1       0.180   0.391  -4.770  1.00  0.00     0.287 C 
ATOM      9  O   UNL     1       0.626   1.404  -4.219  1.00  0.00    -0.266 OA
ATOM     10  H   UNL     1      -0.491   1.592  -6.204  1.00  0.00     0.164 HD
BRANCH   8  11
ATOM     11  C   UNL     1       0.209  -0.918  -4.133  1.00  0.00     0.191 A 
ATOM     12  C   UNL     1       0.738  -2.220  -2.404  1.00  0.00     0.114 A 
ATOM     13  C   UNL     1       0.063  -3.018  -3.295  1.00  0.00     0.047 A 
ATOM     14  O   UNL     1       0.860  -0.966  -2.917  1.00  0.00    -0.455 OA
ATOM     15  C   UNL     1      -0.284  -2.187  -4.391  1.00  0.00     0.056 A 
BRANCH  12  16
ATOM     16  C   UNL     1       1.341  -2.473  -1.072  1.00  0.00     0.144 C 
BRANCH  16  17
ATOM     17  S   UNL     1       0.403  -1.695   0.281  1.00  0.00    -0.157 SA
ATOM     18  C   UNL     1       1.016   0.003   0.116  1.00  0.00     0.085 C 
ENDBRANCH  16  17
ENDBRANCH  12  16
ENDBRANCH   8  11
ENDBRANCH   6   7
BRANCH   6  19
ATOM     19  C   UNL     1      -2.294  -0.095  -7.447  1.00  0.00     0.090 C 
BRANCH  19  20
ATOM     20  C   UNL     1      -2.688   1.118  -8.217  1.00  0.00     0.037 A 
ATOM     21  C   UNL     1      -2.981   1.280  -9.557  1.00  0.00     0.134 A 
ATOM     22  N   UNL     1      -2.906   2.359  -7.666  1.00  0.00    -0.348 N 
ATOM     23  N   UNL     1      -3.241   2.593  -9.843  1.00  0.00    -0.245 NA
ATOM     24  C   UNL     1      -3.200   3.218  -8.690  1.00  0.00     0.196 A 
ATOM     25  H   UNL     1      -2.859   2.588  -6.710  1.00  0.00     0.167 HD
ENDBRANCH  19  20
ENDBRANCH   6  19
ENDBRANCH   3   6
ENDBRANCH   1   2
BRANCH   1  26
ATOM     26  C   UNL     1       1.367   3.180  -9.074  1.00  0.00     0.023 C 
BRANCH  26  27
ATOM     27  C   UNL     1       1.972   3.199 -10.475  1.00  0.00     0.023 C 
BRANCH  27  28
ATOM     28  C   UNL     1       0.977   3.224 -11.634  1.00  0.00     0.116 C 
BRANCH  28  29
ATOM     29  N   UNL     1       0.043   4.342 -11.587  1.00  0.00    -0.352 N 
ATOM     30  C   UNL     1      -0.212   5.307 -12.537  1.00  0.00     0.251 C 
ATOM     31  H   UNL     1      -0.480   4.418 -10.757  1.00  0.00     0.163 HD
ATOM     32  O   UNL     1      -0.945   6.253 -12.290  1.00  0.00    -0.269 OA
BRANCH  30  33
ATOM     33  C   UNL     1       0.449   5.206 -13.855  1.00  0.00     0.039 A 
ATOM     34  C   UNL     1       1.136   6.314 -14.356  1.00  0.00     0.014 A 
ATOM     35  C   UNL     1       0.439   4.000 -14.560  1.00  0.00     0.014 A 
ATOM     36  C   UNL     1       1.906   6.178 -15.514  1.00  0.00     0.010 A 
ATOM     37  C   UNL     1       1.272   3.844 -15.662  1.00  0.00     0.010 A 
ATOM     38  C   UNL     1       2.025   4.927 -16.142  1.00  0.00    -0.014 A 
BRANCH  38  39
ATOM     39  C   UNL     1       2.951   4.718 -17.284  1.00  0.00     0.031 A 
ATOM     40  C   UNL     1       2.415   4.296 -18.622  1.00  0.00     0.074 A 
ATOM     41  C   UNL     1       4.282   4.816 -17.091  1.00  0.00     0.049 A 
ATOM     42  N   UNL     1       3.066   3.964 -19.709  1.00  0.00    -0.248 NA
ATOM     43  C   UNL     1       0.952   4.202 -18.747  1.00  0.00     0.031 C 
ATOM     44  C   UNL     1       4.931   5.157 -15.824  1.00  0.00     0.029 A 
ATOM     45  N   UNL     1       5.330   4.621 -17.957  1.00  0.00    -0.354 N 
ATOM     46  C   UNL     1       2.095   3.603 -20.634  1.00  0.00     0.074 A 
ATOM     47  C   UNL     1       0.815   3.706 -19.968  1.00  0.00     0.031 C 
ATOM     48  C   UNL     1       6.262   5.169 -16.000  1.00  0.00     0.029 A 
ATOM     49  C   UNL     1       6.563   4.799 -17.379  1.00  0.00     0.049 A 
ATOM     50  H   UNL     1       5.208   4.377 -18.903  1.00  0.00     0.167 HD
ATOM     51  C   UNL     1       2.256   3.242 -21.929  1.00  0.00     0.037 A 
ATOM     52  C   UNL     1       7.798   4.670 -17.901  1.00  0.00     0.037 A 
ATOM     53  C   UNL     1       3.527   3.176 -22.600  1.00  0.00     0.049 A 
ATOM     54  C   UNL     1       7.948   4.282 -19.347  1.00  0.00     0.074 A 
ATOM     55  C   UNL     1       3.787   2.893 -23.929  1.00  0.00     0.029 A 
ATOM     56  N   UNL     1       4.753   3.398 -21.990  1.00  0.00    -0.354 N 
ATOM     57  N   UNL     1       7.019   4.015 -20.232  1.00  0.00    -0.248 NA
ATOM     58  C   UNL     1       9.319   4.181 -19.868  1.00  0.00     0.031 C 
ATOM     59  C   UNL     1       5.173   2.905 -24.115  1.00  0.00     0.029 A 
ATOM     60  C   UNL     1       5.774   3.240 -22.913  1.00  0.00     0.049 A 
ATOM     61  H   UNL     1       4.878   3.634 -21.042  1.00  0.00     0.167 HD
ATOM     62  C   UNL     1       7.688   3.743 -21.418  1.00  0.00     0.074 A 
ATOM     63  C   UNL     1       9.102   3.890 -21.143  1.00  0.00     0.031 C 
ATOM     64  C   UNL     1       7.176   3.401 -22.625  1.00  0.00     0.037 A 
BRANCH  51  65
ATOM     65  C   UNL     1       1.022   2.901 -22.711  1.00  0.00     0.064 A 
ATOM     66  C   UNL     1       0.093   3.885 -23.083  1.00  0.00     0.173 A 
ATOM     67  C   UNL     1       0.782   1.582 -23.125  1.00  0.00     0.173 A 
ATOM     68  F   UNL     1       0.270   5.159 -22.701  1.00  0.00    -0.203 F 
ATOM     69  C   UNL     1      -1.045   3.556 -23.815  1.00  0.00     0.198 A 
ATOM     70  C   UNL     1      -0.341   1.262 -23.883  1.00  0.00     0.198 A 
ATOM     71  F   UNL     1       1.642   0.605 -22.802  1.00  0.00    -0.203 F 
ATOM     72  F   UNL     1      -1.942   4.505 -24.117  1.00  0.00    -0.200 F 
ATOM     73  C   UNL     1      -1.257   2.248 -24.221  1.00  0.00     0.200 A 
ATOM     74  F   UNL     1      -0.539  -0.001 -24.286  1.00  0.00    -0.200 F 
ATOM     75  F   UNL     1      -2.348   1.934 -24.933  1.00  0.00    -0.200 F 
ENDBRANCH  51  65
BRANCH  52  76
ATOM     76  C   UNL     1       8.994   4.937 -17.059  1.00  0.00     0.064 A 
ATOM     77  C   UNL     1       9.791   6.068 -17.283  1.00  0.00     0.173 A 
ATOM     78  C   UNL     1       9.369   4.068 -16.025  1.00  0.00     0.173 A 
ATOM     79  F   UNL     1       9.484   6.917 -18.276  1.00  0.00    -0.203 F 
ATOM     80  C   UNL     1      10.930   6.309 -16.519  1.00  0.00     0.198 A 
ATOM     81  C   UNL     1      10.494   4.325 -15.243  1.00  0.00     0.198 A 
ATOM     82  F   UNL     1       8.638   2.974 -15.767  1.00  0.00    -0.203 F 
ATOM     83  F   UNL     1      11.700   7.374 -16.784  1.00  0.00    -0.200 F 
ATOM     84  C   UNL     1      11.278   5.440 -15.496  1.00  0.00     0.200 A 
ATOM     85  F   UNL     1      10.820   3.490 -14.247  1.00  0.00    -0.200 F 
ATOM     86  F   UNL     1      12.373   5.673 -14.759  1.00  0.00    -0.200 F 
ENDBRANCH  52  76
BRANCH  64  87
ATOM     87  C   UNL     1       8.146   3.195 -23.750  1.00  0.00     0.064 A 
ATOM     88  C   UNL     1       8.969   2.061 -23.813  1.00  0.00     0.173 A 
ATOM     89  C   UNL     1       8.220   4.121 -24.802  1.00  0.00     0.173 A 
ATOM     90  F   UNL     1       8.946   1.155 -22.824  1.00  0.00    -0.203 F 
ATOM     91  C   UNL     1       9.845   1.872 -24.878  1.00  0.00     0.198 A 
ATOM     92  C   UNL     1       9.076   3.915 -25.879  1.00  0.00     0.198 A 
ATOM     93  F   UNL     1       7.449   5.219 -24.790  1.00  0.00    -0.203 F 
ATOM     94  F   UNL     1      10.652   0.803 -24.898  1.00  0.00    -0.200 F 
ATOM     95  C   UNL     1       9.892   2.795 -25.913  1.00  0.00     0.200 A 
ATOM     96  F   UNL     1       9.112   4.801 -26.884  1.00  0.00    -0.200 F 
ATOM     97  F   UNL     1      10.730   2.607 -26.942  1.00  0.00    -0.200 F 
ENDBRANCH  64  87
ENDBRANCH  38  39
ENDBRANCH  30  33
ENDBRANCH  28  29
ENDBRANCH  27  28
ENDBRANCH  26  27
ENDBRANCH   1  26
TORSDOF 17
