REMARK SMILES O=C(CCN1C(=O)/C(=C/C=C/c2ccco2)SC1=S)Nc1ccc(C(=O)NCCCCNC(=O)c2ccc(-c3c4nc(c(-c5c(F)c(F)c(F)c(F)c5F)c5ccc([nH]5)c(-c5c(F)c(F)c(F)c(F)c5F)c5nc(c(-c6c(F)c(F)c(F)c(F)c6F)c6ccc3[nH]6)C=C5)C=C4)cc2)c(O)c1
REMARK SMILES IDX 25 1 26 2 27 3 24 5 21 6 22 7 100 8 23 9 98 10 20 11 1 12
REMARK SMILES IDX 2 13 3 15 4 16 5 17 6 18 18 19 7 20 8 21 17 22 19 23 9 24
REMARK SMILES IDX 10 25 11 26 12 27 13 28 16 29 14 30 15 31 99 32 28 34 29 35
REMARK SMILES IDX 30 36 31 37 32 38 33 39 34 41 35 42 36 43 97 44 37 45 96 46
REMARK SMILES IDX 38 47 39 48 40 49 90 50 41 51 95 52 89 53 91 54 42 55 94 56
REMARK SMILES IDX 88 57 87 58 43 60 75 61 55 62 74 63 56 64 59 65 73 66 92 67
REMARK SMILES IDX 57 68 58 69 72 71 93 72 60 73 44 74 45 75 53 76 46 77 47 78
REMARK SMILES IDX 51 79 54 80 48 81 49 82 52 83 50 84 76 85 77 86 85 87 78 88
REMARK SMILES IDX 79 89 83 90 86 91 80 92 81 93 84 94 82 95 61 96 62 97 70 98
REMARK SMILES IDX 63 99 64 100 68 101 71 102 65 103 66 104 69 105 67 106
REMARK H PARENT 27 4 20 14 99 33 32 40 91 59 59 70
REMARK Flexibility Score: inf
ROOT
ATOM      1  C   UNL     1       0.516  -4.829   4.016  1.00  0.00     0.255 C 
ATOM      2  O   UNL     1      -0.156  -5.756   3.574  1.00  0.00    -0.269 OA
ATOM      3  N   UNL     1       0.604  -4.640   5.379  1.00  0.00    -0.352 N 
ATOM      4  H   UNL     1       0.083  -5.269   5.928  1.00  0.00     0.163 HD
ENDROOT
BRANCH   1   5
ATOM      5  C   UNL     1       1.173  -3.885   3.081  1.00  0.00     0.081 A 
ATOM      6  C   UNL     1       2.108  -1.727   1.551  1.00  0.00     0.044 A 
ATOM      7  C   UNL     1       0.869  -2.299   1.266  1.00  0.00     0.027 A 
ATOM      8  C   UNL     1       2.929  -2.327   2.513  1.00  0.00     0.073 A 
ATOM      9  C   UNL     1       0.395  -3.366   2.040  1.00  0.00     0.020 A 
ATOM     10  C   UNL     1       2.484  -3.433   3.231  1.00  0.00     0.130 A 
BRANCH   6  11
ATOM     11  N   UNL     1       2.622  -0.579   0.921  1.00  0.00    -0.326 N 
ATOM     12  O   UNL     1       0.877   0.077  -0.451  1.00  0.00    -0.275 OA
ATOM     13  C   UNL     1       2.036   0.189  -0.058  1.00  0.00     0.226 C 
ATOM     14  H   UNL     1       3.514  -0.288   1.218  1.00  0.00     0.169 HD
BRANCH  13  15
ATOM     15  C   UNL     1       2.962   1.183  -0.749  1.00  0.00     0.122 C 
BRANCH  15  16
ATOM     16  C   UNL     1       4.215   1.685  -0.029  1.00  0.00     0.137 C 
BRANCH  16  17
ATOM     17  N   UNL     1       5.234   0.737   0.466  1.00  0.00    -0.292 N 
ATOM     18  C   UNL     1       5.998   1.163   1.553  1.00  0.00     0.266 C 
ATOM     19  C   UNL     1       5.680  -0.427  -0.133  1.00  0.00     0.148 C 
ATOM     20  O   UNL     1       5.906   2.253   2.111  1.00  0.00    -0.268 OA
ATOM     21  C   UNL     1       6.976   0.121   1.959  1.00  0.00     0.080 C 
ATOM     22  S   UNL     1       6.802  -1.249   0.941  1.00  0.00    -0.054 SA
ATOM     23  S   UNL     1       5.290  -1.087  -1.609  1.00  0.00    -0.052 S 
ATOM     24  C   UNL     1       7.857   0.281   2.959  1.00  0.00     0.021 C 
BRANCH  24  25
ATOM     25  C   UNL     1       8.760  -0.751   3.432  1.00  0.00     0.005 C 
ATOM     26  C   UNL     1       9.728  -0.571   4.343  1.00  0.00     0.047 C 
BRANCH  26  27
ATOM     27  C   UNL     1      10.501  -1.674   4.811  1.00  0.00     0.126 A 
ATOM     28  C   UNL     1      10.761  -2.915   4.234  1.00  0.00     0.050 A 
ATOM     29  O   UNL     1      11.137  -1.655   6.034  1.00  0.00    -0.465 OA
ATOM     30  C   UNL     1      11.527  -3.675   5.148  1.00  0.00     0.042 A 
ATOM     31  C   UNL     1      11.725  -2.860   6.232  1.00  0.00     0.195 A 
ENDBRANCH  26  27
ENDBRANCH  24  25
ENDBRANCH  16  17
ENDBRANCH  15  16
ENDBRANCH  13  15
ENDBRANCH   6  11
BRANCH  10  32
ATOM     32  O   UNL     1       3.397  -4.009   4.070  1.00  0.00    -0.507 OA
ATOM     33  H   UNL     1       3.158  -4.758   4.581  1.00  0.00     0.293 HD
ENDBRANCH  10  32
ENDBRANCH   1   5
BRANCH   3  34
ATOM     34  C   UNL     1       1.358  -3.640   6.122  1.00  0.00     0.116 C 
BRANCH  34  35
ATOM     35  C   UNL     1       0.677  -3.109   7.377  1.00  0.00     0.023 C 
BRANCH  35  36
ATOM     36  C   UNL     1       0.298  -4.142   8.431  1.00  0.00     0.023 C 
BRANCH  36  37
ATOM     37  C   UNL     1       1.374  -5.157   8.791  1.00  0.00     0.116 C 
BRANCH  37  38
ATOM     38  N   UNL     1       2.578  -4.564   9.353  1.00  0.00    -0.352 N 
ATOM     39  C   UNL     1       3.187  -4.783  10.567  1.00  0.00     0.251 C 
ATOM     40  H   UNL     1       3.027  -3.905   8.775  1.00  0.00     0.163 HD
ATOM     41  O   UNL     1       4.152  -4.103  10.901  1.00  0.00    -0.269 OA
BRANCH  39  42
ATOM     42  C   UNL     1       2.663  -5.814  11.491  1.00  0.00     0.039 A 
ATOM     43  C   UNL     1       2.558  -5.514  12.852  1.00  0.00     0.014 A 
ATOM     44  C   UNL     1       2.271  -7.070  11.024  1.00  0.00     0.014 A 
ATOM     45  C   UNL     1       2.000  -6.448  13.728  1.00  0.00     0.010 A 
ATOM     46  C   UNL     1       1.614  -7.953  11.874  1.00  0.00     0.010 A 
ATOM     47  C   UNL     1       1.491  -7.664  13.241  1.00  0.00    -0.014 A 
BRANCH  47  48
ATOM     48  C   UNL     1       0.878  -8.668  14.151  1.00  0.00     0.031 A 
ATOM     49  C   UNL     1       1.498 -10.035  14.282  1.00  0.00     0.074 A 
ATOM     50  C   UNL     1      -0.253  -8.374  14.822  1.00  0.00     0.049 A 
ATOM     51  N   UNL     1       1.095 -11.067  14.981  1.00  0.00    -0.248 NA
ATOM     52  C   UNL     1       2.716 -10.288  13.495  1.00  0.00     0.031 C 
ATOM     53  C   UNL     1      -0.981  -7.107  14.743  1.00  0.00     0.029 A 
ATOM     54  N   UNL     1      -0.991  -9.126  15.703  1.00  0.00    -0.354 N 
ATOM     55  C   UNL     1       1.998 -12.086  14.704  1.00  0.00     0.074 A 
ATOM     56  C   UNL     1       2.922 -11.576  13.717  1.00  0.00     0.031 C 
ATOM     57  C   UNL     1      -2.040  -7.156  15.568  1.00  0.00     0.029 A 
ATOM     58  C   UNL     1      -2.087  -8.468  16.206  1.00  0.00     0.049 A 
ATOM     59  H   UNL     1      -0.756 -10.049  15.950  1.00  0.00     0.167 HD
ATOM     60  C   UNL     1       2.076 -13.324  15.249  1.00  0.00     0.037 A 
ATOM     61  C   UNL     1      -3.021  -8.879  17.085  1.00  0.00     0.037 A 
ATOM     62  C   UNL     1       1.171 -13.822  16.250  1.00  0.00     0.049 A 
ATOM     63  C   UNL     1      -2.913 -10.261  17.676  1.00  0.00     0.074 A 
ATOM     64  C   UNL     1       1.183 -15.045  16.896  1.00  0.00     0.029 A 
ATOM     65  N   UNL     1       0.088 -13.115  16.753  1.00  0.00    -0.354 N 
ATOM     66  N   UNL     1      -2.017 -11.192  17.455  1.00  0.00    -0.248 NA
ATOM     67  C   UNL     1      -3.941 -10.640  18.655  1.00  0.00     0.031 C 
ATOM     68  C   UNL     1       0.081 -15.098  17.755  1.00  0.00     0.029 A 
ATOM     69  C   UNL     1      -0.581 -13.882  17.694  1.00  0.00     0.049 A 
ATOM     70  H   UNL     1      -0.168 -12.204  16.482  1.00  0.00     0.167 HD
ATOM     71  C   UNL     1      -2.345 -12.247  18.297  1.00  0.00     0.074 A 
ATOM     72  C   UNL     1      -3.515 -11.833  19.043  1.00  0.00     0.031 C 
ATOM     73  C   UNL     1      -1.733 -13.448  18.443  1.00  0.00     0.037 A 
BRANCH  60  74
ATOM     74  C   UNL     1       3.188 -14.219  14.777  1.00  0.00     0.064 A 
ATOM     75  C   UNL     1       4.534 -13.934  15.060  1.00  0.00     0.173 A 
ATOM     76  C   UNL     1       2.907 -15.384  14.048  1.00  0.00     0.173 A 
ATOM     77  F   UNL     1       4.861 -12.825  15.741  1.00  0.00    -0.203 F 
ATOM     78  C   UNL     1       5.556 -14.760  14.599  1.00  0.00     0.198 A 
ATOM     79  C   UNL     1       3.929 -16.228  13.621  1.00  0.00     0.198 A 
ATOM     80  F   UNL     1       1.639 -15.708  13.751  1.00  0.00    -0.203 F 
ATOM     81  F   UNL     1       6.835 -14.432  14.828  1.00  0.00    -0.200 F 
ATOM     82  C   UNL     1       5.252 -15.910  13.887  1.00  0.00     0.200 A 
ATOM     83  F   UNL     1       3.634 -17.347  12.945  1.00  0.00    -0.200 F 
ATOM     84  F   UNL     1       6.236 -16.708  13.450  1.00  0.00    -0.200 F 
ENDBRANCH  60  74
BRANCH  61  85
ATOM     85  C   UNL     1      -4.117  -7.962  17.500  1.00  0.00     0.064 A 
ATOM     86  C   UNL     1      -4.187  -7.471  18.812  1.00  0.00     0.173 A 
ATOM     87  C   UNL     1      -5.131  -7.583  16.609  1.00  0.00     0.173 A 
ATOM     88  F   UNL     1      -3.252  -7.820  19.708  1.00  0.00    -0.203 F 
ATOM     89  C   UNL     1      -5.246  -6.665  19.226  1.00  0.00     0.198 A 
ATOM     90  C   UNL     1      -6.172  -6.749  17.015  1.00  0.00     0.198 A 
ATOM     91  F   UNL     1      -5.110  -8.019  15.341  1.00  0.00    -0.203 F 
ATOM     92  F   UNL     1      -5.319  -6.261  20.502  1.00  0.00    -0.200 F 
ATOM     93  C   UNL     1      -6.236  -6.301  18.326  1.00  0.00     0.200 A 
ATOM     94  F   UNL     1      -7.118  -6.387  16.138  1.00  0.00    -0.200 F 
ATOM     95  F   UNL     1      -7.255  -5.528  18.724  1.00  0.00    -0.200 F 
ENDBRANCH  61  85
BRANCH  73  96
ATOM     96  C   UNL     1      -2.274 -14.372  19.498  1.00  0.00     0.064 A 
ATOM     97  C   UNL     1      -3.532 -14.983  19.381  1.00  0.00     0.173 A 
ATOM     98  C   UNL     1      -1.512 -14.657  20.642  1.00  0.00     0.173 A 
ATOM     99  F   UNL     1      -4.305 -14.738  18.313  1.00  0.00    -0.203 F 
ATOM    100  C   UNL     1      -4.025 -15.805  20.392  1.00  0.00     0.198 A 
ATOM    101  C   UNL     1      -1.992 -15.510  21.632  1.00  0.00     0.198 A 
ATOM    102  F   UNL     1      -0.297 -14.109  20.800  1.00  0.00    -0.203 F 
ATOM    103  F   UNL     1      -5.259 -16.319  20.291  1.00  0.00    -0.200 F 
ATOM    104  C   UNL     1      -3.254 -16.071  21.513  1.00  0.00     0.200 A 
ATOM    105  F   UNL     1      -1.237 -15.780  22.705  1.00  0.00    -0.200 F 
ATOM    106  F   UNL     1      -3.731 -16.861  22.484  1.00  0.00    -0.200 F 
ENDBRANCH  73  96
ENDBRANCH  47  48
ENDBRANCH  39  42
ENDBRANCH  37  38
ENDBRANCH  36  37
ENDBRANCH  35  36
ENDBRANCH  34  35
ENDBRANCH   3  34
TORSDOF 18
