REMARK SMILES C[C@@H](C(=O)NCCCCNC(=O)c1ccc(-c2c3nc(c(-c4c(F)c(F)c(F)c(F)c4F)c4ccc([nH]4)c(-c4c(F)c(F)c(F)c(F)c4F)c4nc(c(-c5c(F)c(F)c(F)c(F)c5F)c5ccc2[nH]5)C=C4)C=C3)cc1)N(C)C(=O)NC[C@H]1C[N@@H+]2CCC[C@@H]2CO1
REMARK SMILES IDX 6 1 5 2 3 3 4 4 2 6 1 7 76 8 77 9 78 10 79 11 80 12 81 14
REMARK SMILES IDX 82 15 83 16 90 17 84 18 89 19 85 20 88 21 86 23 87 24 7 25
REMARK SMILES IDX 8 26 9 27 10 28 11 29 12 31 13 32 14 33 75 34 15 35 74 36
REMARK SMILES IDX 16 37 17 38 18 39 68 40 19 41 73 42 67 43 69 44 20 45 72 46
REMARK SMILES IDX 66 47 65 48 21 50 53 51 33 52 52 53 34 54 37 55 51 56 70 57
REMARK SMILES IDX 35 58 36 59 50 61 71 62 38 63 22 64 23 65 31 66 24 67 25 68
REMARK SMILES IDX 29 69 32 70 26 71 27 72 30 73 28 74 54 75 55 76 63 77 56 78
REMARK SMILES IDX 57 79 61 80 64 81 58 82 59 83 62 84 60 85 39 86 40 87 48 88
REMARK SMILES IDX 41 89 42 90 46 91 49 92 43 93 44 94 47 95 45 96
REMARK H PARENT 5 5 80 13 84 22 10 30 69 49 37 60
REMARK Flexibility Score: inf
ROOT
ATOM      1  C   UNL     1       3.408   1.307   1.052  1.00  0.00     0.116 C 
ENDROOT
BRANCH   1   2
ATOM      2  N   UNL     1       2.343   2.276   0.912  1.00  0.00    -0.354 N 
ATOM      3  C   UNL     1       0.991   2.085   0.857  1.00  0.00     0.242 C 
ATOM      4  O   UNL     1       0.297   3.104   0.909  1.00  0.00    -0.273 OA
ATOM      5  H   UNL     1       2.637   3.213   0.847  1.00  0.00     0.163 HD
BRANCH   3   6
ATOM      6  C   UNL     1       0.405   0.645   0.842  1.00  0.00     0.172 C 
ATOM      7  C   UNL     1       0.813  -0.211  -0.360  1.00  0.00     0.042 C 
BRANCH   6   8
ATOM      8  N   UNL     1      -1.062   0.679   1.054  1.00  0.00    -0.316 N 
ATOM      9  C   UNL     1      -1.494   0.443   2.418  1.00  0.00     0.149 C 
BRANCH   8  10
ATOM     10  C   UNL     1      -1.853   1.076   0.004  1.00  0.00     0.317 C 
ATOM     11  O   UNL     1      -1.376   1.409  -1.085  1.00  0.00    -0.249 OA
ATOM     12  N   UNL     1      -3.196   1.103   0.068  1.00  0.00    -0.335 N 
ATOM     13  H   UNL     1      -3.589   1.494  -0.746  1.00  0.00     0.165 HD
BRANCH  12  14
ATOM     14  C   UNL     1      -4.220   0.710   1.016  1.00  0.00     0.155 C 
BRANCH  14  15
ATOM     15  C   UNL     1      -5.156   1.856   1.444  1.00  0.00     0.192 C 
ATOM     16  C   UNL     1      -4.477   3.247   1.643  1.00  0.00     0.296 C 
ATOM     17  O   UNL     1      -6.288   1.865   0.545  1.00  0.00    -0.364 OA
ATOM     18  N   UNL     1      -4.651   4.210   0.545  1.00  0.00    -0.328 N 
ATOM     19  C   UNL     1      -6.940   3.135   0.534  1.00  0.00     0.225 C 
ATOM     20  C   UNL     1      -4.360   5.593   0.941  1.00  0.00     0.262 C 
ATOM     21  C   UNL     1      -5.992   4.172  -0.070  1.00  0.00     0.210 C 
ATOM     22  H   UNL     1      -3.967   3.906  -0.147  1.00  0.00     0.348 HD
ATOM     23  C   UNL     1      -5.277   6.438   0.072  1.00  0.00     0.068 C 
ATOM     24  C   UNL     1      -6.535   5.594  -0.001  1.00  0.00     0.073 C 
ENDBRANCH  14  15
ENDBRANCH  12  14
ENDBRANCH   8  10
ENDBRANCH   6   8
ENDBRANCH   3   6
ENDBRANCH   1   2
BRANCH   1  25
ATOM     25  C   UNL     1       4.194   1.137  -0.246  1.00  0.00     0.023 C 
BRANCH  25  26
ATOM     26  C   UNL     1       4.984   2.373  -0.678  1.00  0.00     0.023 C 
BRANCH  26  27
ATOM     27  C   UNL     1       5.966   2.911   0.355  1.00  0.00     0.116 C 
BRANCH  27  28
ATOM     28  N   UNL     1       6.963   1.930   0.759  1.00  0.00    -0.352 N 
ATOM     29  C   UNL     1       8.316   2.097   0.931  1.00  0.00     0.251 C 
ATOM     30  H   UNL     1       6.622   1.023   0.932  1.00  0.00     0.163 HD
ATOM     31  O   UNL     1       9.038   1.131   1.153  1.00  0.00    -0.269 OA
BRANCH  29  32
ATOM     32  C   UNL     1       8.903   3.448   0.815  1.00  0.00     0.039 A 
ATOM     33  C   UNL     1      10.044   3.623   0.029  1.00  0.00     0.014 A 
ATOM     34  C   UNL     1       8.315   4.539   1.460  1.00  0.00     0.014 A 
ATOM     35  C   UNL     1      10.558   4.907  -0.164  1.00  0.00     0.010 A 
ATOM     36  C   UNL     1       8.781   5.824   1.205  1.00  0.00     0.010 A 
ATOM     37  C   UNL     1       9.909   6.021   0.393  1.00  0.00    -0.014 A 
BRANCH  37  38
ATOM     38  C   UNL     1      10.397   7.402   0.149  1.00  0.00     0.031 A 
ATOM     39  C   UNL     1      10.890   8.238   1.296  1.00  0.00     0.074 A 
ATOM     40  C   UNL     1      10.329   7.927  -1.090  1.00  0.00     0.049 A 
ATOM     41  N   UNL     1      11.271   9.490   1.307  1.00  0.00    -0.248 NA
ATOM     42  C   UNL     1      10.931   7.587   2.615  1.00  0.00     0.031 C 
ATOM     43  C   UNL     1       9.830   7.232  -2.277  1.00  0.00     0.029 A 
ATOM     44  N   UNL     1      10.669   9.174  -1.553  1.00  0.00    -0.354 N 
ATOM     45  C   UNL     1      11.579   9.779   2.630  1.00  0.00     0.074 A 
ATOM     46  C   UNL     1      11.288   8.591   3.402  1.00  0.00     0.031 C 
ATOM     47  C   UNL     1       9.913   8.055  -3.335  1.00  0.00     0.029 A 
ATOM     48  C   UNL     1      10.432   9.346  -2.895  1.00  0.00     0.049 A 
ATOM     49  H   UNL     1      11.047   9.878  -0.978  1.00  0.00     0.167 HD
ATOM     50  C   UNL     1      12.083  10.924   3.150  1.00  0.00     0.037 A 
ATOM     51  C   UNL     1      10.603  10.428  -3.678  1.00  0.00     0.037 A 
ATOM     52  C   UNL     1      12.394  12.095   2.374  1.00  0.00     0.049 A 
ATOM     53  C   UNL     1      11.153  11.693  -3.074  1.00  0.00     0.074 A 
ATOM     54  C   UNL     1      12.962  13.284   2.796  1.00  0.00     0.029 A 
ATOM     55  N   UNL     1      12.157  12.226   1.013  1.00  0.00    -0.354 N 
ATOM     56  N   UNL     1      11.505  11.934  -1.834  1.00  0.00    -0.248 NA
ATOM     57  C   UNL     1      11.334  12.835  -3.980  1.00  0.00     0.031 C 
ATOM     58  C   UNL     1      13.022  14.153   1.701  1.00  0.00     0.029 A 
ATOM     59  C   UNL     1      12.546  13.486   0.584  1.00  0.00     0.049 A 
ATOM     60  H   UNL     1      11.770  11.528   0.437  1.00  0.00     0.167 HD
ATOM     61  C   UNL     1      11.978  13.239  -1.818  1.00  0.00     0.074 A 
ATOM     62  C   UNL     1      11.880  13.735  -3.175  1.00  0.00     0.031 C 
ATOM     63  C   UNL     1      12.451  13.962  -0.773  1.00  0.00     0.037 A 
BRANCH  50  64
ATOM     64  C   UNL     1      12.329  10.963   4.631  1.00  0.00     0.064 A 
ATOM     65  C   UNL     1      13.339  10.196   5.231  1.00  0.00     0.173 A 
ATOM     66  C   UNL     1      11.565  11.801   5.458  1.00  0.00     0.173 A 
ATOM     67  F   UNL     1      14.092   9.370   4.489  1.00  0.00    -0.203 F 
ATOM     68  C   UNL     1      13.552  10.239   6.607  1.00  0.00     0.198 A 
ATOM     69  C   UNL     1      11.803  11.867   6.828  1.00  0.00     0.198 A 
ATOM     70  F   UNL     1      10.590  12.560   4.936  1.00  0.00    -0.203 F 
ATOM     71  F   UNL     1      14.485   9.455   7.164  1.00  0.00    -0.200 F 
ATOM     72  C   UNL     1      12.789  11.080   7.403  1.00  0.00     0.200 A 
ATOM     73  F   UNL     1      11.074  12.691   7.594  1.00  0.00    -0.200 F 
ATOM     74  F   UNL     1      12.999  11.125   8.726  1.00  0.00    -0.200 F 
ENDBRANCH  50  64
BRANCH  51  75
ATOM     75  C   UNL     1      10.272  10.358  -5.126  1.00  0.00     0.064 A 
ATOM     76  C   UNL     1      11.281  10.405  -6.098  1.00  0.00     0.173 A 
ATOM     77  C   UNL     1       8.946  10.249  -5.568  1.00  0.00     0.173 A 
ATOM     78  F   UNL     1      12.563  10.530  -5.725  1.00  0.00    -0.203 F 
ATOM     79  C   UNL     1      10.975  10.369  -7.457  1.00  0.00     0.198 A 
ATOM     80  C   UNL     1       8.643  10.182  -6.927  1.00  0.00     0.198 A 
ATOM     81  F   UNL     1       7.943  10.196  -4.679  1.00  0.00    -0.203 F 
ATOM     82  F   UNL     1      11.956  10.465  -8.364  1.00  0.00    -0.200 F 
ATOM     83  C   UNL     1       9.657  10.251  -7.870  1.00  0.00     0.200 A 
ATOM     84  F   UNL     1       7.369  10.054  -7.322  1.00  0.00    -0.200 F 
ATOM     85  F   UNL     1       9.364  10.213  -9.177  1.00  0.00    -0.200 F 
ENDBRANCH  51  75
BRANCH  63  86
ATOM     86  C   UNL     1      12.939  15.353  -1.060  1.00  0.00     0.064 A 
ATOM     87  C   UNL     1      12.057  16.395  -1.377  1.00  0.00     0.173 A 
ATOM     88  C   UNL     1      14.308  15.654  -0.973  1.00  0.00     0.173 A 
ATOM     89  F   UNL     1      10.741  16.156  -1.487  1.00  0.00    -0.203 F 
ATOM     90  C   UNL     1      12.529  17.682  -1.623  1.00  0.00     0.198 A 
ATOM     91  C   UNL     1      14.772  16.948  -1.187  1.00  0.00     0.198 A 
ATOM     92  F   UNL     1      15.194  14.695  -0.666  1.00  0.00    -0.203 F 
ATOM     93  F   UNL     1      11.672  18.652  -1.973  1.00  0.00    -0.200 F 
ATOM     94  C   UNL     1      13.884  17.959  -1.520  1.00  0.00     0.200 A 
ATOM     95  F   UNL     1      16.080  17.217  -1.071  1.00  0.00    -0.200 F 
ATOM     96  F   UNL     1      14.334  19.201  -1.747  1.00  0.00    -0.200 F 
ENDBRANCH  63  86
ENDBRANCH  37  38
ENDBRANCH  29  32
ENDBRANCH  27  28
ENDBRANCH  26  27
ENDBRANCH  25  26
ENDBRANCH   1  25
TORSDOF 15
