REMARK SMILES C[C@H]1CC[C@@]2(CO)C(C(=O)NCCCCNC(=O)c3ccc(-c4c5nc(c(-c6c(F)c(F)c(F)c(F)c6F)c6ccc([nH]6)c(-c6c(F)c(F)c(F)c(F)c6F)c6nc(c(-c7c(F)c(F)c(F)c(F)c7F)c7ccc4[nH]7)C=C6)C=C5)cc3)=C[C@@H](O)C[C@@H]2[C@@]1(C)CCc1ccoc1
REMARK SMILES IDX 13 1 12 2 11 3 9 4 10 5 8 7 1 8 2 9 3 10 87 11 4 12 86 13
REMARK SMILES IDX 88 14 5 15 85 16 83 17 82 18 89 19 90 20 91 21 92 22 95 23
REMARK SMILES IDX 93 24 94 25 6 26 7 27 84 29 14 31 15 32 16 33 17 34 18 36
REMARK SMILES IDX 19 37 20 38 81 39 21 40 80 41 22 42 23 43 24 44 74 45 25 46
REMARK SMILES IDX 79 47 73 48 75 49 26 50 78 51 72 52 71 53 27 55 59 56 39 57
REMARK SMILES IDX 58 58 40 59 43 60 57 61 76 62 41 63 42 64 56 66 77 67 44 68
REMARK SMILES IDX 28 69 29 70 37 71 30 72 31 73 35 74 38 75 32 76 33 77 36 78
REMARK SMILES IDX 34 79 60 80 61 81 69 82 62 83 63 84 67 85 70 86 64 87 65 88
REMARK SMILES IDX 68 89 66 90 45 91 46 92 54 93 47 94 48 95 52 96 55 97 49 98
REMARK SMILES IDX 50 99 53 100 51 101
REMARK H PARENT 11 6 7 28 84 30 16 35 75 54 43 65
REMARK Flexibility Score: inf
ROOT
ATOM      1  C   UNL     1       3.029   2.850  -2.868  1.00  0.00     0.023 C 
ENDROOT
BRANCH   1   2
ATOM      2  C   UNL     1       2.039   1.950  -2.125  1.00  0.00     0.116 C 
BRANCH   2   3
ATOM      3  N   UNL     1       2.247   0.557  -2.504  1.00  0.00    -0.352 N 
ATOM      4  C   UNL     1       2.991  -0.413  -1.881  1.00  0.00     0.247 C 
ATOM      5  O   UNL     1       3.165  -1.509  -2.400  1.00  0.00    -0.270 OA
ATOM      6  H   UNL     1       1.786   0.271  -3.325  1.00  0.00     0.163 HD
BRANCH   4   7
ATOM      7  C   UNL     1       3.489  -0.109  -0.515  1.00  0.00     0.024 C 
ATOM      8  C   UNL     1      -0.644  -0.197   0.582  1.00  0.00     0.008 C 
ATOM      9  C   UNL     1       0.076  -0.803   1.807  1.00  0.00    -0.008 C 
ATOM     10  C   UNL     1       0.768  -2.105   1.399  1.00  0.00     0.005 C 
ATOM     11  C   UNL     1       1.049   0.189   2.525  1.00  0.00    -0.026 C 
ATOM     12  C   UNL     1       1.825  -1.863   0.339  1.00  0.00     0.015 C 
ATOM     13  C   UNL     1       2.223   0.481   1.484  1.00  0.00     0.011 C 
ATOM     14  C   UNL     1       1.635  -0.438   3.818  1.00  0.00     0.012 C 
ATOM     15  C   UNL     1       2.856  -0.766   0.718  1.00  0.00     0.027 C 
ATOM     16  C   UNL     1       3.344   1.471   1.931  1.00  0.00     0.041 C 
ATOM     17  C   UNL     1       4.500   1.664   0.896  1.00  0.00     0.138 C 
ATOM     18  C   UNL     1       4.351   0.916  -0.392  1.00  0.00     0.014 C 
BRANCH  11  19
ATOM     19  C   UNL     1       0.336   1.534   3.004  1.00  0.00     0.012 C 
BRANCH  19  20
ATOM     20  C   UNL     1      -1.191   1.766   3.192  1.00  0.00     0.039 C 
BRANCH  20  21
ATOM     21  C   UNL     1      -2.155   0.640   3.352  1.00  0.00    -0.010 A 
ATOM     22  C   UNL     1      -3.233   0.329   2.461  1.00  0.00     0.045 A 
ATOM     23  C   UNL     1      -2.239  -0.310   4.350  1.00  0.00     0.198 A 
ATOM     24  C   UNL     1      -3.799  -0.838   2.913  1.00  0.00     0.195 A 
ATOM     25  O   UNL     1      -3.210  -1.221   4.072  1.00  0.00    -0.472 OA
ENDBRANCH  20  21
ENDBRANCH  19  20
ENDBRANCH  11  19
BRANCH  15  26
ATOM     26  C   UNL     1       4.046  -1.480   1.464  1.00  0.00     0.168 C 
BRANCH  26  27
ATOM     27  O   UNL     1       3.645  -2.513   2.354  1.00  0.00    -0.395 OA
ATOM     28  H   UNL     1       3.095  -2.137   3.059  1.00  0.00     0.210 HD
ENDBRANCH  26  27
ENDBRANCH  15  26
BRANCH  17  29
ATOM     29  O   UNL     1       4.538   3.047   0.539  1.00  0.00    -0.389 OA
ATOM     30  H   UNL     1       3.704   3.293   0.108  1.00  0.00     0.211 HD
ENDBRANCH  17  29
ENDBRANCH   4   7
ENDBRANCH   2   3
ENDBRANCH   1   2
BRANCH   1  31
ATOM     31  C   UNL     1       2.368   3.635  -3.994  1.00  0.00     0.023 C 
BRANCH  31  32
ATOM     32  C   UNL     1       1.477   4.764  -3.496  1.00  0.00     0.116 C 
BRANCH  32  33
ATOM     33  N   UNL     1       2.223   5.845  -2.859  1.00  0.00    -0.352 N 
ATOM     34  C   UNL     1       2.094   7.202  -3.054  1.00  0.00     0.251 C 
ATOM     35  H   UNL     1       2.907   5.568  -2.206  1.00  0.00     0.163 HD
ATOM     36  O   UNL     1       2.848   7.998  -2.539  1.00  0.00    -0.269 OA
BRANCH  34  37
ATOM     37  C   UNL     1       1.017   7.660  -3.959  1.00  0.00     0.039 A 
ATOM     38  C   UNL     1       1.355   8.418  -5.081  1.00  0.00     0.014 A 
ATOM     39  C   UNL     1      -0.292   7.221  -3.751  1.00  0.00     0.014 A 
ATOM     40  C   UNL     1       0.383   8.665  -6.050  1.00  0.00     0.010 A 
ATOM     41  C   UNL     1      -1.232   7.395  -4.757  1.00  0.00     0.010 A 
ATOM     42  C   UNL     1      -0.902   8.114  -5.918  1.00  0.00    -0.014 A 
BRANCH  42  43
ATOM     43  C   UNL     1      -1.925   8.276  -6.979  1.00  0.00     0.031 A 
ATOM     44  C   UNL     1      -3.192   9.024  -6.682  1.00  0.00     0.074 A 
ATOM     45  C   UNL     1      -1.748   7.684  -8.176  1.00  0.00     0.049 A 
ATOM     46  N   UNL     1      -4.242   9.209  -7.439  1.00  0.00    -0.248 NA
ATOM     47  C   UNL     1      -3.308   9.608  -5.337  1.00  0.00     0.031 C 
ATOM     48  C   UNL     1      -0.587   6.882  -8.563  1.00  0.00     0.029 A 
ATOM     49  N   UNL     1      -2.552   7.661  -9.288  1.00  0.00    -0.354 N 
ATOM     50  C   UNL     1      -5.148   9.911  -6.655  1.00  0.00     0.074 A 
ATOM     51  C   UNL     1      -4.552  10.058  -5.345  1.00  0.00     0.031 C 
ATOM     52  C   UNL     1      -0.736   6.477  -9.835  1.00  0.00     0.029 A 
ATOM     53  C   UNL     1      -2.016   6.962 -10.341  1.00  0.00     0.049 A 
ATOM     54  H   UNL     1      -3.430   8.105  -9.327  1.00  0.00     0.167 HD
ATOM     55  C   UNL     1      -6.354  10.416  -7.005  1.00  0.00     0.037 A 
ATOM     56  C   UNL     1      -2.504   6.745 -11.577  1.00  0.00     0.037 A 
ATOM     57  C   UNL     1      -6.926  10.296  -8.319  1.00  0.00     0.049 A 
ATOM     58  C   UNL     1      -3.843   7.322 -11.947  1.00  0.00     0.074 A 
ATOM     59  C   UNL     1      -8.111  10.824  -8.798  1.00  0.00     0.029 A 
ATOM     60  N   UNL     1      -6.344   9.598  -9.367  1.00  0.00    -0.354 N 
ATOM     61  N   UNL     1      -4.662   8.044 -11.221  1.00  0.00    -0.248 NA
ATOM     62  C   UNL     1      -4.323   7.059 -13.311  1.00  0.00     0.031 C 
ATOM     63  C   UNL     1      -8.263  10.415 -10.128  1.00  0.00     0.029 A 
ATOM     64  C   UNL     1      -7.153   9.668 -10.489  1.00  0.00     0.049 A 
ATOM     65  H   UNL     1      -5.483   9.123  -9.321  1.00  0.00     0.167 HD
ATOM     66  C   UNL     1      -5.739   8.344 -12.044  1.00  0.00     0.074 A 
ATOM     67  C   UNL     1      -5.463   7.735 -13.329  1.00  0.00     0.031 C 
ATOM     68  C   UNL     1      -6.854   9.061 -11.761  1.00  0.00     0.037 A 
BRANCH  55  69
ATOM     69  C   UNL     1      -7.121  11.149  -5.943  1.00  0.00     0.064 A 
ATOM     70  C   UNL     1      -6.684  12.386  -5.443  1.00  0.00     0.173 A 
ATOM     71  C   UNL     1      -8.297  10.604  -5.407  1.00  0.00     0.173 A 
ATOM     72  F   UNL     1      -5.556  12.942  -5.911  1.00  0.00    -0.203 F 
ATOM     73  C   UNL     1      -7.368  13.027  -4.415  1.00  0.00     0.198 A 
ATOM     74  C   UNL     1      -8.998  11.265  -4.401  1.00  0.00     0.198 A 
ATOM     75  F   UNL     1      -8.762   9.427  -5.851  1.00  0.00    -0.203 F 
ATOM     76  F   UNL     1      -6.891  14.171  -3.906  1.00  0.00    -0.200 F 
ATOM     77  C   UNL     1      -8.527  12.468  -3.897  1.00  0.00     0.200 A 
ATOM     78  F   UNL     1     -10.123  10.729  -3.908  1.00  0.00    -0.200 F 
ATOM     79  F   UNL     1      -9.181  13.083  -2.903  1.00  0.00    -0.200 F 
ENDBRANCH  55  69
BRANCH  56  80
ATOM     80  C   UNL     1      -1.696   5.993 -12.572  1.00  0.00     0.064 A 
ATOM     81  C   UNL     1      -1.103   6.657 -13.655  1.00  0.00     0.173 A 
ATOM     82  C   UNL     1      -1.490   4.611 -12.461  1.00  0.00     0.173 A 
ATOM     83  F   UNL     1      -1.288   7.976 -13.812  1.00  0.00    -0.203 F 
ATOM     84  C   UNL     1      -0.344   5.965 -14.596  1.00  0.00     0.198 A 
ATOM     85  C   UNL     1      -0.713   3.923 -13.391  1.00  0.00     0.198 A 
ATOM     86  F   UNL     1      -2.033   3.931 -11.440  1.00  0.00    -0.203 F 
ATOM     87  F   UNL     1       0.183   6.619 -15.640  1.00  0.00    -0.200 F 
ATOM     88  C   UNL     1      -0.145   4.600 -14.461  1.00  0.00     0.200 A 
ATOM     89  F   UNL     1      -0.512   2.606 -13.250  1.00  0.00    -0.200 F 
ATOM     90  F   UNL     1       0.589   3.935 -15.363  1.00  0.00    -0.200 F 
ENDBRANCH  56  80
BRANCH  68  91
ATOM     91  C   UNL     1      -7.845   9.253 -12.871  1.00  0.00     0.064 A 
ATOM     92  C   UNL     1      -8.673   8.209 -13.305  1.00  0.00     0.173 A 
ATOM     93  C   UNL     1      -7.998  10.511 -13.473  1.00  0.00     0.173 A 
ATOM     94  F   UNL     1      -8.552   6.985 -12.770  1.00  0.00    -0.203 F 
ATOM     95  C   UNL     1      -9.608   8.413 -14.316  1.00  0.00     0.198 A 
ATOM     96  C   UNL     1      -8.952  10.718 -14.465  1.00  0.00     0.198 A 
ATOM     97  F   UNL     1      -7.232  11.543 -13.089  1.00  0.00    -0.203 F 
ATOM     98  F   UNL     1     -10.362   7.391 -14.744  1.00  0.00    -0.200 F 
ATOM     99  C   UNL     1      -9.752   9.668 -14.889  1.00  0.00     0.200 A 
ATOM    100  F   UNL     1      -9.098  11.934 -15.010  1.00  0.00    -0.200 F 
ATOM    101  F   UNL     1     -10.658   9.864 -15.857  1.00  0.00    -0.200 F 
ENDBRANCH  68  91
ENDBRANCH  42  43
ENDBRANCH  34  37
ENDBRANCH  32  33
ENDBRANCH  31  32
ENDBRANCH   1  31
TORSDOF 17
