REMARK SMILES CC(=O)Nc1c(C)nn([C@H](C)C(=O)NCCCCNC(=O)c2ccc(-c3c4nc(c(-c5c(F)c(F)c(F)c(F)c5F)c5ccc([nH]5)c(-c5c(F)c(F)c(F)c(F)c5F)c5nc(c(-c6c(F)c(F)c(F)c(F)c6F)c6ccc3[nH]6)C=C5)C=C4)cc2)c1C
REMARK SMILES IDX 16 1 15 2 14 3 12 4 13 5 10 7 11 8 9 9 5 10 6 11 85 12 7 13
REMARK SMILES IDX 8 14 86 15 4 16 1 17 2 18 3 19 17 21 18 22 19 23 20 24 21 26
REMARK SMILES IDX 22 27 23 28 84 29 24 30 83 31 25 32 26 33 27 34 77 35 28 36
REMARK SMILES IDX 82 37 76 38 78 39 29 40 81 41 75 42 74 43 30 45 62 46 42 47
REMARK SMILES IDX 61 48 43 49 46 50 60 51 79 52 44 53 45 54 59 56 80 57 47 58
REMARK SMILES IDX 31 59 32 60 40 61 33 62 34 63 38 64 41 65 35 66 36 67 39 68
REMARK SMILES IDX 37 69 63 70 64 71 72 72 65 73 66 74 70 75 73 76 67 77 68 78
REMARK SMILES IDX 71 79 69 80 48 81 49 82 57 83 50 84 51 85 55 86 58 87 52 88
REMARK SMILES IDX 53 89 56 90 54 91
REMARK H PARENT 14 6 4 20 19 25 78 44 46 55
REMARK Flexibility Score: inf
ROOT
ATOM      1  C   UNL     1       1.998  -2.352   6.055  1.00  0.00     0.023 C 
ENDROOT
BRANCH   1   2
ATOM      2  C   UNL     1       3.489  -2.319   5.725  1.00  0.00     0.116 C 
BRANCH   2   3
ATOM      3  N   UNL     1       3.796  -3.010   4.487  1.00  0.00    -0.354 N 
ATOM      4  C   UNL     1       4.278  -2.527   3.307  1.00  0.00     0.244 C 
ATOM      5  O   UNL     1       4.488  -3.357   2.414  1.00  0.00    -0.273 OA
ATOM      6  H   UNL     1       3.629  -3.980   4.500  1.00  0.00     0.163 HD
BRANCH   4   7
ATOM      7  C   UNL     1       4.554  -1.049   3.056  1.00  0.00     0.193 C 
ATOM      8  C   UNL     1       3.330  -0.147   3.208  1.00  0.00     0.044 C 
BRANCH   7   9
ATOM      9  N   UNL     1       5.762  -0.610   3.750  1.00  0.00    -0.255 N 
ATOM     10  C   UNL     1       7.833  -0.090   4.271  1.00  0.00     0.085 A 
ATOM     11  C   UNL     1       6.954   0.095   5.364  1.00  0.00     0.083 A 
ATOM     12  C   UNL     1       7.059  -0.677   3.288  1.00  0.00     0.060 A 
ATOM     13  C   UNL     1       7.252   0.539   6.748  1.00  0.00     0.071 C 
ATOM     14  N   UNL     1       5.686  -0.129   5.007  1.00  0.00    -0.175 NA
ATOM     15  C   UNL     1       7.426  -1.402   2.040  1.00  0.00     0.069 C 
BRANCH  10  16
ATOM     16  N   UNL     1       9.193   0.133   4.248  1.00  0.00    -0.323 N 
ATOM     17  C   UNL     1       9.197   1.391   2.110  1.00  0.00     0.114 C 
ATOM     18  C   UNL     1       9.923   0.676   3.225  1.00  0.00     0.221 C 
ATOM     19  O   UNL     1      11.154   0.660   3.276  1.00  0.00    -0.275 OA
ATOM     20  H   UNL     1       9.694  -0.128   5.054  1.00  0.00     0.170 HD
ENDBRANCH  10  16
ENDBRANCH   7   9
ENDBRANCH   4   7
ENDBRANCH   2   3
ENDBRANCH   1   2
BRANCH   1  21
ATOM     21  C   UNL     1       1.427  -3.728   6.412  1.00  0.00     0.023 C 
BRANCH  21  22
ATOM     22  C   UNL     1       2.103  -4.406   7.596  1.00  0.00     0.116 C 
BRANCH  22  23
ATOM     23  N   UNL     1       2.000  -3.638   8.835  1.00  0.00    -0.352 N 
ATOM     24  C   UNL     1       2.540  -3.948  10.072  1.00  0.00     0.251 C 
ATOM     25  H   UNL     1       1.486  -2.801   8.785  1.00  0.00     0.163 HD
ATOM     26  O   UNL     1       2.085  -3.475  11.099  1.00  0.00    -0.269 OA
BRANCH  24  27
ATOM     27  C   UNL     1       3.701  -4.856  10.120  1.00  0.00     0.039 A 
ATOM     28  C   UNL     1       3.821  -5.843  11.101  1.00  0.00     0.014 A 
ATOM     29  C   UNL     1       4.674  -4.708   9.134  1.00  0.00     0.014 A 
ATOM     30  C   UNL     1       4.896  -6.727  11.031  1.00  0.00     0.010 A 
ATOM     31  C   UNL     1       5.635  -5.669   8.971  1.00  0.00     0.010 A 
ATOM     32  C   UNL     1       5.789  -6.641   9.949  1.00  0.00    -0.014 A 
BRANCH  32  33
ATOM     33  C   UNL     1       6.829  -7.639   9.745  1.00  0.00     0.031 A 
ATOM     34  C   UNL     1       6.312  -9.025   9.606  1.00  0.00     0.074 A 
ATOM     35  C   UNL     1       8.115  -7.316   9.484  1.00  0.00     0.049 A 
ATOM     36  N   UNL     1       6.454  -9.993  10.446  1.00  0.00    -0.248 NA
ATOM     37  C   UNL     1       5.405  -9.336   8.489  1.00  0.00     0.031 C 
ATOM     38  C   UNL     1       8.698  -5.987   9.271  1.00  0.00     0.029 A 
ATOM     39  N   UNL     1       9.175  -8.139   9.259  1.00  0.00    -0.354 N 
ATOM     40  C   UNL     1       5.829 -11.097   9.875  1.00  0.00     0.074 A 
ATOM     41  C   UNL     1       5.047 -10.591   8.778  1.00  0.00     0.031 C 
ATOM     42  C   UNL     1       9.932  -6.111   8.731  1.00  0.00     0.029 A 
ATOM     43  C   UNL     1      10.293  -7.516   8.711  1.00  0.00     0.049 A 
ATOM     44  H   UNL     1       9.153  -9.101   9.467  1.00  0.00     0.167 HD
ATOM     45  C   UNL     1       6.215 -12.360  10.212  1.00  0.00     0.037 A 
ATOM     46  C   UNL     1      11.418  -8.126   8.256  1.00  0.00     0.037 A 
ATOM     47  C   UNL     1       7.037 -12.338  11.399  1.00  0.00     0.049 A 
ATOM     48  C   UNL     1      11.454  -9.483   8.859  1.00  0.00     0.074 A 
ATOM     49  C   UNL     1       6.845 -11.934  12.706  1.00  0.00     0.029 A 
ATOM     50  N   UNL     1       8.398 -12.404  11.222  1.00  0.00    -0.354 N 
ATOM     51  N   UNL     1      11.646  -9.702  10.130  1.00  0.00    -0.248 NA
ATOM     52  C   UNL     1      10.797 -10.557   8.131  1.00  0.00     0.031 C 
ATOM     53  C   UNL     1       8.074 -11.318  13.085  1.00  0.00     0.029 A 
ATOM     54  C   UNL     1       8.974 -11.458  12.027  1.00  0.00     0.049 A 
ATOM     55  H   UNL     1       8.874 -13.023  10.623  1.00  0.00     0.167 HD
ATOM     56  C   UNL     1      10.743 -10.703  10.449  1.00  0.00     0.074 A 
ATOM     57  C   UNL     1      10.308 -11.249   9.164  1.00  0.00     0.031 C 
ATOM     58  C   UNL     1      10.209 -10.785  11.703  1.00  0.00     0.037 A 
BRANCH  45  59
ATOM     59  C   UNL     1       6.205 -13.554   9.288  1.00  0.00     0.064 A 
ATOM     60  C   UNL     1       6.556 -14.817   9.811  1.00  0.00     0.173 A 
ATOM     61  C   UNL     1       6.180 -13.468   7.880  1.00  0.00     0.173 A 
ATOM     62  F   UNL     1       6.618 -15.015  11.137  1.00  0.00    -0.203 F 
ATOM     63  C   UNL     1       6.952 -15.875   8.989  1.00  0.00     0.198 A 
ATOM     64  C   UNL     1       6.524 -14.543   7.062  1.00  0.00     0.198 A 
ATOM     65  F   UNL     1       5.938 -12.321   7.237  1.00  0.00    -0.203 F 
ATOM     66  F   UNL     1       7.412 -17.007   9.538  1.00  0.00    -0.200 F 
ATOM     67  C   UNL     1       6.944 -15.734   7.615  1.00  0.00     0.200 A 
ATOM     68  F   UNL     1       6.526 -14.382   5.731  1.00  0.00    -0.200 F 
ATOM     69  F   UNL     1       7.387 -16.721   6.826  1.00  0.00    -0.200 F 
ENDBRANCH  45  59
BRANCH  46  70
ATOM     70  C   UNL     1      12.308  -7.749   7.131  1.00  0.00     0.064 A 
ATOM     71  C   UNL     1      13.579  -8.332   6.984  1.00  0.00     0.173 A 
ATOM     72  C   UNL     1      11.814  -7.044   6.017  1.00  0.00     0.173 A 
ATOM     73  F   UNL     1      14.108  -9.057   7.981  1.00  0.00    -0.203 F 
ATOM     74  C   UNL     1      14.295  -8.248   5.784  1.00  0.00     0.198 A 
ATOM     75  C   UNL     1      12.530  -6.958   4.820  1.00  0.00     0.198 A 
ATOM     76  F   UNL     1      10.584  -6.513   6.032  1.00  0.00    -0.203 F 
ATOM     77  F   UNL     1      15.472  -8.878   5.660  1.00  0.00    -0.200 F 
ATOM     78  C   UNL     1      13.763  -7.573   4.698  1.00  0.00     0.200 A 
ATOM     79  F   UNL     1      11.987  -6.336   3.764  1.00  0.00    -0.200 F 
ATOM     80  F   UNL     1      14.413  -7.553   3.526  1.00  0.00    -0.200 F 
ENDBRANCH  46  70
BRANCH  58  81
ATOM     81  C   UNL     1      10.835  -9.953  12.789  1.00  0.00     0.064 A 
ATOM     82  C   UNL     1      10.894  -8.548  12.787  1.00  0.00     0.173 A 
ATOM     83  C   UNL     1      11.277 -10.612  13.944  1.00  0.00     0.173 A 
ATOM     84  F   UNL     1      10.400  -7.835  11.768  1.00  0.00    -0.203 F 
ATOM     85  C   UNL     1      11.419  -7.845  13.871  1.00  0.00     0.198 A 
ATOM     86  C   UNL     1      11.761  -9.907  15.041  1.00  0.00     0.198 A 
ATOM     87  F   UNL     1      11.194 -11.950  14.027  1.00  0.00    -0.203 F 
ATOM     88  F   UNL     1      11.482  -6.505  13.837  1.00  0.00    -0.200 F 
ATOM     89  C   UNL     1      11.845  -8.525  15.000  1.00  0.00     0.200 A 
ATOM     90  F   UNL     1      12.123 -10.568  16.149  1.00  0.00    -0.200 F 
ATOM     91  F   UNL     1      12.313  -7.848  16.058  1.00  0.00    -0.200 F 
ENDBRANCH  58  81
ENDBRANCH  32  33
ENDBRANCH  24  27
ENDBRANCH  22  23
ENDBRANCH  21  22
ENDBRANCH   1  21
TORSDOF 13
