REMARK SMILES CCNC(=O)NC(=O)[C@@H](C)[NH2+][C@](C)(CC)C(=O)NCCCCNC(=O)c1ccc(-c2c3nc(c(-c4c(F)c(F)c(F)c(F)c4F)c4ccc([nH]4)c(-c4c(F)c(F)c(F)c(F)c4F)c4nc(c(-c5c(F)c(F)c(F)c(F)c5F)c5ccc2[nH]5)C=C4)C=C3)cc1
REMARK SMILES IDX 19 1 18 2 16 3 17 4 12 6 13 7 11 8 9 11 10 12 7 13 3 14 4 15
REMARK SMILES IDX 5 17 6 18 8 20 2 21 1 22 14 23 15 24 20 25 21 26 22 27 23 28
REMARK SMILES IDX 24 29 25 31 26 32 27 33 88 34 28 35 87 36 29 37 30 38 31 39
REMARK SMILES IDX 81 40 32 41 86 42 80 43 82 44 33 45 85 46 79 47 78 48 34 50
REMARK SMILES IDX 66 51 46 52 65 53 47 54 50 55 64 56 83 57 48 58 49 59 63 61
REMARK SMILES IDX 84 62 51 63 35 64 36 65 44 66 37 67 38 68 42 69 45 70 39 71
REMARK SMILES IDX 40 72 43 73 41 74 67 75 68 76 76 77 69 78 70 79 74 80 77 81
REMARK SMILES IDX 71 82 72 83 75 84 73 85 52 86 53 87 61 88 54 89 55 90 59 91
REMARK SMILES IDX 62 92 56 93 57 94 60 95 58 96
REMARK H PARENT 18 5 11 9 11 10 3 16 6 19 23 30 82 49 50 60
REMARK Flexibility Score: inf
ROOT
ATOM      1  C   UNL     1       2.462  -4.752  -1.355  1.00  0.00     0.116 C 
ENDROOT
BRANCH   1   2
ATOM      2  N   UNL     1       1.043  -4.445  -1.320  1.00  0.00    -0.351 N 
ATOM      3  C   UNL     1       0.328  -3.520  -0.605  1.00  0.00     0.281 C 
ATOM      4  O   UNL     1      -0.863  -3.415  -0.927  1.00  0.00    -0.268 OA
ATOM      5  H   UNL     1       0.495  -5.003  -1.918  1.00  0.00     0.163 HD
BRANCH   3   6
ATOM      6  C   UNL     1       0.941  -2.609   0.531  1.00  0.00     0.173 C 
ATOM      7  C   UNL     1      -0.222  -1.954   1.325  1.00  0.00     0.090 C 
BRANCH   6   8
ATOM      8  N   UNL     1       1.874  -1.630  -0.113  1.00  0.00    -0.324 N 
ATOM      9  H   UNL     1       2.715  -1.602   0.463  1.00  0.00     0.347 HD
ATOM     10  H   UNL     1       1.971  -1.987  -1.064  1.00  0.00     0.347 HD
BRANCH   8  11
ATOM     11  C   UNL     1       1.445  -0.227  -0.315  1.00  0.00     0.270 C 
ATOM     12  C   UNL     1       0.193   0.101  -1.144  1.00  0.00     0.086 C 
BRANCH  11  13
ATOM     13  C   UNL     1       2.614   0.622  -0.873  1.00  0.00     0.285 C 
ATOM     14  N   UNL     1       3.165  -1.701  -3.109  1.00  0.00    -0.338 N 
ATOM     15  C   UNL     1       4.015  -1.051  -2.285  1.00  0.00     0.321 C 
ATOM     16  H   UNL     1       3.533  -2.496  -3.558  1.00  0.00     0.165 HD
ATOM     17  O   UNL     1       5.178  -1.449  -2.205  1.00  0.00    -0.248 OA
ATOM     18  N   UNL     1       3.650   0.098  -1.631  1.00  0.00    -0.273 N 
ATOM     19  H   UNL     1       4.358   0.774  -1.735  1.00  0.00     0.175 HD
ATOM     20  O   UNL     1       2.659   1.835  -0.629  1.00  0.00    -0.268 OA
BRANCH  14  21
ATOM     21  C   UNL     1       1.796  -1.388  -3.420  1.00  0.00     0.114 C 
ATOM     22  C   UNL     1       1.130  -2.248  -4.471  1.00  0.00     0.027 C 
ENDBRANCH  14  21
ENDBRANCH  11  13
ENDBRANCH   8  11
ENDBRANCH   6   8
BRANCH   6  23
ATOM     23  C   UNL     1       1.760  -3.416   1.585  1.00  0.00     0.075 C 
ATOM     24  C   UNL     1       1.091  -4.683   2.110  1.00  0.00     0.011 C 
ENDBRANCH   6  23
ENDBRANCH   3   6
ENDBRANCH   1   2
BRANCH   1  25
ATOM     25  C   UNL     1       2.808  -6.105  -1.991  1.00  0.00     0.023 C 
BRANCH  25  26
ATOM     26  C   UNL     1       2.425  -6.323  -3.455  1.00  0.00     0.023 C 
BRANCH  26  27
ATOM     27  C   UNL     1       2.963  -5.311  -4.456  1.00  0.00     0.116 C 
BRANCH  27  28
ATOM     28  N   UNL     1       4.398  -5.319  -4.659  1.00  0.00    -0.352 N 
ATOM     29  C   UNL     1       5.119  -5.427  -5.827  1.00  0.00     0.251 C 
ATOM     30  H   UNL     1       4.937  -5.234  -3.840  1.00  0.00     0.163 HD
ATOM     31  O   UNL     1       6.345  -5.356  -5.803  1.00  0.00    -0.269 OA
BRANCH  29  32
ATOM     32  C   UNL     1       4.437  -5.710  -7.110  1.00  0.00     0.039 A 
ATOM     33  C   UNL     1       4.876  -6.811  -7.851  1.00  0.00     0.014 A 
ATOM     34  C   UNL     1       3.368  -4.939  -7.575  1.00  0.00     0.014 A 
ATOM     35  C   UNL     1       4.179  -7.205  -8.995  1.00  0.00     0.010 A 
ATOM     36  C   UNL     1       2.632  -5.373  -8.681  1.00  0.00     0.010 A 
ATOM     37  C   UNL     1       3.016  -6.525  -9.388  1.00  0.00    -0.014 A 
BRANCH  37  38
ATOM     38  C   UNL     1       2.171  -7.034 -10.503  1.00  0.00     0.031 A 
ATOM     39  C   UNL     1       1.984  -6.220 -11.754  1.00  0.00     0.074 A 
ATOM     40  C   UNL     1       1.512  -8.202 -10.360  1.00  0.00     0.049 A 
ATOM     41  N   UNL     1       1.216  -6.457 -12.788  1.00  0.00    -0.248 NA
ATOM     42  C   UNL     1       2.744  -4.965 -11.847  1.00  0.00     0.031 C 
ATOM     43  C   UNL     1       1.576  -9.071  -9.183  1.00  0.00     0.029 A 
ATOM     44  N   UNL     1       0.644  -8.855 -11.203  1.00  0.00    -0.354 N 
ATOM     45  C   UNL     1       1.380  -5.372 -13.638  1.00  0.00     0.074 A 
ATOM     46  C   UNL     1       2.297  -4.461 -12.989  1.00  0.00     0.031 C 
ATOM     47  C   UNL     1       0.793 -10.145  -9.382  1.00  0.00     0.029 A 
ATOM     48  C   UNL     1       0.137 -10.022 -10.680  1.00  0.00     0.049 A 
ATOM     49  H   UNL     1       0.408  -8.519 -12.097  1.00  0.00     0.167 HD
ATOM     50  C   UNL     1       0.825  -5.163 -14.856  1.00  0.00     0.037 A 
ATOM     51  C   UNL     1      -0.768 -10.886 -11.180  1.00  0.00     0.037 A 
ATOM     52  C   UNL     1      -0.051  -6.092 -15.523  1.00  0.00     0.049 A 
ATOM     53  C   UNL     1      -1.369 -10.621 -12.536  1.00  0.00     0.074 A 
ATOM     54  C   UNL     1      -0.587  -6.005 -16.796  1.00  0.00     0.029 A 
ATOM     55  N   UNL     1      -0.522  -7.272 -14.970  1.00  0.00    -0.354 N 
ATOM     56  N   UNL     1      -1.139  -9.633 -13.365  1.00  0.00    -0.248 NA
ATOM     57  C   UNL     1      -2.356 -11.595 -13.027  1.00  0.00     0.031 C 
ATOM     58  C   UNL     1      -1.425  -7.106 -16.995  1.00  0.00     0.029 A 
ATOM     59  C   UNL     1      -1.367  -7.907 -15.867  1.00  0.00     0.049 A 
ATOM     60  H   UNL     1      -0.290  -7.610 -14.075  1.00  0.00     0.167 HD
ATOM     61  C   UNL     1      -1.919  -9.886 -14.486  1.00  0.00     0.074 A 
ATOM     62  C   UNL     1      -2.623 -11.125 -14.237  1.00  0.00     0.031 C 
ATOM     63  C   UNL     1      -2.041  -9.155 -15.620  1.00  0.00     0.037 A 
BRANCH  50  64
ATOM     64  C   UNL     1       1.139  -3.878 -15.563  1.00  0.00     0.064 A 
ATOM     65  C   UNL     1       2.398  -3.639 -16.133  1.00  0.00     0.173 A 
ATOM     66  C   UNL     1       0.139  -2.910 -15.746  1.00  0.00     0.173 A 
ATOM     67  F   UNL     1       3.389  -4.530 -15.981  1.00  0.00    -0.203 F 
ATOM     68  C   UNL     1       2.648  -2.470 -16.847  1.00  0.00     0.198 A 
ATOM     69  C   UNL     1       0.386  -1.756 -16.483  1.00  0.00     0.198 A 
ATOM     70  F   UNL     1      -1.084  -3.096 -15.228  1.00  0.00    -0.203 F 
ATOM     71  F   UNL     1       3.867  -2.247 -17.358  1.00  0.00    -0.200 F 
ATOM     72  C   UNL     1       1.640  -1.535 -17.030  1.00  0.00     0.200 A 
ATOM     73  F   UNL     1      -0.594  -0.861 -16.672  1.00  0.00    -0.200 F 
ATOM     74  F   UNL     1       1.879  -0.419 -17.734  1.00  0.00    -0.200 F 
ENDBRANCH  50  64
BRANCH  51  75
ATOM     75  C   UNL     1      -1.174 -12.088 -10.402  1.00  0.00     0.064 A 
ATOM     76  C   UNL     1      -0.855 -13.378 -10.849  1.00  0.00     0.173 A 
ATOM     77  C   UNL     1      -1.931 -11.975  -9.227  1.00  0.00     0.173 A 
ATOM     78  F   UNL     1      -0.153 -13.540 -11.981  1.00  0.00    -0.203 F 
ATOM     79  C   UNL     1      -1.306 -14.509 -10.170  1.00  0.00     0.198 A 
ATOM     80  C   UNL     1      -2.354 -13.106  -8.531  1.00  0.00     0.198 A 
ATOM     81  F   UNL     1      -2.263 -10.765  -8.754  1.00  0.00    -0.203 F 
ATOM     82  F   UNL     1      -1.040 -15.729 -10.656  1.00  0.00    -0.200 F 
ATOM     83  C   UNL     1      -2.052 -14.372  -9.010  1.00  0.00     0.200 A 
ATOM     84  F   UNL     1      -3.065 -12.969  -7.403  1.00  0.00    -0.200 F 
ATOM     85  F   UNL     1      -2.493 -15.459  -8.362  1.00  0.00    -0.200 F 
ENDBRANCH  51  75
BRANCH  63  86
ATOM     86  C   UNL     1      -2.924  -9.697 -16.705  1.00  0.00     0.064 A 
ATOM     87  C   UNL     1      -4.322  -9.696 -16.590  1.00  0.00     0.173 A 
ATOM     88  C   UNL     1      -2.364 -10.172 -17.901  1.00  0.00     0.173 A 
ATOM     89  F   UNL     1      -4.905  -9.267 -15.460  1.00  0.00    -0.203 F 
ATOM     90  C   UNL     1      -5.125 -10.169 -17.624  1.00  0.00     0.198 A 
ATOM     91  C   UNL     1      -3.170 -10.616 -18.945  1.00  0.00     0.198 A 
ATOM     92  F   UNL     1      -1.032 -10.188 -18.064  1.00  0.00    -0.203 F 
ATOM     93  F   UNL     1      -6.456 -10.197 -17.476  1.00  0.00    -0.200 F 
ATOM     94  C   UNL     1      -4.550 -10.619 -18.803  1.00  0.00     0.200 A 
ATOM     95  F   UNL     1      -2.613 -11.036 -20.088  1.00  0.00    -0.200 F 
ATOM     96  F   UNL     1      -5.325 -11.061 -19.803  1.00  0.00    -0.200 F 
ENDBRANCH  63  86
ENDBRANCH  37  38
ENDBRANCH  29  32
ENDBRANCH  27  28
ENDBRANCH  26  27
ENDBRANCH  25  26
ENDBRANCH   1  25
TORSDOF 16
