REMARK SMILES C[C@@H]1[C@@H](C(=O)NCCCCNC(=O)c2ccc(-c3c4nc(c(-c5c(F)c(F)c(F)c(F)c5F)c5ccc([nH]5)c(-c5c(F)c(F)c(F)c(F)c5F)c5nc(c(-c6c(F)c(F)c(F)c(F)c6F)c6ccc3[nH]6)C=C5)C=C4)cc2)CCN1C(=O)[C@]1([NH3+])CCOC1
REMARK SMILES IDX 8 1 7 2 6 3 4 4 5 5 3 7 1 8 2 9 79 10 77 11 78 12 80 13
REMARK SMILES IDX 81 14 82 15 84 16 87 17 85 18 86 19 83 20 9 24 10 25 11 26
REMARK SMILES IDX 12 27 13 29 14 30 15 31 76 32 16 33 75 34 17 35 18 36 19 37
REMARK SMILES IDX 69 38 20 39 74 40 68 41 70 42 21 43 73 44 67 45 66 46 22 48
REMARK SMILES IDX 54 49 34 50 53 51 35 52 38 53 52 54 71 55 36 56 37 57 51 59
REMARK SMILES IDX 72 60 39 61 23 62 24 63 32 64 25 65 26 66 30 67 33 68 27 69
REMARK SMILES IDX 28 70 31 71 29 72 55 73 56 74 64 75 57 76 58 77 62 78 65 79
REMARK SMILES IDX 59 80 60 81 63 82 61 83 40 84 41 85 49 86 42 87 43 88 47 89
REMARK SMILES IDX 50 90 44 91 45 92 48 93 46 94
REMARK H PARENT 6 6 83 21 83 22 83 23 11 28 70 47 38 58
REMARK Flexibility Score: inf
ROOT
ATOM      1  C   UNL     1       6.788  -9.897  -1.330  1.00  0.00     0.023 C 
ENDROOT
BRANCH   1   2
ATOM      2  C   UNL     1       5.511  -9.081  -1.479  1.00  0.00     0.116 C 
BRANCH   2   3
ATOM      3  N   UNL     1       5.417  -7.960  -0.562  1.00  0.00    -0.356 N 
ATOM      4  C   UNL     1       4.821  -6.743  -0.765  1.00  0.00     0.225 C 
ATOM      5  O   UNL     1       4.770  -5.955   0.176  1.00  0.00    -0.275 OA
ATOM      6  H   UNL     1       5.834  -8.091   0.320  1.00  0.00     0.163 HD
BRANCH   4   7
ATOM      7  C   UNL     1       4.309  -6.405  -2.160  1.00  0.00     0.102 C 
ATOM      8  C   UNL     1       3.883  -4.488  -3.702  1.00  0.00     0.032 C 
ATOM      9  C   UNL     1       3.692  -4.988  -2.262  1.00  0.00     0.094 C 
ATOM     10  N   UNL     1       2.268  -5.190  -1.943  1.00  0.00    -0.334 N 
ATOM     11  C   UNL     1       3.143  -7.295  -2.601  1.00  0.00     0.037 C 
ATOM     12  C   UNL     1       1.929  -6.603  -2.021  1.00  0.00     0.121 C 
BRANCH  10  13
ATOM     13  C   UNL     1       1.305  -4.353  -1.421  1.00  0.00     0.286 C 
ATOM     14  O   UNL     1       0.178  -4.831  -1.192  1.00  0.00    -0.267 OA
BRANCH  13  15
ATOM     15  C   UNL     1       1.525  -2.840  -1.065  1.00  0.00     0.199 C 
ATOM     16  C   UNL     1       1.884  -1.939  -2.228  1.00  0.00     0.110 C 
ATOM     17  C   UNL     1       2.631  -2.612  -0.038  1.00  0.00     0.239 C 
ATOM     18  C   UNL     1       3.318  -1.525  -1.990  1.00  0.00     0.167 C 
ATOM     19  O   UNL     1       3.655  -1.798  -0.633  1.00  0.00    -0.374 OA
BRANCH  15  20
ATOM     20  N   UNL     1       0.214  -2.342  -0.516  1.00  0.00    -0.343 N 
ATOM     21  H   UNL     1       0.302  -1.357  -0.267  1.00  0.00     0.345 HD
ATOM     22  H   UNL     1      -0.034  -2.882   0.313  1.00  0.00     0.345 HD
ATOM     23  H   UNL     1      -0.513  -2.450  -1.223  1.00  0.00     0.345 HD
ENDBRANCH  15  20
ENDBRANCH  13  15
ENDBRANCH  10  13
ENDBRANCH   4   7
ENDBRANCH   2   3
ENDBRANCH   1   2
BRANCH   1  24
ATOM     24  C   UNL     1       7.001 -10.540   0.039  1.00  0.00     0.023 C 
BRANCH  24  25
ATOM     25  C   UNL     1       5.819 -11.332   0.584  1.00  0.00     0.116 C 
BRANCH  25  26
ATOM     26  N   UNL     1       5.434 -12.448  -0.268  1.00  0.00    -0.352 N 
ATOM     27  C   UNL     1       5.400 -13.796   0.007  1.00  0.00     0.251 C 
ATOM     28  H   UNL     1       5.157 -12.201  -1.179  1.00  0.00     0.163 HD
ATOM     29  O   UNL     1       5.179 -14.601  -0.887  1.00  0.00    -0.269 OA
BRANCH  27  30
ATOM     30  C   UNL     1       5.665 -14.274   1.382  1.00  0.00     0.039 A 
ATOM     31  C   UNL     1       6.532 -15.354   1.568  1.00  0.00     0.014 A 
ATOM     32  C   UNL     1       5.076 -13.650   2.483  1.00  0.00     0.014 A 
ATOM     33  C   UNL     1       6.868 -15.756   2.863  1.00  0.00     0.010 A 
ATOM     34  C   UNL     1       5.486 -13.987   3.769  1.00  0.00     0.010 A 
ATOM     35  C   UNL     1       6.381 -15.048   3.974  1.00  0.00    -0.014 A 
BRANCH  35  36
ATOM     36  C   UNL     1       6.779 -15.409   5.360  1.00  0.00     0.031 A 
ATOM     37  C   UNL     1       5.736 -15.854   6.349  1.00  0.00     0.074 A 
ATOM     38  C   UNL     1       8.062 -15.274   5.748  1.00  0.00     0.049 A 
ATOM     39  N   UNL     1       5.865 -16.136   7.621  1.00  0.00    -0.248 NA
ATOM     40  C   UNL     1       4.357 -15.965   5.849  1.00  0.00     0.031 C 
ATOM     41  C   UNL     1       9.159 -14.808   4.900  1.00  0.00     0.029 A 
ATOM     42  N   UNL     1       8.659 -15.506   6.963  1.00  0.00    -0.354 N 
ATOM     43  C   UNL     1       4.587 -16.440   8.072  1.00  0.00     0.074 A 
ATOM     44  C   UNL     1       3.688 -16.244   6.956  1.00  0.00     0.031 C 
ATOM     45  C   UNL     1      10.299 -14.814   5.610  1.00  0.00     0.029 A 
ATOM     46  C   UNL     1      10.007 -15.243   6.974  1.00  0.00     0.049 A 
ATOM     47  H   UNL     1       8.167 -15.830   7.752  1.00  0.00     0.167 HD
ATOM     48  C   UNL     1       4.201 -16.872   9.296  1.00  0.00     0.037 A 
ATOM     49  C   UNL     1      10.905 -15.331   7.975  1.00  0.00     0.037 A 
ATOM     50  C   UNL     1       5.102 -17.086  10.398  1.00  0.00     0.049 A 
ATOM     51  C   UNL     1      10.448 -15.798   9.331  1.00  0.00     0.074 A 
ATOM     52  C   UNL     1       4.819 -17.569  11.663  1.00  0.00     0.029 A 
ATOM     53  N   UNL     1       6.464 -16.824  10.365  1.00  0.00    -0.354 N 
ATOM     54  N   UNL     1       9.248 -16.148   9.728  1.00  0.00    -0.248 NA
ATOM     55  C   UNL     1      11.475 -15.893  10.378  1.00  0.00     0.031 C 
ATOM     56  C   UNL     1       5.999 -17.549  12.413  1.00  0.00     0.029 A 
ATOM     57  C   UNL     1       7.031 -17.116  11.595  1.00  0.00     0.049 A 
ATOM     58  H   UNL     1       6.955 -16.482   9.583  1.00  0.00     0.167 HD
ATOM     59  C   UNL     1       9.382 -16.539  11.054  1.00  0.00     0.074 A 
ATOM     60  C   UNL     1      10.783 -16.393  11.391  1.00  0.00     0.031 C 
ATOM     61  C   UNL     1       8.431 -16.981  11.913  1.00  0.00     0.037 A 
BRANCH  48  62
ATOM     62  C   UNL     1       2.737 -17.140   9.505  1.00  0.00     0.064 A 
ATOM     63  C   UNL     1       2.080 -18.198   8.857  1.00  0.00     0.173 A 
ATOM     64  C   UNL     1       1.984 -16.343  10.382  1.00  0.00     0.173 A 
ATOM     65  F   UNL     1       2.749 -18.984   8.000  1.00  0.00    -0.203 F 
ATOM     66  C   UNL     1       0.719 -18.424   9.048  1.00  0.00     0.198 A 
ATOM     67  C   UNL     1       0.632 -16.595  10.599  1.00  0.00     0.198 A 
ATOM     68  F   UNL     1       2.561 -15.322  11.033  1.00  0.00    -0.203 F 
ATOM     69  F   UNL     1       0.103 -19.401   8.370  1.00  0.00    -0.200 F 
ATOM     70  C   UNL     1      -0.002 -17.627   9.924  1.00  0.00     0.200 A 
ATOM     71  F   UNL     1      -0.060 -15.833  11.457  1.00  0.00    -0.200 F 
ATOM     72  F   UNL     1      -1.310 -17.849  10.111  1.00  0.00    -0.200 F 
ENDBRANCH  48  62
BRANCH  49  73
ATOM     73  C   UNL     1      12.333 -14.998   7.726  1.00  0.00     0.064 A 
ATOM     74  C   UNL     1      13.318 -15.996   7.750  1.00  0.00     0.173 A 
ATOM     75  C   UNL     1      12.745 -13.683   7.468  1.00  0.00     0.173 A 
ATOM     76  F   UNL     1      12.978 -17.266   8.011  1.00  0.00    -0.203 F 
ATOM     77  C   UNL     1      14.662 -15.687   7.550  1.00  0.00     0.198 A 
ATOM     78  C   UNL     1      14.085 -13.380   7.237  1.00  0.00     0.198 A 
ATOM     79  F   UNL     1      11.842 -12.691   7.428  1.00  0.00    -0.203 F 
ATOM     80  F   UNL     1      15.588 -16.652   7.629  1.00  0.00    -0.200 F 
ATOM     81  C   UNL     1      15.044 -14.380   7.288  1.00  0.00     0.200 A 
ATOM     82  F   UNL     1      14.448 -12.118   6.968  1.00  0.00    -0.200 F 
ATOM     83  F   UNL     1      16.336 -14.084   7.092  1.00  0.00    -0.200 F 
ENDBRANCH  49  73
BRANCH  61  84
ATOM     84  C   UNL     1       8.878 -17.396  13.286  1.00  0.00     0.064 A 
ATOM     85  C   UNL     1       9.318 -16.464  14.238  1.00  0.00     0.173 A 
ATOM     86  C   UNL     1       8.828 -18.747  13.665  1.00  0.00     0.173 A 
ATOM     87  F   UNL     1       9.398 -15.163  13.922  1.00  0.00    -0.203 F 
ATOM     88  C   UNL     1       9.720 -16.873  15.507  1.00  0.00     0.198 A 
ATOM     89  C   UNL     1       9.196 -19.147  14.946  1.00  0.00     0.198 A 
ATOM     90  F   UNL     1       8.408 -19.679  12.796  1.00  0.00    -0.203 F 
ATOM     91  F   UNL     1      10.188 -15.972  16.381  1.00  0.00    -0.200 F 
ATOM     92  C   UNL     1       9.651 -18.212  15.863  1.00  0.00     0.200 A 
ATOM     93  F   UNL     1       9.113 -20.439  15.293  1.00  0.00    -0.200 F 
ATOM     94  F   UNL     1      10.030 -18.602  17.087  1.00  0.00    -0.200 F 
ENDBRANCH  61  84
ENDBRANCH  35  36
ENDBRANCH  27  30
ENDBRANCH  25  26
ENDBRANCH  24  25
ENDBRANCH   1  24
TORSDOF 14
