REMARK SMILES Cc1ccc(C)c(OCc2ccc(C(=O)NCCCCNC(=O)c3ccc(-c4c5nc(c(-c6c(F)c(F)c(F)c(F)c6F)c6ccc([nH]6)c(-c6c(F)c(F)c(F)c(F)c6F)c6nc(c(-c7c(F)c(F)c(F)c(F)c7F)c7ccc4[nH]7)C=C6)C=C5)cc3)cc2)c1C
REMARK SMILES IDX 18 1 17 2 16 3 14 4 15 5 13 7 10 8 11 9 88 10 12 11 87 12
REMARK SMILES IDX 9 13 8 14 7 15 1 16 2 17 3 18 89 19 4 20 90 21 5 22 6 23
REMARK SMILES IDX 19 24 20 25 21 26 22 27 23 29 24 30 25 31 86 32 26 33 85 34
REMARK SMILES IDX 27 35 28 36 29 37 79 38 30 39 84 40 78 41 80 42 31 43 83 44
REMARK SMILES IDX 77 45 76 46 32 48 64 49 44 50 63 51 45 52 48 53 62 54 81 55
REMARK SMILES IDX 46 56 47 57 61 59 82 60 49 61 33 62 34 63 42 64 35 65 36 66
REMARK SMILES IDX 40 67 43 68 37 69 38 70 41 71 39 72 65 73 66 74 74 75 67 76
REMARK SMILES IDX 68 77 72 78 75 79 69 80 70 81 73 82 71 83 50 84 51 85 59 86
REMARK SMILES IDX 52 87 53 88 57 89 60 90 54 91 55 92 58 93 56 94
REMARK H PARENT 16 6 21 28 80 47 48 58
REMARK Flexibility Score: inf
ROOT
ATOM      1  C   UNL     1       4.520   3.654   6.773  1.00  0.00     0.023 C 
ENDROOT
BRANCH   1   2
ATOM      2  C   UNL     1       5.587   2.880   5.996  1.00  0.00     0.116 C 
BRANCH   2   3
ATOM      3  N   UNL     1       5.237   1.483   5.946  1.00  0.00    -0.352 N 
ATOM      4  C   UNL     1       4.336   0.800   5.174  1.00  0.00     0.251 C 
ATOM      5  O   UNL     1       4.167  -0.387   5.463  1.00  0.00    -0.269 OA
ATOM      6  H   UNL     1       5.735   0.919   6.580  1.00  0.00     0.163 HD
BRANCH   4   7
ATOM      7  C   UNL     1       3.618   1.379   3.994  1.00  0.00     0.039 A 
ATOM      8  C   UNL     1       2.482   2.158   1.492  1.00  0.00    -0.011 A 
ATOM      9  C   UNL     1       2.442   0.834   1.935  1.00  0.00     0.008 A 
ATOM     10  C   UNL     1       3.000   3.106   2.381  1.00  0.00     0.008 A 
ATOM     11  C   UNL     1       3.006   0.449   3.153  1.00  0.00     0.014 A 
ATOM     12  C   UNL     1       3.538   2.723   3.619  1.00  0.00     0.014 A 
BRANCH   8  13
ATOM     13  C   UNL     1       2.191   2.579   0.056  1.00  0.00     0.265 C 
BRANCH  13  14
ATOM     14  O   UNL     1       0.991   2.183  -0.605  1.00  0.00    -0.488 OA
BRANCH  14  15
ATOM     15  C   UNL     1       0.631   0.867  -0.679  1.00  0.00     0.125 A 
ATOM     16  C   UNL     1      -2.631  -1.006   0.096  1.00  0.00     0.045 C 
ATOM     17  C   UNL     1      -1.206  -0.693  -0.266  1.00  0.00    -0.044 A 
ATOM     18  C   UNL     1      -0.324  -1.749  -0.521  1.00  0.00     0.004 A 
ATOM     19  C   UNL     1      -0.732   0.630  -0.364  1.00  0.00    -0.006 A 
ATOM     20  C   UNL     1       0.990  -1.504  -0.918  1.00  0.00     0.007 A 
ATOM     21  C   UNL     1      -1.629   1.816  -0.094  1.00  0.00     0.049 C 
ATOM     22  C   UNL     1       1.479  -0.195  -1.043  1.00  0.00    -0.009 A 
ATOM     23  C   UNL     1       2.899  -0.022  -1.504  1.00  0.00     0.048 C 
ENDBRANCH  14  15
ENDBRANCH  13  14
ENDBRANCH   8  13
ENDBRANCH   4   7
ENDBRANCH   2   3
ENDBRANCH   1   2
BRANCH   1  24
ATOM     24  C   UNL     1       4.622   3.487   8.291  1.00  0.00     0.023 C 
BRANCH  24  25
ATOM     25  C   UNL     1       5.958   3.916   8.878  1.00  0.00     0.116 C 
BRANCH  25  26
ATOM     26  N   UNL     1       6.355   5.254   8.467  1.00  0.00    -0.352 N 
ATOM     27  C   UNL     1       7.197   6.125   9.106  1.00  0.00     0.251 C 
ATOM     28  H   UNL     1       5.969   5.575   7.621  1.00  0.00     0.163 HD
ATOM     29  O   UNL     1       7.346   7.269   8.692  1.00  0.00    -0.269 OA
BRANCH  27  30
ATOM     30  C   UNL     1       7.886   5.678  10.329  1.00  0.00     0.039 A 
ATOM     31  C   UNL     1       7.806   6.480  11.467  1.00  0.00     0.014 A 
ATOM     32  C   UNL     1       8.571   4.460  10.357  1.00  0.00     0.014 A 
ATOM     33  C   UNL     1       8.377   6.035  12.656  1.00  0.00     0.010 A 
ATOM     34  C   UNL     1       9.073   3.983  11.561  1.00  0.00     0.010 A 
ATOM     35  C   UNL     1       8.990   4.772  12.717  1.00  0.00    -0.014 A 
BRANCH  35  36
ATOM     36  C   UNL     1       9.556   4.274  13.992  1.00  0.00     0.031 A 
ATOM     37  C   UNL     1      11.036   4.060  14.126  1.00  0.00     0.074 A 
ATOM     38  C   UNL     1       8.728   3.988  15.013  1.00  0.00     0.049 A 
ATOM     39  N   UNL     1      11.721   3.648  15.162  1.00  0.00    -0.248 NA
ATOM     40  C   UNL     1      11.855   4.314  12.930  1.00  0.00     0.031 C 
ATOM     41  C   UNL     1       7.268   4.096  14.972  1.00  0.00     0.029 A 
ATOM     42  N   UNL     1       8.994   3.551  16.285  1.00  0.00    -0.354 N 
ATOM     43  C   UNL     1      13.043   3.590  14.742  1.00  0.00     0.074 A 
ATOM     44  C   UNL     1      13.059   3.945  13.340  1.00  0.00     0.031 C 
ATOM     45  C   UNL     1       6.770   3.770  16.175  1.00  0.00     0.029 A 
ATOM     46  C   UNL     1       7.870   3.403  17.061  1.00  0.00     0.049 A 
ATOM     47  H   UNL     1       9.903   3.360  16.611  1.00  0.00     0.167 HD
ATOM     48  C   UNL     1      14.146   3.297  15.469  1.00  0.00     0.037 A 
ATOM     49  C   UNL     1       7.748   3.022  18.346  1.00  0.00     0.037 A 
ATOM     50  C   UNL     1      14.122   2.966  16.869  1.00  0.00     0.049 A 
ATOM     51  C   UNL     1       8.992   2.714  19.135  1.00  0.00     0.074 A 
ATOM     52  C   UNL     1      15.186   2.710  17.715  1.00  0.00     0.029 A 
ATOM     53  N   UNL     1      12.967   2.841  17.629  1.00  0.00    -0.354 N 
ATOM     54  N   UNL     1      10.245   2.746  18.751  1.00  0.00    -0.248 NA
ATOM     55  C   UNL     1       8.803   2.332  20.540  1.00  0.00     0.031 C 
ATOM     56  C   UNL     1      14.673   2.385  18.976  1.00  0.00     0.029 A 
ATOM     57  C   UNL     1      13.292   2.491  18.930  1.00  0.00     0.049 A 
ATOM     58  H   UNL     1      12.052   2.981  17.294  1.00  0.00     0.167 HD
ATOM     59  C   UNL     1      10.995   2.415  19.871  1.00  0.00     0.074 A 
ATOM     60  C   UNL     1      10.056   2.207  20.954  1.00  0.00     0.031 C 
ATOM     61  C   UNL     1      12.340   2.291  19.993  1.00  0.00     0.037 A 
BRANCH  48  62
ATOM     62  C   UNL     1      15.471   3.330  14.763  1.00  0.00     0.064 A 
ATOM     63  C   UNL     1      16.036   4.534  14.315  1.00  0.00     0.173 A 
ATOM     64  C   UNL     1      16.198   2.149  14.556  1.00  0.00     0.173 A 
ATOM     65  F   UNL     1      15.376   5.691  14.475  1.00  0.00    -0.203 F 
ATOM     66  C   UNL     1      17.265   4.550  13.659  1.00  0.00     0.198 A 
ATOM     67  C   UNL     1      17.441   2.172  13.929  1.00  0.00     0.198 A 
ATOM     68  F   UNL     1      15.706   0.970  14.967  1.00  0.00    -0.203 F 
ATOM     69  F   UNL     1      17.759   5.706  13.194  1.00  0.00    -0.200 F 
ATOM     70  C   UNL     1      17.970   3.371  13.474  1.00  0.00     0.200 A 
ATOM     71  F   UNL     1      18.127   1.033  13.761  1.00  0.00    -0.200 F 
ATOM     72  F   UNL     1      19.155   3.389  12.849  1.00  0.00    -0.200 F 
ENDBRANCH  48  62
BRANCH  49  73
ATOM     73  C   UNL     1       6.404   2.951  18.975  1.00  0.00     0.064 A 
ATOM     74  C   UNL     1       6.025   3.864  19.969  1.00  0.00     0.173 A 
ATOM     75  C   UNL     1       5.473   1.972  18.599  1.00  0.00     0.173 A 
ATOM     76  F   UNL     1       6.887   4.808  20.375  1.00  0.00    -0.203 F 
ATOM     77  C   UNL     1       4.776   3.785  20.581  1.00  0.00     0.198 A 
ATOM     78  C   UNL     1       4.212   1.913  19.190  1.00  0.00     0.198 A 
ATOM     79  F   UNL     1       5.782   1.081  17.646  1.00  0.00    -0.203 F 
ATOM     80  F   UNL     1       4.458   4.641  21.562  1.00  0.00    -0.200 F 
ATOM     81  C   UNL     1       3.868   2.813  20.187  1.00  0.00     0.200 A 
ATOM     82  F   UNL     1       3.333   0.983  18.796  1.00  0.00    -0.200 F 
ATOM     83  F   UNL     1       2.666   2.740  20.773  1.00  0.00    -0.200 F 
ENDBRANCH  49  73
BRANCH  61  84
ATOM     84  C   UNL     1      12.873   1.944  21.353  1.00  0.00     0.064 A 
ATOM     85  C   UNL     1      12.691   0.670  21.912  1.00  0.00     0.173 A 
ATOM     86  C   UNL     1      13.597   2.890  22.094  1.00  0.00     0.173 A 
ATOM     87  F   UNL     1      11.994  -0.265  21.249  1.00  0.00    -0.203 F 
ATOM     88  C   UNL     1      13.184   0.368  23.179  1.00  0.00     0.198 A 
ATOM     89  C   UNL     1      14.117   2.574  23.346  1.00  0.00     0.198 A 
ATOM     90  F   UNL     1      13.806   4.120  21.601  1.00  0.00    -0.203 F 
ATOM     91  F   UNL     1      12.948  -0.836  23.718  1.00  0.00    -0.200 F 
ATOM     92  C   UNL     1      13.901   1.318  23.891  1.00  0.00     0.200 A 
ATOM     93  F   UNL     1      14.823   3.487  24.026  1.00  0.00    -0.200 F 
ATOM     94  F   UNL     1      14.378   1.024  25.109  1.00  0.00    -0.200 F 
ENDBRANCH  61  84
ENDBRANCH  35  36
ENDBRANCH  27  30
ENDBRANCH  25  26
ENDBRANCH  24  25
ENDBRANCH   1  24
TORSDOF 14
