REMARK SMILES C[C@@H](C(=O)NCCCCNC(=O)c1ccc(-c2c3nc(c(-c4c(F)c(F)c(F)c(F)c4F)c4ccc([nH]4)c(-c4c(F)c(F)c(F)c(F)c4F)c4nc(c(-c5c(F)c(F)c(F)c(F)c5F)c5ccc2[nH]5)C=C4)C=C3)cc1)c1ccc(-c2cccc(OC(=O)NC3CC3)c2)c(F)c1
REMARK SMILES IDX 6 1 5 2 3 3 4 4 2 6 1 7 76 8 77 9 95 10 78 11 93 12 79 13
REMARK SMILES IDX 94 14 80 15 81 16 92 17 82 18 84 19 83 20 85 21 86 22 87 23
REMARK SMILES IDX 88 24 89 26 90 27 91 28 7 29 8 30 9 31 10 32 11 33 12 35
REMARK SMILES IDX 13 36 14 37 75 38 15 39 74 40 16 41 17 42 18 43 68 44 19 45
REMARK SMILES IDX 73 46 67 47 69 48 20 49 72 50 66 51 65 52 21 54 53 55 33 56
REMARK SMILES IDX 52 57 34 58 37 59 51 60 70 61 35 62 36 63 50 65 71 66 38 67
REMARK SMILES IDX 22 68 23 69 31 70 24 71 25 72 29 73 32 74 26 75 27 76 30 77
REMARK SMILES IDX 28 78 54 79 55 80 63 81 56 82 57 83 61 84 64 85 58 86 59 87
REMARK SMILES IDX 62 88 60 89 39 90 40 91 48 92 41 93 42 94 46 95 49 96 43 97
REMARK SMILES IDX 44 98 47 99 45 100
REMARK H PARENT 5 5 88 25 10 34 69 53 37 64
REMARK Flexibility Score: inf
ROOT
ATOM      1  C   UNL     1       3.561   0.690  -1.704  1.00  0.00     0.116 C 
ENDROOT
BRANCH   1   2
ATOM      2  N   UNL     1       2.526   0.260  -2.617  1.00  0.00    -0.356 N 
ATOM      3  C   UNL     1       1.187   0.109  -2.407  1.00  0.00     0.227 C 
ATOM      4  O   UNL     1       0.542  -0.405  -3.323  1.00  0.00    -0.274 OA
ATOM      5  H   UNL     1       2.833   0.044  -3.527  1.00  0.00     0.163 HD
BRANCH   3   6
ATOM      6  C   UNL     1       0.555   0.617  -1.101  1.00  0.00     0.105 C 
ATOM      7  C   UNL     1       0.947  -0.218   0.125  1.00  0.00     0.023 C 
BRANCH   6   8
ATOM      8  C   UNL     1      -0.963   0.680  -1.196  1.00  0.00    -0.033 A 
ATOM      9  C   UNL     1      -1.630   1.913  -1.178  1.00  0.00     0.005 A 
ATOM     10  C   UNL     1      -1.720  -0.496  -1.276  1.00  0.00     0.044 A 
ATOM     11  C   UNL     1      -3.027   1.963  -1.183  1.00  0.00     0.012 A 
ATOM     12  C   UNL     1      -3.106  -0.439  -1.279  1.00  0.00     0.131 A 
ATOM     13  C   UNL     1      -3.786   0.783  -1.204  1.00  0.00     0.018 A 
ATOM     14  F   UNL     1      -3.787  -1.595  -1.316  1.00  0.00    -0.206 F 
BRANCH  13  15
ATOM     15  C   UNL     1      -5.241   0.819  -1.037  1.00  0.00    -0.012 A 
ATOM     16  C   UNL     1      -6.085   1.461  -1.952  1.00  0.00     0.009 A 
ATOM     17  C   UNL     1      -5.807   0.202   0.091  1.00  0.00     0.056 A 
ATOM     18  C   UNL     1      -7.467   1.477  -1.748  1.00  0.00     0.004 A 
ATOM     19  C   UNL     1      -7.180   0.220   0.295  1.00  0.00     0.133 A 
ATOM     20  C   UNL     1      -8.015   0.857  -0.623  1.00  0.00     0.047 A 
BRANCH  19  21
ATOM     21  O   UNL     1      -7.824  -0.376   1.406  1.00  0.00    -0.410 OA
BRANCH  21  22
ATOM     22  C   UNL     1      -7.229  -1.195   2.362  1.00  0.00     0.412 C 
ATOM     23  O   UNL     1      -6.035  -1.468   2.449  1.00  0.00    -0.224 OA
ATOM     24  N   UNL     1      -8.111  -1.731   3.263  1.00  0.00    -0.318 N 
ATOM     25  H   UNL     1      -7.716  -2.350   3.917  1.00  0.00     0.167 HD
BRANCH  24  26
ATOM     26  C   UNL     1      -9.514  -1.527   3.394  1.00  0.00     0.085 C 
ATOM     27  C   UNL     1     -10.479  -1.159   2.303  1.00  0.00     0.027 C 
ATOM     28  C   UNL     1     -10.444  -2.565   2.818  1.00  0.00     0.027 C 
ENDBRANCH  24  26
ENDBRANCH  21  22
ENDBRANCH  19  21
ENDBRANCH  13  15
ENDBRANCH   6   8
ENDBRANCH   3   6
ENDBRANCH   1   2
BRANCH   1  29
ATOM     29  C   UNL     1       4.343  -0.512  -1.172  1.00  0.00     0.023 C 
BRANCH  29  30
ATOM     30  C   UNL     1       5.127  -1.274  -2.243  1.00  0.00     0.023 C 
BRANCH  30  31
ATOM     31  C   UNL     1       6.092  -0.422  -3.057  1.00  0.00     0.116 C 
BRANCH  31  32
ATOM     32  N   UNL     1       7.087   0.245  -2.229  1.00  0.00    -0.352 N 
ATOM     33  C   UNL     1       8.448   0.308  -2.401  1.00  0.00     0.251 C 
ATOM     34  H   UNL     1       6.736   0.715  -1.439  1.00  0.00     0.163 HD
ATOM     35  O   UNL     1       9.166   0.787  -1.531  1.00  0.00    -0.269 OA
BRANCH  33  36
ATOM     36  C   UNL     1       9.042  -0.248  -3.633  1.00  0.00     0.039 A 
ATOM     37  C   UNL     1      10.096  -1.156  -3.523  1.00  0.00     0.014 A 
ATOM     38  C   UNL     1       8.514   0.082  -4.884  1.00  0.00     0.014 A 
ATOM     39  C   UNL     1      10.563  -1.807  -4.666  1.00  0.00     0.010 A 
ATOM     40  C   UNL     1       8.933  -0.619  -6.010  1.00  0.00     0.010 A 
ATOM     41  C   UNL     1       9.948  -1.583  -5.909  1.00  0.00    -0.014 A 
BRANCH  41  42
ATOM     42  C   UNL     1      10.310  -2.383  -7.107  1.00  0.00     0.031 A 
ATOM     43  C   UNL     1      10.895  -1.711  -8.316  1.00  0.00     0.074 A 
ATOM     44  C   UNL     1      10.015  -3.699  -7.137  1.00  0.00     0.049 A 
ATOM     45  N   UNL     1      11.157  -2.214  -9.495  1.00  0.00    -0.248 NA
ATOM     46  C   UNL     1      11.202  -0.277  -8.193  1.00  0.00     0.031 C 
ATOM     47  C   UNL     1       9.405  -4.454  -6.041  1.00  0.00     0.029 A 
ATOM     48  N   UNL     1      10.164  -4.630  -8.136  1.00  0.00    -0.354 N 
ATOM     49  C   UNL     1      11.638  -1.159 -10.258  1.00  0.00     0.074 A 
ATOM     50  C   UNL     1      11.600   0.021  -9.422  1.00  0.00     0.031 C 
ATOM     51  C   UNL     1       9.233  -5.728  -6.425  1.00  0.00     0.029 A 
ATOM     52  C   UNL     1       9.672  -5.871  -7.810  1.00  0.00     0.049 A 
ATOM     53  H   UNL     1      10.582  -4.427  -9.004  1.00  0.00     0.167 HD
ATOM     54  C   UNL     1      12.080  -1.181 -11.537  1.00  0.00     0.037 A 
ATOM     55  C   UNL     1       9.556  -6.989  -8.552  1.00  0.00     0.037 A 
ATOM     56  C   UNL     1      12.143  -2.366 -12.352  1.00  0.00     0.049 A 
ATOM     57  C   UNL     1      10.037  -6.974  -9.980  1.00  0.00     0.074 A 
ATOM     58  C   UNL     1      12.668  -2.506 -13.624  1.00  0.00     0.029 A 
ATOM     59  N   UNL     1      11.652  -3.609 -11.981  1.00  0.00    -0.354 N 
ATOM     60  N   UNL     1      10.583  -5.994 -10.658  1.00  0.00    -0.248 NA
ATOM     61  C   UNL     1       9.885  -8.219 -10.747  1.00  0.00     0.031 C 
ATOM     62  C   UNL     1      12.431  -3.815 -14.052  1.00  0.00     0.029 A 
ATOM     63  C   UNL     1      11.819  -4.509 -13.021  1.00  0.00     0.049 A 
ATOM     64  H   UNL     1      11.247  -3.820 -11.109  1.00  0.00     0.167 HD
ATOM     65  C   UNL     1      10.859  -6.509 -11.918  1.00  0.00     0.074 A 
ATOM     66  C   UNL     1      10.442  -7.894 -11.904  1.00  0.00     0.031 C 
ATOM     67  C   UNL     1      11.404  -5.888 -12.992  1.00  0.00     0.037 A 
BRANCH  54  68
ATOM     68  C   UNL     1      12.526   0.112 -12.155  1.00  0.00     0.064 A 
ATOM     69  C   UNL     1      13.716   0.745 -11.769  1.00  0.00     0.173 A 
ATOM     70  C   UNL     1      11.793   0.678 -13.210  1.00  0.00     0.173 A 
ATOM     71  F   UNL     1      14.449   0.249 -10.760  1.00  0.00    -0.203 F 
ATOM     72  C   UNL     1      14.150   1.904 -12.407  1.00  0.00     0.198 A 
ATOM     73  C   UNL     1      12.245   1.820 -13.865  1.00  0.00     0.198 A 
ATOM     74  F   UNL     1      10.651   0.109 -13.622  1.00  0.00    -0.203 F 
ATOM     75  F   UNL     1      15.274   2.510 -12.001  1.00  0.00    -0.200 F 
ATOM     76  C   UNL     1      13.421   2.434 -13.461  1.00  0.00     0.200 A 
ATOM     77  F   UNL     1      11.547   2.320 -14.894  1.00  0.00    -0.200 F 
ATOM     78  F   UNL     1      13.851   3.537 -14.088  1.00  0.00    -0.200 F 
ENDBRANCH  54  68
BRANCH  55  79
ATOM     79  C   UNL     1       8.935  -8.213  -7.976  1.00  0.00     0.064 A 
ATOM     80  C   UNL     1       9.682  -9.384  -7.785  1.00  0.00     0.173 A 
ATOM     81  C   UNL     1       7.573  -8.251  -7.643  1.00  0.00     0.173 A 
ATOM     82  F   UNL     1      10.984  -9.408  -8.109  1.00  0.00    -0.203 F 
ATOM     83  C   UNL     1       9.085 -10.553  -7.317  1.00  0.00     0.198 A 
ATOM     84  C   UNL     1       6.984  -9.409  -7.140  1.00  0.00     0.198 A 
ATOM     85  F   UNL     1       6.811  -7.158  -7.801  1.00  0.00    -0.203 F 
ATOM     86  F   UNL     1       9.809 -11.675  -7.208  1.00  0.00    -0.200 F 
ATOM     87  C   UNL     1       7.737 -10.564  -6.991  1.00  0.00     0.200 A 
ATOM     88  F   UNL     1       5.685  -9.409  -6.810  1.00  0.00    -0.200 F 
ATOM     89  F   UNL     1       7.162 -11.689  -6.545  1.00  0.00    -0.200 F 
ENDBRANCH  55  79
BRANCH  67  90
ATOM     90  C   UNL     1      11.604  -6.702 -14.237  1.00  0.00     0.064 A 
ATOM     91  C   UNL     1      10.522  -7.110 -15.030  1.00  0.00     0.173 A 
ATOM     92  C   UNL     1      12.898  -7.025 -14.675  1.00  0.00     0.173 A 
ATOM     93  F   UNL     1       9.265  -6.841 -14.647  1.00  0.00    -0.203 F 
ATOM     94  C   UNL     1      10.727  -7.825 -16.207  1.00  0.00     0.198 A 
ATOM     95  C   UNL     1      13.101  -7.711 -15.869  1.00  0.00     0.198 A 
ATOM     96  F   UNL     1      13.968  -6.653 -13.956  1.00  0.00    -0.203 F 
ATOM     97  F   UNL     1       9.676  -8.241 -16.927  1.00  0.00    -0.200 F 
ATOM     98  C   UNL     1      12.016  -8.115 -16.631  1.00  0.00     0.200 A 
ATOM     99  F   UNL     1      14.347  -7.974 -16.285  1.00  0.00    -0.200 F 
ATOM    100  F   UNL     1      12.211  -8.789 -17.772  1.00  0.00    -0.200 F 
ENDBRANCH  67  90
ENDBRANCH  41  42
ENDBRANCH  33  36
ENDBRANCH  31  32
ENDBRANCH  30  31
ENDBRANCH  29  30
ENDBRANCH   1  29
TORSDOF 16
