REMARK SMILES CCCC[C@H](C(=O)NCCCCNC(=O)c1ccc(-c2c3nc(c(-c4c(F)c(F)c(F)c(F)c4F)c4ccc([nH]4)c(-c4c(F)c(F)c(F)c(F)c4F)c4nc(c(-c5c(F)c(F)c(F)c(F)c5F)c5ccc2[nH]5)C=C4)C=C3)cc1)c1ccnn1C
REMARK SMILES IDX 10 1 9 2 8 3 6 4 7 5 5 7 4 8 3 9 2 10 1 11 79 12 80 13 83 14
REMARK SMILES IDX 81 15 82 16 84 17 11 18 12 19 13 20 14 21 15 23 16 24 17 25
REMARK SMILES IDX 78 26 18 27 77 28 19 29 20 30 21 31 71 32 22 33 76 34 70 35
REMARK SMILES IDX 72 36 23 37 75 38 69 39 68 40 24 42 56 43 36 44 55 45 37 46
REMARK SMILES IDX 40 47 54 48 73 49 38 50 39 51 53 53 74 54 41 55 25 56 26 57
REMARK SMILES IDX 34 58 27 59 28 60 32 61 35 62 29 63 30 64 33 65 31 66 57 67
REMARK SMILES IDX 58 68 66 69 59 70 60 71 64 72 67 73 61 74 62 75 65 76 63 77
REMARK SMILES IDX 42 78 43 79 51 80 44 81 45 82 49 83 52 84 46 85 47 86 50 87
REMARK SMILES IDX 48 88
REMARK H PARENT 8 6 13 22 72 41 40 52
REMARK Flexibility Score: inf
ROOT
ATOM      1  C   UNL     1       0.930   0.004   1.589  1.00  0.00     0.023 C 
ENDROOT
BRANCH   1   2
ATOM      2  C   UNL     1       0.390   1.297   0.984  1.00  0.00     0.116 C 
BRANCH   2   3
ATOM      3  N   UNL     1       0.988   1.632  -0.296  1.00  0.00    -0.356 N 
ATOM      4  C   UNL     1       0.474   2.388  -1.322  1.00  0.00     0.229 C 
ATOM      5  O   UNL     1       1.242   2.706  -2.232  1.00  0.00    -0.274 OA
ATOM      6  H   UNL     1       1.889   1.266  -0.451  1.00  0.00     0.163 HD
BRANCH   4   7
ATOM      7  C   UNL     1      -1.007   2.787  -1.299  1.00  0.00     0.127 C 
BRANCH   7   8
ATOM      8  C   UNL     1      -1.422   3.976  -0.414  1.00  0.00     0.020 C 
BRANCH   8   9
ATOM      9  C   UNL     1      -0.446   4.678   0.549  1.00  0.00     0.001 C 
BRANCH   9  10
ATOM     10  C   UNL     1       0.969   5.089   0.134  1.00  0.00    -0.003 C 
ATOM     11  C   UNL     1       1.078   5.942  -1.114  1.00  0.00     0.004 C 
ENDBRANCH   9  10
ENDBRANCH   8   9
ENDBRANCH   7   8
BRANCH   7  12
ATOM     12  C   UNL     1      -1.577   2.755  -2.717  1.00  0.00     0.050 A 
ATOM     13  C   UNL     1      -1.962   1.614  -3.412  1.00  0.00     0.046 A 
ATOM     14  N   UNL     1      -1.774   3.785  -3.615  1.00  0.00    -0.272 N 
ATOM     15  C   UNL     1      -2.394   2.053  -4.668  1.00  0.00     0.135 A 
ATOM     16  N   UNL     1      -2.315   3.373  -4.784  1.00  0.00    -0.182 NA
ATOM     17  C   UNL     1      -1.535   5.203  -3.522  1.00  0.00     0.174 C 
ENDBRANCH   7  12
ENDBRANCH   4   7
ENDBRANCH   2   3
ENDBRANCH   1   2
BRANCH   1  18
ATOM     18  C   UNL     1       2.423   0.006   1.932  1.00  0.00     0.023 C 
BRANCH  18  19
ATOM     19  C   UNL     1       2.905   1.135   2.842  1.00  0.00     0.116 C 
BRANCH  19  20
ATOM     20  N   UNL     1       2.255   1.136   4.142  1.00  0.00    -0.352 N 
ATOM     21  C   UNL     1       2.785   1.088   5.409  1.00  0.00     0.251 C 
ATOM     22  H   UNL     1       1.272   1.177   4.110  1.00  0.00     0.163 HD
ATOM     23  O   UNL     1       2.030   0.962   6.370  1.00  0.00    -0.269 OA
BRANCH  21  24
ATOM     24  C   UNL     1       4.248   1.155   5.638  1.00  0.00     0.039 A 
ATOM     25  C   UNL     1       4.803   0.321   6.615  1.00  0.00     0.014 A 
ATOM     26  C   UNL     1       5.070   2.048   4.946  1.00  0.00     0.014 A 
ATOM     27  C   UNL     1       6.181   0.335   6.848  1.00  0.00     0.010 A 
ATOM     28  C   UNL     1       6.455   2.014   5.130  1.00  0.00     0.010 A 
ATOM     29  C   UNL     1       7.026   1.156   6.082  1.00  0.00    -0.014 A 
BRANCH  29  30
ATOM     30  C   UNL     1       8.501   1.091   6.260  1.00  0.00     0.031 A 
ATOM     31  C   UNL     1       9.273   2.265   6.793  1.00  0.00     0.074 A 
ATOM     32  C   UNL     1       9.157  -0.031   5.902  1.00  0.00     0.049 A 
ATOM     33  N   UNL     1      10.555   2.367   7.045  1.00  0.00    -0.248 NA
ATOM     34  C   UNL     1       8.513   3.496   7.054  1.00  0.00     0.031 C 
ATOM     35  C   UNL     1       8.539  -1.214   5.301  1.00  0.00     0.029 A 
ATOM     36  N   UNL     1      10.487  -0.360   5.990  1.00  0.00    -0.354 N 
ATOM     37  C   UNL     1      10.755   3.669   7.484  1.00  0.00     0.074 A 
ATOM     38  C   UNL     1       9.472   4.336   7.417  1.00  0.00     0.031 C 
ATOM     39  C   UNL     1       9.480  -2.150   5.105  1.00  0.00     0.029 A 
ATOM     40  C   UNL     1      10.770  -1.628   5.546  1.00  0.00     0.049 A 
ATOM     41  H   UNL     1      11.172   0.255   6.339  1.00  0.00     0.167 HD
ATOM     42  C   UNL     1      11.899   4.249   7.924  1.00  0.00     0.037 A 
ATOM     43  C   UNL     1      11.935  -2.302   5.511  1.00  0.00     0.037 A 
ATOM     44  C   UNL     1      13.171   3.579   8.013  1.00  0.00     0.049 A 
ATOM     45  C   UNL     1      13.179  -1.654   6.051  1.00  0.00     0.074 A 
ATOM     46  C   UNL     1      14.370   4.062   8.511  1.00  0.00     0.029 A 
ATOM     47  N   UNL     1      13.411   2.280   7.591  1.00  0.00    -0.354 N 
ATOM     48  N   UNL     1      13.336  -0.453   6.551  1.00  0.00    -0.248 NA
ATOM     49  C   UNL     1      14.405  -2.465   6.040  1.00  0.00     0.031 C 
ATOM     50  C   UNL     1      15.343   3.068   8.354  1.00  0.00     0.029 A 
ATOM     51  C   UNL     1      14.741   1.950   7.802  1.00  0.00     0.049 A 
ATOM     52  H   UNL     1      12.736   1.679   7.199  1.00  0.00     0.167 HD
ATOM     53  C   UNL     1      14.667  -0.371   6.937  1.00  0.00     0.074 A 
ATOM     54  C   UNL     1      15.269  -1.652   6.631  1.00  0.00     0.031 C 
ATOM     55  C   UNL     1      15.330   0.672   7.494  1.00  0.00     0.037 A 
BRANCH  42  56
ATOM     56  C   UNL     1      11.826   5.686   8.353  1.00  0.00     0.064 A 
ATOM     57  C   UNL     1      11.163   6.069   9.530  1.00  0.00     0.173 A 
ATOM     58  C   UNL     1      12.459   6.688   7.602  1.00  0.00     0.173 A 
ATOM     59  F   UNL     1      10.534   5.151  10.278  1.00  0.00    -0.203 F 
ATOM     60  C   UNL     1      11.113   7.404   9.923  1.00  0.00     0.198 A 
ATOM     61  C   UNL     1      12.431   8.018   8.014  1.00  0.00     0.198 A 
ATOM     62  F   UNL     1      13.113   6.376   6.473  1.00  0.00    -0.203 F 
ATOM     63  F   UNL     1      10.434   7.750  11.025  1.00  0.00    -0.200 F 
ATOM     64  C   UNL     1      11.752   8.376   9.169  1.00  0.00     0.200 A 
ATOM     65  F   UNL     1      13.060   8.956   7.290  1.00  0.00    -0.200 F 
ATOM     66  F   UNL     1      11.708   9.660   9.552  1.00  0.00    -0.200 F 
ENDBRANCH  42  56
BRANCH  43  67
ATOM     67  C   UNL     1      11.966  -3.693   4.991  1.00  0.00     0.064 A 
ATOM     68  C   UNL     1      12.147  -4.780   5.857  1.00  0.00     0.173 A 
ATOM     69  C   UNL     1      11.807  -3.964   3.625  1.00  0.00     0.173 A 
ATOM     70  F   UNL     1      12.322  -4.568   7.170  1.00  0.00    -0.203 F 
ATOM     71  C   UNL     1      12.187  -6.086   5.374  1.00  0.00     0.198 A 
ATOM     72  C   UNL     1      11.821  -5.272   3.146  1.00  0.00     0.198 A 
ATOM     73  F   UNL     1      11.624  -2.958   2.757  1.00  0.00    -0.203 F 
ATOM     74  F   UNL     1      12.402  -7.104   6.218  1.00  0.00    -0.200 F 
ATOM     75  C   UNL     1      12.018  -6.331   4.019  1.00  0.00     0.200 A 
ATOM     76  F   UNL     1      11.643  -5.507   1.839  1.00  0.00    -0.200 F 
ATOM     77  F   UNL     1      12.051  -7.588   3.555  1.00  0.00    -0.200 F 
ENDBRANCH  43  67
BRANCH  55  78
ATOM     78  C   UNL     1      16.776   0.459   7.833  1.00  0.00     0.064 A 
ATOM     79  C   UNL     1      17.760   0.360   6.838  1.00  0.00     0.173 A 
ATOM     80  C   UNL     1      17.185   0.361   9.172  1.00  0.00     0.173 A 
ATOM     81  F   UNL     1      17.419   0.431   5.542  1.00  0.00    -0.203 F 
ATOM     82  C   UNL     1      19.094   0.136   7.169  1.00  0.00     0.198 A 
ATOM     83  C   UNL     1      18.523   0.166   9.501  1.00  0.00     0.198 A 
ATOM     84  F   UNL     1      16.285   0.455  10.162  1.00  0.00    -0.203 F 
ATOM     85  F   UNL     1      20.007  -0.013   6.199  1.00  0.00    -0.200 F 
ATOM     86  C   UNL     1      19.475   0.043   8.499  1.00  0.00     0.200 A 
ATOM     87  F   UNL     1      18.892   0.088  10.787  1.00  0.00    -0.200 F 
ATOM     88  F   UNL     1      20.759  -0.176   8.816  1.00  0.00    -0.200 F 
ENDBRANCH  55  78
ENDBRANCH  29  30
ENDBRANCH  21  24
ENDBRANCH  19  20
ENDBRANCH  18  19
ENDBRANCH   1  18
TORSDOF 15
