REMARK SMILES O=C(NCCCCNC(=O)c1nnn(-c2cccc(Br)c2)c1[C@@H]1COc2ccccc2O1)c1ccc(-c2c3nc(c(-c4c(F)c(F)c(F)c(F)c4F)c4ccc([nH]4)c(-c4c(F)c(F)c(F)c(F)c4F)c4nc(c(-c5c(F)c(F)c(F)c(F)c5F)c5ccc2[nH]5)C=C4)C=C3)cc1
REMARK SMILES IDX 5 1 4 2 3 3 1 4 2 5 33 7 34 8 95 9 35 10 94 11 36 12 37 13
REMARK SMILES IDX 38 14 88 15 39 16 93 17 87 18 89 19 40 20 92 21 86 22 85 23
REMARK SMILES IDX 41 25 73 26 53 27 72 28 54 29 57 30 71 31 90 32 55 33 56 34
REMARK SMILES IDX 70 36 91 37 58 38 42 39 43 40 51 41 44 42 45 43 49 44 52 45
REMARK SMILES IDX 46 46 47 47 50 48 48 49 74 50 75 51 83 52 76 53 77 54 81 55
REMARK SMILES IDX 84 56 78 57 79 58 82 59 80 60 59 61 60 62 68 63 61 64 62 65
REMARK SMILES IDX 66 66 69 67 63 68 64 69 67 70 65 71 6 72 7 73 8 74 9 75
REMARK SMILES IDX 10 77 11 78 12 79 22 80 13 81 14 82 23 83 24 84 32 85 25 86
REMARK SMILES IDX 31 87 26 88 30 89 27 90 29 91 28 92 15 93 16 94 21 95 17 96
REMARK SMILES IDX 19 97 18 98 20 99
REMARK H PARENT 3 6 89 24 57 35 8 76
REMARK Flexibility Score: inf
ROOT
ATOM      1  C   UNL     1       4.079   0.169  -2.733  1.00  0.00     0.023 C 
ENDROOT
BRANCH   1   2
ATOM      2  C   UNL     1       3.720   0.576  -1.295  1.00  0.00     0.116 C 
BRANCH   2   3
ATOM      3  N   UNL     1       2.335   0.680  -0.925  1.00  0.00    -0.352 N 
ATOM      4  O   UNL     1       0.976   0.641   0.877  1.00  0.00    -0.269 OA
ATOM      5  C   UNL     1       1.742   0.036   0.134  1.00  0.00     0.251 C 
ATOM      6  H   UNL     1       1.763   1.261  -1.477  1.00  0.00     0.163 HD
BRANCH   5   7
ATOM      7  C   UNL     1       1.814  -1.434   0.187  1.00  0.00     0.039 A 
ATOM      8  C   UNL     1       2.987  -2.171   0.024  1.00  0.00     0.014 A 
ATOM      9  C   UNL     1       0.574  -2.077   0.266  1.00  0.00     0.014 A 
ATOM     10  C   UNL     1       2.904  -3.514  -0.274  1.00  0.00     0.010 A 
ATOM     11  C   UNL     1       0.494  -3.437   0.044  1.00  0.00     0.010 A 
ATOM     12  C   UNL     1       1.652  -4.133  -0.299  1.00  0.00    -0.014 A 
BRANCH  12  13
ATOM     13  C   UNL     1       1.633  -5.571  -0.515  1.00  0.00     0.031 A 
ATOM     14  C   UNL     1       2.421  -6.339   0.495  1.00  0.00     0.074 A 
ATOM     15  C   UNL     1       0.857  -6.145  -1.454  1.00  0.00     0.049 A 
ATOM     16  N   UNL     1       3.352  -7.215   0.301  1.00  0.00    -0.248 NA
ATOM     17  C   UNL     1       2.228  -5.978   1.913  1.00  0.00     0.031 C 
ATOM     18  C   UNL     1      -0.148  -5.505  -2.306  1.00  0.00     0.029 A 
ATOM     19  N   UNL     1       0.716  -7.463  -1.754  1.00  0.00    -0.354 N 
ATOM     20  C   UNL     1       3.749  -7.638   1.571  1.00  0.00     0.074 A 
ATOM     21  C   UNL     1       3.137  -6.743   2.513  1.00  0.00     0.031 C 
ATOM     22  C   UNL     1      -0.958  -6.455  -2.823  1.00  0.00     0.029 A 
ATOM     23  C   UNL     1      -0.451  -7.761  -2.442  1.00  0.00     0.049 A 
ATOM     24  H   UNL     1       1.381  -8.145  -1.506  1.00  0.00     0.167 HD
ATOM     25  C   UNL     1       4.362  -8.839   1.758  1.00  0.00     0.037 A 
ATOM     26  C   UNL     1      -1.002  -8.990  -2.594  1.00  0.00     0.037 A 
ATOM     27  C   UNL     1       5.011  -9.281   0.551  1.00  0.00     0.049 A 
ATOM     28  C   UNL     1       0.050  -9.995  -2.295  1.00  0.00     0.074 A 
ATOM     29  C   UNL     1       6.027  -8.785  -0.243  1.00  0.00     0.029 A 
ATOM     30  N   UNL     1       4.398 -10.250  -0.203  1.00  0.00    -0.354 N 
ATOM     31  N   UNL     1       1.098 -10.198  -3.043  1.00  0.00    -0.248 NA
ATOM     32  C   UNL     1       0.163 -10.465  -0.922  1.00  0.00     0.031 C 
ATOM     33  C   UNL     1       5.655  -9.126  -1.577  1.00  0.00     0.029 A 
ATOM     34  C   UNL     1       4.465  -9.849  -1.510  1.00  0.00     0.049 A 
ATOM     35  H   UNL     1       3.987 -11.079   0.134  1.00  0.00     0.167 HD
ATOM     36  C   UNL     1       2.133 -10.420  -2.147  1.00  0.00     0.074 A 
ATOM     37  C   UNL     1       1.482 -10.662  -0.863  1.00  0.00     0.031 C 
ATOM     38  C   UNL     1       3.421 -10.106  -2.471  1.00  0.00     0.037 A 
BRANCH  25  39
ATOM     39  C   UNL     1       4.007  -9.788   2.886  1.00  0.00     0.064 A 
ATOM     40  C   UNL     1       4.672 -11.031   2.954  1.00  0.00     0.173 A 
ATOM     41  C   UNL     1       2.840  -9.687   3.676  1.00  0.00     0.173 A 
ATOM     42  F   UNL     1       5.802 -11.242   2.263  1.00  0.00    -0.203 F 
ATOM     43  C   UNL     1       4.132 -12.122   3.640  1.00  0.00     0.198 A 
ATOM     44  C   UNL     1       2.331 -10.764   4.398  1.00  0.00     0.198 A 
ATOM     45  F   UNL     1       2.082  -8.587   3.708  1.00  0.00    -0.203 F 
ATOM     46  F   UNL     1       4.720 -13.322   3.545  1.00  0.00    -0.200 F 
ATOM     47  C   UNL     1       2.951 -11.993   4.345  1.00  0.00     0.200 A 
ATOM     48  F   UNL     1       1.181 -10.618   5.072  1.00  0.00    -0.200 F 
ATOM     49  F   UNL     1       2.386 -13.056   4.932  1.00  0.00    -0.200 F 
ENDBRANCH  25  39
BRANCH  26  50
ATOM     50  C   UNL     1      -2.442  -9.337  -2.634  1.00  0.00     0.064 A 
ATOM     51  C   UNL     1      -2.874 -10.582  -3.118  1.00  0.00     0.173 A 
ATOM     52  C   UNL     1      -3.404  -8.561  -1.956  1.00  0.00     0.173 A 
ATOM     53  F   UNL     1      -2.009 -11.404  -3.728  1.00  0.00    -0.203 F 
ATOM     54  C   UNL     1      -4.185 -11.030  -2.920  1.00  0.00     0.198 A 
ATOM     55  C   UNL     1      -4.713  -9.004  -1.769  1.00  0.00     0.198 A 
ATOM     56  F   UNL     1      -3.069  -7.400  -1.376  1.00  0.00    -0.203 F 
ATOM     57  F   UNL     1      -4.545 -12.250  -3.343  1.00  0.00    -0.200 F 
ATOM     58  C   UNL     1      -5.101 -10.244  -2.240  1.00  0.00     0.200 A 
ATOM     59  F   UNL     1      -5.578  -8.249  -1.076  1.00  0.00    -0.200 F 
ATOM     60  F   UNL     1      -6.340 -10.696  -2.002  1.00  0.00    -0.200 F 
ENDBRANCH  26  50
BRANCH  38  61
ATOM     61  C   UNL     1       3.718  -9.760  -3.901  1.00  0.00     0.064 A 
ATOM     62  C   UNL     1       3.180  -8.644  -4.565  1.00  0.00     0.173 A 
ATOM     63  C   UNL     1       4.694 -10.505  -4.576  1.00  0.00     0.173 A 
ATOM     64  F   UNL     1       2.324  -7.821  -3.948  1.00  0.00    -0.203 F 
ATOM     65  C   UNL     1       3.568  -8.320  -5.863  1.00  0.00     0.198 A 
ATOM     66  C   UNL     1       5.107 -10.156  -5.858  1.00  0.00     0.198 A 
ATOM     67  F   UNL     1       5.286 -11.545  -3.968  1.00  0.00    -0.203 F 
ATOM     68  F   UNL     1       3.031  -7.256  -6.479  1.00  0.00    -0.200 F 
ATOM     69  C   UNL     1       4.536  -9.072  -6.506  1.00  0.00     0.200 A 
ATOM     70  F   UNL     1       6.082 -10.855  -6.455  1.00  0.00    -0.200 F 
ATOM     71  F   UNL     1       4.942  -8.736  -7.738  1.00  0.00    -0.200 F 
ENDBRANCH  38  61
ENDBRANCH  12  13
ENDBRANCH   5   7
ENDBRANCH   2   3
ENDBRANCH   1   2
BRANCH   1  72
ATOM     72  C   UNL     1       3.660   1.022  -3.947  1.00  0.00     0.023 C 
BRANCH  72  73
ATOM     73  C   UNL     1       4.279   2.410  -4.217  1.00  0.00     0.116 C 
BRANCH  73  74
ATOM     74  N   UNL     1       5.728   2.453  -4.336  1.00  0.00    -0.351 N 
ATOM     75  C   UNL     1       6.546   3.571  -4.500  1.00  0.00     0.273 C 
ATOM     76  H   UNL     1       6.189   1.584  -4.297  1.00  0.00     0.163 HD
ATOM     77  O   UNL     1       7.753   3.429  -4.523  1.00  0.00    -0.267 OA
BRANCH  75  78
ATOM     78  C   UNL     1       5.909   4.865  -4.745  1.00  0.00     0.178 A 
ATOM     79  N   UNL     1       5.713   5.236  -6.045  1.00  0.00    -0.124 NA
ATOM     80  C   UNL     1       5.411   5.857  -3.888  1.00  0.00     0.122 A 
ATOM     81  N   UNL     1       5.005   6.343  -6.054  1.00  0.00    -0.061 NA
ATOM     82  N   UNL     1       4.728   6.695  -4.778  1.00  0.00    -0.213 N 
BRANCH  80  83
ATOM     83  C   UNL     1       5.331   5.975  -2.387  1.00  0.00     0.262 C 
ATOM     84  C   UNL     1       6.447   6.746  -1.663  1.00  0.00     0.281 C 
ATOM     85  O   UNL     1       5.160   4.675  -1.831  1.00  0.00    -0.477 OA
ATOM     86  O   UNL     1       7.704   6.064  -1.579  1.00  0.00    -0.485 OA
ATOM     87  C   UNL     1       6.341   4.089  -1.479  1.00  0.00     0.162 A 
ATOM     88  C   UNL     1       7.556   4.726  -1.357  1.00  0.00     0.161 A 
ATOM     89  C   UNL     1       6.300   2.711  -1.413  1.00  0.00     0.050 A 
ATOM     90  C   UNL     1       8.700   3.957  -1.120  1.00  0.00     0.050 A 
ATOM     91  C   UNL     1       7.411   1.921  -1.194  1.00  0.00     0.004 A 
ATOM     92  C   UNL     1       8.627   2.556  -1.036  1.00  0.00     0.004 A 
ENDBRANCH  80  83
BRANCH  82  93
ATOM     93  C   UNL     1       3.691   7.643  -4.563  1.00  0.00     0.068 A 
ATOM     94  C   UNL     1       3.672   8.526  -3.481  1.00  0.00     0.028 A 
ATOM     95  C   UNL     1       2.615   7.638  -5.472  1.00  0.00     0.044 A 
ATOM     96  C   UNL     1       2.561   9.353  -3.280  1.00  0.00     0.003 A 
ATOM     97  C   UNL     1       1.506   8.447  -5.248  1.00  0.00     0.020 A 
ATOM     98  C   UNL     1       1.470   9.301  -4.150  1.00  0.00     0.016 A 
ATOM     99  Br  UNL     1       0.025   8.350  -6.419  1.00  0.00    -0.051 Br
ENDBRANCH  82  93
ENDBRANCH  75  78
ENDBRANCH  73  74
ENDBRANCH  72  73
ENDBRANCH   1  72
TORSDOF 13
