REMARK SMILES Cn1ccc(C(=O)NCc2ccc(C(=O)NCCCCNC(=O)c3ccc(-c4c5nc(c(-c6c(F)c(F)c(F)c(F)c6F)c6ccc([nH]6)c(-c6c(F)c(F)c(F)c(F)c6F)c6nc(c(-c7c(F)c(F)c(F)c(F)c7F)c7ccc4[nH]7)C=C6)C=C5)cc3)cc2)cc1=O
REMARK SMILES IDX 18 1 17 2 16 3 14 4 15 5 13 7 10 8 11 9 88 10 12 11 87 12
REMARK SMILES IDX 9 13 8 14 6 15 7 16 5 18 1 19 2 20 3 21 90 22 4 23 89 24
REMARK SMILES IDX 91 25 19 26 20 27 21 28 22 29 23 31 24 32 25 33 86 34 26 35
REMARK SMILES IDX 85 36 27 37 28 38 29 39 79 40 30 41 84 42 78 43 80 44 31 45
REMARK SMILES IDX 83 46 77 47 76 48 32 50 64 51 44 52 63 53 45 54 48 55 62 56
REMARK SMILES IDX 81 57 46 58 47 59 61 61 82 62 49 63 33 64 34 65 42 66 35 67
REMARK SMILES IDX 36 68 40 69 43 70 37 71 38 72 41 73 39 74 65 75 66 76 74 77
REMARK SMILES IDX 67 78 68 79 72 80 75 81 69 82 70 83 73 84 71 85 50 86 51 87
REMARK SMILES IDX 59 88 52 89 53 90 57 91 60 92 54 93 55 94 58 95 56 96
REMARK H PARENT 16 6 8 17 21 30 80 49 48 60
REMARK Flexibility Score: inf
ROOT
ATOM      1  C   UNL     1       4.959   6.798   5.142  1.00  0.00     0.023 C 
ENDROOT
BRANCH   1   2
ATOM      2  C   UNL     1       3.572   6.249   5.492  1.00  0.00     0.116 C 
BRANCH   2   3
ATOM      3  N   UNL     1       2.530   7.206   5.172  1.00  0.00    -0.352 N 
ATOM      4  C   UNL     1       1.693   7.319   4.088  1.00  0.00     0.251 C 
ATOM      5  O   UNL     1       0.824   8.189   4.129  1.00  0.00    -0.269 OA
ATOM      6  H   UNL     1       2.398   7.901   5.856  1.00  0.00     0.163 HD
BRANCH   4   7
ATOM      7  C   UNL     1       1.772   6.432   2.890  1.00  0.00     0.039 A 
ATOM      8  C   UNL     1       1.782   4.806   0.559  1.00  0.00    -0.029 A 
ATOM      9  C   UNL     1       0.610   5.448   0.976  1.00  0.00     0.006 A 
ATOM     10  C   UNL     1       2.952   5.030   1.298  1.00  0.00     0.006 A 
ATOM     11  C   UNL     1       0.606   6.247   2.131  1.00  0.00     0.014 A 
ATOM     12  C   UNL     1       2.947   5.840   2.435  1.00  0.00     0.014 A 
BRANCH   8  13
ATOM     13  C   UNL     1       1.809   3.973  -0.705  1.00  0.00     0.152 C 
BRANCH  13  14
ATOM     14  N   UNL     1       2.825   2.938  -0.632  1.00  0.00    -0.348 N 
ATOM     15  C   UNL     1       2.830   1.643  -0.239  1.00  0.00     0.251 C 
ATOM     16  O   UNL     1       3.936   1.105  -0.123  1.00  0.00    -0.269 OA
ATOM     17  H   UNL     1       3.708   3.248  -0.938  1.00  0.00     0.164 HD
BRANCH  15  18
ATOM     18  C   UNL     1       1.590   0.823  -0.060  1.00  0.00     0.046 A 
ATOM     19  C   UNL     1      -1.732  -1.823   0.073  1.00  0.00     0.153 C 
ATOM     20  N   UNL     1      -0.598  -0.912   0.078  1.00  0.00    -0.319 N 
ATOM     21  C   UNL     1       0.647  -1.411  -0.243  1.00  0.00     0.089 A 
ATOM     22  C   UNL     1      -0.791   0.423   0.420  1.00  0.00     0.251 A 
ATOM     23  C   UNL     1       1.711  -0.605  -0.316  1.00  0.00     0.032 A 
ATOM     24  C   UNL     1       0.415   1.298   0.377  1.00  0.00     0.085 A 
ATOM     25  O   UNL     1      -1.869   0.922   0.730  1.00  0.00    -0.269 OA
ENDBRANCH  15  18
ENDBRANCH  13  14
ENDBRANCH   8  13
ENDBRANCH   4   7
ENDBRANCH   2   3
ENDBRANCH   1   2
BRANCH   1  26
ATOM     26  C   UNL     1       5.538   7.782   6.159  1.00  0.00     0.023 C 
BRANCH  26  27
ATOM     27  C   UNL     1       5.804   7.198   7.539  1.00  0.00     0.116 C 
BRANCH  27  28
ATOM     28  N   UNL     1       6.715   6.063   7.525  1.00  0.00    -0.352 N 
ATOM     29  C   UNL     1       7.602   5.670   8.497  1.00  0.00     0.251 C 
ATOM     30  H   UNL     1       6.692   5.505   6.714  1.00  0.00     0.163 HD
ATOM     31  O   UNL     1       8.375   4.738   8.297  1.00  0.00    -0.269 OA
BRANCH  29  32
ATOM     32  C   UNL     1       7.650   6.412   9.772  1.00  0.00     0.039 A 
ATOM     33  C   UNL     1       8.888   6.850  10.249  1.00  0.00     0.014 A 
ATOM     34  C   UNL     1       6.476   6.710  10.469  1.00  0.00     0.014 A 
ATOM     35  C   UNL     1       8.942   7.648  11.392  1.00  0.00     0.010 A 
ATOM     36  C   UNL     1       6.525   7.565  11.564  1.00  0.00     0.010 A 
ATOM     37  C   UNL     1       7.758   8.041  12.036  1.00  0.00    -0.014 A 
BRANCH  37  38
ATOM     38  C   UNL     1       7.787   8.957  13.202  1.00  0.00     0.031 A 
ATOM     39  C   UNL     1       7.320   8.480  14.546  1.00  0.00     0.074 A 
ATOM     40  C   UNL     1       8.149  10.241  13.027  1.00  0.00     0.049 A 
ATOM     41  N   UNL     1       7.208   9.146  15.668  1.00  0.00    -0.248 NA
ATOM     42  C   UNL     1       6.887   7.078  14.633  1.00  0.00     0.031 C 
ATOM     43  C   UNL     1       8.547  10.840  11.752  1.00  0.00     0.029 A 
ATOM     44  N   UNL     1       8.221  11.279  13.920  1.00  0.00    -0.354 N 
ATOM     45  C   UNL     1       6.673   8.251  16.584  1.00  0.00     0.074 A 
ATOM     46  C   UNL     1       6.431   7.013  15.875  1.00  0.00     0.031 C 
ATOM     47  C   UNL     1       8.831  12.137  11.947  1.00  0.00     0.029 A 
ATOM     48  C   UNL     1       8.609  12.467  13.352  1.00  0.00     0.049 A 
ATOM     49  H   UNL     1       8.015  11.182  14.878  1.00  0.00     0.167 HD
ATOM     50  C   UNL     1       6.426   8.439  17.902  1.00  0.00     0.037 A 
ATOM     51  C   UNL     1       8.761  13.687  13.901  1.00  0.00     0.037 A 
ATOM     52  C   UNL     1       6.698   9.665  18.607  1.00  0.00     0.049 A 
ATOM     53  C   UNL     1       8.521  13.865  15.373  1.00  0.00     0.074 A 
ATOM     54  C   UNL     1       6.578   9.928  19.960  1.00  0.00     0.029 A 
ATOM     55  N   UNL     1       7.137  10.837  18.008  1.00  0.00    -0.354 N 
ATOM     56  N   UNL     1       8.111  12.985  16.255  1.00  0.00    -0.248 NA
ATOM     57  C   UNL     1       8.775  15.200  15.931  1.00  0.00     0.031 C 
ATOM     58  C   UNL     1       6.899  11.274  20.173  1.00  0.00     0.029 A 
ATOM     59  C   UNL     1       7.266  11.836  18.960  1.00  0.00     0.049 A 
ATOM     60  H   UNL     1       7.329  10.943  17.049  1.00  0.00     0.167 HD
ATOM     61  C   UNL     1       8.073  13.652  17.471  1.00  0.00     0.074 A 
ATOM     62  C   UNL     1       8.519  15.007  17.217  1.00  0.00     0.031 C 
ATOM     63  C   UNL     1       7.702  13.183  18.689  1.00  0.00     0.037 A 
BRANCH  50  64
ATOM     64  C   UNL     1       5.829   7.289  18.661  1.00  0.00     0.064 A 
ATOM     65  C   UNL     1       6.554   6.113  18.912  1.00  0.00     0.173 A 
ATOM     66  C   UNL     1       4.514   7.364  19.144  1.00  0.00     0.173 A 
ATOM     67  F   UNL     1       7.811   5.986  18.462  1.00  0.00    -0.203 F 
ATOM     68  C   UNL     1       5.969   5.039  19.577  1.00  0.00     0.198 A 
ATOM     69  C   UNL     1       3.944   6.299  19.839  1.00  0.00     0.198 A 
ATOM     70  F   UNL     1       3.779   8.466  18.939  1.00  0.00    -0.203 F 
ATOM     71  F   UNL     1       6.659   3.902  19.746  1.00  0.00    -0.200 F 
ATOM     72  C   UNL     1       4.667   5.134  20.044  1.00  0.00     0.200 A 
ATOM     73  F   UNL     1       2.689   6.397  20.299  1.00  0.00    -0.200 F 
ATOM     74  F   UNL     1       4.105   4.098  20.681  1.00  0.00    -0.200 F 
ENDBRANCH  50  64
BRANCH  51  75
ATOM     75  C   UNL     1       9.193  14.821  13.046  1.00  0.00     0.064 A 
ATOM     76  C   UNL     1      10.492  15.338  13.136  1.00  0.00     0.173 A 
ATOM     77  C   UNL     1       8.329  15.383  12.094  1.00  0.00     0.173 A 
ATOM     78  F   UNL     1      11.347  14.844  14.043  1.00  0.00    -0.203 F 
ATOM     79  C   UNL     1      10.910  16.380  12.310  1.00  0.00     0.198 A 
ATOM     80  C   UNL     1       8.755  16.408  11.253  1.00  0.00     0.198 A 
ATOM     81  F   UNL     1       7.079  14.916  11.964  1.00  0.00    -0.203 F 
ATOM     82  F   UNL     1      12.149  16.875  12.435  1.00  0.00    -0.200 F 
ATOM     83  C   UNL     1      10.044  16.909  11.364  1.00  0.00     0.200 A 
ATOM     84  F   UNL     1       7.921  16.905  10.329  1.00  0.00    -0.200 F 
ATOM     85  F   UNL     1      10.451  17.901  10.561  1.00  0.00    -0.200 F 
ENDBRANCH  51  75
BRANCH  63  86
ATOM     86  C   UNL     1       7.771  14.140  19.843  1.00  0.00     0.064 A 
ATOM     87  C   UNL     1       6.848  15.186  19.985  1.00  0.00     0.173 A 
ATOM     88  C   UNL     1       8.746  13.982  20.840  1.00  0.00     0.173 A 
ATOM     89  F   UNL     1       5.907  15.388  19.050  1.00  0.00    -0.203 F 
ATOM     90  C   UNL     1       6.911  16.053  21.073  1.00  0.00     0.198 A 
ATOM     91  C   UNL     1       8.788  14.833  21.940  1.00  0.00     0.198 A 
ATOM     92  F   UNL     1       9.649  12.994  20.753  1.00  0.00    -0.203 F 
ATOM     93  F   UNL     1       6.046  17.072  21.166  1.00  0.00    -0.200 F 
ATOM     94  C   UNL     1       7.876  15.871  22.053  1.00  0.00     0.200 A 
ATOM     95  F   UNL     1       9.713  14.649  22.893  1.00  0.00    -0.200 F 
ATOM     96  F   UNL     1       7.930  16.701  23.104  1.00  0.00    -0.200 F 
ENDBRANCH  63  86
ENDBRANCH  37  38
ENDBRANCH  29  32
ENDBRANCH  27  28
ENDBRANCH  26  27
ENDBRANCH   1  26
TORSDOF 14
