REMARK SMILES COc1cc(/N=N/c2ccccc2)ccc1NC(=O)[C@H]1CC=CC[C@@H]1C(=O)NCCCCNC(=O)c1ccc(-c2c3nc(c(-c4c(F)c(F)c(F)c(F)c4F)c4ccc([nH]4)c(-c4c(F)c(F)c(F)c(F)c4F)c4nc(c(-c5c(F)c(F)c(F)c(F)c5F)c5ccc2[nH]5)C=C4)C=C3)cc1
REMARK SMILES IDX 29 1 28 2 26 3 27 4 25 6 20 7 21 8 22 9 24 10 23 11 18 12
REMARK SMILES IDX 17 13 19 15 16 16 3 17 4 18 5 19 15 20 14 21 2 22 1 23 6 24
REMARK SMILES IDX 7 25 8 26 9 27 13 28 10 29 12 30 11 31 30 32 31 33 32 34
REMARK SMILES IDX 33 35 34 36 35 38 36 39 37 40 98 41 38 42 97 43 39 44 40 45
REMARK SMILES IDX 41 46 91 47 42 48 96 49 90 50 92 51 43 52 95 53 89 54 88 55
REMARK SMILES IDX 44 57 76 58 56 59 75 60 57 61 60 62 74 63 93 64 58 65 59 66
REMARK SMILES IDX 73 68 94 69 61 70 45 71 46 72 54 73 47 74 48 75 52 76 55 77
REMARK SMILES IDX 49 78 50 79 53 80 51 81 77 82 78 83 86 84 79 85 80 86 84 87
REMARK SMILES IDX 87 88 81 89 82 90 85 91 83 92 62 93 63 94 71 95 64 96 65 97
REMARK SMILES IDX 69 98 72 99 66 100 67 101 70 102 68 103
REMARK H PARENT 28 5 17 14 33 37 92 56 60 67
REMARK Flexibility Score: inf
ROOT
ATOM      1  C   UNL     1       6.649   2.933  -4.586  1.00  0.00     0.116 C 
ENDROOT
BRANCH   1   2
ATOM      2  N   UNL     1       5.731   2.240  -5.464  1.00  0.00    -0.356 N 
ATOM      3  C   UNL     1       5.000   1.107  -5.395  1.00  0.00     0.224 C 
ATOM      4  O   UNL     1       4.454   0.802  -6.467  1.00  0.00    -0.275 OA
ATOM      5  H   UNL     1       5.611   2.709  -6.321  1.00  0.00     0.163 HD
BRANCH   3   6
ATOM      6  C   UNL     1       4.739   0.221  -4.163  1.00  0.00     0.095 C 
ATOM      7  C   UNL     1       5.149   0.664  -2.745  1.00  0.00     0.095 C 
ATOM      8  C   UNL     1       6.618   0.278  -2.424  1.00  0.00     0.041 C 
ATOM      9  C   UNL     1       7.099  -1.000  -3.045  1.00  0.00    -0.030 C 
ATOM     10  C   UNL     1       5.076  -1.249  -4.470  1.00  0.00     0.041 C 
ATOM     11  C   UNL     1       6.401  -1.693  -3.951  1.00  0.00    -0.030 C 
BRANCH   7  12
ATOM     12  C   UNL     1       4.243   0.114  -1.631  1.00  0.00     0.228 C 
ATOM     13  N   UNL     1       2.897   0.272  -1.587  1.00  0.00    -0.323 N 
ATOM     14  H   UNL     1       2.500  -0.153  -0.793  1.00  0.00     0.170 HD
ATOM     15  O   UNL     1       4.716  -0.513  -0.674  1.00  0.00    -0.274 OA
BRANCH  13  16
ATOM     16  C   UNL     1       1.930   0.892  -2.392  1.00  0.00     0.083 A 
ATOM     17  C   UNL     1       0.634   0.350  -2.338  1.00  0.00     0.144 A 
ATOM     18  C   UNL     1      -0.290   0.610  -3.350  1.00  0.00     0.079 A 
ATOM     19  C   UNL     1       0.036   1.501  -4.373  1.00  0.00     0.090 A 
ATOM     20  C   UNL     1       2.183   1.918  -3.295  1.00  0.00     0.032 A 
ATOM     21  C   UNL     1       1.243   2.210  -4.289  1.00  0.00     0.033 A 
BRANCH  17  22
ATOM     22  O   UNL     1       0.283  -0.566  -1.374  1.00  0.00    -0.494 OA
ATOM     23  C   UNL     1       0.051   0.086  -0.118  1.00  0.00     0.278 C 
ENDBRANCH  17  22
BRANCH  19  24
ATOM     24  N   UNL     1      -0.838   1.684  -5.462  1.00  0.00    -0.150 NA
ATOM     25  N   UNL     1      -0.272   1.306  -6.513  1.00  0.00    -0.151 NA
BRANCH  25  26
ATOM     26  C   UNL     1      -1.030   1.493  -7.689  1.00  0.00     0.086 A 
ATOM     27  C   UNL     1      -0.427   1.134  -8.904  1.00  0.00     0.030 A 
ATOM     28  C   UNL     1      -2.331   2.014  -7.728  1.00  0.00     0.030 A 
ATOM     29  C   UNL     1      -1.098   1.290 -10.121  1.00  0.00     0.002 A 
ATOM     30  C   UNL     1      -3.007   2.172  -8.943  1.00  0.00     0.002 A 
ATOM     31  C   UNL     1      -2.390   1.810 -10.139  1.00  0.00     0.000 A 
ENDBRANCH  25  26
ENDBRANCH  19  24
ENDBRANCH  13  16
ENDBRANCH   7  12
ENDBRANCH   3   6
ENDBRANCH   1   2
BRANCH   1  32
ATOM     32  C   UNL     1       8.076   2.408  -4.740  1.00  0.00     0.023 C 
BRANCH  32  33
ATOM     33  C   UNL     1       8.871   3.038  -5.879  1.00  0.00     0.023 C 
BRANCH  33  34
ATOM     34  C   UNL     1       9.078   4.544  -5.765  1.00  0.00     0.116 C 
BRANCH  34  35
ATOM     35  N   UNL     1       9.669   4.972  -4.504  1.00  0.00    -0.352 N 
ATOM     36  C   UNL     1      10.532   6.020  -4.285  1.00  0.00     0.251 C 
ATOM     37  H   UNL     1       9.420   4.445  -3.711  1.00  0.00     0.163 HD
ATOM     38  O   UNL     1      11.007   6.225  -3.173  1.00  0.00    -0.269 OA
BRANCH  36  39
ATOM     39  C   UNL     1      10.916   6.868  -5.428  1.00  0.00     0.039 A 
ATOM     40  C   UNL     1      12.271   7.042  -5.715  1.00  0.00     0.014 A 
ATOM     41  C   UNL     1       9.934   7.406  -6.263  1.00  0.00     0.014 A 
ATOM     42  C   UNL     1      12.643   7.690  -6.892  1.00  0.00     0.010 A 
ATOM     43  C   UNL     1      10.305   7.979  -7.472  1.00  0.00     0.010 A 
ATOM     44  C   UNL     1      11.662   8.123  -7.800  1.00  0.00    -0.014 A 
BRANCH  44  45
ATOM     45  C   UNL     1      12.030   8.726  -9.104  1.00  0.00     0.031 A 
ATOM     46  C   UNL     1      11.644  10.147  -9.402  1.00  0.00     0.074 A 
ATOM     47  C   UNL     1      12.623   7.969 -10.047  1.00  0.00     0.049 A 
ATOM     48  N   UNL     1      11.783  10.828 -10.511  1.00  0.00    -0.248 NA
ATOM     49  C   UNL     1      10.977  10.892  -8.322  1.00  0.00     0.031 C 
ATOM     50  C   UNL     1      12.980   6.556  -9.900  1.00  0.00     0.029 A 
ATOM     51  N   UNL     1      13.014   8.277 -11.326  1.00  0.00    -0.354 N 
ATOM     52  C   UNL     1      11.195  12.062 -10.271  1.00  0.00     0.074 A 
ATOM     53  C   UNL     1      10.657  12.024  -8.930  1.00  0.00     0.031 C 
ATOM     54  C   UNL     1      13.552   6.126 -11.037  1.00  0.00     0.029 A 
ATOM     55  C   UNL     1      13.574   7.220 -12.002  1.00  0.00     0.049 A 
ATOM     56  H   UNL     1      12.904   9.171 -11.722  1.00  0.00     0.167 HD
ATOM     57  C   UNL     1      11.131  13.137 -11.090  1.00  0.00     0.037 A 
ATOM     58  C   UNL     1      14.046   7.144 -13.261  1.00  0.00     0.037 A 
ATOM     59  C   UNL     1      11.720  13.188 -12.401  1.00  0.00     0.049 A 
ATOM     60  C   UNL     1      14.008   8.372 -14.131  1.00  0.00     0.074 A 
ATOM     61  C   UNL     1      11.803  14.263 -13.268  1.00  0.00     0.029 A 
ATOM     62  N   UNL     1      12.332  12.115 -13.031  1.00  0.00    -0.354 N 
ATOM     63  N   UNL     1      13.534   9.564 -13.859  1.00  0.00    -0.248 NA
ATOM     64  C   UNL     1      14.578   8.247 -15.480  1.00  0.00     0.031 C 
ATOM     65  C   UNL     1      12.431  13.830 -14.440  1.00  0.00     0.029 A 
ATOM     66  C   UNL     1      12.778  12.497 -14.285  1.00  0.00     0.049 A 
ATOM     67  H   UNL     1      12.434  11.215 -12.644  1.00  0.00     0.167 HD
ATOM     68  C   UNL     1      13.774  10.336 -14.987  1.00  0.00     0.074 A 
ATOM     69  C   UNL     1      14.448   9.482 -15.942  1.00  0.00     0.031 C 
ATOM     70  C   UNL     1      13.461  11.635 -15.214  1.00  0.00     0.037 A 
BRANCH  57  71
ATOM     71  C   UNL     1      10.410  14.354 -10.589  1.00  0.00     0.064 A 
ATOM     72  C   UNL     1      10.942  15.158  -9.571  1.00  0.00     0.173 A 
ATOM     73  C   UNL     1       9.193  14.744 -11.167  1.00  0.00     0.173 A 
ATOM     74  F   UNL     1      12.097  14.820  -8.977  1.00  0.00    -0.203 F 
ATOM     75  C   UNL     1      10.270  16.294  -9.131  1.00  0.00     0.198 A 
ATOM     76  C   UNL     1       8.537  15.897 -10.744  1.00  0.00     0.198 A 
ATOM     77  F   UNL     1       8.643  14.011 -12.147  1.00  0.00    -0.203 F 
ATOM     78  F   UNL     1      10.775  17.023  -8.126  1.00  0.00    -0.200 F 
ATOM     79  C   UNL     1       9.073  16.668  -9.723  1.00  0.00     0.200 A 
ATOM     80  F   UNL     1       7.386  16.262 -11.325  1.00  0.00    -0.200 F 
ATOM     81  F   UNL     1       8.431  17.768  -9.305  1.00  0.00    -0.200 F 
ENDBRANCH  57  71
BRANCH  58  82
ATOM     82  C   UNL     1      14.620   5.872 -13.770  1.00  0.00     0.064 A 
ATOM     83  C   UNL     1      15.996   5.751 -14.015  1.00  0.00     0.173 A 
ATOM     84  C   UNL     1      13.810   4.760 -14.040  1.00  0.00     0.173 A 
ATOM     85  F   UNL     1      16.809   6.793 -13.791  1.00  0.00    -0.203 F 
ATOM     86  C   UNL     1      16.534   4.577 -14.538  1.00  0.00     0.198 A 
ATOM     87  C   UNL     1      14.353   3.577 -14.537  1.00  0.00     0.198 A 
ATOM     88  F   UNL     1      12.489   4.822 -13.817  1.00  0.00    -0.203 F 
ATOM     89  F   UNL     1      17.844   4.507 -14.812  1.00  0.00    -0.200 F 
ATOM     90  C   UNL     1      15.713   3.489 -14.795  1.00  0.00     0.200 A 
ATOM     91  F   UNL     1      13.558   2.524 -14.773  1.00  0.00    -0.200 F 
ATOM     92  F   UNL     1      16.230   2.361 -15.300  1.00  0.00    -0.200 F 
ENDBRANCH  58  82
BRANCH  70  93
ATOM     93  C   UNL     1      13.877  12.222 -16.529  1.00  0.00     0.064 A 
ATOM     94  C   UNL     1      13.219  11.891 -17.722  1.00  0.00     0.173 A 
ATOM     95  C   UNL     1      14.917  13.163 -16.588  1.00  0.00     0.173 A 
ATOM     96  F   UNL     1      12.229  10.986 -17.717  1.00  0.00    -0.203 F 
ATOM     97  C   UNL     1      13.601  12.465 -18.931  1.00  0.00     0.198 A 
ATOM     98  C   UNL     1      15.278  13.755 -17.794  1.00  0.00     0.198 A 
ATOM     99  F   UNL     1      15.573  13.517 -15.472  1.00  0.00    -0.203 F 
ATOM    100  F   UNL     1      12.987  12.104 -20.066  1.00  0.00    -0.200 F 
ATOM    101  C   UNL     1      14.624  13.402 -18.965  1.00  0.00     0.200 A 
ATOM    102  F   UNL     1      16.257  14.669 -17.823  1.00  0.00    -0.200 F 
ATOM    103  F   UNL     1      14.984  13.960 -20.129  1.00  0.00    -0.200 F 
ENDBRANCH  70  93
ENDBRANCH  44  45
ENDBRANCH  36  39
ENDBRANCH  34  35
ENDBRANCH  33  34
ENDBRANCH  32  33
ENDBRANCH   1  32
TORSDOF 16
