REMARK SMILES O=C(NCCCCNC(=O)c1ccc(-c2c3nc(c(-c4c(F)c(F)c(F)c(F)c4F)c4ccc([nH]4)c(-c4c(F)c(F)c(F)c(F)c4F)c4nc(c(-c5c(F)c(F)c(F)c(F)c5F)c5ccc2[nH]5)C=C4)C=C3)cc1)c1ccc(Cn2cc(Cl)c(=O)[nH]c2=O)cc1
REMARK SMILES IDX 5 1 4 2 3 3 1 4 2 5 74 7 75 8 89 9 76 10 88 11 77 12 78 13
REMARK SMILES IDX 79 14 80 15 86 16 81 17 85 18 87 19 82 20 83 21 84 23 6 24
REMARK SMILES IDX 7 25 8 26 9 27 10 29 11 30 12 31 73 32 13 33 72 34 14 35
REMARK SMILES IDX 15 36 16 37 66 38 17 39 71 40 65 41 67 42 18 43 70 44 64 45
REMARK SMILES IDX 63 46 19 48 51 49 31 50 50 51 32 52 35 53 49 54 68 55 33 56
REMARK SMILES IDX 34 57 48 59 69 60 36 61 20 62 21 63 29 64 22 65 23 66 27 67
REMARK SMILES IDX 30 68 24 69 25 70 28 71 26 72 52 73 53 74 61 75 54 76 55 77
REMARK SMILES IDX 59 78 62 79 56 80 57 81 60 82 58 83 37 84 38 85 46 86 39 87
REMARK SMILES IDX 40 88 44 89 47 90 41 91 42 92 45 93 43 94
REMARK H PARENT 3 6 85 22 8 28 67 47 35 58
REMARK Flexibility Score: inf
ROOT
ATOM      1  C   UNL     1       4.942   1.633   1.819  1.00  0.00     0.023 C 
ENDROOT
BRANCH   1   2
ATOM      2  C   UNL     1       4.517   0.300   1.210  1.00  0.00     0.116 C 
BRANCH   2   3
ATOM      3  N   UNL     1       3.071   0.175   1.102  1.00  0.00    -0.352 N 
ATOM      4  O   UNL     1       1.086   0.051   0.019  1.00  0.00    -0.269 OA
ATOM      5  C   UNL     1       2.311   0.005  -0.030  1.00  0.00     0.251 C 
ATOM      6  H   UNL     1       2.574   0.218   1.950  1.00  0.00     0.163 HD
BRANCH   5   7
ATOM      7  C   UNL     1       2.993  -0.223  -1.316  1.00  0.00     0.039 A 
ATOM      8  C   UNL     1       3.803  -1.349  -1.483  1.00  0.00     0.014 A 
ATOM      9  C   UNL     1       2.855   0.715  -2.340  1.00  0.00     0.014 A 
ATOM     10  C   UNL     1       4.543  -1.493  -2.655  1.00  0.00     0.006 A 
ATOM     11  C   UNL     1       3.612   0.574  -3.506  1.00  0.00     0.006 A 
ATOM     12  C   UNL     1       4.483  -0.517  -3.663  1.00  0.00    -0.028 A 
BRANCH  12  13
ATOM     13  C   UNL     1       5.380  -0.617  -4.880  1.00  0.00     0.162 C 
BRANCH  13  14
ATOM     14  N   UNL     1       6.692   0.014  -4.673  1.00  0.00    -0.295 N 
ATOM     15  C   UNL     1       7.603  -0.560  -3.801  1.00  0.00     0.117 A 
ATOM     16  C   UNL     1       6.997   1.175  -5.375  1.00  0.00     0.328 A 
ATOM     17  C   UNL     1       8.806  -0.033  -3.562  1.00  0.00     0.122 A 
ATOM     18  N   UNL     1       8.246   1.696  -5.142  1.00  0.00    -0.273 N 
ATOM     19  O   UNL     1       6.237   1.730  -6.165  1.00  0.00    -0.248 OA
ATOM     20  Cl  UNL     1       9.908  -0.744  -2.457  1.00  0.00    -0.077 Cl
ATOM     21  C   UNL     1       9.192   1.203  -4.282  1.00  0.00     0.272 A 
ATOM     22  H   UNL     1       8.486   2.508  -5.644  1.00  0.00     0.175 HD
ATOM     23  O   UNL     1      10.276   1.756  -4.134  1.00  0.00    -0.268 OA
ENDBRANCH  13  14
ENDBRANCH  12  13
ENDBRANCH   5   7
ENDBRANCH   2   3
ENDBRANCH   1   2
BRANCH   1  24
ATOM     24  C   UNL     1       4.488   1.866   3.260  1.00  0.00     0.023 C 
BRANCH  24  25
ATOM     25  C   UNL     1       4.872   0.775   4.253  1.00  0.00     0.116 C 
BRANCH  25  26
ATOM     26  N   UNL     1       6.309   0.580   4.367  1.00  0.00    -0.352 N 
ATOM     27  C   UNL     1       7.099   0.523   5.490  1.00  0.00     0.251 C 
ATOM     28  H   UNL     1       6.787   0.474   3.512  1.00  0.00     0.163 HD
ATOM     29  O   UNL     1       8.320   0.466   5.382  1.00  0.00    -0.269 OA
BRANCH  27  30
ATOM     30  C   UNL     1       6.483   0.566   6.835  1.00  0.00     0.039 A 
ATOM     31  C   UNL     1       7.039   1.407   7.803  1.00  0.00     0.014 A 
ATOM     32  C   UNL     1       5.360  -0.206   7.141  1.00  0.00     0.014 A 
ATOM     33  C   UNL     1       6.423   1.532   9.050  1.00  0.00     0.010 A 
ATOM     34  C   UNL     1       4.703  -0.023   8.355  1.00  0.00     0.010 A 
ATOM     35  C   UNL     1       5.226   0.850   9.321  1.00  0.00    -0.014 A 
BRANCH  35  36
ATOM     36  C   UNL     1       4.501   1.042  10.604  1.00  0.00     0.031 A 
ATOM     37  C   UNL     1       4.324  -0.108  11.555  1.00  0.00     0.074 A 
ATOM     38  C   UNL     1       3.943   2.237  10.882  1.00  0.00     0.049 A 
ATOM     39  N   UNL     1       3.666  -0.156  12.686  1.00  0.00    -0.248 NA
ATOM     40  C   UNL     1       4.945  -1.384  11.168  1.00  0.00     0.031 C 
ATOM     41  C   UNL     1       4.004   3.420  10.023  1.00  0.00     0.029 A 
ATOM     42  N   UNL     1       3.204   2.650  11.964  1.00  0.00    -0.354 N 
ATOM     43  C   UNL     1       3.781  -1.465  13.135  1.00  0.00     0.074 A 
ATOM     44  C   UNL     1       4.524  -2.193  12.129  1.00  0.00     0.031 C 
ATOM     45  C   UNL     1       3.356   4.432  10.622  1.00  0.00     0.029 A 
ATOM     46  C   UNL     1       2.801   3.961  11.887  1.00  0.00     0.049 A 
ATOM     47  H   UNL     1       2.984   2.062  12.722  1.00  0.00     0.167 HD
ATOM     48  C   UNL     1       3.329  -2.006  14.292  1.00  0.00     0.037 A 
ATOM     49  C   UNL     1       2.062   4.697  12.739  1.00  0.00     0.037 A 
ATOM     50  C   UNL     1       2.612  -1.274  15.303  1.00  0.00     0.049 A 
ATOM     51  C   UNL     1       1.559   4.068  14.009  1.00  0.00     0.074 A 
ATOM     52  C   UNL     1       2.168  -1.716  16.538  1.00  0.00     0.029 A 
ATOM     53  N   UNL     1       2.227   0.054  15.192  1.00  0.00    -0.354 N 
ATOM     54  N   UNL     1       1.737   2.849  14.458  1.00  0.00    -0.248 NA
ATOM     55  C   UNL     1       0.753   4.921  14.895  1.00  0.00     0.031 C 
ATOM     56  C   UNL     1       1.474  -0.668  17.154  1.00  0.00     0.029 A 
ATOM     57  C   UNL     1       1.530   0.441  16.326  1.00  0.00     0.049 A 
ATOM     58  H   UNL     1       2.421   0.636  14.422  1.00  0.00     0.167 HD
ATOM     59  C   UNL     1       1.096   2.798  15.689  1.00  0.00     0.074 A 
ATOM     60  C   UNL     1       0.535   4.113  15.922  1.00  0.00     0.031 C 
ATOM     61  C   UNL     1       0.985   1.756  16.549  1.00  0.00     0.037 A 
BRANCH  48  62
ATOM     62  C   UNL     1       3.600  -3.465  14.525  1.00  0.00     0.064 A 
ATOM     63  C   UNL     1       4.897  -3.946  14.762  1.00  0.00     0.173 A 
ATOM     64  C   UNL     1       2.547  -4.393  14.533  1.00  0.00     0.173 A 
ATOM     65  F   UNL     1       5.941  -3.103  14.754  1.00  0.00    -0.203 F 
ATOM     66  C   UNL     1       5.135  -5.303  14.961  1.00  0.00     0.198 A 
ATOM     67  C   UNL     1       2.784  -5.745  14.765  1.00  0.00     0.198 A 
ATOM     68  F   UNL     1       1.286  -3.987  14.319  1.00  0.00    -0.203 F 
ATOM     69  F   UNL     1       6.389  -5.745  15.127  1.00  0.00    -0.200 F 
ATOM     70  C   UNL     1       4.078  -6.201  14.968  1.00  0.00     0.200 A 
ATOM     71  F   UNL     1       1.760  -6.610  14.785  1.00  0.00    -0.200 F 
ATOM     72  F   UNL     1       4.308  -7.506  15.162  1.00  0.00    -0.200 F 
ENDBRANCH  48  62
BRANCH  49  73
ATOM     73  C   UNL     1       1.782   6.125  12.437  1.00  0.00     0.064 A 
ATOM     74  C   UNL     1       2.370   7.145  13.198  1.00  0.00     0.173 A 
ATOM     75  C   UNL     1       0.923   6.501  11.395  1.00  0.00     0.173 A 
ATOM     76  F   UNL     1       3.182   6.835  14.220  1.00  0.00    -0.203 F 
ATOM     77  C   UNL     1       2.094   8.486  12.941  1.00  0.00     0.198 A 
ATOM     78  C   UNL     1       0.669   7.844  11.121  1.00  0.00     0.198 A 
ATOM     79  F   UNL     1       0.338   5.564  10.635  1.00  0.00    -0.203 F 
ATOM     80  F   UNL     1       2.634   9.439  13.714  1.00  0.00    -0.200 F 
ATOM     81  C   UNL     1       1.248   8.835  11.900  1.00  0.00     0.200 A 
ATOM     82  F   UNL     1      -0.139   8.177  10.105  1.00  0.00    -0.200 F 
ATOM     83  F   UNL     1       0.985  10.125  11.651  1.00  0.00    -0.200 F 
ENDBRANCH  49  73
BRANCH  61  84
ATOM     84  C   UNL     1       0.263   2.006  17.841  1.00  0.00     0.064 A 
ATOM     85  C   UNL     1      -1.128   2.181  17.888  1.00  0.00     0.173 A 
ATOM     86  C   UNL     1       0.970   2.036  19.054  1.00  0.00     0.173 A 
ATOM     87  F   UNL     1      -1.847   2.178  16.756  1.00  0.00    -0.203 F 
ATOM     88  C   UNL     1      -1.781   2.404  19.098  1.00  0.00     0.198 A 
ATOM     89  C   UNL     1       0.310   2.227  20.264  1.00  0.00     0.198 A 
ATOM     90  F   UNL     1       2.300   1.867  19.065  1.00  0.00    -0.203 F 
ATOM     91  F   UNL     1      -3.104   2.618  19.113  1.00  0.00    -0.200 F 
ATOM     92  C   UNL     1      -1.063   2.419  20.285  1.00  0.00     0.200 A 
ATOM     93  F   UNL     1       1.003   2.228  21.411  1.00  0.00    -0.200 F 
ATOM     94  F   UNL     1      -1.694   2.627  21.448  1.00  0.00    -0.200 F 
ENDBRANCH  61  84
ENDBRANCH  35  36
ENDBRANCH  27  30
ENDBRANCH  25  26
ENDBRANCH  24  25
ENDBRANCH   1  24
TORSDOF 13
