REMARK SMILES O=C(CSc1nc2cccnc2n1CC(F)(F)F)NCCCCNC(=O)c1ccc(-c2c3nc(c(-c4c(F)c(F)c(F)c(F)c4F)c4ccc([nH]4)c(-c4c(F)c(F)c(F)c(F)c4F)c4nc(c(-c5c(F)c(F)c(F)c(F)c5F)c5ccc2[nH]5)C=C4)C=C3)cc1
REMARK SMILES IDX 20 1 19 2 1 3 2 4 3 6 4 7 5 8 6 9 13 10 7 11 12 12 8 13
REMARK SMILES IDX 11 14 9 15 10 16 14 17 15 18 16 19 17 20 18 21 21 22 22 23
REMARK SMILES IDX 23 24 24 25 25 26 26 28 27 29 28 30 89 31 29 32 88 33 30 34
REMARK SMILES IDX 31 35 32 36 82 37 33 38 87 39 81 40 83 41 34 42 86 43 80 44
REMARK SMILES IDX 79 45 35 47 67 48 47 49 66 50 48 51 51 52 65 53 84 54 49 55
REMARK SMILES IDX 50 56 64 58 85 59 52 60 36 61 37 62 45 63 38 64 39 65 43 66
REMARK SMILES IDX 46 67 40 68 41 69 44 70 42 71 68 72 69 73 77 74 70 75 71 76
REMARK SMILES IDX 75 77 78 78 72 79 73 80 76 81 74 82 53 83 54 84 62 85 55 86
REMARK SMILES IDX 56 87 60 88 63 89 57 90 58 91 61 92 59 93
REMARK H PARENT 19 5 24 27 83 46 51 57
REMARK Flexibility Score: inf
ROOT
ATOM      1  C   UNL     1       2.150  -2.451   0.593  1.00  0.00     0.116 C 
ENDROOT
BRANCH   1   2
ATOM      2  N   UNL     1       2.794  -1.170   0.384  1.00  0.00    -0.355 N 
ATOM      3  O   UNL     1       0.872  -0.010  -0.106  1.00  0.00    -0.274 OA
ATOM      4  C   UNL     1       2.085  -0.022   0.095  1.00  0.00     0.230 C 
ATOM      5  H   UNL     1       3.775  -1.117   0.450  1.00  0.00     0.163 HD
BRANCH   4   6
ATOM      6  C   UNL     1       2.921   1.229  -0.106  1.00  0.00     0.178 C 
BRANCH   6   7
ATOM      7  S   UNL     1       4.147   1.507   1.196  1.00  0.00    -0.078 SA
BRANCH   7   8
ATOM      8  C   UNL     1       3.130   1.817   2.561  1.00  0.00     0.171 A 
ATOM      9  N   UNL     1       2.529   0.869   3.243  1.00  0.00    -0.221 NA
ATOM     10  N   UNL     1       2.915   3.064   3.092  1.00  0.00    -0.294 N 
ATOM     11  C   UNL     1       1.880   1.523   4.259  1.00  0.00     0.109 A 
ATOM     12  C   UNL     1       2.108   2.892   4.189  1.00  0.00     0.160 A 
ATOM     13  C   UNL     1       1.069   1.049   5.296  1.00  0.00     0.034 A 
ATOM     14  N   UNL     1       1.634   3.850   5.010  1.00  0.00    -0.237 NA
ATOM     15  C   UNL     1       0.549   1.996   6.184  1.00  0.00     0.022 A 
ATOM     16  C   UNL     1       0.856   3.341   5.998  1.00  0.00     0.113 A 
BRANCH  10  17
ATOM     17  C   UNL     1       3.341   4.355   2.601  1.00  0.00     0.241 C 
BRANCH  17  18
ATOM     18  C   UNL     1       4.788   4.679   2.889  1.00  0.00     0.406 C 
ATOM     19  F   UNL     1       5.632   3.987   2.096  1.00  0.00    -0.169 F 
ATOM     20  F   UNL     1       5.022   5.993   2.647  1.00  0.00    -0.169 F 
ATOM     21  F   UNL     1       5.133   4.439   4.170  1.00  0.00    -0.169 F 
ENDBRANCH  17  18
ENDBRANCH  10  17
ENDBRANCH   7   8
ENDBRANCH   6   7
ENDBRANCH   4   6
ENDBRANCH   1   2
BRANCH   1  22
ATOM     22  C   UNL     1       2.527  -3.488  -0.469  1.00  0.00     0.023 C 
BRANCH  22  23
ATOM     23  C   UNL     1       4.020  -3.835  -0.567  1.00  0.00     0.023 C 
BRANCH  23  24
ATOM     24  C   UNL     1       4.621  -4.412   0.710  1.00  0.00     0.116 C 
BRANCH  24  25
ATOM     25  N   UNL     1       4.101  -5.737   1.024  1.00  0.00    -0.352 N 
ATOM     26  C   UNL     1       4.534  -6.617   1.984  1.00  0.00     0.251 C 
ATOM     27  H   UNL     1       3.341  -6.040   0.476  1.00  0.00     0.163 HD
ATOM     28  O   UNL     1       4.260  -7.819   1.886  1.00  0.00    -0.269 OA
BRANCH  26  29
ATOM     29  C   UNL     1       5.317  -6.148   3.141  1.00  0.00     0.039 A 
ATOM     30  C   UNL     1       6.316  -6.966   3.682  1.00  0.00     0.014 A 
ATOM     31  C   UNL     1       5.012  -4.922   3.739  1.00  0.00     0.014 A 
ATOM     32  C   UNL     1       7.040  -6.526   4.786  1.00  0.00     0.010 A 
ATOM     33  C   UNL     1       5.771  -4.452   4.790  1.00  0.00     0.010 A 
ATOM     34  C   UNL     1       6.768  -5.261   5.328  1.00  0.00    -0.014 A 
BRANCH  34  35
ATOM     35  C   UNL     1       7.665  -4.697   6.333  1.00  0.00     0.031 A 
ATOM     36  C   UNL     1       9.039  -4.455   5.810  1.00  0.00     0.074 A 
ATOM     37  C   UNL     1       7.238  -4.223   7.524  1.00  0.00     0.049 A 
ATOM     38  N   UNL     1      10.142  -4.997   6.204  1.00  0.00    -0.248 NA
ATOM     39  C   UNL     1       9.193  -3.615   4.607  1.00  0.00     0.031 C 
ATOM     40  C   UNL     1       5.846  -4.114   7.971  1.00  0.00     0.029 A 
ATOM     41  N   UNL     1       7.929  -3.627   8.542  1.00  0.00    -0.354 N 
ATOM     42  C   UNL     1      11.151  -4.394   5.453  1.00  0.00     0.074 A 
ATOM     43  C   UNL     1      10.502  -3.719   4.366  1.00  0.00     0.031 C 
ATOM     44  C   UNL     1       5.777  -3.289   9.039  1.00  0.00     0.029 A 
ATOM     45  C   UNL     1       7.125  -2.929   9.442  1.00  0.00     0.049 A 
ATOM     46  H   UNL     1       8.908  -3.685   8.632  1.00  0.00     0.167 HD
ATOM     47  C   UNL     1      12.396  -4.241   5.984  1.00  0.00     0.037 A 
ATOM     48  C   UNL     1       7.537  -2.085  10.422  1.00  0.00     0.037 A 
ATOM     49  C   UNL     1      12.543  -5.063   7.154  1.00  0.00     0.049 A 
ATOM     50  C   UNL     1       8.952  -2.409  10.715  1.00  0.00     0.074 A 
ATOM     51  C   UNL     1      12.743  -6.397   7.427  1.00  0.00     0.029 A 
ATOM     52  N   UNL     1      12.059  -4.475   8.290  1.00  0.00    -0.354 N 
ATOM     53  N   UNL     1       9.338  -3.531  11.256  1.00  0.00    -0.248 NA
ATOM     54  C   UNL     1      10.008  -1.611  10.099  1.00  0.00     0.031 C 
ATOM     55  C   UNL     1      12.235  -6.612   8.742  1.00  0.00     0.029 A 
ATOM     56  C   UNL     1      11.784  -5.399   9.257  1.00  0.00     0.049 A 
ATOM     57  H   UNL     1      11.927  -3.506   8.398  1.00  0.00     0.167 HD
ATOM     58  C   UNL     1      10.565  -3.777  10.676  1.00  0.00     0.074 A 
ATOM     59  C   UNL     1      11.004  -2.499  10.130  1.00  0.00     0.031 C 
ATOM     60  C   UNL     1      10.947  -5.051  10.382  1.00  0.00     0.037 A 
BRANCH  47  61
ATOM     61  C   UNL     1      13.279  -3.018   5.805  1.00  0.00     0.064 A 
ATOM     62  C   UNL     1      14.566  -3.018   6.388  1.00  0.00     0.173 A 
ATOM     63  C   UNL     1      12.810  -1.754   5.387  1.00  0.00     0.173 A 
ATOM     64  F   UNL     1      15.107  -4.154   6.853  1.00  0.00    -0.203 F 
ATOM     65  C   UNL     1      15.290  -1.838   6.593  1.00  0.00     0.198 A 
ATOM     66  C   UNL     1      13.557  -0.587   5.546  1.00  0.00     0.198 A 
ATOM     67  F   UNL     1      11.572  -1.569   4.918  1.00  0.00    -0.203 F 
ATOM     68  F   UNL     1      16.453  -1.875   7.258  1.00  0.00    -0.200 F 
ATOM     69  C   UNL     1      14.784  -0.623   6.174  1.00  0.00     0.200 A 
ATOM     70  F   UNL     1      13.035   0.586   5.159  1.00  0.00    -0.200 F 
ATOM     71  F   UNL     1      15.449   0.515   6.414  1.00  0.00    -0.200 F 
ENDBRANCH  47  61
BRANCH  48  72
ATOM     72  C   UNL     1       6.889  -0.861  10.963  1.00  0.00     0.064 A 
ATOM     73  C   UNL     1       7.366  -0.251  12.139  1.00  0.00     0.173 A 
ATOM     74  C   UNL     1       5.994  -0.098  10.190  1.00  0.00     0.173 A 
ATOM     75  F   UNL     1       8.242  -0.894  12.926  1.00  0.00    -0.203 F 
ATOM     76  C   UNL     1       7.019   1.060  12.485  1.00  0.00     0.198 A 
ATOM     77  C   UNL     1       5.640   1.208  10.541  1.00  0.00     0.198 A 
ATOM     78  F   UNL     1       5.518  -0.563   9.027  1.00  0.00    -0.203 F 
ATOM     79  F   UNL     1       7.561   1.632  13.569  1.00  0.00    -0.200 F 
ATOM     80  C   UNL     1       6.170   1.794  11.676  1.00  0.00     0.200 A 
ATOM     81  F   UNL     1       4.837   1.918   9.737  1.00  0.00    -0.200 F 
ATOM     82  F   UNL     1       5.896   3.074  11.964  1.00  0.00    -0.200 F 
ENDBRANCH  48  72
BRANCH  60  83
ATOM     83  C   UNL     1      10.332  -6.171  11.155  1.00  0.00     0.064 A 
ATOM     84  C   UNL     1       8.990  -6.567  11.056  1.00  0.00     0.173 A 
ATOM     85  C   UNL     1      11.194  -6.965  11.923  1.00  0.00     0.173 A 
ATOM     86  F   UNL     1       8.124  -5.892  10.289  1.00  0.00    -0.203 F 
ATOM     87  C   UNL     1       8.535  -7.712  11.709  1.00  0.00     0.198 A 
ATOM     88  C   UNL     1      10.746  -8.126  12.540  1.00  0.00     0.198 A 
ATOM     89  F   UNL     1      12.494  -6.643  12.022  1.00  0.00    -0.203 F 
ATOM     90  F   UNL     1       7.249  -8.079  11.604  1.00  0.00    -0.200 F 
ATOM     91  C   UNL     1       9.416  -8.497  12.436  1.00  0.00     0.200 A 
ATOM     92  F   UNL     1      11.614  -8.902  13.204  1.00  0.00    -0.200 F 
ATOM     93  F   UNL     1       8.991  -9.629  13.015  1.00  0.00    -0.200 F 
ENDBRANCH  60  83
ENDBRANCH  34  35
ENDBRANCH  26  29
ENDBRANCH  24  25
ENDBRANCH  23  24
ENDBRANCH  22  23
ENDBRANCH   1  22
TORSDOF 15
