REMARK SMILES CC(C)[C@H]([NH2+]Cc1ccc(N(C)C)cc1)C(=O)NCCCCNC(=O)c1ccc(-c2c3nc(c(-c4c(F)c(F)c(F)c(F)c4F)c4ccc([nH]4)c(-c4c(F)c(F)c(F)c(F)c4F)c4nc(c(-c5c(F)c(F)c(F)c(F)c5F)c5ccc2[nH]5)C=C4)C=C3)cc1
REMARK SMILES IDX 19 1 18 2 16 3 17 4 4 6 2 7 1 8 3 9 5 10 6 13 7 14 8 15
REMARK SMILES IDX 15 16 9 17 14 18 10 19 11 20 12 21 13 22 20 23 21 24 22 25
REMARK SMILES IDX 23 26 24 27 25 29 26 30 27 31 88 32 28 33 87 34 29 35 30 36
REMARK SMILES IDX 31 37 81 38 32 39 86 40 80 41 82 42 33 43 85 44 79 45 78 46
REMARK SMILES IDX 34 48 66 49 46 50 65 51 47 52 50 53 64 54 83 55 48 56 49 57
REMARK SMILES IDX 63 59 84 60 51 61 35 62 36 63 44 64 37 65 38 66 42 67 45 68
REMARK SMILES IDX 39 69 40 70 43 71 41 72 67 73 68 74 76 75 69 76 70 77 74 78
REMARK SMILES IDX 77 79 71 80 72 81 75 82 73 83 52 84 53 85 61 86 54 87 55 88
REMARK SMILES IDX 59 89 62 90 56 91 57 92 60 93 58 94
REMARK H PARENT 18 5 5 11 5 12 23 28 82 47 50 58
REMARK Flexibility Score: inf
ROOT
ATOM      1  C   UNL     1      -0.898   2.087   3.877  1.00  0.00     0.116 C 
ENDROOT
BRANCH   1   2
ATOM      2  N   UNL     1      -1.507   2.788   2.772  1.00  0.00    -0.351 N 
ATOM      3  C   UNL     1      -1.551   2.474   1.449  1.00  0.00     0.278 C 
ATOM      4  O   UNL     1      -2.023   3.336   0.700  1.00  0.00    -0.268 OA
ATOM      5  H   UNL     1      -1.963   3.626   3.014  1.00  0.00     0.163 HD
BRANCH   3   6
ATOM      6  C   UNL     1      -1.039   1.122   0.872  1.00  0.00     0.275 C 
BRANCH   6   7
ATOM      7  C   UNL     1      -1.752  -0.159   1.402  1.00  0.00     0.051 C 
ATOM      8  C   UNL     1      -3.217   0.072   1.799  1.00  0.00     0.014 C 
ATOM      9  C   UNL     1      -1.716  -1.277   0.348  1.00  0.00     0.014 C 
ENDBRANCH   6   7
BRANCH   6  10
ATOM     10  N   UNL     1       0.447   1.115   0.756  1.00  0.00    -0.332 N 
ATOM     11  H   UNL     1       0.775   2.059   0.958  1.00  0.00     0.347 HD
ATOM     12  H   UNL     1       0.636   0.784  -0.190  1.00  0.00     0.347 HD
BRANCH  10  13
ATOM     13  C   UNL     1       1.176   0.205   1.623  1.00  0.00     0.297 C 
BRANCH  13  14
ATOM     14  C   UNL     1       2.683   0.347   1.569  1.00  0.00     0.006 A 
ATOM     15  C   UNL     1       3.477  -0.720   1.146  1.00  0.00     0.012 A 
ATOM     16  C   UNL     1       3.338   1.474   2.065  1.00  0.00     0.012 A 
ATOM     17  C   UNL     1       4.875  -0.684   1.291  1.00  0.00     0.026 A 
ATOM     18  C   UNL     1       4.733   1.490   2.224  1.00  0.00     0.026 A 
ATOM     19  C   UNL     1       5.547   0.401   1.876  1.00  0.00     0.036 A 
BRANCH  19  20
ATOM     20  N   UNL     1       6.912   0.391   2.136  1.00  0.00    -0.378 N 
ATOM     21  C   UNL     1       7.801  -0.640   1.613  1.00  0.00     0.143 C 
ATOM     22  C   UNL     1       7.555   1.534   2.778  1.00  0.00     0.143 C 
ENDBRANCH  19  20
ENDBRANCH  13  14
ENDBRANCH  10  13
ENDBRANCH   6  10
ENDBRANCH   3   6
ENDBRANCH   1   2
BRANCH   1  23
ATOM     23  C   UNL     1       0.511   2.612   4.124  1.00  0.00     0.023 C 
BRANCH  23  24
ATOM     24  C   UNL     1       0.603   3.838   5.027  1.00  0.00     0.023 C 
BRANCH  24  25
ATOM     25  C   UNL     1       0.062   3.637   6.434  1.00  0.00     0.116 C 
BRANCH  25  26
ATOM     26  N   UNL     1       0.655   2.513   7.141  1.00  0.00    -0.352 N 
ATOM     27  C   UNL     1       0.810   2.343   8.497  1.00  0.00     0.251 C 
ATOM     28  H   UNL     1       0.989   1.779   6.576  1.00  0.00     0.163 HD
ATOM     29  O   UNL     1       1.403   1.368   8.938  1.00  0.00    -0.269 OA
BRANCH  27  30
ATOM     30  C   UNL     1       0.303   3.384   9.415  1.00  0.00     0.039 A 
ATOM     31  C   UNL     1       1.153   3.859  10.416  1.00  0.00     0.014 A 
ATOM     32  C   UNL     1      -0.975   3.926   9.257  1.00  0.00     0.014 A 
ATOM     33  C   UNL     1       0.745   4.928  11.212  1.00  0.00     0.010 A 
ATOM     34  C   UNL     1      -1.345   5.047   9.991  1.00  0.00     0.010 A 
ATOM     35  C   UNL     1      -0.490   5.558  10.977  1.00  0.00    -0.014 A 
BRANCH  35  36
ATOM     36  C   UNL     1      -0.880   6.761  11.751  1.00  0.00     0.031 A 
ATOM     37  C   UNL     1      -2.071   6.728  12.666  1.00  0.00     0.074 A 
ATOM     38  C   UNL     1      -0.181   7.901  11.590  1.00  0.00     0.049 A 
ATOM     39  N   UNL     1      -2.537   7.668  13.449  1.00  0.00    -0.248 NA
ATOM     40  C   UNL     1      -2.865   5.489  12.680  1.00  0.00     0.031 C 
ATOM     41  C   UNL     1       0.936   8.082  10.662  1.00  0.00     0.029 A 
ATOM     42  N   UNL     1      -0.304   9.121  12.204  1.00  0.00    -0.354 N 
ATOM     43  C   UNL     1      -3.677   7.138  14.038  1.00  0.00     0.074 A 
ATOM     44  C   UNL     1      -3.871   5.819  13.475  1.00  0.00     0.031 C 
ATOM     45  C   UNL     1       1.422   9.326  10.796  1.00  0.00     0.029 A 
ATOM     46  C   UNL     1       0.641  10.034  11.805  1.00  0.00     0.049 A 
ATOM     47  H   UNL     1      -1.002   9.323  12.868  1.00  0.00     0.167 HD
ATOM     48  C   UNL     1      -4.473   7.689  14.984  1.00  0.00     0.037 A 
ATOM     49  C   UNL     1       0.862  11.295  12.221  1.00  0.00     0.037 A 
ATOM     50  C   UNL     1      -4.259   8.991  15.560  1.00  0.00     0.049 A 
ATOM     51  C   UNL     1       0.003  11.863  13.317  1.00  0.00     0.074 A 
ATOM     52  C   UNL     1      -4.961   9.614  16.576  1.00  0.00     0.029 A 
ATOM     53  N   UNL     1      -3.262   9.872  15.165  1.00  0.00    -0.354 N 
ATOM     54  N   UNL     1      -1.011  11.314  13.941  1.00  0.00    -0.248 NA
ATOM     55  C   UNL     1       0.334  13.216  13.781  1.00  0.00     0.031 C 
ATOM     56  C   UNL     1      -4.415  10.888  16.769  1.00  0.00     0.029 A 
ATOM     57  C   UNL     1      -3.341  11.040  15.906  1.00  0.00     0.049 A 
ATOM     58  H   UNL     1      -2.597   9.693  14.461  1.00  0.00     0.167 HD
ATOM     59  C   UNL     1      -1.424  12.242  14.887  1.00  0.00     0.074 A 
ATOM     60  C   UNL     1      -0.535  13.380  14.768  1.00  0.00     0.031 C 
ATOM     61  C   UNL     1      -2.447  12.162  15.773  1.00  0.00     0.037 A 
BRANCH  48  62
ATOM     62  C   UNL     1      -5.643   6.878  15.462  1.00  0.00     0.064 A 
ATOM     63  C   UNL     1      -5.468   5.717  16.232  1.00  0.00     0.173 A 
ATOM     64  C   UNL     1      -6.955   7.277  15.168  1.00  0.00     0.173 A 
ATOM     65  F   UNL     1      -4.234   5.284  16.529  1.00  0.00    -0.203 F 
ATOM     66  C   UNL     1      -6.561   4.969  16.661  1.00  0.00     0.198 A 
ATOM     67  C   UNL     1      -8.047   6.544  15.626  1.00  0.00     0.198 A 
ATOM     68  F   UNL     1      -7.180   8.381  14.439  1.00  0.00    -0.203 F 
ATOM     69  F   UNL     1      -6.367   3.835  17.347  1.00  0.00    -0.200 F 
ATOM     70  C   UNL     1      -7.849   5.386  16.363  1.00  0.00     0.200 A 
ATOM     71  F   UNL     1      -9.293   6.954  15.347  1.00  0.00    -0.200 F 
ATOM     72  F   UNL     1      -8.901   4.668  16.780  1.00  0.00    -0.200 F 
ENDBRANCH  48  62
BRANCH  49  73
ATOM     73  C   UNL     1       1.983  12.078  11.643  1.00  0.00     0.064 A 
ATOM     74  C   UNL     1       3.131  12.357  12.398  1.00  0.00     0.173 A 
ATOM     75  C   UNL     1       1.938  12.552  10.324  1.00  0.00     0.173 A 
ATOM     76  F   UNL     1       3.213  11.938  13.670  1.00  0.00    -0.203 F 
ATOM     77  C   UNL     1       4.182  13.099  11.864  1.00  0.00     0.198 A 
ATOM     78  C   UNL     1       3.002  13.271   9.782  1.00  0.00     0.198 A 
ATOM     79  F   UNL     1       0.867  12.303   9.557  1.00  0.00    -0.203 F 
ATOM     80  F   UNL     1       5.249  13.387  12.622  1.00  0.00    -0.200 F 
ATOM     81  C   UNL     1       4.119  13.550  10.554  1.00  0.00     0.200 A 
ATOM     82  F   UNL     1       2.945  13.692   8.511  1.00  0.00    -0.200 F 
ATOM     83  F   UNL     1       5.133  14.258  10.039  1.00  0.00    -0.200 F 
ENDBRANCH  49  73
BRANCH  61  84
ATOM     84  C   UNL     1      -2.639  13.327  16.700  1.00  0.00     0.064 A 
ATOM     85  C   UNL     1      -3.119  14.562  16.240  1.00  0.00     0.173 A 
ATOM     86  C   UNL     1      -2.350  13.200  18.067  1.00  0.00     0.173 A 
ATOM     87  F   UNL     1      -3.397  14.737  14.939  1.00  0.00    -0.203 F 
ATOM     88  C   UNL     1      -3.269  15.639  17.110  1.00  0.00     0.198 A 
ATOM     89  C   UNL     1      -2.530  14.271  18.939  1.00  0.00     0.198 A 
ATOM     90  F   UNL     1      -1.895  12.038  18.558  1.00  0.00    -0.203 F 
ATOM     91  F   UNL     1      -3.673  16.826  16.638  1.00  0.00    -0.200 F 
ATOM     92  C   UNL     1      -2.979  15.491  18.458  1.00  0.00     0.200 A 
ATOM     93  F   UNL     1      -2.261  14.123  20.243  1.00  0.00    -0.200 F 
ATOM     94  F   UNL     1      -3.121  16.530  19.292  1.00  0.00    -0.200 F 
ENDBRANCH  61  84
ENDBRANCH  35  36
ENDBRANCH  27  30
ENDBRANCH  25  26
ENDBRANCH  24  25
ENDBRANCH  23  24
ENDBRANCH   1  23
TORSDOF 16
