REMARK SMILES Cc1ccc([C@H]2C[C@]2([NH3+])C(=O)NCCCCNC(=O)c2ccc(-c3c4nc(c(-c5c(F)c(F)c(F)c(F)c5F)c5ccc([nH]5)c(-c5c(F)c(F)c(F)c(F)c5F)c5nc(c(-c6c(F)c(F)c(F)c(F)c6F)c6ccc3[nH]6)C=C5)C=C4)cc2)cc1C
REMARK SMILES IDX 15 1 14 2 13 3 12 4 10 5 11 6 8 8 6 9 7 10 5 11 1 12 2 13
REMARK SMILES IDX 3 14 84 15 4 16 83 17 85 18 9 19 16 23 17 24 18 25 19 27
REMARK SMILES IDX 20 28 21 29 82 30 22 31 81 32 23 33 24 34 25 35 75 36 26 37
REMARK SMILES IDX 80 38 74 39 76 40 27 41 79 42 73 43 72 44 28 46 60 47 40 48
REMARK SMILES IDX 59 49 41 50 44 51 58 52 77 53 42 54 43 55 57 57 78 58 45 59
REMARK SMILES IDX 29 60 30 61 38 62 31 63 32 64 36 65 39 66 33 67 34 68 37 69
REMARK SMILES IDX 35 70 61 71 62 72 70 73 63 74 64 75 68 76 71 77 65 78 66 79
REMARK SMILES IDX 69 80 67 81 46 82 47 83 55 84 48 85 49 86 53 87 56 88 50 89
REMARK SMILES IDX 51 90 54 91 52 92
REMARK H PARENT 12 7 9 20 9 21 9 22 17 26 76 45 44 56
REMARK Flexibility Score: inf
ROOT
ATOM      1  C   UNL     1      -3.456   2.466   4.027  1.00  0.00     0.023 C 
ENDROOT
BRANCH   1   2
ATOM      2  C   UNL     1      -3.393   0.979   3.678  1.00  0.00     0.023 C 
BRANCH   2   3
ATOM      3  C   UNL     1      -4.547   0.450   2.831  1.00  0.00     0.116 C 
BRANCH   3   4
ATOM      4  N   UNL     1      -4.672   1.115   1.552  1.00  0.00    -0.351 N 
ATOM      5  C   UNL     1      -4.693   0.577   0.288  1.00  0.00     0.281 C 
ATOM      6  O   UNL     1      -4.890   1.317  -0.673  1.00  0.00    -0.268 OA
ATOM      7  H   UNL     1      -4.752   2.095   1.593  1.00  0.00     0.163 HD
BRANCH   5   8
ATOM      8  C   UNL     1      -4.444  -0.908   0.093  1.00  0.00     0.181 C 
ATOM      9  C   UNL     1      -2.991  -1.307  -0.132  1.00  0.00     0.097 C 
ATOM     10  C   UNL     1      -3.974  -1.392  -1.266  1.00  0.00     0.095 C 
BRANCH   9  11
ATOM     11  C   UNL     1      -2.333  -2.556   0.401  1.00  0.00    -0.038 A 
ATOM     12  C   UNL     1       0.070  -5.870   1.884  1.00  0.00     0.044 C 
ATOM     13  C   UNL     1      -0.802  -4.744   1.404  1.00  0.00    -0.048 A 
ATOM     14  C   UNL     1      -0.871  -4.479   0.030  1.00  0.00     0.004 A 
ATOM     15  C   UNL     1      -1.531  -3.929   2.287  1.00  0.00    -0.048 A 
ATOM     16  C   UNL     1      -1.623  -3.407  -0.458  1.00  0.00     0.004 A 
ATOM     17  C   UNL     1      -2.275  -2.848   1.772  1.00  0.00     0.008 A 
ATOM     18  C   UNL     1      -1.538  -4.135   3.778  1.00  0.00     0.044 C 
ENDBRANCH   9  11
BRANCH   8  19
ATOM     19  N   UNL     1      -5.467  -1.797   0.701  1.00  0.00    -0.344 N 
ATOM     20  H   UNL     1      -5.221  -2.771   0.522  1.00  0.00     0.345 HD
ATOM     21  H   UNL     1      -6.379  -1.596   0.292  1.00  0.00     0.345 HD
ATOM     22  H   UNL     1      -5.503  -1.635   1.708  1.00  0.00     0.345 HD
ENDBRANCH   8  19
ENDBRANCH   5   8
ENDBRANCH   3   4
ENDBRANCH   2   3
ENDBRANCH   1   2
BRANCH   1  23
ATOM     23  C   UNL     1      -4.759   2.946   4.657  1.00  0.00     0.116 C 
BRANCH  23  24
ATOM     24  N   UNL     1      -5.058   2.303   5.927  1.00  0.00    -0.352 N 
ATOM     25  C   UNL     1      -5.337   2.862   7.152  1.00  0.00     0.251 C 
ATOM     26  H   UNL     1      -5.061   1.318   5.906  1.00  0.00     0.163 HD
ATOM     27  O   UNL     1      -5.452   2.147   8.142  1.00  0.00    -0.269 OA
BRANCH  25  28
ATOM     28  C   UNL     1      -5.458   4.331   7.290  1.00  0.00     0.039 A 
ATOM     29  C   UNL     1      -4.792   4.965   8.342  1.00  0.00     0.014 A 
ATOM     30  C   UNL     1      -6.208   5.083   6.382  1.00  0.00     0.014 A 
ATOM     31  C   UNL     1      -4.804   6.359   8.432  1.00  0.00     0.010 A 
ATOM     32  C   UNL     1      -6.157   6.475   6.428  1.00  0.00     0.010 A 
ATOM     33  C   UNL     1      -5.446   7.128   7.447  1.00  0.00    -0.014 A 
BRANCH  33  34
ATOM     34  C   UNL     1      -5.366   8.612   7.452  1.00  0.00     0.031 A 
ATOM     35  C   UNL     1      -6.610   9.440   7.617  1.00  0.00     0.074 A 
ATOM     36  C   UNL     1      -4.182   9.216   7.231  1.00  0.00     0.049 A 
ATOM     37  N   UNL     1      -6.752  10.741   7.566  1.00  0.00    -0.248 NA
ATOM     38  C   UNL     1      -7.865   8.708   7.842  1.00  0.00     0.031 C 
ATOM     39  C   UNL     1      -2.910   8.527   7.005  1.00  0.00     0.029 A 
ATOM     40  N   UNL     1      -3.856  10.547   7.144  1.00  0.00    -0.354 N 
ATOM     41  C   UNL     1      -8.109  10.980   7.736  1.00  0.00     0.074 A 
ATOM     42  C   UNL     1      -8.755   9.690   7.841  1.00  0.00     0.031 C 
ATOM     43  C   UNL     1      -1.941   9.438   6.826  1.00  0.00     0.029 A 
ATOM     44  C   UNL     1      -2.526  10.774   6.883  1.00  0.00     0.049 A 
ATOM     45  H   UNL     1      -4.513  11.271   7.257  1.00  0.00     0.167 HD
ATOM     46  C   UNL     1      -8.754  12.168   7.822  1.00  0.00     0.037 A 
ATOM     47  C   UNL     1      -1.855  11.927   6.699  1.00  0.00     0.037 A 
ATOM     48  C   UNL     1      -8.105  13.451   7.746  1.00  0.00     0.049 A 
ATOM     49  C   UNL     1      -2.599  13.233   6.785  1.00  0.00     0.074 A 
ATOM     50  C   UNL     1      -8.661  14.709   7.900  1.00  0.00     0.029 A 
ATOM     51  N   UNL     1      -6.755  13.639   7.489  1.00  0.00    -0.354 N 
ATOM     52  N   UNL     1      -3.868  13.448   7.027  1.00  0.00    -0.248 NA
ATOM     53  C   UNL     1      -1.814  14.458   6.572  1.00  0.00     0.031 C 
ATOM     54  C   UNL     1      -7.658  15.660   7.689  1.00  0.00     0.029 A 
ATOM     55  C   UNL     1      -6.467  14.995   7.450  1.00  0.00     0.049 A 
ATOM     56  H   UNL     1      -6.099  12.918   7.355  1.00  0.00     0.167 HD
ATOM     57  C   UNL     1      -4.032  14.826   7.016  1.00  0.00     0.074 A 
ATOM     58  C   UNL     1      -2.727  15.400   6.762  1.00  0.00     0.031 C 
ATOM     59  C   UNL     1      -5.162  15.551   7.196  1.00  0.00     0.037 A 
BRANCH  46  60
ATOM     60  C   UNL     1     -10.242  12.138   8.014  1.00  0.00     0.064 A 
ATOM     61  C   UNL     1     -10.819  11.716   9.221  1.00  0.00     0.173 A 
ATOM     62  C   UNL     1     -11.101  12.574   6.994  1.00  0.00     0.173 A 
ATOM     63  F   UNL     1     -10.042  11.280  10.224  1.00  0.00    -0.203 F 
ATOM     64  C   UNL     1     -12.201  11.703   9.389  1.00  0.00     0.198 A 
ATOM     65  C   UNL     1     -12.482  12.588   7.176  1.00  0.00     0.198 A 
ATOM     66  F   UNL     1     -10.602  12.995   5.822  1.00  0.00    -0.203 F 
ATOM     67  F   UNL     1     -12.730  11.249  10.534  1.00  0.00    -0.200 F 
ATOM     68  C   UNL     1     -13.030  12.145   8.370  1.00  0.00     0.200 A 
ATOM     69  F   UNL     1     -13.281  13.029   6.195  1.00  0.00    -0.200 F 
ATOM     70  F   UNL     1     -14.360  12.139   8.537  1.00  0.00    -0.200 F 
ENDBRANCH  46  60
BRANCH  47  71
ATOM     71  C   UNL     1      -0.394  11.903   6.429  1.00  0.00     0.064 A 
ATOM     72  C   UNL     1       0.521  12.369   7.384  1.00  0.00     0.173 A 
ATOM     73  C   UNL     1       0.118  11.423   5.215  1.00  0.00     0.173 A 
ATOM     74  F   UNL     1       0.078  12.858   8.552  1.00  0.00    -0.203 F 
ATOM     75  C   UNL     1       1.890  12.373   7.128  1.00  0.00     0.198 A 
ATOM     76  C   UNL     1       1.490  11.402   4.971  1.00  0.00     0.198 A 
ATOM     77  F   UNL     1      -0.714  10.963   4.270  1.00  0.00    -0.203 F 
ATOM     78  F   UNL     1       2.739  12.866   8.040  1.00  0.00    -0.200 F 
ATOM     79  C   UNL     1       2.374  11.885   5.924  1.00  0.00     0.200 A 
ATOM     80  F   UNL     1       1.954  10.917   3.811  1.00  0.00    -0.200 F 
ATOM     81  F   UNL     1       3.691  11.886   5.679  1.00  0.00    -0.200 F 
ENDBRANCH  47  71
BRANCH  59  82
ATOM     82  C   UNL     1      -5.039  17.046   7.143  1.00  0.00     0.064 A 
ATOM     83  C   UNL     1      -4.826  17.721   5.933  1.00  0.00     0.173 A 
ATOM     84  C   UNL     1      -5.184  17.815   8.308  1.00  0.00     0.173 A 
ATOM     85  F   UNL     1      -4.664  17.030   4.794  1.00  0.00    -0.203 F 
ATOM     86  C   UNL     1      -4.745  19.110   5.893  1.00  0.00     0.198 A 
ATOM     87  C   UNL     1      -5.132  19.205   8.260  1.00  0.00     0.198 A 
ATOM     88  F   UNL     1      -5.394  17.217   9.491  1.00  0.00    -0.203 F 
ATOM     89  F   UNL     1      -4.500  19.732   4.731  1.00  0.00    -0.200 F 
ATOM     90  C   UNL     1      -4.907  19.851   7.054  1.00  0.00     0.200 A 
ATOM     91  F   UNL     1      -5.301  19.919   9.381  1.00  0.00    -0.200 F 
ATOM     92  F   UNL     1      -4.840  21.189   7.012  1.00  0.00    -0.200 F 
ENDBRANCH  59  82
ENDBRANCH  33  34
ENDBRANCH  25  28
ENDBRANCH  23  24
ENDBRANCH   1  23
TORSDOF 13
