REMARK SMILES CC[C@](C)(C(=O)NCCCCNC(=O)c1ccc(-c2c3nc(c(-c4c(F)c(F)c(F)c(F)c4F)c4ccc([nH]4)c(-c4c(F)c(F)c(F)c(F)c4F)c4nc(c(-c5c(F)c(F)c(F)c(F)c5F)c5ccc2[nH]5)C=C4)C=C3)cc1)n1nnnc1-c1ccc(C)cc1C
REMARK SMILES IDX 9 1 8 2 7 3 5 4 6 5 3 7 4 8 2 9 1 10 78 11 79 12 82 13 80 14
REMARK SMILES IDX 81 15 83 16 84 17 89 18 85 19 88 20 90 21 86 22 87 23 10 24
REMARK SMILES IDX 11 25 12 26 13 27 14 29 15 30 16 31 77 32 17 33 76 34 18 35
REMARK SMILES IDX 19 36 20 37 70 38 21 39 75 40 69 41 71 42 22 43 74 44 68 45
REMARK SMILES IDX 67 46 23 48 55 49 35 50 54 51 36 52 39 53 53 54 72 55 37 56
REMARK SMILES IDX 38 57 52 59 73 60 40 61 24 62 25 63 33 64 26 65 27 66 31 67
REMARK SMILES IDX 34 68 28 69 29 70 32 71 30 72 56 73 57 74 65 75 58 76 59 77
REMARK SMILES IDX 63 78 66 79 60 80 61 81 64 82 62 83 41 84 42 85 50 86 43 87
REMARK SMILES IDX 44 88 48 89 51 90 45 91 46 92 49 93 47 94
REMARK H PARENT 7 6 12 28 71 47 39 58
REMARK Flexibility Score: inf
ROOT
ATOM      1  C   UNL     1      -2.664   0.200   3.001  1.00  0.00     0.023 C 
ENDROOT
BRANCH   1   2
ATOM      2  C   UNL     1      -1.948   1.550   3.041  1.00  0.00     0.116 C 
BRANCH   2   3
ATOM      3  N   UNL     1      -0.752   1.511   3.869  1.00  0.00    -0.354 N 
ATOM      4  C   UNL     1       0.579   1.381   3.558  1.00  0.00     0.247 C 
ATOM      5  O   UNL     1       1.338   1.271   4.525  1.00  0.00    -0.272 OA
ATOM      6  H   UNL     1      -0.931   1.593   4.833  1.00  0.00     0.163 HD
BRANCH   4   7
ATOM      7  C   UNL     1       1.084   1.330   2.091  1.00  0.00     0.142 C 
ATOM      8  C   UNL     1       0.405   0.115   1.429  1.00  0.00     0.048 C 
BRANCH   7   9
ATOM      9  C   UNL     1       0.693   2.665   1.351  1.00  0.00     0.037 C 
ATOM     10  C   UNL     1       0.457   2.529  -0.150  1.00  0.00     0.007 C 
ENDBRANCH   7   9
BRANCH   7  11
ATOM     11  N   UNL     1       2.564   1.193   2.098  1.00  0.00    -0.210 N 
ATOM     12  N   UNL     1       3.323   2.310   2.238  1.00  0.00    -0.044 NA
ATOM     13  C   UNL     1       3.421   0.109   1.975  1.00  0.00     0.183 A 
ATOM     14  N   UNL     1       4.581   1.919   2.156  1.00  0.00    -0.023 NA
ATOM     15  N   UNL     1       4.659   0.569   1.990  1.00  0.00    -0.108 NA
BRANCH  13  16
ATOM     16  C   UNL     1       3.085  -1.308   1.929  1.00  0.00     0.024 A 
ATOM     17  C   UNL     1       3.144  -2.023   3.136  1.00  0.00     0.012 A 
ATOM     18  C   UNL     1       2.735  -1.984   0.744  1.00  0.00    -0.040 A 
ATOM     19  C   UNL     1       2.770  -3.365   3.192  1.00  0.00     0.004 A 
ATOM     20  C   UNL     1       2.326  -3.328   0.824  1.00  0.00     0.007 A 
ATOM     21  C   UNL     1       2.784  -1.350  -0.623  1.00  0.00     0.045 C 
ATOM     22  C   UNL     1       2.308  -4.013   2.045  1.00  0.00    -0.051 A 
ATOM     23  C   UNL     1       1.860  -5.442   2.116  1.00  0.00     0.044 C 
ENDBRANCH  13  16
ENDBRANCH   7  11
ENDBRANCH   4   7
ENDBRANCH   2   3
ENDBRANCH   1   2
BRANCH   1  24
ATOM     24  C   UNL     1      -3.509  -0.108   4.232  1.00  0.00     0.023 C 
BRANCH  24  25
ATOM     25  C   UNL     1      -4.583   0.924   4.546  1.00  0.00     0.116 C 
BRANCH  25  26
ATOM     26  N   UNL     1      -5.492   1.182   3.438  1.00  0.00    -0.352 N 
ATOM     27  C   UNL     1      -6.838   1.457   3.493  1.00  0.00     0.251 C 
ATOM     28  H   UNL     1      -5.093   1.157   2.538  1.00  0.00     0.163 HD
ATOM     29  O   UNL     1      -7.500   1.563   2.466  1.00  0.00    -0.269 OA
BRANCH  27  30
ATOM     30  C   UNL     1      -7.482   1.577   4.814  1.00  0.00     0.039 A 
ATOM     31  C   UNL     1      -8.618   0.813   5.084  1.00  0.00     0.014 A 
ATOM     32  C   UNL     1      -6.911   2.381   5.804  1.00  0.00     0.014 A 
ATOM     33  C   UNL     1      -9.139   0.795   6.378  1.00  0.00     0.010 A 
ATOM     34  C   UNL     1      -7.380   2.297   7.109  1.00  0.00     0.010 A 
ATOM     35  C   UNL     1      -8.498   1.504   7.408  1.00  0.00    -0.014 A 
BRANCH  35  36
ATOM     36  C   UNL     1      -8.980   1.434   8.809  1.00  0.00     0.031 A 
ATOM     37  C   UNL     1      -9.482   2.675   9.488  1.00  0.00     0.074 A 
ATOM     38  C   UNL     1      -8.886   0.276   9.490  1.00  0.00     0.049 A 
ATOM     39  N   UNL     1      -9.862   2.845  10.729  1.00  0.00    -0.248 NA
ATOM     40  C   UNL     1      -9.530   3.900   8.673  1.00  0.00     0.031 C 
ATOM     41  C   UNL     1      -8.357  -0.981   8.957  1.00  0.00     0.029 A 
ATOM     42  N   UNL     1      -9.221  -0.029  10.786  1.00  0.00    -0.354 N 
ATOM     43  C   UNL     1     -10.171   4.193  10.846  1.00  0.00     0.074 A 
ATOM     44  C   UNL     1      -9.882   4.809   9.570  1.00  0.00     0.031 C 
ATOM     45  C   UNL     1      -8.423  -1.925   9.910  1.00  0.00     0.029 A 
ATOM     46  C   UNL     1      -8.966  -1.334  11.129  1.00  0.00     0.049 A 
ATOM     47  H   UNL     1      -9.608   0.627  11.410  1.00  0.00     0.167 HD
ATOM     48  C   UNL     1     -10.674   4.853  11.916  1.00  0.00     0.037 A 
ATOM     49  C   UNL     1      -9.148  -1.978  12.297  1.00  0.00     0.037 A 
ATOM     50  C   UNL     1     -10.996   4.227  13.170  1.00  0.00     0.049 A 
ATOM     51  C   UNL     1      -9.732  -1.228  13.463  1.00  0.00     0.074 A 
ATOM     52  C   UNL     1     -11.582   4.790  14.290  1.00  0.00     0.029 A 
ATOM     53  N   UNL     1     -10.760   2.893  13.469  1.00  0.00    -0.354 N 
ATOM     54  N   UNL     1     -10.092   0.031  13.540  1.00  0.00    -0.248 NA
ATOM     55  C   UNL     1      -9.942  -1.989  14.703  1.00  0.00     0.031 C 
ATOM     56  C   UNL     1     -11.664   3.806  15.280  1.00  0.00     0.029 A 
ATOM     57  C   UNL     1     -11.172   2.619  14.762  1.00  0.00     0.049 A 
ATOM     58  H   UNL     1     -10.359   2.238  12.852  1.00  0.00     0.167 HD
ATOM     59  C   UNL     1     -10.594   0.206  14.822  1.00  0.00     0.074 A 
ATOM     60  C   UNL     1     -10.506  -1.079  15.485  1.00  0.00     0.031 C 
ATOM     61  C   UNL     1     -11.083   1.331  15.400  1.00  0.00     0.037 A 
BRANCH  48  62
ATOM     62  C   UNL     1     -10.915   6.327  11.771  1.00  0.00     0.064 A 
ATOM     63  C   UNL     1     -11.937   6.827  10.950  1.00  0.00     0.173 A 
ATOM     64  C   UNL     1     -10.133   7.249  12.482  1.00  0.00     0.173 A 
ATOM     65  F   UNL     1     -12.703   5.988  10.237  1.00  0.00    -0.203 F 
ATOM     66  C   UNL     1     -12.149   8.198  10.825  1.00  0.00     0.198 A 
ATOM     67  C   UNL     1     -10.368   8.618  12.378  1.00  0.00     0.198 A 
ATOM     68  F   UNL     1      -9.145   6.823  13.283  1.00  0.00    -0.203 F 
ATOM     69  F   UNL     1     -13.098   8.654   9.995  1.00  0.00    -0.200 F 
ATOM     70  C   UNL     1     -11.370   9.091  11.544  1.00  0.00     0.200 A 
ATOM     71  F   UNL     1      -9.621   9.479  13.082  1.00  0.00    -0.200 F 
ATOM     72  F   UNL     1     -11.579  10.409  11.427  1.00  0.00    -0.200 F 
ENDBRANCH  48  62
BRANCH  49  73
ATOM     73  C   UNL     1      -8.803  -3.418  12.412  1.00  0.00     0.064 A 
ATOM     74  C   UNL     1      -9.807  -4.390  12.527  1.00  0.00     0.173 A 
ATOM     75  C   UNL     1      -7.470  -3.854  12.407  1.00  0.00     0.173 A 
ATOM     76  F   UNL     1     -11.095  -4.020  12.555  1.00  0.00    -0.203 F 
ATOM     77  C   UNL     1      -9.490  -5.741  12.651  1.00  0.00     0.198 A 
ATOM     78  C   UNL     1      -7.156  -5.208  12.505  1.00  0.00     0.198 A 
ATOM     79  F   UNL     1      -6.473  -2.965  12.293  1.00  0.00    -0.203 F 
ATOM     80  F   UNL     1     -10.469  -6.645  12.800  1.00  0.00    -0.200 F 
ATOM     81  C   UNL     1      -8.165  -6.150  12.634  1.00  0.00     0.200 A 
ATOM     82  F   UNL     1      -5.875  -5.601  12.473  1.00  0.00    -0.200 F 
ATOM     83  F   UNL     1      -7.862  -7.450  12.748  1.00  0.00    -0.200 F 
ENDBRANCH  49  73
BRANCH  61  84
ATOM     84  C   UNL     1     -11.591   1.215  16.807  1.00  0.00     0.064 A 
ATOM     85  C   UNL     1     -10.718   1.069  17.894  1.00  0.00     0.173 A 
ATOM     86  C   UNL     1     -12.967   1.299  17.073  1.00  0.00     0.173 A 
ATOM     87  F   UNL     1      -9.396   0.970  17.689  1.00  0.00    -0.203 F 
ATOM     88  C   UNL     1     -11.205   0.989  19.195  1.00  0.00     0.198 A 
ATOM     89  C   UNL     1     -13.448   1.246  18.377  1.00  0.00     0.198 A 
ATOM     90  F   UNL     1     -13.842   1.445  16.067  1.00  0.00    -0.203 F 
ATOM     91  F   UNL     1     -10.356   0.806  20.216  1.00  0.00    -0.200 F 
ATOM     92  C   UNL     1     -12.568   1.085  19.437  1.00  0.00     0.200 A 
ATOM     93  F   UNL     1     -14.763   1.353  18.610  1.00  0.00    -0.200 F 
ATOM     94  F   UNL     1     -13.034   1.016  20.691  1.00  0.00    -0.200 F 
ENDBRANCH  61  84
ENDBRANCH  35  36
ENDBRANCH  27  30
ENDBRANCH  25  26
ENDBRANCH  24  25
ENDBRANCH   1  24
TORSDOF 14
