REMARK SMILES Cc1ccc(-c2nc(NC(=O)[C@H]3[C@@H](C(=O)NCCCCNC(=O)c4ccc(-c5c6nc(c(-c7c(F)c(F)c(F)c(F)c7F)c7ccc([nH]7)c(-c7c(F)c(F)c(F)c(F)c7F)c7nc(c(-c8c(F)c(F)c(F)c(F)c8F)c8ccc5[nH]8)C=C7)C=C6)cc4)[C@@H]4CC[C@H]3O4)sc2C)cc1
REMARK SMILES IDX 18 1 17 2 16 3 14 4 15 5 13 7 12 8 90 9 87 10 89 11 91 12
REMARK SMILES IDX 88 13 10 14 9 15 11 17 8 18 6 19 7 20 93 21 92 22 94 23 5 24
REMARK SMILES IDX 1 25 2 26 3 27 96 28 4 29 95 30 19 31 20 32 21 33 22 34
REMARK SMILES IDX 23 36 24 37 25 38 86 39 26 40 85 41 27 42 28 43 29 44 79 45
REMARK SMILES IDX 30 46 84 47 78 48 80 49 31 50 83 51 77 52 76 53 32 55 64 56
REMARK SMILES IDX 44 57 63 58 45 59 48 60 62 61 81 62 46 63 47 64 61 66 82 67
REMARK SMILES IDX 49 68 33 69 34 70 42 71 35 72 36 73 40 74 43 75 37 76 38 77
REMARK SMILES IDX 41 78 39 79 65 80 66 81 74 82 67 83 68 84 72 85 75 86 69 87
REMARK SMILES IDX 70 88 73 89 71 90 50 91 51 92 59 93 52 94 53 95 57 96 60 97
REMARK SMILES IDX 54 98 55 99 58 100 56 101
REMARK H PARENT 16 6 9 16 21 35 80 54 48 65
REMARK Flexibility Score: inf
ROOT
ATOM      1  C   UNL     1      -5.644  -0.914   0.215  1.00  0.00     0.023 C 
ENDROOT
BRANCH   1   2
ATOM      2  C   UNL     1      -6.340  -0.621   1.543  1.00  0.00     0.116 C 
BRANCH   2   3
ATOM      3  N   UNL     1      -7.220   0.538   1.607  1.00  0.00    -0.356 N 
ATOM      4  C   UNL     1      -8.581   0.507   1.476  1.00  0.00     0.226 C 
ATOM      5  O   UNL     1      -9.257   0.969   2.397  1.00  0.00    -0.275 OA
ATOM      6  H   UNL     1      -6.801   1.416   1.755  1.00  0.00     0.163 HD
BRANCH   4   7
ATOM      7  C   UNL     1      -9.196  -0.212   0.307  1.00  0.00     0.122 C 
ATOM      8  C   UNL     1      -8.726  -0.045  -1.141  1.00  0.00     0.123 C 
ATOM      9  C   UNL     1     -10.025  -0.403  -1.876  1.00  0.00     0.132 C 
ATOM     10  C   UNL     1     -10.740  -0.054   0.145  1.00  0.00     0.132 C 
ATOM     11  C   UNL     1     -10.594  -1.779  -1.434  1.00  0.00     0.035 C 
ATOM     12  O   UNL     1     -10.899   0.512  -1.189  1.00  0.00    -0.373 OA
ATOM     13  C   UNL     1     -11.352  -1.419  -0.148  1.00  0.00     0.035 C 
BRANCH   8  14
ATOM     14  C   UNL     1      -8.027   1.102  -1.917  1.00  0.00     0.232 C 
ATOM     15  N   UNL     1      -7.910   2.440  -1.769  1.00  0.00    -0.302 N 
ATOM     16  H   UNL     1      -7.350   2.822  -2.482  1.00  0.00     0.172 HD
ATOM     17  O   UNL     1      -7.435   0.707  -2.949  1.00  0.00    -0.274 OA
BRANCH  15  18
ATOM     18  C   UNL     1      -8.344   3.417  -0.917  1.00  0.00     0.190 A 
ATOM     19  C   UNL     1      -8.511   5.411   0.096  1.00  0.00     0.086 A 
ATOM     20  N   UNL     1      -7.913   4.670  -0.944  1.00  0.00    -0.220 NA
ATOM     21  C   UNL     1      -9.434   4.677   0.830  1.00  0.00     0.031 A 
ATOM     22  S   UNL     1      -9.551   3.106   0.192  1.00  0.00    -0.101 S 
ATOM     23  C   UNL     1     -10.321   4.997   1.979  1.00  0.00     0.059 C 
BRANCH  19  24
ATOM     24  C   UNL     1      -8.222   6.833   0.373  1.00  0.00     0.001 A 
ATOM     25  C   UNL     1      -7.953  11.072   1.335  1.00  0.00     0.044 C 
ATOM     26  C   UNL     1      -8.004   9.608   0.996  1.00  0.00    -0.051 A 
ATOM     27  C   UNL     1      -7.991   9.163  -0.334  1.00  0.00     0.004 A 
ATOM     28  C   UNL     1      -8.063   8.655   2.010  1.00  0.00     0.004 A 
ATOM     29  C   UNL     1      -8.100   7.789  -0.644  1.00  0.00     0.010 A 
ATOM     30  C   UNL     1      -8.146   7.292   1.700  1.00  0.00     0.010 A 
ENDBRANCH  19  24
ENDBRANCH  15  18
ENDBRANCH   8  14
ENDBRANCH   4   7
ENDBRANCH   2   3
ENDBRANCH   1   2
BRANCH   1  31
ATOM     31  C   UNL     1      -5.024   0.281  -0.499  1.00  0.00     0.023 C 
BRANCH  31  32
ATOM     32  C   UNL     1      -3.743   0.779   0.138  1.00  0.00     0.116 C 
BRANCH  32  33
ATOM     33  N   UNL     1      -2.602  -0.116  -0.025  1.00  0.00    -0.352 N 
ATOM     34  C   UNL     1      -1.340  -0.047   0.548  1.00  0.00     0.251 C 
ATOM     35  H   UNL     1      -2.749  -0.879  -0.630  1.00  0.00     0.163 HD
ATOM     36  O   UNL     1      -0.495  -0.884   0.296  1.00  0.00    -0.269 OA
BRANCH  34  37
ATOM     37  C   UNL     1      -1.090   0.982   1.589  1.00  0.00     0.039 A 
ATOM     38  C   UNL     1      -0.531   0.565   2.803  1.00  0.00     0.014 A 
ATOM     39  C   UNL     1      -1.652   2.245   1.468  1.00  0.00     0.014 A 
ATOM     40  C   UNL     1      -0.791   1.303   3.955  1.00  0.00     0.010 A 
ATOM     41  C   UNL     1      -2.036   2.896   2.618  1.00  0.00     0.010 A 
ATOM     42  C   UNL     1      -1.653   2.393   3.865  1.00  0.00    -0.014 A 
BRANCH  42  43
ATOM     43  C   UNL     1      -2.242   3.063   5.013  1.00  0.00     0.031 A 
ATOM     44  C   UNL     1      -1.744   4.395   5.408  1.00  0.00     0.074 A 
ATOM     45  C   UNL     1      -3.317   2.527   5.634  1.00  0.00     0.049 A 
ATOM     46  N   UNL     1      -1.881   4.896   6.587  1.00  0.00    -0.248 NA
ATOM     47  C   UNL     1      -1.022   5.268   4.487  1.00  0.00     0.031 C 
ATOM     48  C   UNL     1      -4.196   3.184   6.598  1.00  0.00     0.029 A 
ATOM     49  N   UNL     1      -3.729   1.184   5.650  1.00  0.00    -0.354 N 
ATOM     50  C   UNL     1      -1.515   6.217   6.519  1.00  0.00     0.074 A 
ATOM     51  C   UNL     1      -0.945   6.392   5.204  1.00  0.00     0.031 C 
ATOM     52  C   UNL     1      -4.812   2.244   7.332  1.00  0.00     0.029 A 
ATOM     53  C   UNL     1      -4.242   0.964   6.955  1.00  0.00     0.049 A 
ATOM     54  H   UNL     1      -3.675   0.534   4.912  1.00  0.00     0.167 HD
ATOM     55  C   UNL     1      -1.841   7.059   7.539  1.00  0.00     0.037 A 
ATOM     56  C   UNL     1      -3.622   0.096   7.807  1.00  0.00     0.037 A 
ATOM     57  C   UNL     1      -2.521   6.359   8.622  1.00  0.00     0.049 A 
ATOM     58  C   UNL     1      -3.053   0.736   9.056  1.00  0.00     0.074 A 
ATOM     59  C   UNL     1      -3.852   6.168   8.956  1.00  0.00     0.029 A 
ATOM     60  N   UNL     1      -1.807   5.434   9.361  1.00  0.00    -0.354 N 
ATOM     61  N   UNL     1      -3.054   2.018   9.291  1.00  0.00    -0.248 NA
ATOM     62  C   UNL     1      -2.345  -0.019  10.093  1.00  0.00     0.031 C 
ATOM     63  C   UNL     1      -3.927   5.089   9.881  1.00  0.00     0.029 A 
ATOM     64  C   UNL     1      -2.643   4.633  10.114  1.00  0.00     0.049 A 
ATOM     65  H   UNL     1      -0.826   5.355   9.351  1.00  0.00     0.167 HD
ATOM     66  C   UNL     1      -2.325   2.271  10.421  1.00  0.00     0.074 A 
ATOM     67  C   UNL     1      -1.905   0.966  10.894  1.00  0.00     0.031 C 
ATOM     68  C   UNL     1      -2.078   3.533  10.873  1.00  0.00     0.037 A 
BRANCH  55  69
ATOM     69  C   UNL     1      -1.752   8.553   7.413  1.00  0.00     0.064 A 
ATOM     70  C   UNL     1      -2.730   9.385   7.993  1.00  0.00     0.173 A 
ATOM     71  C   UNL     1      -0.748   9.220   6.688  1.00  0.00     0.173 A 
ATOM     72  F   UNL     1      -3.695   8.887   8.777  1.00  0.00    -0.203 F 
ATOM     73  C   UNL     1      -2.762  10.762   7.770  1.00  0.00     0.198 A 
ATOM     74  C   UNL     1      -0.814  10.589   6.413  1.00  0.00     0.198 A 
ATOM     75  F   UNL     1       0.338   8.567   6.248  1.00  0.00    -0.203 F 
ATOM     76  F   UNL     1      -3.721  11.504   8.342  1.00  0.00    -0.200 F 
ATOM     77  C   UNL     1      -1.828  11.359   6.948  1.00  0.00     0.200 A 
ATOM     78  F   UNL     1       0.107  11.155   5.621  1.00  0.00    -0.200 F 
ATOM     79  F   UNL     1      -1.895  12.671   6.687  1.00  0.00    -0.200 F 
ENDBRANCH  55  69
BRANCH  56  80
ATOM     80  C   UNL     1      -3.018  -1.058   7.090  1.00  0.00     0.064 A 
ATOM     81  C   UNL     1      -3.880  -1.927   6.392  1.00  0.00     0.173 A 
ATOM     82  C   UNL     1      -1.663  -1.068   6.743  1.00  0.00     0.173 A 
ATOM     83  F   UNL     1      -5.190  -1.954   6.688  1.00  0.00    -0.203 F 
ATOM     84  C   UNL     1      -3.430  -2.662   5.299  1.00  0.00     0.198 A 
ATOM     85  C   UNL     1      -1.213  -1.824   5.660  1.00  0.00     0.198 A 
ATOM     86  F   UNL     1      -0.798  -0.254   7.364  1.00  0.00    -0.203 F 
ATOM     87  F   UNL     1      -4.301  -3.372   4.567  1.00  0.00    -0.200 F 
ATOM     88  C   UNL     1      -2.102  -2.585   4.915  1.00  0.00     0.200 A 
ATOM     89  F   UNL     1       0.069  -1.736   5.278  1.00  0.00    -0.200 F 
ATOM     90  F   UNL     1      -1.690  -3.208   3.803  1.00  0.00    -0.200 F 
ENDBRANCH  56  80
BRANCH  68  91
ATOM     91  C   UNL     1      -1.284   3.816  12.108  1.00  0.00     0.064 A 
ATOM     92  C   UNL     1      -1.582   3.204  13.334  1.00  0.00     0.173 A 
ATOM     93  C   UNL     1      -0.288   4.812  12.124  1.00  0.00     0.173 A 
ATOM     94  F   UNL     1      -2.541   2.269  13.415  1.00  0.00    -0.203 F 
ATOM     95  C   UNL     1      -0.909   3.557  14.504  1.00  0.00     0.198 A 
ATOM     96  C   UNL     1       0.345   5.199  13.302  1.00  0.00     0.198 A 
ATOM     97  F   UNL     1       0.104   5.420  10.994  1.00  0.00    -0.203 F 
ATOM     98  F   UNL     1      -1.191   2.922  15.650  1.00  0.00    -0.200 F 
ATOM     99  C   UNL     1       0.041   4.564  14.491  1.00  0.00     0.200 A 
ATOM    100  F   UNL     1       1.250   6.187  13.277  1.00  0.00    -0.200 F 
ATOM    101  F   UNL     1       0.665   4.921  15.621  1.00  0.00    -0.200 F 
ENDBRANCH  68  91
ENDBRANCH  42  43
ENDBRANCH  34  37
ENDBRANCH  32  33
ENDBRANCH  31  32
ENDBRANCH   1  31
TORSDOF 14
