REMARK SMILES CCn1nc(C)c(NS(=O)(=O)c2cc(C(=O)NCCCCNC(=O)c3ccc(-c4c5nc(c(-c6c(F)c(F)c(F)c(F)c6F)c6ccc([nH]6)c(-c6c(F)c(F)c(F)c(F)c6F)c6nc(c(-c7c(F)c(F)c(F)c(F)c7F)c7ccc4[nH]7)C=C6)C=C5)cc3)cc(F)c2C)c1C
REMARK SMILES IDX 18 1 17 2 15 3 16 4 14 6 12 7 13 8 91 9 89 10 92 11 88 12
REMARK SMILES IDX 90 13 9 14 10 15 11 16 8 17 7 19 3 20 4 21 93 22 5 23 94 24
REMARK SMILES IDX 6 25 2 26 1 27 19 28 20 29 21 30 22 31 23 32 24 34 25 35
REMARK SMILES IDX 26 36 87 37 27 38 86 39 28 40 29 41 30 42 80 43 31 44 85 45
REMARK SMILES IDX 79 46 81 47 32 48 84 49 78 50 77 51 33 53 65 54 45 55 64 56
REMARK SMILES IDX 46 57 49 58 63 59 82 60 47 61 48 62 62 64 83 65 50 66 34 67
REMARK SMILES IDX 35 68 43 69 36 70 37 71 41 72 44 73 38 74 39 75 42 76 40 77
REMARK SMILES IDX 66 78 67 79 75 80 68 81 69 82 73 83 76 84 70 85 71 86 74 87
REMARK SMILES IDX 72 88 51 89 52 90 60 91 53 92 54 93 58 94 61 95 55 96 56 97
REMARK SMILES IDX 59 98 57 99
REMARK H PARENT 17 5 8 18 22 33 81 52 49 63
REMARK Flexibility Score: inf
ROOT
ATOM      1  C   UNL     1       3.778  10.143  -4.529  1.00  0.00     0.116 C 
ENDROOT
BRANCH   1   2
ATOM      2  N   UNL     1       3.106  10.758  -3.398  1.00  0.00    -0.352 N 
ATOM      3  C   UNL     1       2.101  10.362  -2.549  1.00  0.00     0.251 C 
ATOM      4  O   UNL     1       1.728  11.192  -1.716  1.00  0.00    -0.269 OA
ATOM      5  H   UNL     1       3.445  11.660  -3.195  1.00  0.00     0.163 HD
BRANCH   3   6
ATOM      6  C   UNL     1       1.446   9.018  -2.552  1.00  0.00     0.044 A 
ATOM      7  C   UNL     1       1.284   6.652  -3.209  1.00  0.00     0.094 A 
ATOM      8  C   UNL     1       1.852   7.939  -3.323  1.00  0.00     0.036 A 
ATOM      9  C   UNL     1       0.164   6.455  -2.404  1.00  0.00     0.005 A 
ATOM     10  C   UNL     1      -0.249   7.549  -1.625  1.00  0.00     0.128 A 
ATOM     11  C   UNL     1      -0.620   5.186  -2.289  1.00  0.00     0.049 C 
ATOM     12  C   UNL     1       0.385   8.795  -1.672  1.00  0.00     0.053 A 
ATOM     13  F   UNL     1      -1.274   7.396  -0.773  1.00  0.00    -0.207 F 
BRANCH   7  14
ATOM     14  S   UNL     1       2.192   5.418  -4.114  1.00  0.00     0.262 S 
ATOM     15  O   UNL     1       3.552   5.887  -4.229  1.00  0.00    -0.201 OA
ATOM     16  O   UNL     1       1.406   5.160  -5.310  1.00  0.00    -0.201 OA
BRANCH  14  17
ATOM     17  N   UNL     1       2.266   3.974  -3.311  1.00  0.00    -0.276 N 
ATOM     18  H   UNL     1       2.336   3.196  -3.911  1.00  0.00     0.180 HD
BRANCH  17  19
ATOM     19  C   UNL     1       2.249   3.631  -1.962  1.00  0.00     0.093 A 
ATOM     20  N   UNL     1       1.715   2.377  -0.249  1.00  0.00    -0.268 N 
ATOM     21  N   UNL     1       2.028   3.572   0.294  1.00  0.00    -0.176 NA
ATOM     22  C   UNL     1       2.073   2.313  -1.570  1.00  0.00     0.060 A 
ATOM     23  C   UNL     1       2.396   4.338  -0.743  1.00  0.00     0.084 A 
ATOM     24  C   UNL     1       2.215   1.087  -2.396  1.00  0.00     0.069 C 
ATOM     25  C   UNL     1       2.842   5.720  -0.449  1.00  0.00     0.071 C 
BRANCH  20  26
ATOM     26  C   UNL     1       0.851   1.509   0.536  1.00  0.00     0.141 C 
ATOM     27  C   UNL     1       0.922   0.013   0.298  1.00  0.00     0.029 C 
ENDBRANCH  20  26
ENDBRANCH  17  19
ENDBRANCH  14  17
ENDBRANCH   7  14
ENDBRANCH   3   6
ENDBRANCH   1   2
BRANCH   1  28
ATOM     28  C   UNL     1       2.898  10.151  -5.783  1.00  0.00     0.023 C 
BRANCH  28  29
ATOM     29  C   UNL     1       2.987  11.452  -6.595  1.00  0.00     0.023 C 
BRANCH  29  30
ATOM     30  C   UNL     1       4.353  11.674  -7.225  1.00  0.00     0.116 C 
BRANCH  30  31
ATOM     31  N   UNL     1       4.712  10.598  -8.148  1.00  0.00    -0.352 N 
ATOM     32  C   UNL     1       5.845  10.501  -8.918  1.00  0.00     0.251 C 
ATOM     33  H   UNL     1       4.067   9.858  -8.227  1.00  0.00     0.163 HD
ATOM     34  O   UNL     1       5.916   9.741  -9.880  1.00  0.00    -0.269 OA
BRANCH  32  35
ATOM     35  C   UNL     1       7.004  11.297  -8.522  1.00  0.00     0.039 A 
ATOM     36  C   UNL     1       7.732  12.059  -9.447  1.00  0.00     0.014 A 
ATOM     37  C   UNL     1       7.343  11.251  -7.173  1.00  0.00     0.014 A 
ATOM     38  C   UNL     1       8.805  12.819  -8.997  1.00  0.00     0.010 A 
ATOM     39  C   UNL     1       8.312  12.085  -6.713  1.00  0.00     0.010 A 
ATOM     40  C   UNL     1       9.081  12.811  -7.633  1.00  0.00    -0.014 A 
BRANCH  40  41
ATOM     41  C   UNL     1      10.187  13.489  -6.996  1.00  0.00     0.031 A 
ATOM     42  C   UNL     1      10.092  14.925  -6.718  1.00  0.00     0.074 A 
ATOM     43  C   UNL     1      11.045  12.636  -6.394  1.00  0.00     0.049 A 
ATOM     44  N   UNL     1      11.072  15.637  -6.298  1.00  0.00    -0.248 NA
ATOM     45  C   UNL     1       8.866  15.698  -6.903  1.00  0.00     0.031 C 
ATOM     46  C   UNL     1      11.924  12.829  -5.255  1.00  0.00     0.029 A 
ATOM     47  N   UNL     1      11.305  11.315  -6.799  1.00  0.00    -0.354 N 
ATOM     48  C   UNL     1      10.547  16.820  -5.822  1.00  0.00     0.074 A 
ATOM     49  C   UNL     1       9.205  16.869  -6.349  1.00  0.00     0.031 C 
ATOM     50  C   UNL     1      12.833  11.833  -5.242  1.00  0.00     0.029 A 
ATOM     51  C   UNL     1      12.651  11.079  -6.474  1.00  0.00     0.049 A 
ATOM     52  H   UNL     1      10.675  10.687  -7.222  1.00  0.00     0.167 HD
ATOM     53  C   UNL     1      11.272  17.506  -4.891  1.00  0.00     0.037 A 
ATOM     54  C   UNL     1      13.557  11.011  -7.497  1.00  0.00     0.037 A 
ATOM     55  C   UNL     1      12.533  16.802  -4.648  1.00  0.00     0.049 A 
ATOM     56  C   UNL     1      14.533  12.160  -7.428  1.00  0.00     0.074 A 
ATOM     57  C   UNL     1      12.918  15.900  -3.669  1.00  0.00     0.029 A 
ATOM     58  N   UNL     1      13.443  16.668  -5.690  1.00  0.00    -0.354 N 
ATOM     59  N   UNL     1      14.240  13.351  -6.976  1.00  0.00    -0.248 NA
ATOM     60  C   UNL     1      15.942  12.007  -7.760  1.00  0.00     0.031 C 
ATOM     61  C   UNL     1      14.046  15.187  -4.155  1.00  0.00     0.029 A 
ATOM     62  C   UNL     1      14.348  15.661  -5.422  1.00  0.00     0.049 A 
ATOM     63  H   UNL     1      13.442  17.216  -6.507  1.00  0.00     0.167 HD
ATOM     64  C   UNL     1      15.392  14.091  -6.883  1.00  0.00     0.074 A 
ATOM     65  C   UNL     1      16.424  13.208  -7.396  1.00  0.00     0.031 C 
ATOM     66  C   UNL     1      15.420  15.355  -6.358  1.00  0.00     0.037 A 
BRANCH  53  67
ATOM     67  C   UNL     1      10.772  18.618  -3.990  1.00  0.00     0.064 A 
ATOM     68  C   UNL     1      11.422  18.886  -2.760  1.00  0.00     0.173 A 
ATOM     69  C   UNL     1       9.665  19.446  -4.253  1.00  0.00     0.173 A 
ATOM     70  F   UNL     1      12.532  18.232  -2.395  1.00  0.00    -0.203 F 
ATOM     71  C   UNL     1      10.963  19.841  -1.849  1.00  0.00     0.198 A 
ATOM     72  C   UNL     1       9.187  20.385  -3.327  1.00  0.00     0.198 A 
ATOM     73  F   UNL     1       9.033  19.420  -5.430  1.00  0.00    -0.203 F 
ATOM     74  F   UNL     1      11.625  20.035  -0.700  1.00  0.00    -0.200 F 
ATOM     75  C   UNL     1       9.833  20.579  -2.123  1.00  0.00     0.200 A 
ATOM     76  F   UNL     1       8.096  21.108  -3.618  1.00  0.00    -0.200 F 
ATOM     77  F   UNL     1       9.384  21.486  -1.246  1.00  0.00    -0.200 F 
ENDBRANCH  53  67
BRANCH  54  78
ATOM     78  C   UNL     1      12.940  10.431  -8.737  1.00  0.00     0.064 A 
ATOM     79  C   UNL     1      12.441   9.113  -8.637  1.00  0.00     0.173 A 
ATOM     80  C   UNL     1      12.388  11.250  -9.733  1.00  0.00     0.173 A 
ATOM     81  F   UNL     1      12.947   8.277  -7.715  1.00  0.00    -0.203 F 
ATOM     82  C   UNL     1      11.314   8.707  -9.350  1.00  0.00     0.198 A 
ATOM     83  C   UNL     1      11.276  10.824 -10.470  1.00  0.00     0.198 A 
ATOM     84  F   UNL     1      12.829  12.503  -9.905  1.00  0.00    -0.203 F 
ATOM     85  F   UNL     1      10.761   7.511  -9.100  1.00  0.00    -0.200 F 
ATOM     86  C   UNL     1      10.709   9.579 -10.238  1.00  0.00     0.200 A 
ATOM     87  F   UNL     1      10.693  11.660 -11.343  1.00  0.00    -0.200 F 
ATOM     88  F   UNL     1       9.560   9.235 -10.839  1.00  0.00    -0.200 F 
ENDBRANCH  54  78
BRANCH  66  89
ATOM     89  C   UNL     1      16.501  16.397  -6.576  1.00  0.00     0.064 A 
ATOM     90  C   UNL     1      17.482  16.319  -7.577  1.00  0.00     0.173 A 
ATOM     91  C   UNL     1      16.477  17.628  -5.865  1.00  0.00     0.173 A 
ATOM     92  F   UNL     1      17.543  15.289  -8.428  1.00  0.00    -0.203 F 
ATOM     93  C   UNL     1      18.409  17.342  -7.795  1.00  0.00     0.198 A 
ATOM     94  C   UNL     1      17.346  18.680  -6.145  1.00  0.00     0.198 A 
ATOM     95  F   UNL     1      15.587  17.878  -4.894  1.00  0.00    -0.203 F 
ATOM     96  F   UNL     1      19.361  17.179  -8.723  1.00  0.00    -0.200 F 
ATOM     97  C   UNL     1      18.330  18.527  -7.094  1.00  0.00     0.200 A 
ATOM     98  F   UNL     1      17.202  19.849  -5.504  1.00  0.00    -0.200 F 
ATOM     99  F   UNL     1      19.183  19.527  -7.349  1.00  0.00    -0.200 F 
ENDBRANCH  66  89
ENDBRANCH  40  41
ENDBRANCH  32  35
ENDBRANCH  30  31
ENDBRANCH  29  30
ENDBRANCH  28  29
ENDBRANCH   1  28
TORSDOF 15
