REMARK SMILES CC[NH2+][C@]1(C(=O)NCCCCNC(=O)c2ccc(-c3c4nc(c(-c5c(F)c(F)c(F)c(F)c5F)c5ccc([nH]5)c(-c5c(F)c(F)c(F)c(F)c5F)c5nc(c(-c6c(F)c(F)c(F)c(F)c6F)c6ccc3[nH]6)C=C5)C=C4)cc2)CC[C@@H]([N@H+]2C[C@@H](C)O[C@@H](C)C2)C1
REMARK SMILES IDX 9 1 8 2 7 3 5 4 6 5 4 7 78 8 89 9 79 10 80 11 3 12 2 15 1 16
REMARK SMILES IDX 81 17 82 18 88 19 83 21 86 22 84 23 85 24 87 25 10 26 11 27
REMARK SMILES IDX 12 28 13 29 14 31 15 32 16 33 77 34 17 35 76 36 18 37 19 38
REMARK SMILES IDX 20 39 70 40 21 41 75 42 69 43 71 44 22 45 74 46 68 47 67 48
REMARK SMILES IDX 23 50 55 51 35 52 54 53 36 54 39 55 53 56 72 57 37 58 38 59
REMARK SMILES IDX 52 61 73 62 40 63 24 64 25 65 33 66 26 67 27 68 31 69 34 70
REMARK SMILES IDX 28 71 29 72 32 73 30 74 56 75 57 76 65 77 58 78 59 79 63 80
REMARK SMILES IDX 66 81 60 82 61 83 64 84 62 85 41 86 42 87 50 88 43 89 44 90
REMARK SMILES IDX 48 91 51 92 45 93 46 94 49 95 47 96
REMARK H PARENT 7 6 3 13 3 14 81 20 12 30 71 49 39 60
REMARK Flexibility Score: inf
ROOT
ATOM      1  C   UNL     1       3.192  -0.739  -3.615  1.00  0.00     0.023 C 
ENDROOT
BRANCH   1   2
ATOM      2  C   UNL     1       1.690  -0.926  -3.390  1.00  0.00     0.116 C 
BRANCH   2   3
ATOM      3  N   UNL     1       1.252  -0.230  -2.193  1.00  0.00    -0.351 N 
ATOM      4  C   UNL     1       0.793   1.036  -1.978  1.00  0.00     0.281 C 
ATOM      5  O   UNL     1       0.701   1.363  -0.787  1.00  0.00    -0.268 OA
ATOM      6  H   UNL     1       1.295  -0.780  -1.377  1.00  0.00     0.163 HD
BRANCH   4   7
ATOM      7  C   UNL     1       0.279   1.996  -3.107  1.00  0.00     0.181 C 
ATOM      8  C   UNL     1       0.512   3.457  -2.649  1.00  0.00     0.085 C 
ATOM      9  C   UNL     1       1.082   1.987  -4.417  1.00  0.00     0.144 C 
ATOM     10  C   UNL     1       0.448   4.295  -3.914  1.00  0.00     0.072 C 
ATOM     11  C   UNL     1       1.067   3.409  -5.005  1.00  0.00     0.191 C 
BRANCH   7  12
ATOM     12  N   UNL     1      -1.137   1.674  -3.440  1.00  0.00    -0.334 N 
ATOM     13  H   UNL     1      -1.395   2.199  -4.275  1.00  0.00     0.347 HD
ATOM     14  H   UNL     1      -1.181   0.664  -3.574  1.00  0.00     0.347 HD
BRANCH  12  15
ATOM     15  C   UNL     1      -2.098   1.996  -2.382  1.00  0.00     0.257 C 
ATOM     16  C   UNL     1      -3.485   1.500  -2.767  1.00  0.00     0.071 C 
ENDBRANCH  12  15
ENDBRANCH   7  12
BRANCH  11  17
ATOM     17  N   UNL     1       2.322   3.926  -5.582  1.00  0.00    -0.328 N 
ATOM     18  C   UNL     1       3.431   4.215  -4.669  1.00  0.00     0.294 C 
ATOM     19  C   UNL     1       2.805   3.168  -6.743  1.00  0.00     0.294 C 
ATOM     20  H   UNL     1       2.000   4.844  -5.888  1.00  0.00     0.348 HD
ATOM     21  C   UNL     1       4.439   3.074  -4.383  1.00  0.00     0.170 C 
ATOM     22  C   UNL     1       3.862   2.064  -6.477  1.00  0.00     0.170 C 
ATOM     23  C   UNL     1       4.487   2.757  -2.889  1.00  0.00     0.045 C 
ATOM     24  O   UNL     1       4.143   1.862  -5.088  1.00  0.00    -0.364 OA
ATOM     25  C   UNL     1       3.395   0.729  -7.051  1.00  0.00     0.045 C 
ENDBRANCH  11  17
ENDBRANCH   4   7
ENDBRANCH   2   3
ENDBRANCH   1   2
BRANCH   1  26
ATOM     26  C   UNL     1       4.107  -1.710  -2.875  1.00  0.00     0.023 C 
BRANCH  26  27
ATOM     27  C   UNL     1       4.102  -3.124  -3.435  1.00  0.00     0.116 C 
BRANCH  27  28
ATOM     28  N   UNL     1       4.601  -3.226  -4.801  1.00  0.00    -0.352 N 
ATOM     29  C   UNL     1       5.297  -4.260  -5.386  1.00  0.00     0.251 C 
ATOM     30  H   UNL     1       4.415  -2.454  -5.383  1.00  0.00     0.163 HD
ATOM     31  O   UNL     1       5.701  -4.171  -6.541  1.00  0.00    -0.269 OA
BRANCH  29  32
ATOM     32  C   UNL     1       5.609  -5.463  -4.584  1.00  0.00     0.039 A 
ATOM     33  C   UNL     1       6.918  -5.950  -4.575  1.00  0.00     0.014 A 
ATOM     34  C   UNL     1       4.632  -6.054  -3.781  1.00  0.00     0.014 A 
ATOM     35  C   UNL     1       7.269  -6.969  -3.687  1.00  0.00     0.010 A 
ATOM     36  C   UNL     1       5.003  -6.996  -2.831  1.00  0.00     0.010 A 
ATOM     37  C   UNL     1       6.325  -7.462  -2.772  1.00  0.00    -0.014 A 
BRANCH  37  38
ATOM     38  C   UNL     1       6.687  -8.466  -1.741  1.00  0.00     0.031 A 
ATOM     39  C   UNL     1       6.012  -9.808  -1.735  1.00  0.00     0.074 A 
ATOM     40  C   UNL     1       7.548  -8.138  -0.758  1.00  0.00     0.049 A 
ATOM     41  N   UNL     1       6.108 -10.783  -0.868  1.00  0.00    -0.248 NA
ATOM     42  C   UNL     1       5.068 -10.072  -2.833  1.00  0.00     0.031 C 
ATOM     43  C   UNL     1       8.225  -6.848  -0.619  1.00  0.00     0.029 A 
ATOM     44  N   UNL     1       7.994  -8.865   0.318  1.00  0.00    -0.354 N 
ATOM     45  C   UNL     1       5.217 -11.758  -1.298  1.00  0.00     0.074 A 
ATOM     46  C   UNL     1       4.546 -11.232  -2.466  1.00  0.00     0.031 C 
ATOM     47  C   UNL     1       9.031  -6.888   0.454  1.00  0.00     0.029 A 
ATOM     48  C   UNL     1       8.899  -8.190   1.100  1.00  0.00     0.049 A 
ATOM     49  H   UNL     1       7.694  -9.782   0.510  1.00  0.00     0.167 HD
ATOM     50  C   UNL     1       4.999 -12.991  -0.784  1.00  0.00     0.037 A 
ATOM     51  C   UNL     1       9.551  -8.584   2.210  1.00  0.00     0.037 A 
ATOM     52  C   UNL     1       5.701 -13.526   0.352  1.00  0.00     0.049 A 
ATOM     53  C   UNL     1       9.301  -9.962   2.758  1.00  0.00     0.074 A 
ATOM     54  C   UNL     1       5.616 -14.791   0.904  1.00  0.00     0.029 A 
ATOM     55  N   UNL     1       6.624 -12.818   1.110  1.00  0.00    -0.354 N 
ATOM     56  N   UNL     1       8.511 -10.903   2.303  1.00  0.00    -0.248 NA
ATOM     57  C   UNL     1      10.037 -10.331   3.975  1.00  0.00     0.031 C 
ATOM     58  C   UNL     1       6.460 -14.837   2.020  1.00  0.00     0.029 A 
ATOM     59  C   UNL     1       7.102 -13.614   2.138  1.00  0.00     0.049 A 
ATOM     60  H   UNL     1       6.899 -11.888   0.941  1.00  0.00     0.167 HD
ATOM     61  C   UNL     1       8.675 -11.985   3.156  1.00  0.00     0.074 A 
ATOM     62  C   UNL     1       9.647 -11.585   4.154  1.00  0.00     0.031 C 
ATOM     63  C   UNL     1       8.076 -13.201   3.116  1.00  0.00     0.037 A 
BRANCH  50  64
ATOM     64  C   UNL     1       3.959 -13.839  -1.457  1.00  0.00     0.064 A 
ATOM     65  C   UNL     1       4.149 -14.348  -2.752  1.00  0.00     0.173 A 
ATOM     66  C   UNL     1       2.750 -14.132  -0.809  1.00  0.00     0.173 A 
ATOM     67  F   UNL     1       5.281 -14.084  -3.422  1.00  0.00    -0.203 F 
ATOM     68  C   UNL     1       3.148 -15.077  -3.389  1.00  0.00     0.198 A 
ATOM     69  C   UNL     1       1.766 -14.891  -1.437  1.00  0.00     0.198 A 
ATOM     70  F   UNL     1       2.519 -13.675   0.431  1.00  0.00    -0.203 F 
ATOM     71  F   UNL     1       3.325 -15.489  -4.652  1.00  0.00    -0.200 F 
ATOM     72  C   UNL     1       1.960 -15.351  -2.731  1.00  0.00     0.200 A 
ATOM     73  F   UNL     1       0.621 -15.163  -0.796  1.00  0.00    -0.200 F 
ATOM     74  F   UNL     1       0.995 -16.046  -3.349  1.00  0.00    -0.200 F 
ENDBRANCH  50  64
BRANCH  51  75
ATOM     75  C   UNL     1      10.549  -7.682   2.839  1.00  0.00     0.064 A 
ATOM     76  C   UNL     1      11.920  -7.959   2.732  1.00  0.00     0.173 A 
ATOM     77  C   UNL     1      10.168  -6.528   3.537  1.00  0.00     0.173 A 
ATOM     78  F   UNL     1      12.331  -9.063   2.091  1.00  0.00    -0.203 F 
ATOM     79  C   UNL     1      12.871  -7.121   3.309  1.00  0.00     0.198 A 
ATOM     80  C   UNL     1      11.122  -5.679   4.095  1.00  0.00     0.198 A 
ATOM     81  F   UNL     1       8.870  -6.218   3.663  1.00  0.00    -0.203 F 
ATOM     82  F   UNL     1      14.172  -7.427   3.219  1.00  0.00    -0.200 F 
ATOM     83  C   UNL     1      12.472  -5.978   3.985  1.00  0.00     0.200 A 
ATOM     84  F   UNL     1      10.733  -4.568   4.737  1.00  0.00    -0.200 F 
ATOM     85  F   UNL     1      13.387  -5.168   4.533  1.00  0.00    -0.200 F 
ENDBRANCH  51  75
BRANCH  63  86
ATOM     86  C   UNL     1       8.482 -14.200   4.158  1.00  0.00     0.064 A 
ATOM     87  C   UNL     1       8.065 -14.081   5.492  1.00  0.00     0.173 A 
ATOM     88  C   UNL     1       9.264 -15.311   3.808  1.00  0.00     0.173 A 
ATOM     89  F   UNL     1       7.330 -13.027   5.878  1.00  0.00    -0.203 F 
ATOM     90  C   UNL     1       8.433 -15.030   6.442  1.00  0.00     0.198 A 
ATOM     91  C   UNL     1       9.607 -16.271   4.755  1.00  0.00     0.198 A 
ATOM     92  F   UNL     1       9.684 -15.471   2.544  1.00  0.00    -0.203 F 
ATOM     93  F   UNL     1       8.059 -14.876   7.719  1.00  0.00    -0.200 F 
ATOM     94  C   UNL     1       9.197 -16.127   6.072  1.00  0.00     0.200 A 
ATOM     95  F   UNL     1      10.336 -17.336   4.393  1.00  0.00    -0.200 F 
ATOM     96  F   UNL     1       9.544 -17.043   6.986  1.00  0.00    -0.200 F 
ENDBRANCH  63  86
ENDBRANCH  37  38
ENDBRANCH  29  32
ENDBRANCH  27  28
ENDBRANCH  26  27
ENDBRANCH   1  26
TORSDOF 14
