REMARK SMILES CCSc1cccc(-c2ccc([C@@H](C)C(=O)NCCCCNC(=O)c3ccc(-c4c5nc(c(-c6c(F)c(F)c(F)c(F)c6F)c6ccc([nH]6)c(-c6c(F)c(F)c(F)c(F)c6F)c6nc(c(-c7c(F)c(F)c(F)c(F)c7F)c7ccc4[nH]7)C=C6)C=C5)cc3)cc2)c1
REMARK SMILES IDX 18 1 17 2 15 3 16 4 13 6 14 7 12 8 9 9 10 10 89 11 11 12
REMARK SMILES IDX 88 13 8 14 4 15 5 16 90 17 6 18 7 19 3 20 2 21 1 22 19 23
REMARK SMILES IDX 20 24 21 25 22 26 23 27 24 29 25 30 26 31 87 32 27 33 86 34
REMARK SMILES IDX 28 35 29 36 30 37 80 38 31 39 85 40 79 41 81 42 32 43 84 44
REMARK SMILES IDX 78 45 77 46 33 48 65 49 45 50 64 51 46 52 49 53 63 54 82 55
REMARK SMILES IDX 47 56 48 57 62 59 83 60 50 61 34 62 35 63 43 64 36 65 37 66
REMARK SMILES IDX 41 67 44 68 38 69 39 70 42 71 40 72 66 73 67 74 75 75 68 76
REMARK SMILES IDX 69 77 73 78 76 79 70 80 71 81 74 82 72 83 51 84 52 85 60 86
REMARK SMILES IDX 53 87 54 88 58 89 61 90 55 91 56 92 59 93 57 94
REMARK H PARENT 17 5 22 28 81 47 49 58
REMARK Flexibility Score: inf
ROOT
ATOM      1  C   UNL     1       8.988   7.312   0.209  1.00  0.00     0.116 C 
ENDROOT
BRANCH   1   2
ATOM      2  N   UNL     1       8.160   8.384   0.718  1.00  0.00    -0.356 N 
ATOM      3  C   UNL     1       7.627   8.598   1.953  1.00  0.00     0.227 C 
ATOM      4  O   UNL     1       6.896   9.589   2.071  1.00  0.00    -0.274 OA
ATOM      5  H   UNL     1       7.944   9.080   0.056  1.00  0.00     0.163 HD
BRANCH   3   6
ATOM      6  C   UNL     1       7.901   7.698   3.169  1.00  0.00     0.105 C 
ATOM      7  C   UNL     1       9.370   7.662   3.594  1.00  0.00     0.023 C 
BRANCH   6   8
ATOM      8  C   UNL     1       7.185   6.358   3.100  1.00  0.00    -0.036 A 
ATOM      9  C   UNL     1       5.696   3.923   2.847  1.00  0.00    -0.018 A 
ATOM     10  C   UNL     1       7.043   4.014   2.458  1.00  0.00     0.009 A 
ATOM     11  C   UNL     1       5.125   5.079   3.402  1.00  0.00     0.009 A 
ATOM     12  C   UNL     1       7.783   5.194   2.614  1.00  0.00     0.005 A 
ATOM     13  C   UNL     1       5.846   6.277   3.507  1.00  0.00     0.005 A 
BRANCH   9  14
ATOM     14  C   UNL     1       4.922   2.667   2.674  1.00  0.00    -0.017 A 
ATOM     15  C   UNL     1       2.784   1.497   2.276  1.00  0.00     0.008 A 
ATOM     16  C   UNL     1       3.445   0.272   2.352  1.00  0.00     0.015 A 
ATOM     17  C   UNL     1       3.533   2.678   2.435  1.00  0.00     0.023 A 
ATOM     18  C   UNL     1       4.821   0.227   2.571  1.00  0.00     0.002 A 
ATOM     19  C   UNL     1       5.545   1.409   2.738  1.00  0.00     0.009 A 
BRANCH  15  20
ATOM     20  S   UNL     1       1.017   1.681   2.052  1.00  0.00    -0.126 SA
BRANCH  20  21
ATOM     21  C   UNL     1       0.496   0.124   1.255  1.00  0.00     0.071 C 
ATOM     22  C   UNL     1       0.979   0.026  -0.181  1.00  0.00     0.016 C 
ENDBRANCH  20  21
ENDBRANCH  15  20
ENDBRANCH   9  14
ENDBRANCH   6   8
ENDBRANCH   3   6
ENDBRANCH   1   2
BRANCH   1  23
ATOM     23  C   UNL     1       8.169   6.230  -0.493  1.00  0.00     0.023 C 
BRANCH  23  24
ATOM     24  C   UNL     1       7.868   6.502  -1.966  1.00  0.00     0.023 C 
BRANCH  24  25
ATOM     25  C   UNL     1       9.088   6.611  -2.874  1.00  0.00     0.116 C 
BRANCH  25  26
ATOM     26  N   UNL     1       9.953   5.439  -2.856  1.00  0.00    -0.352 N 
ATOM     27  C   UNL     1      10.689   4.907  -3.891  1.00  0.00     0.251 C 
ATOM     28  H   UNL     1      10.020   4.968  -1.994  1.00  0.00     0.163 HD
ATOM     29  O   UNL     1      11.328   3.874  -3.745  1.00  0.00    -0.269 OA
BRANCH  27  30
ATOM     30  C   UNL     1      10.650   5.580  -5.206  1.00  0.00     0.039 A 
ATOM     31  C   UNL     1      10.268   4.841  -6.329  1.00  0.00     0.014 A 
ATOM     32  C   UNL     1      10.897   6.951  -5.305  1.00  0.00     0.014 A 
ATOM     33  C   UNL     1      10.030   5.501  -7.536  1.00  0.00     0.010 A 
ATOM     34  C   UNL     1      10.597   7.615  -6.488  1.00  0.00     0.010 A 
ATOM     35  C   UNL     1      10.139   6.899  -7.607  1.00  0.00    -0.014 A 
BRANCH  35  36
ATOM     36  C   UNL     1       9.737   7.651  -8.821  1.00  0.00     0.031 A 
ATOM     37  C   UNL     1      10.759   8.439  -9.586  1.00  0.00     0.074 A 
ATOM     38  C   UNL     1       8.436   7.712  -9.164  1.00  0.00     0.049 A 
ATOM     39  N   UNL     1      10.586   9.279 -10.574  1.00  0.00    -0.248 NA
ATOM     40  C   UNL     1      12.159   8.286  -9.162  1.00  0.00     0.031 C 
ATOM     41  C   UNL     1       7.343   7.028  -8.470  1.00  0.00     0.029 A 
ATOM     42  N   UNL     1       7.807   8.404 -10.169  1.00  0.00    -0.354 N 
ATOM     43  C   UNL     1      11.848   9.772 -10.873  1.00  0.00     0.074 A 
ATOM     44  C   UNL     1      12.773   9.168  -9.938  1.00  0.00     0.031 C 
ATOM     45  C   UNL     1       6.182   7.326  -9.074  1.00  0.00     0.029 A 
ATOM     46  C   UNL     1       6.441   8.254 -10.170  1.00  0.00     0.049 A 
ATOM     47  H   UNL     1       8.289   8.955 -10.827  1.00  0.00     0.167 HD
ATOM     48  C   UNL     1      12.203  10.636 -11.852  1.00  0.00     0.037 A 
ATOM     49  C   UNL     1       5.503   8.818 -10.954  1.00  0.00     0.037 A 
ATOM     50  C   UNL     1      11.286  11.203 -12.805  1.00  0.00     0.049 A 
ATOM     51  C   UNL     1       5.924   9.784 -12.027  1.00  0.00     0.074 A 
ATOM     52  C   UNL     1      11.563  12.014 -13.891  1.00  0.00     0.029 A 
ATOM     53  N   UNL     1       9.912  11.019 -12.781  1.00  0.00    -0.354 N 
ATOM     54  N   UNL     1       7.128  10.191 -12.345  1.00  0.00    -0.248 NA
ATOM     55  C   UNL     1       4.855  10.374 -12.845  1.00  0.00     0.031 C 
ATOM     56  C   UNL     1      10.351  12.351 -14.504  1.00  0.00     0.029 A 
ATOM     57  C   UNL     1       9.323  11.723 -13.818  1.00  0.00     0.049 A 
ATOM     58  H   UNL     1       9.427  10.468 -12.124  1.00  0.00     0.167 HD
ATOM     59  C   UNL     1       6.966  11.071 -13.405  1.00  0.00     0.074 A 
ATOM     60  C   UNL     1       5.547  11.129 -13.688  1.00  0.00     0.031 C 
ATOM     61  C   UNL     1       7.909  11.771 -14.081  1.00  0.00     0.037 A 
BRANCH  48  62
ATOM     62  C   UNL     1      13.650  11.016 -11.948  1.00  0.00     0.064 A 
ATOM     63  C   UNL     1      14.617  10.111 -12.410  1.00  0.00     0.173 A 
ATOM     64  C   UNL     1      14.069  12.310 -11.605  1.00  0.00     0.173 A 
ATOM     65  F   UNL     1      14.267   8.859 -12.738  1.00  0.00    -0.203 F 
ATOM     66  C   UNL     1      15.956  10.480 -12.500  1.00  0.00     0.198 A 
ATOM     67  C   UNL     1      15.405  12.683 -11.721  1.00  0.00     0.198 A 
ATOM     68  F   UNL     1      13.182  13.213 -11.161  1.00  0.00    -0.203 F 
ATOM     69  F   UNL     1      16.869   9.586 -12.902  1.00  0.00    -0.200 F 
ATOM     70  C   UNL     1      16.348  11.767 -12.162  1.00  0.00     0.200 A 
ATOM     71  F   UNL     1      15.782  13.929 -11.402  1.00  0.00    -0.200 F 
ATOM     72  F   UNL     1      17.637  12.121 -12.254  1.00  0.00    -0.200 F 
ENDBRANCH  48  62
BRANCH  49  73
ATOM     73  C   UNL     1       4.071   8.482 -10.754  1.00  0.00     0.064 A 
ATOM     74  C   UNL     1       3.385   7.689 -11.685  1.00  0.00     0.173 A 
ATOM     75  C   UNL     1       3.360   8.941  -9.636  1.00  0.00     0.173 A 
ATOM     76  F   UNL     1       4.019   7.246 -12.781  1.00  0.00    -0.203 F 
ATOM     77  C   UNL     1       2.039   7.378 -11.511  1.00  0.00     0.198 A 
ATOM     78  C   UNL     1       2.018   8.611  -9.452  1.00  0.00     0.198 A 
ATOM     79  F   UNL     1       3.972   9.702  -8.717  1.00  0.00    -0.203 F 
ATOM     80  F   UNL     1       1.398   6.648 -12.434  1.00  0.00    -0.200 F 
ATOM     81  C   UNL     1       1.358   7.834 -10.392  1.00  0.00     0.200 A 
ATOM     82  F   UNL     1       1.367   9.045  -8.365  1.00  0.00    -0.200 F 
ATOM     83  F   UNL     1       0.063   7.532 -10.224  1.00  0.00    -0.200 F 
ENDBRANCH  49  73
BRANCH  61  84
ATOM     84  C   UNL     1       7.439  12.654 -15.197  1.00  0.00     0.064 A 
ATOM     85  C   UNL     1       6.813  13.882 -14.939  1.00  0.00     0.173 A 
ATOM     86  C   UNL     1       7.668  12.296 -16.534  1.00  0.00     0.173 A 
ATOM     87  F   UNL     1       6.557  14.257 -13.677  1.00  0.00    -0.203 F 
ATOM     88  C   UNL     1       6.423  14.716 -15.983  1.00  0.00     0.198 A 
ATOM     89  C   UNL     1       7.297  13.144 -17.573  1.00  0.00     0.198 A 
ATOM     90  F   UNL     1       8.267  11.133 -16.829  1.00  0.00    -0.203 F 
ATOM     91  F   UNL     1       5.798  15.872 -15.716  1.00  0.00    -0.200 F 
ATOM     92  C   UNL     1       6.673  14.351 -17.297  1.00  0.00     0.200 A 
ATOM     93  F   UNL     1       7.548  12.794 -18.843  1.00  0.00    -0.200 F 
ATOM     94  F   UNL     1       6.306  15.161 -18.300  1.00  0.00    -0.200 F 
ENDBRANCH  61  84
ENDBRANCH  35  36
ENDBRANCH  27  30
ENDBRANCH  25  26
ENDBRANCH  24  25
ENDBRANCH  23  24
ENDBRANCH   1  23
TORSDOF 15
