REMARK SMILES O=C(NCCCCNC(=O)c1cc(F)cc(-c2cccc(F)c2F)c1)c1ccc(-c2c3nc(c(-c4c(F)c(F)c(F)c(F)c4F)c4ccc([nH]4)c(-c4c(F)c(F)c(F)c(F)c4F)c4nc(c(-c5c(F)c(F)c(F)c(F)c5F)c5ccc2[nH]5)C=C4)C=C3)cc1
REMARK SMILES IDX 5 1 4 2 3 3 1 4 2 5 26 7 27 8 88 9 28 10 87 11 29 12 30 13
REMARK SMILES IDX 31 14 81 15 32 16 86 17 80 18 82 19 33 20 85 21 79 22 78 23
REMARK SMILES IDX 34 25 66 26 46 27 65 28 47 29 50 30 64 31 83 32 48 33 49 34
REMARK SMILES IDX 63 36 84 37 51 38 35 39 36 40 44 41 37 42 38 43 42 44 45 45
REMARK SMILES IDX 39 46 40 47 43 48 41 49 67 50 68 51 76 52 69 53 70 54 74 55
REMARK SMILES IDX 77 56 71 57 72 58 75 59 73 60 52 61 53 62 61 63 54 64 55 65
REMARK SMILES IDX 59 66 62 67 56 68 57 69 60 70 58 71 6 72 7 73 8 74 9 75
REMARK SMILES IDX 10 77 11 78 12 79 25 80 13 81 16 82 14 83 15 84 17 85 18 86
REMARK SMILES IDX 23 87 19 88 21 89 24 90 20 91 22 92
REMARK H PARENT 3 6 82 24 50 35 8 76
REMARK Flexibility Score: inf
ROOT
ATOM      1  C   UNL     1       4.822  -2.581  -0.799  1.00  0.00     0.023 C 
ENDROOT
BRANCH   1   2
ATOM      2  C   UNL     1       4.529  -1.088  -0.858  1.00  0.00     0.116 C 
BRANCH   2   3
ATOM      3  N   UNL     1       3.108  -0.779  -0.915  1.00  0.00    -0.352 N 
ATOM      4  O   UNL     1       1.139   0.096  -0.238  1.00  0.00    -0.269 OA
ATOM      5  C   UNL     1       2.358   0.043  -0.106  1.00  0.00     0.251 C 
ATOM      6  H   UNL     1       2.610  -1.224  -1.639  1.00  0.00     0.163 HD
BRANCH   5   7
ATOM      7  C   UNL     1       3.021   0.830   0.955  1.00  0.00     0.039 A 
ATOM      8  C   UNL     1       4.201   1.526   0.692  1.00  0.00     0.014 A 
ATOM      9  C   UNL     1       2.472   0.840   2.241  1.00  0.00     0.014 A 
ATOM     10  C   UNL     1       4.928   2.065   1.745  1.00  0.00     0.010 A 
ATOM     11  C   UNL     1       3.158   1.470   3.284  1.00  0.00     0.010 A 
ATOM     12  C   UNL     1       4.418   2.042   3.054  1.00  0.00    -0.014 A 
BRANCH  12  13
ATOM     13  C   UNL     1       5.223   2.638   4.152  1.00  0.00     0.031 A 
ATOM     14  C   UNL     1       5.768   1.790   5.268  1.00  0.00     0.074 A 
ATOM     15  C   UNL     1       5.521   3.950   4.096  1.00  0.00     0.049 A 
ATOM     16  N   UNL     1       6.541   2.141   6.266  1.00  0.00    -0.248 NA
ATOM     17  C   UNL     1       5.396   0.367   5.272  1.00  0.00     0.031 C 
ATOM     18  C   UNL     1       5.045   4.874   3.065  1.00  0.00     0.029 A 
ATOM     19  N   UNL     1       6.321   4.726   4.895  1.00  0.00    -0.354 N 
ATOM     20  C   UNL     1       6.732   0.992   7.023  1.00  0.00     0.074 A 
ATOM     21  C   UNL     1       5.973  -0.063   6.387  1.00  0.00     0.031 C 
ATOM     22  C   UNL     1       5.615   6.072   3.252  1.00  0.00     0.029 A 
ATOM     23  C   UNL     1       6.448   6.018   4.449  1.00  0.00     0.049 A 
ATOM     24  H   UNL     1       6.761   4.389   5.708  1.00  0.00     0.167 HD
ATOM     25  C   UNL     1       7.481   0.833   8.141  1.00  0.00     0.037 A 
ATOM     26  C   UNL     1       7.157   7.049   4.945  1.00  0.00     0.037 A 
ATOM     27  C   UNL     1       8.255   1.879   8.758  1.00  0.00     0.049 A 
ATOM     28  C   UNL     1       7.979   6.845   6.183  1.00  0.00     0.074 A 
ATOM     29  C   UNL     1       9.056   1.810   9.885  1.00  0.00     0.029 A 
ATOM     30  N   UNL     1       8.327   3.186   8.298  1.00  0.00    -0.354 N 
ATOM     31  N   UNL     1       8.151   5.753   6.887  1.00  0.00    -0.248 NA
ATOM     32  C   UNL     1       8.700   8.016   6.699  1.00  0.00     0.031 C 
ATOM     33  C   UNL     1       9.585   3.082  10.127  1.00  0.00     0.029 A 
ATOM     34  C   UNL     1       9.151   3.934   9.125  1.00  0.00     0.049 A 
ATOM     35  H   UNL     1       7.863   3.531   7.501  1.00  0.00     0.167 HD
ATOM     36  C   UNL     1       9.003   6.100   7.924  1.00  0.00     0.074 A 
ATOM     37  C   UNL     1       9.332   7.500   7.746  1.00  0.00     0.031 C 
ATOM     38  C   UNL     1       9.466   5.327   8.936  1.00  0.00     0.037 A 
BRANCH  25  39
ATOM     39  C   UNL     1       7.502  -0.525   8.781  1.00  0.00     0.064 A 
ATOM     40  C   UNL     1       6.872  -0.738  10.017  1.00  0.00     0.173 A 
ATOM     41  C   UNL     1       8.200  -1.598   8.208  1.00  0.00     0.173 A 
ATOM     42  F   UNL     1       6.197   0.257  10.612  1.00  0.00    -0.203 F 
ATOM     43  C   UNL     1       6.948  -1.972  10.659  1.00  0.00     0.198 A 
ATOM     44  C   UNL     1       8.253  -2.838   8.840  1.00  0.00     0.198 A 
ATOM     45  F   UNL     1       8.810  -1.449   7.022  1.00  0.00    -0.203 F 
ATOM     46  F   UNL     1       6.361  -2.143  11.851  1.00  0.00    -0.200 F 
ATOM     47  C   UNL     1       7.635  -3.021  10.068  1.00  0.00     0.200 A 
ATOM     48  F   UNL     1       8.898  -3.858   8.257  1.00  0.00    -0.200 F 
ATOM     49  F   UNL     1       7.698  -4.212  10.680  1.00  0.00    -0.200 F 
ENDBRANCH  25  39
BRANCH  26  50
ATOM     50  C   UNL     1       7.125   8.354   4.239  1.00  0.00     0.064 A 
ATOM     51  C   UNL     1       5.964   9.140   4.217  1.00  0.00     0.173 A 
ATOM     52  C   UNL     1       8.238   8.808   3.519  1.00  0.00     0.173 A 
ATOM     53  F   UNL     1       4.871   8.741   4.885  1.00  0.00    -0.203 F 
ATOM     54  C   UNL     1       5.907  10.317   3.476  1.00  0.00     0.198 A 
ATOM     55  C   UNL     1       8.188  10.000   2.799  1.00  0.00     0.198 A 
ATOM     56  F   UNL     1       9.375   8.098   3.525  1.00  0.00    -0.203 F 
ATOM     57  F   UNL     1       4.770  11.025   3.433  1.00  0.00    -0.200 F 
ATOM     58  C   UNL     1       7.020  10.747   2.769  1.00  0.00     0.200 A 
ATOM     59  F   UNL     1       9.271  10.422   2.132  1.00  0.00    -0.200 F 
ATOM     60  F   UNL     1       6.966  11.881   2.057  1.00  0.00    -0.200 F 
ENDBRANCH  26  50
BRANCH  38  61
ATOM     61  C   UNL     1      10.387   5.971   9.928  1.00  0.00     0.064 A 
ATOM     62  C   UNL     1      11.752   5.646   9.947  1.00  0.00     0.173 A 
ATOM     63  C   UNL     1       9.909   6.867  10.895  1.00  0.00     0.173 A 
ATOM     64  F   UNL     1      12.255   4.790   9.045  1.00  0.00    -0.203 F 
ATOM     65  C   UNL     1      12.602   6.188  10.905  1.00  0.00     0.198 A 
ATOM     66  C   UNL     1      10.768   7.426  11.838  1.00  0.00     0.198 A 
ATOM     67  F   UNL     1       8.614   7.218  10.908  1.00  0.00    -0.203 F 
ATOM     68  F   UNL     1      13.898   5.845  10.920  1.00  0.00    -0.200 F 
ATOM     69  C   UNL     1      12.111   7.080  11.847  1.00  0.00     0.200 A 
ATOM     70  F   UNL     1      10.296   8.305  12.732  1.00  0.00    -0.200 F 
ATOM     71  F   UNL     1      12.934   7.612  12.761  1.00  0.00    -0.200 F 
ENDBRANCH  38  61
ENDBRANCH  12  13
ENDBRANCH   5   7
ENDBRANCH   2   3
ENDBRANCH   1   2
BRANCH   1  72
ATOM     72  C   UNL     1       4.324  -3.392  -1.992  1.00  0.00     0.023 C 
BRANCH  72  73
ATOM     73  C   UNL     1       4.724  -2.848  -3.359  1.00  0.00     0.116 C 
BRANCH  73  74
ATOM     74  N   UNL     1       6.166  -2.797  -3.540  1.00  0.00    -0.352 N 
ATOM     75  C   UNL     1       6.934  -3.414  -4.494  1.00  0.00     0.251 C 
ATOM     76  H   UNL     1       6.657  -2.244  -2.890  1.00  0.00     0.163 HD
ATOM     77  O   UNL     1       8.158  -3.386  -4.431  1.00  0.00    -0.269 OA
BRANCH  75  78
ATOM     78  C   UNL     1       6.269  -4.147  -5.585  1.00  0.00     0.043 A 
ATOM     79  C   UNL     1       5.361  -3.497  -6.420  1.00  0.00     0.053 A 
ATOM     80  C   UNL     1       6.556  -5.506  -5.754  1.00  0.00     0.023 A 
ATOM     81  C   UNL     1       4.688  -4.241  -7.374  1.00  0.00     0.124 A 
ATOM     82  C   UNL     1       5.888  -6.259  -6.734  1.00  0.00    -0.012 A 
ATOM     83  F   UNL     1       3.770  -3.643  -8.144  1.00  0.00    -0.207 F 
ATOM     84  C   UNL     1       4.934  -5.603  -7.531  1.00  0.00     0.048 A 
BRANCH  82  85
ATOM     85  C   UNL     1       6.178  -7.689  -6.921  1.00  0.00     0.021 A 
ATOM     86  C   UNL     1       6.150  -8.585  -5.835  1.00  0.00     0.012 A 
ATOM     87  C   UNL     1       6.494  -8.210  -8.185  1.00  0.00     0.166 A 
ATOM     88  C   UNL     1       6.428  -9.947  -6.010  1.00  0.00     0.004 A 
ATOM     89  C   UNL     1       6.772  -9.563  -8.357  1.00  0.00     0.159 A 
ATOM     90  F   UNL     1       6.543  -7.399  -9.255  1.00  0.00    -0.203 F 
ATOM     91  C   UNL     1       6.740 -10.436  -7.277  1.00  0.00     0.042 A 
ATOM     92  F   UNL     1       7.073 -10.037  -9.573  1.00  0.00    -0.204 F 
ENDBRANCH  82  85
ENDBRANCH  75  78
ENDBRANCH  73  74
ENDBRANCH  72  73
ENDBRANCH   1  72
TORSDOF 12
