REMARK SMILES C[C@H](CO)CSc1cc(Cl)ccc1C(=O)NCCCCNC(=O)c1ccc(-c2c3nc(c(-c4c(F)c(F)c(F)c(F)c4F)c4ccc([nH]4)c(-c4c(F)c(F)c(F)c(F)c4F)c4nc(c(-c5c(F)c(F)c(F)c(F)c5F)c5ccc2[nH]5)C=C4)C=C3)cc1
REMARK SMILES IDX 17 1 16 2 14 3 15 4 13 6 7 7 8 8 9 9 12 10 10 11 11 12 6 13
REMARK SMILES IDX 5 14 2 15 1 16 3 17 4 18 18 20 19 21 20 22 21 23 22 24 23 26
REMARK SMILES IDX 24 27 25 28 86 29 26 30 85 31 27 32 28 33 29 34 79 35 30 36
REMARK SMILES IDX 84 37 78 38 80 39 31 40 83 41 77 42 76 43 32 45 64 46 44 47
REMARK SMILES IDX 63 48 45 49 48 50 62 51 81 52 46 53 47 54 61 56 82 57 49 58
REMARK SMILES IDX 33 59 34 60 42 61 35 62 36 63 40 64 43 65 37 66 38 67 41 68
REMARK SMILES IDX 39 69 65 70 66 71 74 72 67 73 68 74 72 75 75 76 69 77 70 78
REMARK SMILES IDX 73 79 71 80 50 81 51 82 59 83 52 84 53 85 57 86 60 87 54 88
REMARK SMILES IDX 55 89 58 90 56 91
REMARK H PARENT 16 5 4 19 21 25 80 44 48 55
REMARK Flexibility Score: inf
ROOT
ATOM      1  C   UNL     1      -2.800  -0.619   0.705  1.00  0.00     0.116 C 
ENDROOT
BRANCH   1   2
ATOM      2  N   UNL     1      -2.631   0.751   0.265  1.00  0.00    -0.352 N 
ATOM      3  C   UNL     1      -1.702   1.351  -0.545  1.00  0.00     0.252 C 
ATOM      4  O   UNL     1      -1.334   2.471  -0.173  1.00  0.00    -0.269 OA
ATOM      5  H   UNL     1      -3.313   1.369   0.615  1.00  0.00     0.163 HD
BRANCH   3   6
ATOM      6  C   UNL     1      -1.258   0.911  -1.910  1.00  0.00     0.053 A 
ATOM      7  C   UNL     1      -0.669  -0.278  -2.387  1.00  0.00     0.021 A 
ATOM      8  C   UNL     1      -0.250  -0.332  -3.744  1.00  0.00     0.036 A 
ATOM      9  C   UNL     1      -0.344   0.762  -4.598  1.00  0.00     0.042 A 
ATOM     10  C   UNL     1      -1.355   2.002  -2.822  1.00  0.00     0.016 A 
ATOM     11  Cl  UNL     1       0.255   0.655  -6.205  1.00  0.00    -0.084 Cl
ATOM     12  C   UNL     1      -0.895   1.940  -4.139  1.00  0.00     0.021 A 
BRANCH   7  13
ATOM     13  S   UNL     1      -0.276  -1.835  -1.597  1.00  0.00    -0.125 SA
BRANCH  13  14
ATOM     14  C   UNL     1       0.459  -1.364  -0.025  1.00  0.00     0.080 C 
BRANCH  14  15
ATOM     15  C   UNL     1       1.927  -0.985   0.120  1.00  0.00     0.022 C 
ATOM     16  C   UNL     1       2.205  -0.884   1.633  1.00  0.00     0.011 C 
BRANCH  15  17
ATOM     17  C   UNL     1       2.230   0.331  -0.600  1.00  0.00     0.160 C 
BRANCH  17  18
ATOM     18  O   UNL     1       3.474   0.872  -0.184  1.00  0.00    -0.396 OA
ATOM     19  H   UNL     1       3.446   1.055   0.768  1.00  0.00     0.210 HD
ENDBRANCH  17  18
ENDBRANCH  15  17
ENDBRANCH  14  15
ENDBRANCH  13  14
ENDBRANCH   7  13
ENDBRANCH   3   6
ENDBRANCH   1   2
BRANCH   1  20
ATOM     20  C   UNL     1      -1.887  -0.870   1.918  1.00  0.00     0.023 C 
BRANCH  20  21
ATOM     21  C   UNL     1      -2.532  -0.922   3.285  1.00  0.00     0.023 C 
BRANCH  21  22
ATOM     22  C   UNL     1      -3.486  -2.083   3.480  1.00  0.00     0.116 C 
BRANCH  22  23
ATOM     23  N   UNL     1      -2.960  -3.392   3.097  1.00  0.00    -0.352 N 
ATOM     24  C   UNL     1      -3.095  -4.608   3.740  1.00  0.00     0.251 C 
ATOM     25  H   UNL     1      -2.435  -3.409   2.265  1.00  0.00     0.163 HD
ATOM     26  O   UNL     1      -2.560  -5.610   3.307  1.00  0.00    -0.269 OA
BRANCH  24  27
ATOM     27  C   UNL     1      -3.857  -4.645   5.006  1.00  0.00     0.039 A 
ATOM     28  C   UNL     1      -3.284  -5.247   6.126  1.00  0.00     0.014 A 
ATOM     29  C   UNL     1      -5.059  -3.950   5.109  1.00  0.00     0.014 A 
ATOM     30  C   UNL     1      -3.862  -5.038   7.379  1.00  0.00     0.010 A 
ATOM     31  C   UNL     1      -5.538  -3.617   6.364  1.00  0.00     0.010 A 
ATOM     32  C   UNL     1      -4.950  -4.162   7.515  1.00  0.00    -0.014 A 
BRANCH  32  33
ATOM     33  C   UNL     1      -5.511  -3.799   8.841  1.00  0.00     0.031 A 
ATOM     34  C   UNL     1      -6.976  -4.020   9.111  1.00  0.00     0.074 A 
ATOM     35  C   UNL     1      -4.740  -3.175   9.754  1.00  0.00     0.049 A 
ATOM     36  N   UNL     1      -7.697  -3.644  10.135  1.00  0.00    -0.248 NA
ATOM     37  C   UNL     1      -7.748  -4.697   8.055  1.00  0.00     0.031 C 
ATOM     38  C   UNL     1      -3.331  -2.812   9.579  1.00  0.00     0.029 A 
ATOM     39  N   UNL     1      -5.039  -2.724  11.016  1.00  0.00    -0.354 N 
ATOM     40  C   UNL     1      -9.004  -3.990   9.819  1.00  0.00     0.074 A 
ATOM     41  C   UNL     1      -8.990  -4.537   8.482  1.00  0.00     0.031 C 
ATOM     42  C   UNL     1      -2.878  -2.241  10.707  1.00  0.00     0.029 A 
ATOM     43  C   UNL     1      -3.970  -2.163  11.671  1.00  0.00     0.049 A 
ATOM     44  H   UNL     1      -5.937  -2.797  11.414  1.00  0.00     0.167 HD
ATOM     45  C   UNL     1     -10.113  -3.901  10.589  1.00  0.00     0.037 A 
ATOM     46  C   UNL     1      -3.884  -1.654  12.914  1.00  0.00     0.037 A 
ATOM     47  C   UNL     1     -10.104  -3.447  11.952  1.00  0.00     0.049 A 
ATOM     48  C   UNL     1      -5.107  -1.663  13.790  1.00  0.00     0.074 A 
ATOM     49  C   UNL     1     -11.147  -3.412  12.858  1.00  0.00     0.029 A 
ATOM     50  N   UNL     1      -8.980  -2.970  12.611  1.00  0.00    -0.354 N 
ATOM     51  N   UNL     1      -6.323  -2.063  13.508  1.00  0.00    -0.248 NA
ATOM     52  C   UNL     1      -4.943  -1.161  15.162  1.00  0.00     0.031 C 
ATOM     53  C   UNL     1     -10.659  -2.895  14.063  1.00  0.00     0.029 A 
ATOM     54  C   UNL     1      -9.305  -2.639  13.915  1.00  0.00     0.049 A 
ATOM     55  H   UNL     1      -8.085  -2.880  12.211  1.00  0.00     0.167 HD
ATOM     56  C   UNL     1      -7.062  -1.886  14.669  1.00  0.00     0.074 A 
ATOM     57  C   UNL     1      -6.153  -1.358  15.666  1.00  0.00     0.031 C 
ATOM     58  C   UNL     1      -8.376  -2.133  14.891  1.00  0.00     0.037 A 
BRANCH  45  59
ATOM     59  C   UNL     1     -11.413  -4.339   9.982  1.00  0.00     0.064 A 
ATOM     60  C   UNL     1     -11.669  -5.687   9.684  1.00  0.00     0.173 A 
ATOM     61  C   UNL     1     -12.417  -3.402   9.696  1.00  0.00     0.173 A 
ATOM     62  F   UNL     1     -10.734  -6.620   9.921  1.00  0.00    -0.203 F 
ATOM     63  C   UNL     1     -12.864  -6.074   9.085  1.00  0.00     0.198 A 
ATOM     64  C   UNL     1     -13.625  -3.798   9.129  1.00  0.00     0.198 A 
ATOM     65  F   UNL     1     -12.225  -2.102   9.963  1.00  0.00    -0.203 F 
ATOM     66  F   UNL     1     -13.057  -7.357   8.750  1.00  0.00    -0.200 F 
ATOM     67  C   UNL     1     -13.843  -5.131   8.814  1.00  0.00     0.200 A 
ATOM     68  F   UNL     1     -14.575  -2.888   8.875  1.00  0.00    -0.200 F 
ATOM     69  F   UNL     1     -14.994  -5.506   8.238  1.00  0.00    -0.200 F 
ENDBRANCH  45  59
BRANCH  46  70
ATOM     70  C   UNL     1      -2.582  -1.154  13.427  1.00  0.00     0.064 A 
ATOM     71  C   UNL     1      -1.875  -1.875  14.401  1.00  0.00     0.173 A 
ATOM     72  C   UNL     1      -2.020   0.044  12.966  1.00  0.00     0.173 A 
ATOM     73  F   UNL     1      -2.381  -3.019  14.885  1.00  0.00    -0.203 F 
ATOM     74  C   UNL     1      -0.667  -1.404  14.911  1.00  0.00     0.198 A 
ATOM     75  C   UNL     1      -0.799   0.502  13.460  1.00  0.00     0.198 A 
ATOM     76  F   UNL     1      -2.652   0.766  12.030  1.00  0.00    -0.203 F 
ATOM     77  F   UNL     1      -0.035  -2.091  15.873  1.00  0.00    -0.200 F 
ATOM     78  C   UNL     1      -0.128  -0.218  14.438  1.00  0.00     0.200 A 
ATOM     79  F   UNL     1      -0.275   1.643  12.991  1.00  0.00    -0.200 F 
ATOM     80  F   UNL     1       1.034   0.235  14.928  1.00  0.00    -0.200 F 
ENDBRANCH  46  70
BRANCH  58  81
ATOM     81  C   UNL     1      -8.898  -1.871  16.270  1.00  0.00     0.064 A 
ATOM     82  C   UNL     1      -9.114  -0.567  16.736  1.00  0.00     0.173 A 
ATOM     83  C   UNL     1      -9.232  -2.939  17.116  1.00  0.00     0.173 A 
ATOM     84  F   UNL     1      -8.796   0.485  15.966  1.00  0.00    -0.203 F 
ATOM     85  C   UNL     1      -9.627  -0.340  18.009  1.00  0.00     0.198 A 
ATOM     86  C   UNL     1      -9.769  -2.709  18.378  1.00  0.00     0.198 A 
ATOM     87  F   UNL     1      -9.049  -4.205  16.711  1.00  0.00    -0.203 F 
ATOM     88  F   UNL     1      -9.789   0.915  18.450  1.00  0.00    -0.200 F 
ATOM     89  C   UNL     1      -9.961  -1.411  18.826  1.00  0.00     0.200 A 
ATOM     90  F   UNL     1     -10.102  -3.744  19.162  1.00  0.00    -0.200 F 
ATOM     91  F   UNL     1     -10.463  -1.190  20.049  1.00  0.00    -0.200 F 
ENDBRANCH  58  81
ENDBRANCH  32  33
ENDBRANCH  24  27
ENDBRANCH  22  23
ENDBRANCH  21  22
ENDBRANCH  20  21
ENDBRANCH   1  20
TORSDOF 16
