REMARK SMILES CCc1cc(OC(F)(F)F)cc2c1O[C@@H](C(F)(F)F)C(C(=O)NCCCCNC(=O)c1ccc(-c3c4nc(c(-c5c(F)c(F)c(F)c(F)c5F)c5ccc([nH]5)c(-c5c(F)c(F)c(F)c(F)c5F)c5nc(c(-c6c(F)c(F)c(F)c(F)c6F)c6ccc3[nH]6)C=C5)C=C4)cc1)=C2
REMARK SMILES IDX 25 1 24 2 23 3 21 4 22 5 20 7 3 8 4 9 13 10 5 11 12 12 14 13
REMARK SMILES IDX 11 14 94 15 15 16 2 17 1 18 6 19 7 20 8 21 9 22 10 23 16 24
REMARK SMILES IDX 17 25 18 26 19 27 26 28 27 29 28 30 29 31 30 33 31 34 32 35
REMARK SMILES IDX 93 36 33 37 92 38 34 39 35 40 36 41 86 42 37 43 91 44 85 45
REMARK SMILES IDX 87 46 38 47 90 48 84 49 83 50 39 52 71 53 51 54 70 55 52 56
REMARK SMILES IDX 55 57 69 58 88 59 53 60 54 61 68 63 89 64 56 65 40 66 41 67
REMARK SMILES IDX 49 68 42 69 43 70 47 71 50 72 44 73 45 74 48 75 46 76 72 77
REMARK SMILES IDX 73 78 81 79 74 80 75 81 79 82 82 83 76 84 77 85 80 86 78 87
REMARK SMILES IDX 57 88 58 89 66 90 59 91 60 92 64 93 67 94 61 95 62 96 65 97
REMARK SMILES IDX 63 98
REMARK H PARENT 23 6 28 32 87 51 55 62
REMARK Flexibility Score: inf
ROOT
ATOM      1  C   UNL     1       4.582  -4.986  -6.819  1.00  0.00     0.023 C 
ENDROOT
BRANCH   1   2
ATOM      2  C   UNL     1       5.385  -3.988  -5.975  1.00  0.00     0.116 C 
BRANCH   2   3
ATOM      3  N   UNL     1       5.272  -2.654  -6.537  1.00  0.00    -0.352 N 
ATOM      4  C   UNL     1       4.383  -1.646  -6.337  1.00  0.00     0.251 C 
ATOM      5  O   UNL     1       4.442  -0.675  -7.088  1.00  0.00    -0.270 OA
ATOM      6  H   UNL     1       5.977  -2.438  -7.190  1.00  0.00     0.163 HD
BRANCH   4   7
ATOM      7  C   UNL     1       3.398  -1.636  -5.221  1.00  0.00     0.067 C 
ATOM      8  C   UNL     1       0.758  -1.359  -1.947  1.00  0.00    -0.002 A 
ATOM      9  C   UNL     1       0.147  -2.538  -1.471  1.00  0.00     0.054 A 
ATOM     10  C   UNL     1       1.629  -1.434  -3.045  1.00  0.00     0.131 A 
ATOM     11  C   UNL     1       0.398  -3.770  -2.075  1.00  0.00     0.130 A 
ATOM     12  C   UNL     1       1.860  -2.658  -3.667  1.00  0.00     0.021 A 
ATOM     13  O   UNL     1       2.272  -0.295  -3.427  1.00  0.00    -0.475 OA
ATOM     14  C   UNL     1       1.246  -3.818  -3.182  1.00  0.00     0.058 A 
ATOM     15  C   UNL     1       2.791  -2.745  -4.777  1.00  0.00     0.025 C 
ATOM     16  C   UNL     1       2.980  -0.264  -4.702  1.00  0.00     0.314 C 
BRANCH   8  17
ATOM     17  C   UNL     1       0.457  -0.048  -1.255  1.00  0.00     0.036 C 
ATOM     18  C   UNL     1       1.111   0.050   0.115  1.00  0.00     0.009 C 
ENDBRANCH   8  17
BRANCH  11  19
ATOM     19  O   UNL     1      -0.098  -4.984  -1.697  1.00  0.00    -0.406 OA
BRANCH  19  20
ATOM     20  C   UNL     1      -0.917  -5.036  -0.542  1.00  0.00     0.573 C 
ATOM     21  F   UNL     1      -0.261  -4.578   0.544  1.00  0.00    -0.132 F 
ATOM     22  F   UNL     1      -2.050  -4.324  -0.722  1.00  0.00    -0.132 F 
ATOM     23  F   UNL     1      -1.260  -6.323  -0.315  1.00  0.00    -0.132 F 
ENDBRANCH  19  20
ENDBRANCH  11  19
BRANCH  16  24
ATOM     24  C   UNL     1       4.108   0.785  -4.568  1.00  0.00     0.429 C 
ATOM     25  F   UNL     1       4.355   1.443  -5.722  1.00  0.00    -0.167 F 
ATOM     26  F   UNL     1       3.774   1.748  -3.667  1.00  0.00    -0.167 F 
ATOM     27  F   UNL     1       5.270   0.238  -4.138  1.00  0.00    -0.167 F 
ENDBRANCH  16  24
ENDBRANCH   4   7
ENDBRANCH   2   3
ENDBRANCH   1   2
BRANCH   1  28
ATOM     28  C   UNL     1       5.273  -5.412  -8.117  1.00  0.00     0.023 C 
BRANCH  28  29
ATOM     29  C   UNL     1       6.555  -6.211  -7.923  1.00  0.00     0.116 C 
BRANCH  29  30
ATOM     30  N   UNL     1       6.357  -7.436  -7.164  1.00  0.00    -0.352 N 
ATOM     31  C   UNL     1       7.045  -8.623  -7.261  1.00  0.00     0.251 C 
ATOM     32  H   UNL     1       5.637  -7.412  -6.494  1.00  0.00     0.163 HD
ATOM     33  O   UNL     1       6.690  -9.601  -6.618  1.00  0.00    -0.269 OA
BRANCH  31  34
ATOM     34  C   UNL     1       8.191  -8.716  -8.187  1.00  0.00     0.039 A 
ATOM     35  C   UNL     1       8.240  -9.784  -9.086  1.00  0.00     0.014 A 
ATOM     36  C   UNL     1       9.190  -7.739  -8.192  1.00  0.00     0.014 A 
ATOM     37  C   UNL     1       9.258  -9.837 -10.037  1.00  0.00     0.010 A 
ATOM     38  C   UNL     1      10.165  -7.757  -9.182  1.00  0.00     0.010 A 
ATOM     39  C   UNL     1      10.207  -8.805 -10.115  1.00  0.00    -0.014 A 
BRANCH  39  40
ATOM     40  C   UNL     1      11.251  -8.799 -11.168  1.00  0.00     0.031 A 
ATOM     41  C   UNL     1      12.698  -8.931 -10.793  1.00  0.00     0.074 A 
ATOM     42  C   UNL     1      10.896  -8.603 -12.453  1.00  0.00     0.049 A 
ATOM     43  N   UNL     1      13.760  -8.876 -11.557  1.00  0.00    -0.248 NA
ATOM     44  C   UNL     1      12.995  -9.121  -9.365  1.00  0.00     0.031 C 
ATOM     45  C   UNL     1       9.527  -8.410 -12.932  1.00  0.00     0.029 A 
ATOM     46  N   UNL     1      11.661  -8.521 -13.589  1.00  0.00    -0.354 N 
ATOM     47  C   UNL     1      14.846  -9.008 -10.703  1.00  0.00     0.074 A 
ATOM     48  C   UNL     1      14.319  -9.095  -9.358  1.00  0.00     0.031 C 
ATOM     49  C   UNL     1       9.546  -8.251 -14.265  1.00  0.00     0.029 A 
ATOM     50  C   UNL     1      10.929  -8.297 -14.729  1.00  0.00     0.049 A 
ATOM     51  H   UNL     1      12.641  -8.613 -13.587  1.00  0.00     0.167 HD
ATOM     52  C   UNL     1      16.162  -9.074 -11.016  1.00  0.00     0.037 A 
ATOM     53  C   UNL     1      11.332  -8.143 -16.005  1.00  0.00     0.037 A 
ATOM     54  C   UNL     1      16.678  -9.017 -12.358  1.00  0.00     0.049 A 
ATOM     55  C   UNL     1      12.799  -8.229 -16.326  1.00  0.00     0.074 A 
ATOM     56  C   UNL     1      17.988  -9.140 -12.785  1.00  0.00     0.029 A 
ATOM     57  N   UNL     1      15.904  -8.817 -13.492  1.00  0.00    -0.354 N 
ATOM     58  N   UNL     1      13.812  -8.427 -15.518  1.00  0.00    -0.248 NA
ATOM     59  C   UNL     1      13.177  -8.079 -17.738  1.00  0.00     0.031 C 
ATOM     60  C   UNL     1      18.012  -8.976 -14.174  1.00  0.00     0.029 A 
ATOM     61  C   UNL     1      16.711  -8.795 -14.617  1.00  0.00     0.049 A 
ATOM     62  H   UNL     1      14.925  -8.707 -13.496  1.00  0.00     0.167 HD
ATOM     63  C   UNL     1      14.942  -8.451 -16.323  1.00  0.00     0.074 A 
ATOM     64  C   UNL     1      14.489  -8.262 -17.686  1.00  0.00     0.031 C 
ATOM     65  C   UNL     1      16.240  -8.615 -15.967  1.00  0.00     0.037 A 
BRANCH  52  66
ATOM     66  C   UNL     1      17.135  -9.224  -9.883  1.00  0.00     0.064 A 
ATOM     67  C   UNL     1      17.228 -10.415  -9.148  1.00  0.00     0.173 A 
ATOM     68  C   UNL     1      18.004  -8.175  -9.547  1.00  0.00     0.173 A 
ATOM     69  F   UNL     1      16.410 -11.443  -9.421  1.00  0.00    -0.203 F 
ATOM     70  C   UNL     1      18.134 -10.540  -8.098  1.00  0.00     0.198 A 
ATOM     71  C   UNL     1      18.930  -8.315  -8.517  1.00  0.00     0.198 A 
ATOM     72  F   UNL     1      17.960  -7.017 -10.222  1.00  0.00    -0.203 F 
ATOM     73  F   UNL     1      18.170 -11.669  -7.377  1.00  0.00    -0.200 F 
ATOM     74  C   UNL     1      18.989  -9.493  -7.788  1.00  0.00     0.200 A 
ATOM     75  F   UNL     1      19.763  -7.306  -8.225  1.00  0.00    -0.200 F 
ATOM     76  F   UNL     1      19.864  -9.617  -6.780  1.00  0.00    -0.200 F 
ENDBRANCH  52  66
BRANCH  53  77
ATOM     77  C   UNL     1      10.328  -7.924 -17.077  1.00  0.00     0.064 A 
ATOM     78  C   UNL     1      10.058  -8.924 -18.022  1.00  0.00     0.173 A 
ATOM     79  C   UNL     1       9.620  -6.718 -17.181  1.00  0.00     0.173 A 
ATOM     80  F   UNL     1      10.724 -10.086 -17.975  1.00  0.00    -0.203 F 
ATOM     81  C   UNL     1       9.131  -8.719 -19.042  1.00  0.00     0.198 A 
ATOM     82  C   UNL     1       8.674  -6.524 -18.186  1.00  0.00     0.198 A 
ATOM     83  F   UNL     1       9.838  -5.733 -16.298  1.00  0.00    -0.203 F 
ATOM     84  F   UNL     1       8.923  -9.675 -19.957  1.00  0.00    -0.200 F 
ATOM     85  C   UNL     1       8.436  -7.521 -19.120  1.00  0.00     0.200 A 
ATOM     86  F   UNL     1       7.995  -5.371 -18.250  1.00  0.00    -0.200 F 
ATOM     87  F   UNL     1       7.542  -7.326 -20.099  1.00  0.00    -0.200 F 
ENDBRANCH  53  77
BRANCH  65  88
ATOM     88  C   UNL     1      17.258  -8.631 -17.068  1.00  0.00     0.064 A 
ATOM     89  C   UNL     1      17.622  -7.461 -17.750  1.00  0.00     0.173 A 
ATOM     90  C   UNL     1      17.906  -9.825 -17.417  1.00  0.00     0.173 A 
ATOM     91  F   UNL     1      17.018  -6.298 -17.464  1.00  0.00    -0.203 F 
ATOM     92  C   UNL     1      18.582  -7.490 -18.757  1.00  0.00     0.198 A 
ATOM     93  C   UNL     1      18.887  -9.846 -18.404  1.00  0.00     0.198 A 
ATOM     94  F   UNL     1      17.598 -10.970 -16.790  1.00  0.00    -0.203 F 
ATOM     95  F   UNL     1      18.883  -6.369 -19.426  1.00  0.00    -0.200 F 
ATOM     96  C   UNL     1      19.219  -8.680 -19.078  1.00  0.00     0.200 A 
ATOM     97  F   UNL     1      19.509 -10.994 -18.705  1.00  0.00    -0.200 F 
ATOM     98  F   UNL     1      20.149  -8.705 -20.043  1.00  0.00    -0.200 F 
ENDBRANCH  65  88
ENDBRANCH  39  40
ENDBRANCH  31  34
ENDBRANCH  29  30
ENDBRANCH  28  29
ENDBRANCH   1  28
TORSDOF 15
