REMARK SMILES CC[C@@H](NC(=O)N[C@H]1CCCCC[C@@H]1C(=O)NCCCCNC(=O)c1ccc(-c2c3nc(c(-c4c(F)c(F)c(F)c(F)c4F)c4ccc([nH]4)c(-c4c(F)c(F)c(F)c(F)c4F)c4nc(c(-c5c(F)c(F)c(F)c(F)c5F)c5ccc2[nH]5)C=C4)C=C3)cc1)C(C)C
REMARK SMILES IDX 18 1 17 2 15 3 16 4 14 6 8 7 7 8 4 9 5 10 6 12 3 14 2 15
REMARK SMILES IDX 1 16 88 17 89 18 90 19 9 20 10 21 11 22 13 24 12 25 19 27
REMARK SMILES IDX 20 28 21 29 22 30 23 31 24 33 25 34 26 35 87 36 27 37 86 38
REMARK SMILES IDX 28 39 29 40 30 41 80 42 31 43 85 44 79 45 81 46 32 47 84 48
REMARK SMILES IDX 78 49 77 50 33 52 65 53 45 54 64 55 46 56 49 57 63 58 82 59
REMARK SMILES IDX 47 60 48 61 62 63 83 64 50 65 34 66 35 67 43 68 36 69 37 70
REMARK SMILES IDX 41 71 44 72 38 73 39 74 42 75 40 76 66 77 67 78 75 79 68 80
REMARK SMILES IDX 69 81 73 82 76 83 70 84 71 85 74 86 72 87 51 88 52 89 60 90
REMARK SMILES IDX 53 91 54 92 58 93 61 94 55 95 56 96 59 97 57 98
REMARK H PARENT 17 5 4 11 7 13 22 32 81 51 49 62
REMARK Flexibility Score: 90.00
ROOT
ATOM      1  C   UNL     1       0.216   2.789   4.602  1.00  0.00     0.116 C 
ENDROOT
BRANCH   1   2
ATOM      2  N   UNL     1       0.201   2.185   5.913  1.00  0.00    -0.356 N 
ATOM      3  C   UNL     1       0.530   1.032   6.510  1.00  0.00     0.225 C 
ATOM      4  O   UNL     1       0.491   1.204   7.746  1.00  0.00    -0.275 OA
ATOM      5  H   UNL     1      -0.165   2.817   6.573  1.00  0.00     0.163 HD
BRANCH   3   6
ATOM      6  C   UNL     1       1.010  -0.371   5.952  1.00  0.00     0.101 C 
BRANCH   6   7
ATOM      7  C   UNL     1       0.504  -0.922   4.583  1.00  0.00     0.096 C 
BRANCH   7   8
ATOM      8  N   UNL     1       0.708  -0.004   3.472  1.00  0.00    -0.335 N 
ATOM      9  N   UNL     1      -1.291   0.180   2.198  1.00  0.00    -0.335 N 
ATOM     10  C   UNL     1       0.008   0.369   2.403  1.00  0.00     0.315 C 
ATOM     11  H   UNL     1      -1.595   0.735   1.444  1.00  0.00     0.165 HD
ATOM     12  O   UNL     1       0.614   1.023   1.548  1.00  0.00    -0.249 OA
ATOM     13  H   UNL     1       1.579   0.452   3.523  1.00  0.00     0.165 HD
BRANCH   9  14
ATOM     14  C   UNL     1      -2.425  -0.597   2.741  1.00  0.00     0.086 C 
BRANCH  14  15
ATOM     15  C   UNL     1      -3.631  -0.375   1.791  1.00  0.00     0.022 C 
ATOM     16  C   UNL     1      -3.474  -1.036   0.427  1.00  0.00     0.006 C 
ENDBRANCH  14  15
BRANCH  14  17
ATOM     17  C   UNL     1      -2.791  -0.262   4.223  1.00  0.00     0.005 C 
ATOM     18  C   UNL     1      -4.030   0.610   4.455  1.00  0.00     0.009 C 
ATOM     19  C   UNL     1      -2.975  -1.558   5.034  1.00  0.00     0.009 C 
ENDBRANCH  14  17
ENDBRANCH   9  14
ENDBRANCH   7   8
BRANCH   7  20
ATOM     20  C   UNL     1       1.101  -2.241   4.025  1.00  0.00     0.026 C 
BRANCH  20  21
ATOM     21  C   UNL     1       1.486  -3.404   4.911  1.00  0.00     0.002 C 
BRANCH  21  22
ATOM     22  C   UNL     1       0.560  -3.641   6.078  1.00  0.00     0.000 CG0
ATOM     23  G   UNL     1       0.974  -2.768   7.238  1.00  0.00     0.000 G0
ENDBRANCH  21  22
ENDBRANCH  20  21
ENDBRANCH   7  20
ENDBRANCH   6   7
BRANCH   6  24
ATOM     24  C   UNL     1       0.559  -1.315   7.132  1.00  0.00     0.015 C 
BRANCH  24  25
ATOM     25  C   UNL     1       0.974  -2.768   7.238  1.00  0.00     0.001 CG0
ATOM     26  G   UNL     1       0.560  -3.641   6.078  1.00  0.00     0.000 G0
ENDBRANCH  24  25
ENDBRANCH   6  24
ENDBRANCH   3   6
ENDBRANCH   1   2
BRANCH   1  27
ATOM     27  C   UNL     1      -1.199   3.141   4.135  1.00  0.00     0.023 C 
BRANCH  27  28
ATOM     28  C   UNL     1      -1.660   4.560   4.477  1.00  0.00     0.023 C 
BRANCH  28  29
ATOM     29  C   UNL     1      -0.768   5.675   3.948  1.00  0.00     0.116 C 
BRANCH  29  30
ATOM     30  N   UNL     1      -0.501   5.596   2.519  1.00  0.00    -0.352 N 
ATOM     31  C   UNL     1      -0.238   6.628   1.650  1.00  0.00     0.251 C 
ATOM     32  H   UNL     1      -0.510   4.692   2.128  1.00  0.00     0.163 HD
ATOM     33  O   UNL     1      -0.114   6.425   0.447  1.00  0.00    -0.269 OA
BRANCH  31  34
ATOM     34  C   UNL     1      -0.159   8.003   2.180  1.00  0.00     0.039 A 
ATOM     35  C   UNL     1      -0.924   9.002   1.575  1.00  0.00     0.014 A 
ATOM     36  C   UNL     1       0.614   8.286   3.309  1.00  0.00     0.014 A 
ATOM     37  C   UNL     1      -0.978  10.271   2.153  1.00  0.00     0.010 A 
ATOM     38  C   UNL     1       0.496   9.524   3.928  1.00  0.00     0.010 A 
ATOM     39  C   UNL     1      -0.303  10.527   3.357  1.00  0.00    -0.014 A 
BRANCH  39  40
ATOM     40  C   UNL     1      -0.427  11.834   4.046  1.00  0.00     0.031 A 
ATOM     41  C   UNL     1       0.780  12.706   4.227  1.00  0.00     0.074 A 
ATOM     42  C   UNL     1      -1.607  12.188   4.590  1.00  0.00     0.049 A 
ATOM     43  N   UNL     1       0.893  13.842   4.867  1.00  0.00    -0.248 NA
ATOM     44  C   UNL     1       2.038  12.216   3.644  1.00  0.00     0.031 C 
ATOM     45  C   UNL     1      -2.831  11.387   4.549  1.00  0.00     0.029 A 
ATOM     46  N   UNL     1      -1.963  13.305   5.303  1.00  0.00    -0.354 N 
ATOM     47  C   UNL     1       2.234  14.190   4.781  1.00  0.00     0.074 A 
ATOM     48  C   UNL     1       2.905  13.117   4.080  1.00  0.00     0.031 C 
ATOM     49  C   UNL     1      -3.807  12.044   5.195  1.00  0.00     0.029 A 
ATOM     50  C   UNL     1      -3.270  13.296   5.720  1.00  0.00     0.049 A 
ATOM     51  H   UNL     1      -1.339  14.042   5.497  1.00  0.00     0.167 HD
ATOM     52  C   UNL     1       2.845  15.313   5.225  1.00  0.00     0.037 A 
ATOM     53  C   UNL     1      -3.958  14.196   6.448  1.00  0.00     0.037 A 
ATOM     54  C   UNL     1       2.166  16.390   5.896  1.00  0.00     0.049 A 
ATOM     55  C   UNL     1      -3.272  15.455   6.898  1.00  0.00     0.074 A 
ATOM     56  C   UNL     1       2.673  17.609   6.307  1.00  0.00     0.029 A 
ATOM     57  N   UNL     1       0.826  16.371   6.258  1.00  0.00    -0.354 N 
ATOM     58  N   UNL     1      -2.023  15.819   6.731  1.00  0.00    -0.248 NA
ATOM     59  C   UNL     1      -4.091  16.434   7.625  1.00  0.00     0.031 C 
ATOM     60  C   UNL     1       1.651  18.311   6.956  1.00  0.00     0.029 A 
ATOM     61  C   UNL     1       0.494  17.548   6.909  1.00  0.00     0.049 A 
ATOM     62  H   UNL     1       0.203  15.630   6.078  1.00  0.00     0.167 HD
ATOM     63  C   UNL     1      -1.909  17.073   7.316  1.00  0.00     0.074 A 
ATOM     64  C   UNL     1      -3.221  17.414   7.828  1.00  0.00     0.031 C 
ATOM     65  C   UNL     1      -0.816  17.868   7.418  1.00  0.00     0.037 A 
BRANCH  52  66
ATOM     66  C   UNL     1       4.325  15.425   4.995  1.00  0.00     0.064 A 
ATOM     67  C   UNL     1       4.860  15.576   3.706  1.00  0.00     0.173 A 
ATOM     68  C   UNL     1       5.219  15.371   6.074  1.00  0.00     0.173 A 
ATOM     69  F   UNL     1       4.049  15.620   2.638  1.00  0.00    -0.203 F 
ATOM     70  C   UNL     1       6.237  15.623   3.502  1.00  0.00     0.198 A 
ATOM     71  C   UNL     1       6.595  15.451   5.869  1.00  0.00     0.198 A 
ATOM     72  F   UNL     1       4.761  15.234   7.327  1.00  0.00    -0.203 F 
ATOM     73  F   UNL     1       6.726  15.698   2.256  1.00  0.00    -0.200 F 
ATOM     74  C   UNL     1       7.102  15.564   4.583  1.00  0.00     0.200 A 
ATOM     75  F   UNL     1       7.430  15.406   6.916  1.00  0.00    -0.200 F 
ATOM     76  F   UNL     1       8.427  15.603   4.386  1.00  0.00    -0.200 F 
ENDBRANCH  52  66
BRANCH  53  77
ATOM     77  C   UNL     1      -5.387  13.943   6.758  1.00  0.00     0.064 A 
ATOM     78  C   UNL     1      -6.402  14.656   6.106  1.00  0.00     0.173 A 
ATOM     79  C   UNL     1      -5.768  12.956   7.679  1.00  0.00     0.173 A 
ATOM     80  F   UNL     1      -6.085  15.620   5.231  1.00  0.00    -0.203 F 
ATOM     81  C   UNL     1      -7.746  14.396   6.369  1.00  0.00     0.198 A 
ATOM     82  C   UNL     1      -7.112  12.681   7.923  1.00  0.00     0.198 A 
ATOM     83  F   UNL     1      -4.833  12.241   8.322  1.00  0.00    -0.203 F 
ATOM     84  F   UNL     1      -8.697  15.109   5.750  1.00  0.00    -0.200 F 
ATOM     85  C   UNL     1      -8.100  13.403   7.271  1.00  0.00     0.200 A 
ATOM     86  F   UNL     1      -7.450  11.711   8.784  1.00  0.00    -0.200 F 
ATOM     87  F   UNL     1      -9.392  13.144   7.511  1.00  0.00    -0.200 F 
ENDBRANCH  53  77
BRANCH  65  88
ATOM     88  C   UNL     1      -0.994  19.194   8.097  1.00  0.00     0.064 A 
ATOM     89  C   UNL     1      -1.158  19.290   9.487  1.00  0.00     0.173 A 
ATOM     90  C   UNL     1      -0.954  20.384   7.355  1.00  0.00     0.173 A 
ATOM     91  F   UNL     1      -1.218  18.180  10.238  1.00  0.00    -0.203 F 
ATOM     92  C   UNL     1      -1.295  20.529  10.107  1.00  0.00     0.198 A 
ATOM     93  C   UNL     1      -1.065  21.622   7.981  1.00  0.00     0.198 A 
ATOM     94  F   UNL     1      -0.794  20.346   6.024  1.00  0.00    -0.203 F 
ATOM     95  F   UNL     1      -1.492  20.596  11.431  1.00  0.00    -0.200 F 
ATOM     96  C   UNL     1      -1.241  21.694   9.355  1.00  0.00     0.200 A 
ATOM     97  F   UNL     1      -1.000  22.747   7.255  1.00  0.00    -0.200 F 
ATOM     98  F   UNL     1      -1.365  22.886   9.955  1.00  0.00    -0.200 F 
ENDBRANCH  65  88
ENDBRANCH  39  40
ENDBRANCH  31  34
ENDBRANCH  29  30
ENDBRANCH  28  29
ENDBRANCH  27  28
ENDBRANCH   1  27
TORSDOF 15
