REMARK SMILES O=C(C[C@@H]1C(=O)O[C@H]2[C@@H]3OC(=O)c4cc(O)c(O)c(O)c4-c4ccccc4C(=O)OC[C@H]2O[C@@H](OC(=O)c2cc(O)c(O)c(O)c2)[C@@H]3OC(=O)c2cc(O)c(O)c3c2[C@H]1[C@H](O)C(=O)O3)NCCCCNC(=O)c1ccc(-c2c3nc(c(-c4c(F)c(F)c(F)c(F)c4F)c4ccc([nH]4)c(-c4c(F)c(F)c(F)c(F)c4F)c4nc(c(-c5c(F)c(F)c(F)c(F)c5F)c5ccc2[nH]5)C=C4)C=C3)cc1
REMARK SMILES IDX 4 1 3 3 2 4 1 5 65 6 66 8 67 9 68 10 69 11 70 12 71 13 72 15
REMARK SMILES IDX 73 16 74 17 135 18 75 19 134 20 76 21 77 22 78 23 128 24
REMARK SMILES IDX 79 25 133 26 127 27 129 28 80 29 132 30 126 31 125 32 81 34
REMARK SMILES IDX 113 35 93 36 112 37 94 38 97 39 111 40 130 41 95 42 96 43
REMARK SMILES IDX 110 45 131 46 98 47 82 48 83 49 91 50 84 51 85 52 89 53
REMARK SMILES IDX 92 54 86 55 87 56 90 57 88 58 114 59 115 60 123 61 116 62
REMARK SMILES IDX 117 63 121 64 124 65 118 66 119 67 122 68 120 69 99 70
REMARK SMILES IDX 100 71 108 72 101 73 102 74 106 75 109 76 103 77 104 78
REMARK SMILES IDX 107 79 105 80 5 81 6 82 7 83 8 84 9 85 32 86 47 87 33 88
REMARK SMILES IDX 34 90 10 91 11 92 12 93 13 94 14 95 21 96 15 97 19 98 17 99
REMARK SMILES IDX 22 100 23 101 27 102 24 103 26 104 25 105 28 106 29 107
REMARK SMILES IDX 30 108 31 109 16 111 20 113 18 115 48 117 49 118 50 119
REMARK SMILES IDX 51 120 52 121 58 122 53 123 57 124 59 125 55 126 64 127
REMARK SMILES IDX 60 128 62 130 63 131 54 132 56 134 61 136 35 138 36 139
REMARK SMILES IDX 37 140 38 141 39 142 46 143 40 144 44 145 42 146 41 147
REMARK SMILES IDX 45 149 43 151
REMARK H PARENT 65 7 70 14 129 33 97 44 16 112 20 114 18 116 54 133 56 135
REMARK H PARENT 61 137 41 148 45 150 43 152
REMARK Flexibility Score: 170.00
ROOT
ATOM      1  C   UNL     1       4.702  -1.654   2.628  1.00  0.00     0.119 CG0
ATOM      2  G   UNL     1       5.728  -1.708   4.148  1.00  0.00     0.000 G0
ENDROOT
BRANCH   1   3
ATOM      3  C   UNL     1       4.864  -1.207   0.548  1.00  0.00     0.116 C 
BRANCH   3   4
ATOM      4  C   UNL     1       4.915   0.369  -0.477  1.00  0.00     0.220 C 
ATOM      5  O   UNL     1       4.789   1.519  -0.049  1.00  0.00    -0.275 OA
ATOM      6  N   UNL     1       4.762   0.218  -1.847  1.00  0.00    -0.356 N 
ATOM      7  H   UNL     1       5.388  -0.369  -2.329  1.00  0.00     0.163 HD
BRANCH   6   8
ATOM      8  C   UNL     1       3.692   0.906  -2.622  1.00  0.00     0.116 C 
BRANCH   8   9
ATOM      9  C   UNL     1       3.697   2.357  -3.075  1.00  0.00     0.023 C 
BRANCH   9  10
ATOM     10  C   UNL     1       4.870   2.775  -3.912  1.00  0.00     0.023 C 
BRANCH  10  11
ATOM     11  C   UNL     1       5.308   1.739  -4.921  1.00  0.00     0.116 C 
BRANCH  11  12
ATOM     12  N   UNL     1       4.406   1.506  -6.046  1.00  0.00    -0.352 N 
ATOM     13  C   UNL     1       4.814   1.084  -7.302  1.00  0.00     0.251 C 
ATOM     14  H   UNL     1       3.444   1.660  -5.904  1.00  0.00     0.163 HD
ATOM     15  O   UNL     1       4.043   0.899  -8.232  1.00  0.00    -0.269 OA
BRANCH  13  16
ATOM     16  C   UNL     1       6.273   0.912  -7.471  1.00  0.00     0.039 A 
ATOM     17  C   UNL     1       6.916  -0.017  -6.650  1.00  0.00     0.014 A 
ATOM     18  C   UNL     1       6.987   1.915  -8.131  1.00  0.00     0.014 A 
ATOM     19  C   UNL     1       8.250   0.193  -6.326  1.00  0.00     0.010 A 
ATOM     20  C   UNL     1       8.355   2.047  -7.888  1.00  0.00     0.010 A 
ATOM     21  C   UNL     1       8.986   1.227  -6.936  1.00  0.00    -0.014 A 
BRANCH  21  22
ATOM     22  C   UNL     1      10.415   1.420  -6.575  1.00  0.00     0.031 A 
ATOM     23  C   UNL     1      10.915   2.709  -5.974  1.00  0.00     0.074 A 
ATOM     24  C   UNL     1      11.267   0.398  -6.782  1.00  0.00     0.049 A 
ATOM     25  N   UNL     1      12.144   3.056  -5.676  1.00  0.00    -0.248 NA
ATOM     26  C   UNL     1       9.918   3.752  -5.684  1.00  0.00     0.031 C 
ATOM     27  C   UNL     1      10.897  -0.898  -7.357  1.00  0.00     0.029 A 
ATOM     28  N   UNL     1      12.608   0.276  -6.528  1.00  0.00    -0.354 N 
ATOM     29  C   UNL     1      12.069   4.352  -5.181  1.00  0.00     0.074 A 
ATOM     30  C   UNL     1      10.679   4.750  -5.249  1.00  0.00     0.031 C 
ATOM     31  C   UNL     1      11.970  -1.698  -7.368  1.00  0.00     0.029 A 
ATOM     32  C   UNL     1      13.121  -0.946  -6.887  1.00  0.00     0.049 A 
ATOM     33  H   UNL     1      13.150   0.994  -6.127  1.00  0.00     0.167 HD
ATOM     34  C   UNL     1      13.069   5.126  -4.694  1.00  0.00     0.037 A 
ATOM     35  C   UNL     1      14.386  -1.404  -6.869  1.00  0.00     0.037 A 
ATOM     36  C   UNL     1      14.444   4.706  -4.591  1.00  0.00     0.049 A 
ATOM     37  C   UNL     1      15.478  -0.501  -6.380  1.00  0.00     0.074 A 
ATOM     38  C   UNL     1      15.523   5.409  -4.082  1.00  0.00     0.029 A 
ATOM     39  N   UNL     1      14.928   3.473  -5.000  1.00  0.00    -0.354 N 
ATOM     40  N   UNL     1      15.391   0.716  -5.904  1.00  0.00    -0.248 NA
ATOM     41  C   UNL     1      16.847  -1.030  -6.438  1.00  0.00     0.031 C 
ATOM     42  C   UNL     1      16.668   4.621  -4.228  1.00  0.00     0.029 A 
ATOM     43  C   UNL     1      16.296   3.407  -4.783  1.00  0.00     0.049 A 
ATOM     44  H   UNL     1      14.382   2.751  -5.388  1.00  0.00     0.167 HD
ATOM     45  C   UNL     1      16.688   1.097  -5.597  1.00  0.00     0.074 A 
ATOM     46  C   UNL     1      17.542  -0.028  -5.916  1.00  0.00     0.031 C 
ATOM     47  C   UNL     1      17.131   2.278  -5.103  1.00  0.00     0.037 A 
BRANCH  34  48
ATOM     48  C   UNL     1      12.737   6.512  -4.219  1.00  0.00     0.064 A 
ATOM     49  C   UNL     1      12.079   6.728  -3.000  1.00  0.00     0.173 A 
ATOM     50  C   UNL     1      13.193   7.635  -4.928  1.00  0.00     0.173 A 
ATOM     51  F   UNL     1      11.618   5.687  -2.291  1.00  0.00    -0.203 F 
ATOM     52  C   UNL     1      11.891   8.018  -2.507  1.00  0.00     0.198 A 
ATOM     53  C   UNL     1      13.022   8.921  -4.423  1.00  0.00     0.198 A 
ATOM     54  F   UNL     1      13.840   7.481  -6.093  1.00  0.00    -0.203 F 
ATOM     55  F   UNL     1      11.254   8.203  -1.343  1.00  0.00    -0.200 F 
ATOM     56  C   UNL     1      12.373   9.112  -3.212  1.00  0.00     0.200 A 
ATOM     57  F   UNL     1      13.504   9.975  -5.096  1.00  0.00    -0.200 F 
ATOM     58  F   UNL     1      12.217  10.350  -2.723  1.00  0.00    -0.200 F 
ENDBRANCH  34  48
BRANCH  35  59
ATOM     59  C   UNL     1      14.671  -2.777  -7.358  1.00  0.00     0.064 A 
ATOM     60  C   UNL     1      15.089  -3.782  -6.477  1.00  0.00     0.173 A 
ATOM     61  C   UNL     1      14.499  -3.119  -8.709  1.00  0.00     0.173 A 
ATOM     62  F   UNL     1      15.285  -3.499  -5.181  1.00  0.00    -0.203 F 
ATOM     63  C   UNL     1      15.332  -5.077  -6.929  1.00  0.00     0.198 A 
ATOM     64  C   UNL     1      14.709  -4.421  -9.153  1.00  0.00     0.198 A 
ATOM     65  F   UNL     1      14.094  -2.193  -9.591  1.00  0.00    -0.203 F 
ATOM     66  F   UNL     1      15.765  -6.012  -6.073  1.00  0.00    -0.200 F 
ATOM     67  C   UNL     1      15.132  -5.398  -8.264  1.00  0.00     0.200 A 
ATOM     68  F   UNL     1      14.494  -4.730 -10.439  1.00  0.00    -0.200 F 
ATOM     69  F   UNL     1      15.351  -6.647  -8.695  1.00  0.00    -0.200 F 
ENDBRANCH  35  59
BRANCH  47  70
ATOM     70  C   UNL     1      18.604   2.412  -4.861  1.00  0.00     0.064 A 
ATOM     71  C   UNL     1      19.508   2.548  -5.925  1.00  0.00     0.173 A 
ATOM     72  C   UNL     1      19.109   2.465  -3.554  1.00  0.00     0.173 A 
ATOM     73  F   UNL     1      19.074   2.486  -7.192  1.00  0.00    -0.203 F 
ATOM     74  C   UNL     1      20.869   2.717  -5.687  1.00  0.00     0.198 A 
ATOM     75  C   UNL     1      20.466   2.664  -3.319  1.00  0.00     0.198 A 
ATOM     76  F   UNL     1      18.283   2.346  -2.503  1.00  0.00    -0.203 F 
ATOM     77  F   UNL     1      21.721   2.807  -6.717  1.00  0.00    -0.200 F 
ATOM     78  C   UNL     1      21.345   2.786  -4.385  1.00  0.00     0.200 A 
ATOM     79  F   UNL     1      20.922   2.744  -2.062  1.00  0.00    -0.200 F 
ATOM     80  F   UNL     1      22.654   2.964  -4.158  1.00  0.00    -0.200 F 
ENDBRANCH  47  70
ENDBRANCH  21  22
ENDBRANCH  13  16
ENDBRANCH  11  12
ENDBRANCH  10  11
ENDBRANCH   9  10
ENDBRANCH   8   9
ENDBRANCH   6   8
ENDBRANCH   3   4
ENDBRANCH   1   3
BRANCH   1  81
ATOM     81  C   UNL     1       3.202  -1.539   3.392  1.00  0.00     0.310 C 
ATOM     82  O   UNL     1       2.747  -0.756   4.191  1.00  0.00    -0.252 OA
BRANCH  81  83
ATOM     83  O   UNL     1       2.353  -2.303   2.759  1.00  0.00    -0.455 OA
BRANCH  83  84
ATOM     84  C   UNL     1       2.883  -1.887   1.579  1.00  0.00     0.254 C 
ATOM     85  C   UNL     1       3.409  -0.106   1.539  1.00  0.00     0.267 C 
ATOM     86  C   UNL     1       3.844  -3.228   1.171  1.00  0.00     0.205 CG1
ATOM     87  C   UNL     1       5.334   0.204   1.988  1.00  0.00     0.290 C 
ATOM     88  O   UNL     1       5.659  -3.017   1.142  1.00  0.00    -0.329 OA
ATOM     89  G   UNL     1       2.740  -3.906   0.209  1.00  0.00     0.000 G1
ATOM     90  C   UNL     1       6.515  -1.375   1.576  1.00  0.00     0.357 C 
BRANCH  85  91
ATOM     91  O   UNL     1       2.569   0.133   0.116  1.00  0.00    -0.450 OA
BRANCH  91  92
ATOM     92  C   UNL     1       2.213  -0.794  -0.924  1.00  0.00     0.339 C 
ATOM     93  O   UNL     1       2.954  -1.630  -1.444  1.00  0.00    -0.246 OA
BRANCH  92  94
ATOM     94  C   UNL     1       0.903  -0.796  -1.600  1.00  0.00     0.075 A 
ATOM     95  C   UNL     1       0.799  -1.478  -2.833  1.00  0.00     0.066 A 
ATOM     96  C   UNL     1      -0.215  -0.227  -1.020  1.00  0.00     0.043 A 
ATOM     97  C   UNL     1      -0.350  -1.360  -3.580  1.00  0.00     0.162 A 
ATOM     98  C   UNL     1      -1.302   0.043  -1.860  1.00  0.00     0.170 A 
ATOM     99  C   UNL     1      -1.357  -0.520  -3.139  1.00  0.00     0.200 A 
BRANCH  96 100
ATOM    100  C   UNL     1      -0.167  -0.006   0.415  1.00  0.00     0.001 A 
ATOM    101  C   UNL     1      -0.048   1.352   0.832  1.00  0.00     0.010 A 
ATOM    102  C   UNL     1      -0.013  -1.095   1.343  1.00  0.00     0.068 A 
ATOM    103  C   UNL     1       0.161   1.676   2.162  1.00  0.00     0.001 A 
ATOM    104  C   UNL     1       0.049  -0.710   2.700  1.00  0.00     0.016 A 
ATOM    105  C   UNL     1       0.174   0.648   3.096  1.00  0.00     0.001 A 
BRANCH 102 106
ATOM    106  C   UNL     1       0.027  -2.655   0.979  1.00  0.00     0.338 C 
ATOM    107  O   UNL     1      -1.077  -3.188   1.134  1.00  0.00    -0.246 OA
BRANCH 106 108
ATOM    108  O   UNL     1       1.099  -3.500   0.576  1.00  0.00    -0.459 OA
BRANCH 108 109
ATOM    109  C   UNL     1       2.740  -3.906   0.209  1.00  0.00     0.269 CG1
ATOM    110  G   UNL     1       3.844  -3.228   1.171  1.00  0.00     0.000 G1
ENDBRANCH 108 109
ENDBRANCH 106 108
ENDBRANCH 102 106
ENDBRANCH  96 100
BRANCH  97 111
ATOM    111  O   UNL     1      -0.447  -2.039  -4.755  1.00  0.00    -0.504 OA
ATOM    112  H   UNL     1       0.250  -2.602  -5.029  1.00  0.00     0.293 HD
ENDBRANCH  97 111
BRANCH  98 113
ATOM    113  O   UNL     1      -2.344   0.865  -1.514  1.00  0.00    -0.504 OA
ATOM    114  H   UNL     1      -3.047   1.010  -2.117  1.00  0.00     0.293 HD
ENDBRANCH  98 113
BRANCH  99 115
ATOM    115  O   UNL     1      -2.402  -0.253  -3.978  1.00  0.00    -0.502 OA
ATOM    116  H   UNL     1      -2.427  -0.636  -4.832  1.00  0.00     0.293 HD
ENDBRANCH  99 115
ENDBRANCH  92  94
ENDBRANCH  91  92
ENDBRANCH  85  91
BRANCH  87 117
ATOM    117  O   UNL     1       5.615   0.559   3.421  1.00  0.00    -0.448 OA
BRANCH 117 118
ATOM    118  C   UNL     1       4.755   1.118   4.298  1.00  0.00     0.339 C 
ATOM    119  O   UNL     1       4.050   2.079   4.056  1.00  0.00    -0.246 OA
BRANCH 118 120
ATOM    120  C   UNL     1       4.628   0.192   5.518  1.00  0.00     0.071 A 
ATOM    121  C   UNL     1       3.646   0.566   6.470  1.00  0.00     0.066 A 
ATOM    122  C   UNL     1       4.971  -1.200   5.387  1.00  0.00     0.021 A 
ATOM    123  C   UNL     1       2.912  -0.424   7.143  1.00  0.00     0.162 A 
ATOM    124  C   UNL     1       4.256  -2.158   6.158  1.00  0.00     0.180 A 
ATOM    125  C   UNL     1       5.728  -1.708   4.148  1.00  0.00     0.079 CG0
ATOM    126  C   UNL     1       3.204  -1.774   6.987  1.00  0.00     0.201 A 
ATOM    127  O   UNL     1       4.284  -3.549   5.874  1.00  0.00    -0.420 OA
ATOM    128  C   UNL     1       6.254  -3.132   4.529  1.00  0.00     0.232 C 
ATOM    129  G   UNL     1       4.702  -1.654   2.628  1.00  0.00     0.000 G0
ATOM    130  C   UNL     1       5.096  -4.043   4.876  1.00  0.00     0.341 C 
ATOM    131  O   UNL     1       4.885  -5.110   4.312  1.00  0.00    -0.249 OA
BRANCH 123 132
ATOM    132  O   UNL     1       1.748  -0.072   7.778  1.00  0.00    -0.504 OA
ATOM    133  H   UNL     1       1.532   0.832   7.894  1.00  0.00     0.293 HD
ENDBRANCH 123 132
BRANCH 126 134
ATOM    134  O   UNL     1       2.306  -2.691   7.480  1.00  0.00    -0.502 OA
ATOM    135  H   UNL     1       1.607  -2.409   8.037  1.00  0.00     0.293 HD
ENDBRANCH 126 134
BRANCH 128 136
ATOM    136  O   UNL     1       7.098  -3.680   3.526  1.00  0.00    -0.381 OA
ATOM    137  H   UNL     1       6.595  -3.790   2.704  1.00  0.00     0.211 HD
ENDBRANCH 128 136
ENDBRANCH 118 120
ENDBRANCH 117 118
ENDBRANCH  87 117
BRANCH  90 138
ATOM    138  O   UNL     1       7.791  -0.887   1.033  1.00  0.00    -0.428 OA
BRANCH 138 139
ATOM    139  C   UNL     1       8.112  -0.631  -0.239  1.00  0.00     0.340 C 
ATOM    140  O   UNL     1       7.508  -1.018  -1.221  1.00  0.00    -0.246 OA
BRANCH 139 141
ATOM    141  C   UNL     1       9.248   0.349  -0.278  1.00  0.00     0.067 A 
ATOM    142  C   UNL     1       9.225   1.283  -1.326  1.00  0.00     0.066 A 
ATOM    143  C   UNL     1      10.293   0.390   0.671  1.00  0.00     0.066 A 
ATOM    144  C   UNL     1      10.227   2.239  -1.426  1.00  0.00     0.162 A 
ATOM    145  C   UNL     1      11.302   1.353   0.538  1.00  0.00     0.162 A 
ATOM    146  C   UNL     1      11.268   2.269  -0.510  1.00  0.00     0.200 A 
BRANCH 144 147
ATOM    147  O   UNL     1      10.172   3.155  -2.434  1.00  0.00    -0.504 OA
ATOM    148  H   UNL     1       9.468   3.131  -3.051  1.00  0.00     0.293 HD
ENDBRANCH 144 147
BRANCH 145 149
ATOM    149  O   UNL     1      12.353   1.448   1.409  1.00  0.00    -0.504 OA
ATOM    150  H   UNL     1      13.007   2.107   1.284  1.00  0.00     0.293 HD
ENDBRANCH 145 149
BRANCH 146 151
ATOM    151  O   UNL     1      12.249   3.210  -0.659  1.00  0.00    -0.502 OA
ATOM    152  H   UNL     1      12.211   3.819  -1.370  1.00  0.00     0.293 HD
ENDBRANCH 146 151
ENDBRANCH 139 141
ENDBRANCH 138 139
ENDBRANCH  90 138
ENDBRANCH  83  84
ENDBRANCH  81  83
ENDBRANCH   1  81
TORSDOF 24
