REMARK SMILES C[C@@H]1SCCC[C@]1(CC(=O)NCCCCNC(=O)c1ccc(-c2c3nc(c(-c4c(F)c(F)c(F)c(F)c4F)c4ccc([nH]4)c(-c4c(F)c(F)c(F)c(F)c4F)c4nc(c(-c5c(F)c(F)c(F)c(F)c5F)c5ccc2[nH]5)C=C4)C=C3)cc1)[NH+]1CCOCC1
REMARK SMILES IDX 13 1 12 2 11 3 9 4 10 5 8 7 7 8 1 9 2 10 3 11 4 12 6 13 5 14
REMARK SMILES IDX 82 15 83 16 87 17 84 19 86 20 85 21 14 22 15 23 16 24 17 25
REMARK SMILES IDX 18 27 19 28 20 29 81 30 21 31 80 32 22 33 23 34 24 35 74 36
REMARK SMILES IDX 25 37 79 38 73 39 75 40 26 41 78 42 72 43 71 44 27 46 59 47
REMARK SMILES IDX 39 48 58 49 40 50 43 51 57 52 76 53 41 54 42 55 56 57 77 58
REMARK SMILES IDX 44 59 28 60 29 61 37 62 30 63 31 64 35 65 38 66 32 67 33 68
REMARK SMILES IDX 36 69 34 70 60 71 61 72 69 73 62 74 63 75 67 76 70 77 64 78
REMARK SMILES IDX 65 79 68 80 66 81 45 82 46 83 54 84 47 85 48 86 52 87 55 88
REMARK SMILES IDX 49 89 50 90 53 91 51 92
REMARK H PARENT 11 6 82 18 16 26 75 45 43 56
REMARK Flexibility Score: inf
ROOT
ATOM      1  C   UNL     1      -0.296  -0.741   2.810  1.00  0.00     0.023 C 
ENDROOT
BRANCH   1   2
ATOM      2  C   UNL     1      -0.949   0.586   3.190  1.00  0.00     0.116 C 
BRANCH   2   3
ATOM      3  N   UNL     1      -0.010   1.485   3.810  1.00  0.00    -0.356 N 
ATOM      4  C   UNL     1       0.592   2.597   3.329  1.00  0.00     0.226 C 
ATOM      5  O   UNL     1       1.114   3.321   4.187  1.00  0.00    -0.275 OA
ATOM      6  H   UNL     1       0.233   1.252   4.735  1.00  0.00     0.163 HD
BRANCH   4   7
ATOM      7  C   UNL     1       0.588   3.028   1.857  1.00  0.00     0.169 C 
BRANCH   7   8
ATOM      8  C   UNL     1       1.378   2.298   0.664  1.00  0.00     0.118 C 
ATOM      9  C   UNL     1       0.942   0.272  -1.163  1.00  0.00     0.026 C 
ATOM     10  C   UNL     1       0.521   1.089   0.071  1.00  0.00     0.105 C 
ATOM     11  S   UNL     1      -1.231   1.553  -0.341  1.00  0.00    -0.152 SA
ATOM     12  C   UNL     1      -0.907   2.894  -1.515  1.00  0.00     0.070 C 
ATOM     13  C   UNL     1       1.435   3.349  -0.514  1.00  0.00     0.071 C 
ATOM     14  C   UNL     1       0.089   3.918  -0.992  1.00  0.00     0.017 C 
BRANCH   8  15
ATOM     15  N   UNL     1       2.839   2.093   0.968  1.00  0.00    -0.325 N 
ATOM     16  C   UNL     1       3.388   2.092   2.334  1.00  0.00     0.291 C 
ATOM     17  C   UNL     1       3.656   1.149   0.197  1.00  0.00     0.291 C 
ATOM     18  H   UNL     1       2.912   3.039   0.594  1.00  0.00     0.348 HD
ATOM     19  C   UNL     1       3.430   0.698   2.979  1.00  0.00     0.221 C 
ATOM     20  C   UNL     1       3.657  -0.261   0.823  1.00  0.00     0.221 C 
ATOM     21  O   UNL     1       4.159  -0.236   2.167  1.00  0.00    -0.370 OA
ENDBRANCH   8  15
ENDBRANCH   7   8
ENDBRANCH   4   7
ENDBRANCH   2   3
ENDBRANCH   1   2
BRANCH   1  22
ATOM     22  C   UNL     1      -0.174  -1.753   3.931  1.00  0.00     0.023 C 
BRANCH  22  23
ATOM     23  C   UNL     1      -1.508  -2.242   4.450  1.00  0.00     0.116 C 
BRANCH  23  24
ATOM     24  N   UNL     1      -2.369  -2.803   3.414  1.00  0.00    -0.352 N 
ATOM     25  C   UNL     1      -3.184  -3.905   3.506  1.00  0.00     0.251 C 
ATOM     26  H   UNL     1      -2.365  -2.337   2.546  1.00  0.00     0.163 HD
ATOM     27  O   UNL     1      -3.780  -4.346   2.531  1.00  0.00    -0.269 OA
BRANCH  25  28
ATOM     28  C   UNL     1      -3.288  -4.567   4.816  1.00  0.00     0.039 A 
ATOM     29  C   UNL     1      -3.030  -5.934   4.913  1.00  0.00     0.014 A 
ATOM     30  C   UNL     1      -3.503  -3.790   5.957  1.00  0.00     0.014 A 
ATOM     31  C   UNL     1      -2.923  -6.514   6.175  1.00  0.00     0.010 A 
ATOM     32  C   UNL     1      -3.270  -4.341   7.204  1.00  0.00     0.010 A 
ATOM     33  C   UNL     1      -3.005  -5.713   7.326  1.00  0.00    -0.014 A 
BRANCH  33  34
ATOM     34  C   UNL     1      -2.881  -6.290   8.683  1.00  0.00     0.031 A 
ATOM     35  C   UNL     1      -4.042  -6.174   9.632  1.00  0.00     0.074 A 
ATOM     36  C   UNL     1      -1.718  -6.841   9.079  1.00  0.00     0.049 A 
ATOM     37  N   UNL     1      -4.122  -6.520  10.890  1.00  0.00    -0.248 NA
ATOM     38  C   UNL     1      -5.262  -5.535   9.109  1.00  0.00     0.031 C 
ATOM     39  C   UNL     1      -0.505  -6.941   8.265  1.00  0.00     0.029 A 
ATOM     40  N   UNL     1      -1.365  -7.416  10.272  1.00  0.00    -0.354 N 
ATOM     41  C   UNL     1      -5.382  -6.111  11.309  1.00  0.00     0.074 A 
ATOM     42  C   UNL     1      -6.001  -5.424  10.200  1.00  0.00     0.031 C 
ATOM     43  C   UNL     1       0.447  -7.575   8.970  1.00  0.00     0.029 A 
ATOM     44  C   UNL     1      -0.079  -7.894  10.294  1.00  0.00     0.049 A 
ATOM     45  H   UNL     1      -1.977  -7.479  11.041  1.00  0.00     0.167 HD
ATOM     46  C   UNL     1      -5.984  -6.327  12.500  1.00  0.00     0.037 A 
ATOM     47  C   UNL     1       0.592  -8.525  11.276  1.00  0.00     0.037 A 
ATOM     48  C   UNL     1      -5.380  -7.065  13.574  1.00  0.00     0.049 A 
ATOM     49  C   UNL     1      -0.115  -8.794  12.577  1.00  0.00     0.074 A 
ATOM     50  C   UNL     1      -5.923  -7.413  14.796  1.00  0.00     0.029 A 
ATOM     51  N   UNL     1      -4.092  -7.580  13.542  1.00  0.00    -0.354 N 
ATOM     52  N   UNL     1      -1.333  -8.471  12.939  1.00  0.00    -0.248 NA
ATOM     53  C   UNL     1       0.642  -9.524  13.603  1.00  0.00     0.031 C 
ATOM     54  C   UNL     1      -4.950  -8.110  15.520  1.00  0.00     0.029 A 
ATOM     55  C   UNL     1      -3.817  -8.235  14.730  1.00  0.00     0.049 A 
ATOM     56  H   UNL     1      -3.466  -7.493  12.787  1.00  0.00     0.167 HD
ATOM     57  C   UNL     1      -1.501  -8.981  14.219  1.00  0.00     0.074 A 
ATOM     58  C   UNL     1      -0.262  -9.649  14.565  1.00  0.00     0.031 C 
ATOM     59  C   UNL     1      -2.579  -8.904  15.037  1.00  0.00     0.037 A 
BRANCH  46  60
ATOM     60  C   UNL     1      -7.368  -5.776  12.686  1.00  0.00     0.064 A 
ATOM     61  C   UNL     1      -8.466  -6.286  11.975  1.00  0.00     0.173 A 
ATOM     62  C   UNL     1      -7.602  -4.729  13.589  1.00  0.00     0.173 A 
ATOM     63  F   UNL     1      -8.293  -7.275  11.085  1.00  0.00    -0.203 F 
ATOM     64  C   UNL     1      -9.738  -5.745  12.134  1.00  0.00     0.198 A 
ATOM     65  C   UNL     1      -8.883  -4.212  13.770  1.00  0.00     0.198 A 
ATOM     66  F   UNL     1      -6.589  -4.203  14.294  1.00  0.00    -0.203 F 
ATOM     67  F   UNL     1     -10.758  -6.207  11.397  1.00  0.00    -0.200 F 
ATOM     68  C   UNL     1      -9.947  -4.713  13.036  1.00  0.00     0.200 A 
ATOM     69  F   UNL     1      -9.085  -3.222  14.650  1.00  0.00    -0.200 F 
ATOM     70  F   UNL     1     -11.173  -4.195  13.191  1.00  0.00    -0.200 F 
ENDBRANCH  46  60
BRANCH  47  71
ATOM     71  C   UNL     1       1.985  -8.990  11.048  1.00  0.00     0.064 A 
ATOM     72  C   UNL     1       2.276 -10.357  10.936  1.00  0.00     0.173 A 
ATOM     73  C   UNL     1       3.051  -8.086  10.935  1.00  0.00     0.173 A 
ATOM     74  F   UNL     1       1.293 -11.262  11.053  1.00  0.00    -0.203 F 
ATOM     75  C   UNL     1       3.582 -10.803  10.742  1.00  0.00     0.198 A 
ATOM     76  C   UNL     1       4.353  -8.531  10.715  1.00  0.00     0.198 A 
ATOM     77  F   UNL     1       2.826  -6.767  11.027  1.00  0.00    -0.203 F 
ATOM     78  F   UNL     1       3.837 -12.117  10.682  1.00  0.00    -0.200 F 
ATOM     79  C   UNL     1       4.619  -9.890  10.627  1.00  0.00     0.200 A 
ATOM     80  F   UNL     1       5.351  -7.646  10.590  1.00  0.00    -0.200 F 
ATOM     81  F   UNL     1       5.874 -10.319  10.437  1.00  0.00    -0.200 F 
ENDBRANCH  47  71
BRANCH  59  82
ATOM     82  C   UNL     1      -2.480  -9.589  16.367  1.00  0.00     0.064 A 
ATOM     83  C   UNL     1      -1.691  -9.070  17.403  1.00  0.00     0.173 A 
ATOM     84  C   UNL     1      -3.226 -10.749  16.622  1.00  0.00     0.173 A 
ATOM     85  F   UNL     1      -0.950  -7.970  17.201  1.00  0.00    -0.203 F 
ATOM     86  C   UNL     1      -1.635  -9.702  18.641  1.00  0.00     0.198 A 
ATOM     87  C   UNL     1      -3.191 -11.361  17.870  1.00  0.00     0.198 A 
ATOM     88  F   UNL     1      -4.003 -11.278  15.664  1.00  0.00    -0.203 F 
ATOM     89  F   UNL     1      -0.841  -9.214  19.605  1.00  0.00    -0.200 F 
ATOM     90  C   UNL     1      -2.390 -10.842  18.876  1.00  0.00     0.200 A 
ATOM     91  F   UNL     1      -3.933 -12.453  18.100  1.00  0.00    -0.200 F 
ATOM     92  F   UNL     1      -2.343 -11.443  20.073  1.00  0.00    -0.200 F 
ENDBRANCH  59  82
ENDBRANCH  33  34
ENDBRANCH  25  28
ENDBRANCH  23  24
ENDBRANCH  22  23
ENDBRANCH   1  22
TORSDOF 13
