REMARK SMILES Cc1cc(F)cc(-n2c(C)nc3cc(C(=O)NCCCCNC(=O)c4ccc(-c5c6nc(c(-c7c(F)c(F)c(F)c(F)c7F)c7ccc([nH]7)c(-c7c(F)c(F)c(F)c(F)c7F)c7nc(c(-c8c(F)c(F)c(F)c(F)c8F)c8ccc5[nH]8)C=C7)C=C6)cc4)ccc32)c1
REMARK SMILES IDX 20 1 19 2 18 3 17 4 15 5 16 6 14 8 8 9 9 10 90 11 10 12
REMARK SMILES IDX 11 13 12 14 89 15 13 16 88 17 7 18 1 19 2 20 3 21 91 22 4 23
REMARK SMILES IDX 5 24 6 25 21 26 22 27 23 28 24 30 25 31 26 32 87 33 27 34
REMARK SMILES IDX 86 35 28 36 29 37 30 38 80 39 31 40 85 41 79 42 81 43 32 44
REMARK SMILES IDX 84 45 78 46 77 47 33 49 65 50 45 51 64 52 46 53 49 54 63 55
REMARK SMILES IDX 82 56 47 57 48 58 62 60 83 61 50 62 34 63 35 64 43 65 36 66
REMARK SMILES IDX 37 67 41 68 44 69 38 70 39 71 42 72 40 73 66 74 67 75 75 76
REMARK SMILES IDX 68 77 69 78 73 79 76 80 70 81 71 82 74 83 72 84 51 85 52 86
REMARK SMILES IDX 60 87 53 88 54 89 58 90 61 91 55 92 56 93 59 94 57 95
REMARK H PARENT 17 7 22 29 81 48 49 59
REMARK Flexibility Score: inf
ROOT
ATOM      1  C   UNL     1       4.625  -6.523   6.340  1.00  0.00     0.023 C 
ENDROOT
BRANCH   1   2
ATOM      2  C   UNL     1       3.962  -5.478   5.452  1.00  0.00     0.023 C 
BRANCH   2   3
ATOM      3  C   UNL     1       4.394  -5.667   4.008  1.00  0.00     0.116 C 
BRANCH   3   4
ATOM      4  N   UNL     1       3.756  -6.866   3.502  1.00  0.00    -0.352 N 
ATOM      5  C   UNL     1       2.560  -7.062   2.856  1.00  0.00     0.251 C 
ATOM      6  O   UNL     1       2.146  -8.198   2.734  1.00  0.00    -0.269 OA
ATOM      7  H   UNL     1       4.275  -7.690   3.648  1.00  0.00     0.163 HD
BRANCH   5   8
ATOM      8  C   UNL     1       1.837  -5.933   2.216  1.00  0.00     0.042 A 
ATOM      9  N   UNL     1       0.111  -3.119  -0.232  1.00  0.00    -0.296 N 
ATOM     10  C   UNL     1      -0.386  -3.989  -1.190  1.00  0.00     0.111 A 
ATOM     11  C   UNL     1       0.699  -3.892   0.753  1.00  0.00     0.073 A 
ATOM     12  C   UNL     1      -1.144  -3.595  -2.404  1.00  0.00     0.088 C 
ATOM     13  N   UNL     1      -0.015  -5.231  -0.935  1.00  0.00    -0.233 NA
ATOM     14  C   UNL     1       0.654  -5.186   0.254  1.00  0.00     0.090 A 
ATOM     15  C   UNL     1       1.199  -3.590   2.025  1.00  0.00     0.030 A 
ATOM     16  C   UNL     1       1.252  -6.223   0.975  1.00  0.00     0.044 A 
ATOM     17  C   UNL     1       1.729  -4.650   2.763  1.00  0.00     0.016 A 
BRANCH   9  18
ATOM     18  C   UNL     1       0.061  -1.709  -0.213  1.00  0.00     0.051 A 
ATOM     19  C   UNL     1       2.503   1.208   0.061  1.00  0.00     0.044 C 
ATOM     20  C   UNL     1       1.234   0.410  -0.021  1.00  0.00    -0.046 A 
ATOM     21  C   UNL     1      -0.004   1.063  -0.038  1.00  0.00     0.042 A 
ATOM     22  C   UNL     1       1.260  -0.988  -0.086  1.00  0.00     0.030 A 
ATOM     23  C   UNL     1      -1.184   0.328  -0.149  1.00  0.00     0.125 A 
ATOM     24  F   UNL     1      -2.360   0.969  -0.138  1.00  0.00    -0.207 F 
ATOM     25  C   UNL     1      -1.169  -1.057  -0.255  1.00  0.00     0.066 A 
ENDBRANCH   9  18
ENDBRANCH   5   8
ENDBRANCH   3   4
ENDBRANCH   2   3
ENDBRANCH   1   2
BRANCH   1  26
ATOM     26  C   UNL     1       6.097  -6.286   6.679  1.00  0.00     0.116 C 
BRANCH  26  27
ATOM     27  N   UNL     1       6.541  -4.903   6.763  1.00  0.00    -0.352 N 
ATOM     28  C   UNL     1       7.147  -4.148   7.735  1.00  0.00     0.251 C 
ATOM     29  H   UNL     1       6.369  -4.396   5.937  1.00  0.00     0.163 HD
ATOM     30  O   UNL     1       7.626  -3.061   7.408  1.00  0.00    -0.269 OA
BRANCH  28  31
ATOM     31  C   UNL     1       7.079  -4.490   9.172  1.00  0.00     0.039 A 
ATOM     32  C   UNL     1       7.121  -5.785   9.687  1.00  0.00     0.014 A 
ATOM     33  C   UNL     1       6.806  -3.413  10.024  1.00  0.00     0.014 A 
ATOM     34  C   UNL     1       6.585  -6.033  10.949  1.00  0.00     0.010 A 
ATOM     35  C   UNL     1       6.336  -3.650  11.300  1.00  0.00     0.010 A 
ATOM     36  C   UNL     1       6.110  -4.964  11.712  1.00  0.00    -0.014 A 
BRANCH  36  37
ATOM     37  C   UNL     1       5.399  -5.150  12.969  1.00  0.00     0.031 A 
ATOM     38  C   UNL     1       6.058  -5.887  14.067  1.00  0.00     0.074 A 
ATOM     39  C   UNL     1       4.138  -4.676  13.115  1.00  0.00     0.049 A 
ATOM     40  N   UNL     1       5.438  -6.617  14.931  1.00  0.00    -0.248 NA
ATOM     41  C   UNL     1       7.508  -5.909  14.232  1.00  0.00     0.031 C 
ATOM     42  C   UNL     1       3.392  -4.536  14.357  1.00  0.00     0.029 A 
ATOM     43  N   UNL     1       3.209  -4.314  12.122  1.00  0.00    -0.354 N 
ATOM     44  C   UNL     1       6.337  -6.910  15.935  1.00  0.00     0.074 A 
ATOM     45  C   UNL     1       7.631  -6.577  15.386  1.00  0.00     0.031 C 
ATOM     46  C   UNL     1       2.088  -4.369  14.079  1.00  0.00     0.029 A 
ATOM     47  C   UNL     1       1.915  -4.546  12.650  1.00  0.00     0.049 A 
ATOM     48  H   UNL     1       3.419  -3.964  11.226  1.00  0.00     0.167 HD
ATOM     49  C   UNL     1       5.863  -7.203  17.182  1.00  0.00     0.037 A 
ATOM     50  C   UNL     1       1.022  -5.419  12.082  1.00  0.00     0.037 A 
ATOM     51  C   UNL     1       4.404  -7.189  17.188  1.00  0.00     0.049 A 
ATOM     52  C   UNL     1       0.669  -6.576  12.969  1.00  0.00     0.074 A 
ATOM     53  C   UNL     1       3.509  -6.179  17.507  1.00  0.00     0.029 A 
ATOM     54  N   UNL     1       3.684  -8.161  16.507  1.00  0.00    -0.354 N 
ATOM     55  N   UNL     1       1.414  -6.957  13.964  1.00  0.00    -0.248 NA
ATOM     56  C   UNL     1      -0.510  -7.414  12.786  1.00  0.00     0.031 C 
ATOM     57  C   UNL     1       2.249  -6.530  16.981  1.00  0.00     0.029 A 
ATOM     58  C   UNL     1       2.370  -7.759  16.357  1.00  0.00     0.049 A 
ATOM     59  H   UNL     1       4.055  -9.012  16.179  1.00  0.00     0.167 HD
ATOM     60  C   UNL     1       0.831  -8.030  14.578  1.00  0.00     0.074 A 
ATOM     61  C   UNL     1      -0.370  -8.283  13.803  1.00  0.00     0.031 C 
ATOM     62  C   UNL     1       1.385  -8.592  15.690  1.00  0.00     0.037 A 
BRANCH  49  63
ATOM     63  C   UNL     1       6.684  -7.114  18.453  1.00  0.00     0.064 A 
ATOM     64  C   UNL     1       6.081  -6.723  19.673  1.00  0.00     0.173 A 
ATOM     65  C   UNL     1       8.069  -7.344  18.535  1.00  0.00     0.173 A 
ATOM     66  F   UNL     1       4.755  -6.582  19.791  1.00  0.00    -0.203 F 
ATOM     67  C   UNL     1       6.815  -6.459  20.831  1.00  0.00     0.198 A 
ATOM     68  C   UNL     1       8.811  -7.046  19.686  1.00  0.00     0.198 A 
ATOM     69  F   UNL     1       8.739  -7.909  17.523  1.00  0.00    -0.203 F 
ATOM     70  F   UNL     1       6.180  -6.064  21.944  1.00  0.00    -0.200 F 
ATOM     71  C   UNL     1       8.186  -6.588  20.828  1.00  0.00     0.200 A 
ATOM     72  F   UNL     1      10.142  -7.208  19.678  1.00  0.00    -0.200 F 
ATOM     73  F   UNL     1       8.896  -6.300  21.927  1.00  0.00    -0.200 F 
ENDBRANCH  49  63
BRANCH  50  74
ATOM     74  C   UNL     1       1.160  -5.548  10.606  1.00  0.00     0.064 A 
ATOM     75  C   UNL     1       0.754  -4.435   9.851  1.00  0.00     0.173 A 
ATOM     76  C   UNL     1       2.269  -6.276  10.177  1.00  0.00     0.173 A 
ATOM     77  F   UNL     1      -0.374  -3.784  10.172  1.00  0.00    -0.203 F 
ATOM     78  C   UNL     1       1.613  -3.878   8.912  1.00  0.00     0.198 A 
ATOM     79  C   UNL     1       3.163  -5.661   9.322  1.00  0.00     0.198 A 
ATOM     80  F   UNL     1       2.630  -7.410  10.793  1.00  0.00    -0.203 F 
ATOM     81  F   UNL     1       1.299  -2.724   8.308  1.00  0.00    -0.200 F 
ATOM     82  C   UNL     1       2.860  -4.445   8.721  1.00  0.00     0.200 A 
ATOM     83  F   UNL     1       4.377  -6.200   9.186  1.00  0.00    -0.200 F 
ATOM     84  F   UNL     1       3.784  -3.793   8.004  1.00  0.00    -0.200 F 
ENDBRANCH  50  74
BRANCH  62  85
ATOM     85  C   UNL     1       0.934  -9.864  16.353  1.00  0.00     0.064 A 
ATOM     86  C   UNL     1       0.285 -10.909  15.680  1.00  0.00     0.173 A 
ATOM     87  C   UNL     1       1.244 -10.110  17.713  1.00  0.00     0.173 A 
ATOM     88  F   UNL     1       0.078 -10.864  14.357  1.00  0.00    -0.203 F 
ATOM     89  C   UNL     1      -0.126 -12.066  16.343  1.00  0.00     0.198 A 
ATOM     90  C   UNL     1       0.892 -11.293  18.354  1.00  0.00     0.198 A 
ATOM     91  F   UNL     1       1.917  -9.220  18.457  1.00  0.00    -0.203 F 
ATOM     92  F   UNL     1      -0.807 -13.006  15.673  1.00  0.00    -0.200 F 
ATOM     93  C   UNL     1       0.179 -12.259  17.678  1.00  0.00     0.200 A 
ATOM     94  F   UNL     1       1.258 -11.492  19.628  1.00  0.00    -0.200 F 
ATOM     95  F   UNL     1      -0.192 -13.383  18.303  1.00  0.00    -0.200 F 
ENDBRANCH  62  85
ENDBRANCH  36  37
ENDBRANCH  28  31
ENDBRANCH  26  27
ENDBRANCH   1  26
TORSDOF 12
