REMARK SMILES C[C@H](Oc1ccc(C(=O)NCc2ccccc2)cc1)C(=O)NCCCCNC(=O)c1ccc(-c2c3nc(c(-c4c(F)c(F)c(F)c(F)c4F)c4ccc([nH]4)c(-c4c(F)c(F)c(F)c(F)c4F)c4nc(c(-c5c(F)c(F)c(F)c(F)c5F)c5ccc2[nH]5)C=C4)C=C3)cc1
REMARK SMILES IDX 23 1 22 2 20 3 21 4 2 6 1 7 3 8 4 9 5 10 19 11 6 12 18 13
REMARK SMILES IDX 7 14 8 15 9 16 10 17 11 19 12 20 13 21 17 22 14 23 16 24
REMARK SMILES IDX 15 25 24 26 25 27 26 28 27 29 28 30 29 32 30 33 31 34 92 35
REMARK SMILES IDX 32 36 91 37 33 38 34 39 35 40 85 41 36 42 90 43 84 44 86 45
REMARK SMILES IDX 37 46 89 47 83 48 82 49 38 51 70 52 50 53 69 54 51 55 54 56
REMARK SMILES IDX 68 57 87 58 52 59 53 60 67 62 88 63 55 64 39 65 40 66 48 67
REMARK SMILES IDX 41 68 42 69 46 70 49 71 43 72 44 73 47 74 45 75 71 76 72 77
REMARK SMILES IDX 80 78 73 79 74 80 78 81 81 82 75 83 76 84 79 85 77 86 56 87
REMARK SMILES IDX 57 88 65 89 58 90 59 91 63 92 66 93 60 94 61 95 64 96 62 97
REMARK H PARENT 22 5 10 18 27 31 86 50 54 61
REMARK Flexibility Score: inf
ROOT
ATOM      1  C   UNL     1      -0.992   1.786  -1.049  1.00  0.00     0.116 C 
ENDROOT
BRANCH   1   2
ATOM      2  N   UNL     1      -1.591   1.255   0.164  1.00  0.00    -0.353 N 
ATOM      3  C   UNL     1      -0.970   0.809   1.304  1.00  0.00     0.260 C 
ATOM      4  O   UNL     1      -1.674   0.427   2.241  1.00  0.00    -0.271 OA
ATOM      5  H   UNL     1      -2.575   1.209   0.169  1.00  0.00     0.163 HD
BRANCH   3   6
ATOM      6  C   UNL     1       0.562   0.848   1.407  1.00  0.00     0.258 C 
ATOM      7  C   UNL     1       1.017   2.313   1.423  1.00  0.00     0.064 C 
BRANCH   6   8
ATOM      8  O   UNL     1       0.999   0.052   0.299  1.00  0.00    -0.481 OA
BRANCH   8   9
ATOM      9  C   UNL     1       2.308  -0.004  -0.054  1.00  0.00     0.120 A 
ATOM     10  C   UNL     1       3.390   0.362   0.733  1.00  0.00     0.047 A 
ATOM     11  C   UNL     1       2.527  -0.449  -1.361  1.00  0.00     0.047 A 
ATOM     12  C   UNL     1       4.681   0.314   0.194  1.00  0.00     0.017 A 
ATOM     13  C   UNL     1       3.814  -0.478  -1.907  1.00  0.00     0.017 A 
ATOM     14  C   UNL     1       4.911  -0.119  -1.126  1.00  0.00     0.040 A 
BRANCH  14  15
ATOM     15  C   UNL     1       6.320  -0.085  -1.602  1.00  0.00     0.251 C 
ATOM     16  O   UNL     1       7.105   0.694  -1.057  1.00  0.00    -0.269 OA
ATOM     17  N   UNL     1       6.819  -0.876  -2.598  1.00  0.00    -0.348 N 
ATOM     18  H   UNL     1       7.780  -0.737  -2.755  1.00  0.00     0.164 HD
BRANCH  17  19
ATOM     19  C   UNL     1       6.241  -1.877  -3.473  1.00  0.00     0.152 C 
BRANCH  19  20
ATOM     20  C   UNL     1       6.055  -1.371  -4.888  1.00  0.00    -0.029 A 
ATOM     21  C   UNL     1       5.860  -2.295  -5.927  1.00  0.00     0.005 A 
ATOM     22  C   UNL     1       6.078  -0.003  -5.213  1.00  0.00     0.005 A 
ATOM     23  C   UNL     1       5.734  -1.867  -7.252  1.00  0.00     0.000 A 
ATOM     24  C   UNL     1       5.955   0.423  -6.537  1.00  0.00     0.000 A 
ATOM     25  C   UNL     1       5.790  -0.509  -7.557  1.00  0.00     0.000 A 
ENDBRANCH  19  20
ENDBRANCH  17  19
ENDBRANCH  14  15
ENDBRANCH   8   9
ENDBRANCH   6   8
ENDBRANCH   3   6
ENDBRANCH   1   2
BRANCH   1  26
ATOM     26  C   UNL     1      -1.355   0.967  -2.284  1.00  0.00     0.023 C 
BRANCH  26  27
ATOM     27  C   UNL     1      -2.835   1.010  -2.658  1.00  0.00     0.023 C 
BRANCH  27  28
ATOM     28  C   UNL     1      -3.416   2.408  -2.837  1.00  0.00     0.116 C 
BRANCH  28  29
ATOM     29  N   UNL     1      -2.765   3.165  -3.894  1.00  0.00    -0.352 N 
ATOM     30  C   UNL     1      -3.329   3.866  -4.935  1.00  0.00     0.251 C 
ATOM     31  H   UNL     1      -1.782   3.177  -3.861  1.00  0.00     0.163 HD
ATOM     32  O   UNL     1      -2.625   4.333  -5.819  1.00  0.00    -0.269 OA
BRANCH  30  33
ATOM     33  C   UNL     1      -4.799   4.021  -5.001  1.00  0.00     0.039 A 
ATOM     34  C   UNL     1      -5.447   3.784  -6.215  1.00  0.00     0.014 A 
ATOM     35  C   UNL     1      -5.537   4.377  -3.869  1.00  0.00     0.014 A 
ATOM     36  C   UNL     1      -6.842   3.832  -6.276  1.00  0.00     0.010 A 
ATOM     37  C   UNL     1      -6.928   4.344  -3.911  1.00  0.00     0.010 A 
ATOM     38  C   UNL     1      -7.595   4.069  -5.114  1.00  0.00    -0.014 A 
BRANCH  38  39
ATOM     39  C   UNL     1      -9.081   4.025  -5.138  1.00  0.00     0.031 A 
ATOM     40  C   UNL     1      -9.881   5.256  -4.811  1.00  0.00     0.074 A 
ATOM     41  C   UNL     1      -9.709   2.860  -5.389  1.00  0.00     0.049 A 
ATOM     42  N   UNL     1     -11.179   5.399  -4.716  1.00  0.00    -0.248 NA
ATOM     43  C   UNL     1      -9.121   6.483  -4.527  1.00  0.00     0.031 C 
ATOM     44  C   UNL     1      -9.047   1.587  -5.675  1.00  0.00     0.029 A 
ATOM     45  N   UNL     1     -11.047   2.555  -5.436  1.00  0.00    -0.354 N 
ATOM     46  C   UNL     1     -11.388   6.722  -4.349  1.00  0.00     0.074 A 
ATOM     47  C   UNL     1     -10.084   7.325  -4.184  1.00  0.00     0.031 C 
ATOM     48  C   UNL     1      -9.979   0.645  -5.892  1.00  0.00     0.029 A 
ATOM     49  C   UNL     1     -11.302   1.235  -5.718  1.00  0.00     0.049 A 
ATOM     50  H   UNL     1     -11.757   3.220  -5.281  1.00  0.00     0.167 HD
ATOM     51  C   UNL     1     -12.561   7.380  -4.188  1.00  0.00     0.037 A 
ATOM     52  C   UNL     1     -12.471   0.573  -5.816  1.00  0.00     0.037 A 
ATOM     53  C   UNL     1     -13.857   6.781  -4.373  1.00  0.00     0.049 A 
ATOM     54  C   UNL     1     -13.760   1.324  -5.612  1.00  0.00     0.074 A 
ATOM     55  C   UNL     1     -15.102   7.379  -4.295  1.00  0.00     0.029 A 
ATOM     56  N   UNL     1     -14.075   5.442  -4.666  1.00  0.00    -0.354 N 
ATOM     57  N   UNL     1     -13.946   2.593  -5.341  1.00  0.00    -0.248 NA
ATOM     58  C   UNL     1     -15.003   0.549  -5.733  1.00  0.00     0.031 C 
ATOM     59  C   UNL     1     -16.075   6.392  -4.482  1.00  0.00     0.029 A 
ATOM     60  C   UNL     1     -15.436   5.190  -4.742  1.00  0.00     0.049 A 
ATOM     61  H   UNL     1     -13.368   4.771  -4.801  1.00  0.00     0.167 HD
ATOM     62  C   UNL     1     -15.322   2.776  -5.292  1.00  0.00     0.074 A 
ATOM     63  C   UNL     1     -15.923   1.490  -5.577  1.00  0.00     0.031 C 
ATOM     64  C   UNL     1     -16.023   3.907  -5.036  1.00  0.00     0.037 A 
BRANCH  51  65
ATOM     65  C   UNL     1     -12.499   8.827  -3.788  1.00  0.00     0.064 A 
ATOM     66  C   UNL     1     -12.017   9.815  -4.661  1.00  0.00     0.173 A 
ATOM     67  C   UNL     1     -12.964   9.237  -2.529  1.00  0.00     0.173 A 
ATOM     68  F   UNL     1     -11.551   9.477  -5.873  1.00  0.00    -0.203 F 
ATOM     69  C   UNL     1     -11.974  11.153  -4.277  1.00  0.00     0.198 A 
ATOM     70  C   UNL     1     -12.951  10.580  -2.161  1.00  0.00     0.198 A 
ATOM     71  F   UNL     1     -13.441   8.336  -1.657  1.00  0.00    -0.203 F 
ATOM     72  F   UNL     1     -11.460  12.070  -5.108  1.00  0.00    -0.200 F 
ATOM     73  C   UNL     1     -12.448  11.535  -3.031  1.00  0.00     0.200 A 
ATOM     74  F   UNL     1     -13.425  10.949  -0.963  1.00  0.00    -0.200 F 
ATOM     75  F   UNL     1     -12.415  12.824  -2.667  1.00  0.00    -0.200 F 
ENDBRANCH  51  65
BRANCH  52  76
ATOM     76  C   UNL     1     -12.481  -0.878  -6.144  1.00  0.00     0.064 A 
ATOM     77  C   UNL     1     -12.986  -1.336  -7.369  1.00  0.00     0.173 A 
ATOM     78  C   UNL     1     -12.003  -1.836  -5.238  1.00  0.00     0.173 A 
ATOM     79  F   UNL     1     -13.474  -0.461  -8.261  1.00  0.00    -0.203 F 
ATOM     80  C   UNL     1     -13.034  -2.696  -7.666  1.00  0.00     0.198 A 
ATOM     81  C   UNL     1     -12.023  -3.194  -5.549  1.00  0.00     0.198 A 
ATOM     82  F   UNL     1     -11.506  -1.452  -4.053  1.00  0.00    -0.203 F 
ATOM     83  F   UNL     1     -13.570  -3.108  -8.823  1.00  0.00    -0.200 F 
ATOM     84  C   UNL     1     -12.547  -3.624  -6.758  1.00  0.00     0.200 A 
ATOM     85  F   UNL     1     -11.537  -4.086  -4.675  1.00  0.00    -0.200 F 
ATOM     86  F   UNL     1     -12.592  -4.932  -7.045  1.00  0.00    -0.200 F 
ENDBRANCH  52  76
BRANCH  64  87
ATOM     87  C   UNL     1     -17.522   3.820  -5.093  1.00  0.00     0.064 A 
ATOM     88  C   UNL     1     -18.261   3.128  -4.122  1.00  0.00     0.173 A 
ATOM     89  C   UNL     1     -18.230   4.471  -6.115  1.00  0.00     0.173 A 
ATOM     90  F   UNL     1     -17.633   2.476  -3.132  1.00  0.00    -0.203 F 
ATOM     91  C   UNL     1     -19.651   3.068  -4.189  1.00  0.00     0.198 A 
ATOM     92  C   UNL     1     -19.621   4.438  -6.159  1.00  0.00     0.198 A 
ATOM     93  F   UNL     1     -17.573   5.153  -7.066  1.00  0.00    -0.203 F 
ATOM     94  F   UNL     1     -20.333   2.357  -3.280  1.00  0.00    -0.200 F 
ATOM     95  C   UNL     1     -20.330   3.730  -5.201  1.00  0.00     0.200 A 
ATOM     96  F   UNL     1     -20.275   5.093  -7.128  1.00  0.00    -0.200 F 
ATOM     97  F   UNL     1     -21.668   3.679  -5.258  1.00  0.00    -0.200 F 
ENDBRANCH  64  87
ENDBRANCH  38  39
ENDBRANCH  30  33
ENDBRANCH  28  29
ENDBRANCH  27  28
ENDBRANCH  26  27
ENDBRANCH   1  26
TORSDOF 16
