REMARK SMILES Cc1cc(F)ccc1OC1(C(=O)NCCCCNC(=O)c2ccc(-c3c4nc(c(-c5c(F)c(F)c(F)c(F)c5F)c5ccc([nH]5)c(-c5c(F)c(F)c(F)c(F)c5F)c5nc(c(-c6c(F)c(F)c(F)c(F)c6F)c6ccc3[nH]6)C=C5)C=C4)cc2)CCN(C(=O)[C@H]2CCOC2)CC1
REMARK SMILES IDX 15 1 14 2 13 3 11 4 12 5 10 7 84 8 95 9 85 10 94 11 86 12
REMARK SMILES IDX 87 13 88 14 9 15 8 16 1 17 2 18 3 19 4 20 7 21 5 22 6 23
REMARK SMILES IDX 89 24 90 25 93 26 91 27 92 28 16 29 17 30 18 31 19 32 20 34
REMARK SMILES IDX 21 35 22 36 83 37 23 38 82 39 24 40 25 41 26 42 76 43 27 44
REMARK SMILES IDX 81 45 75 46 77 47 28 48 80 49 74 50 73 51 29 53 61 54 41 55
REMARK SMILES IDX 60 56 42 57 45 58 59 59 78 60 43 61 44 62 58 64 79 65 46 66
REMARK SMILES IDX 30 67 31 68 39 69 32 70 33 71 37 72 40 73 34 74 35 75 38 76
REMARK SMILES IDX 36 77 62 78 63 79 71 80 64 81 65 82 69 83 72 84 66 85 67 86
REMARK SMILES IDX 70 87 68 88 47 89 48 90 56 91 49 92 50 93 54 94 57 95 51 96
REMARK SMILES IDX 52 97 55 98 53 99
REMARK H PARENT 13 6 18 33 77 52 45 63
REMARK Flexibility Score: inf
ROOT
ATOM      1  C   UNL     1      10.898   6.097  -1.361  1.00  0.00     0.023 C 
ENDROOT
BRANCH   1   2
ATOM      2  C   UNL     1       9.977   6.021  -0.139  1.00  0.00     0.116 C 
BRANCH   2   3
ATOM      3  N   UNL     1       9.764   7.307   0.497  1.00  0.00    -0.353 N 
ATOM      4  C   UNL     1       8.732   8.207   0.426  1.00  0.00     0.264 C 
ATOM      5  O   UNL     1       8.857   9.193   1.164  1.00  0.00    -0.270 OA
ATOM      6  H   UNL     1      10.498   7.586   1.091  1.00  0.00     0.163 HD
BRANCH   4   7
ATOM      7  C   UNL     1       7.466   7.998  -0.506  1.00  0.00     0.190 C 
ATOM      8  C   UNL     1       7.968   7.901  -1.935  1.00  0.00     0.080 C 
ATOM      9  C   UNL     1       6.671   6.841   0.106  1.00  0.00     0.080 C 
ATOM     10  C   UNL     1       7.807   6.561  -2.634  1.00  0.00     0.124 C 
ATOM     11  C   UNL     1       6.178   5.766  -0.844  1.00  0.00     0.124 C 
ATOM     12  N   UNL     1       7.010   5.505  -2.014  1.00  0.00    -0.342 N 
ATOM     13  C   UNL     1       6.943   4.326  -2.765  1.00  0.00     0.228 C 
ATOM     14  O   UNL     1       7.731   4.134  -3.694  1.00  0.00    -0.274 OA
BRANCH   7  15
ATOM     15  O   UNL     1       6.749   9.237  -0.298  1.00  0.00    -0.477 OA
BRANCH  15  16
ATOM     16  C   UNL     1       5.715   9.852  -0.927  1.00  0.00     0.124 A 
ATOM     17  C   UNL     1       5.002   8.304  -2.901  1.00  0.00     0.048 C 
ATOM     18  C   UNL     1       4.909   9.508  -2.025  1.00  0.00    -0.006 A 
ATOM     19  C   UNL     1       3.907  10.412  -2.454  1.00  0.00     0.046 A 
ATOM     20  C   UNL     1       3.696  11.620  -1.813  1.00  0.00     0.123 A 
ATOM     21  C   UNL     1       5.469  11.095  -0.301  1.00  0.00     0.050 A 
ATOM     22  F   UNL     1       2.738  12.443  -2.255  1.00  0.00    -0.207 F 
ATOM     23  C   UNL     1       4.474  11.974  -0.733  1.00  0.00     0.043 A 
ENDBRANCH  15  16
ENDBRANCH   7  15
BRANCH  13  24
ATOM     24  C   UNL     1       5.818   3.342  -2.489  1.00  0.00     0.107 C 
ATOM     25  C   UNL     1       4.555   3.738  -3.230  1.00  0.00     0.044 C 
ATOM     26  C   UNL     1       6.115   1.971  -3.071  1.00  0.00     0.173 C 
ATOM     27  C   UNL     1       3.885   2.418  -3.555  1.00  0.00     0.161 C 
ATOM     28  O   UNL     1       4.857   1.381  -3.417  1.00  0.00    -0.381 OA
ENDBRANCH  13  24
ENDBRANCH   4   7
ENDBRANCH   2   3
ENDBRANCH   1   2
BRANCH   1  29
ATOM     29  C   UNL     1      12.383   6.326  -1.093  1.00  0.00     0.023 C 
BRANCH  29  30
ATOM     30  C   UNL     1      13.018   5.217  -0.286  1.00  0.00     0.116 C 
BRANCH  30  31
ATOM     31  N   UNL     1      12.886   3.907  -0.927  1.00  0.00    -0.352 N 
ATOM     32  C   UNL     1      13.434   2.705  -0.525  1.00  0.00     0.251 C 
ATOM     33  H   UNL     1      12.340   3.880  -1.746  1.00  0.00     0.163 HD
ATOM     34  O   UNL     1      13.519   1.750  -1.278  1.00  0.00    -0.269 OA
BRANCH  32  35
ATOM     35  C   UNL     1      13.892   2.605   0.866  1.00  0.00     0.039 A 
ATOM     36  C   UNL     1      15.084   1.961   1.217  1.00  0.00     0.014 A 
ATOM     37  C   UNL     1      13.080   3.200   1.822  1.00  0.00     0.014 A 
ATOM     38  C   UNL     1      15.478   1.960   2.552  1.00  0.00     0.010 A 
ATOM     39  C   UNL     1      13.566   3.389   3.075  1.00  0.00     0.010 A 
ATOM     40  C   UNL     1      14.708   2.685   3.461  1.00  0.00    -0.014 A 
BRANCH  40  41
ATOM     41  C   UNL     1      14.900   2.713   4.893  1.00  0.00     0.031 A 
ATOM     42  C   UNL     1      16.028   3.443   5.470  1.00  0.00     0.074 A 
ATOM     43  C   UNL     1      13.853   2.228   5.598  1.00  0.00     0.049 A 
ATOM     44  N   UNL     1      16.564   3.153   6.600  1.00  0.00    -0.248 NA
ATOM     45  C   UNL     1      16.681   4.562   4.796  1.00  0.00     0.031 C 
ATOM     46  C   UNL     1      13.487   2.423   6.987  1.00  0.00     0.029 A 
ATOM     47  N   UNL     1      12.864   1.356   5.109  1.00  0.00    -0.354 N 
ATOM     48  C   UNL     1      17.344   4.231   6.964  1.00  0.00     0.074 A 
ATOM     49  C   UNL     1      17.526   4.984   5.746  1.00  0.00     0.031 C 
ATOM     50  C   UNL     1      12.574   1.490   7.325  1.00  0.00     0.029 A 
ATOM     51  C   UNL     1      12.426   0.586   6.192  1.00  0.00     0.049 A 
ATOM     52  H   UNL     1      12.542   1.297   4.180  1.00  0.00     0.167 HD
ATOM     53  C   UNL     1      17.545   4.454   8.296  1.00  0.00     0.037 A 
ATOM     54  C   UNL     1      12.713  -0.750   6.190  1.00  0.00     0.037 A 
ATOM     55  C   UNL     1      16.787   3.467   9.067  1.00  0.00     0.049 A 
ATOM     56  C   UNL     1      13.715  -1.082   7.260  1.00  0.00     0.074 A 
ATOM     57  C   UNL     1      15.539   3.546   9.665  1.00  0.00     0.029 A 
ATOM     58  N   UNL     1      17.108   2.119   8.984  1.00  0.00    -0.354 N 
ATOM     59  N   UNL     1      14.605  -0.237   7.703  1.00  0.00    -0.248 NA
ATOM     60  C   UNL     1      13.733  -2.353   7.971  1.00  0.00     0.031 C 
ATOM     61  C   UNL     1      15.087   2.224   9.899  1.00  0.00     0.029 A 
ATOM     62  C   UNL     1      16.062   1.348   9.451  1.00  0.00     0.049 A 
ATOM     63  H   UNL     1      17.960   1.764   8.641  1.00  0.00     0.167 HD
ATOM     64  C   UNL     1      15.253  -0.790   8.773  1.00  0.00     0.074 A 
ATOM     65  C   UNL     1      14.690  -2.123   8.887  1.00  0.00     0.031 C 
ATOM     66  C   UNL     1      16.170  -0.099   9.512  1.00  0.00     0.037 A 
BRANCH  53  67
ATOM     67  C   UNL     1      18.110   5.701   8.952  1.00  0.00     0.064 A 
ATOM     68  C   UNL     1      17.878   5.941  10.330  1.00  0.00     0.173 A 
ATOM     69  C   UNL     1      18.864   6.700   8.310  1.00  0.00     0.173 A 
ATOM     70  F   UNL     1      17.268   5.038  11.109  1.00  0.00    -0.203 F 
ATOM     71  C   UNL     1      18.276   7.114  10.976  1.00  0.00     0.198 A 
ATOM     72  C   UNL     1      19.248   7.885   8.954  1.00  0.00     0.198 A 
ATOM     73  F   UNL     1      19.305   6.554   7.058  1.00  0.00    -0.203 F 
ATOM     74  F   UNL     1      18.001   7.280  12.277  1.00  0.00    -0.200 F 
ATOM     75  C   UNL     1      18.944   8.097  10.283  1.00  0.00     0.200 A 
ATOM     76  F   UNL     1      19.927   8.819   8.272  1.00  0.00    -0.200 F 
ATOM     77  F   UNL     1      19.317   9.227  10.897  1.00  0.00    -0.200 F 
ENDBRANCH  53  67
BRANCH  54  78
ATOM     78  C   UNL     1      12.648  -1.330   4.810  1.00  0.00     0.064 A 
ATOM     79  C   UNL     1      11.377  -1.359   4.201  1.00  0.00     0.173 A 
ATOM     80  C   UNL     1      13.767  -1.352   3.962  1.00  0.00     0.173 A 
ATOM     81  F   UNL     1      10.271  -1.355   4.964  1.00  0.00    -0.203 F 
ATOM     82  C   UNL     1      11.229  -1.231   2.821  1.00  0.00     0.198 A 
ATOM     83  C   UNL     1      13.613  -1.244   2.574  1.00  0.00     0.198 A 
ATOM     84  F   UNL     1      15.006  -1.342   4.473  1.00  0.00    -0.203 F 
ATOM     85  F   UNL     1      10.004  -1.103   2.290  1.00  0.00    -0.200 F 
ATOM     86  C   UNL     1      12.348  -1.132   2.012  1.00  0.00     0.200 A 
ATOM     87  F   UNL     1      14.694  -1.164   1.786  1.00  0.00    -0.200 F 
ATOM     88  F   UNL     1      12.205  -0.889   0.702  1.00  0.00    -0.200 F 
ENDBRANCH  54  78
BRANCH  66  89
ATOM     89  C   UNL     1      17.164  -0.702  10.469  1.00  0.00     0.064 A 
ATOM     90  C   UNL     1      17.604  -2.032  10.389  1.00  0.00     0.173 A 
ATOM     91  C   UNL     1      17.838   0.107  11.419  1.00  0.00     0.173 A 
ATOM     92  F   UNL     1      17.156  -2.861   9.438  1.00  0.00    -0.203 F 
ATOM     93  C   UNL     1      18.574  -2.539  11.253  1.00  0.00     0.198 A 
ATOM     94  C   UNL     1      18.860  -0.384  12.225  1.00  0.00     0.198 A 
ATOM     95  F   UNL     1      17.555   1.408  11.574  1.00  0.00    -0.203 F 
ATOM     96  F   UNL     1      18.912  -3.834  11.177  1.00  0.00    -0.200 F 
ATOM     97  C   UNL     1      19.209  -1.715  12.162  1.00  0.00     0.200 A 
ATOM     98  F   UNL     1      19.515   0.448  13.047  1.00  0.00    -0.200 F 
ATOM     99  F   UNL     1      20.171  -2.197  12.959  1.00  0.00    -0.200 F 
ENDBRANCH  66  89
ENDBRANCH  40  41
ENDBRANCH  32  35
ENDBRANCH  30  31
ENDBRANCH  29  30
ENDBRANCH   1  29
TORSDOF 14
