REMARK SMILES O=C(NCCCCNC(=O)[C@H]1CC[C@@H](CNc2nncs2)CC1)c1ccc(-c2c3nc(c(-c4c(F)c(F)c(F)c(F)c4F)c4ccc([nH]4)c(-c4c(F)c(F)c(F)c(F)c4F)c4nc(c(-c5c(F)c(F)c(F)c(F)c5F)c5ccc2[nH]5)C=C4)C=C3)cc1
REMARK SMILES IDX 6 1 5 2 4 3 3 4 1 5 2 6 24 8 25 9 86 10 26 11 85 12 27 13
REMARK SMILES IDX 28 14 29 15 79 16 30 17 84 18 78 19 80 20 31 21 83 22 77 23
REMARK SMILES IDX 76 24 32 26 64 27 44 28 63 29 45 30 48 31 62 32 81 33 46 34
REMARK SMILES IDX 47 35 61 37 82 38 49 39 33 40 34 41 42 42 35 43 36 44 40 45
REMARK SMILES IDX 43 46 37 47 38 48 41 49 39 50 65 51 66 52 74 53 67 54 68 55
REMARK SMILES IDX 72 56 75 57 69 58 70 59 73 60 71 61 50 62 51 63 59 64 52 65
REMARK SMILES IDX 53 66 57 67 60 68 54 69 55 70 58 71 56 72 7 73 8 74 9 75
REMARK SMILES IDX 10 77 11 78 23 79 12 80 22 81 13 82 14 83 15 84 16 85 17 87
REMARK SMILES IDX 18 88 21 89 19 90 20 91
REMARK H PARENT 3 7 80 25 48 36 8 76 16 86
REMARK Flexibility Score: inf
ROOT
ATOM      1  C   UNL     1       4.418   0.203  -3.744  1.00  0.00     0.023 C 
ENDROOT
BRANCH   1   2
ATOM      2  C   UNL     1       4.779  -0.722  -2.583  1.00  0.00     0.023 C 
BRANCH   2   3
ATOM      3  C   UNL     1       4.450  -0.168  -1.205  1.00  0.00     0.116 C 
BRANCH   3   4
ATOM      4  N   UNL     1       3.037   0.125  -1.017  1.00  0.00    -0.352 N 
ATOM      5  O   UNL     1       1.097   0.228   0.142  1.00  0.00    -0.269 OA
ATOM      6  C   UNL     1       2.307   0.049   0.146  1.00  0.00     0.251 C 
ATOM      7  H   UNL     1       2.545   0.412  -1.820  1.00  0.00     0.163 HD
BRANCH   6   8
ATOM      8  C   UNL     1       3.007  -0.299   1.400  1.00  0.00     0.039 A 
ATOM      9  C   UNL     1       4.185   0.363   1.752  1.00  0.00     0.014 A 
ATOM     10  C   UNL     1       2.507  -1.332   2.196  1.00  0.00     0.014 A 
ATOM     11  C   UNL     1       4.940  -0.105   2.818  1.00  0.00     0.010 A 
ATOM     12  C   UNL     1       3.228  -1.746   3.319  1.00  0.00     0.010 A 
ATOM     13  C   UNL     1       4.465  -1.158   3.618  1.00  0.00    -0.014 A 
BRANCH  13  14
ATOM     14  C   UNL     1       5.267  -1.579   4.792  1.00  0.00     0.031 A 
ATOM     15  C   UNL     1       5.913  -2.933   4.851  1.00  0.00     0.074 A 
ATOM     16  C   UNL     1       5.450  -0.692   5.789  1.00  0.00     0.049 A 
ATOM     17  N   UNL     1       6.678  -3.439   5.785  1.00  0.00    -0.248 NA
ATOM     18  C   UNL     1       5.668  -3.841   3.720  1.00  0.00     0.031 C 
ATOM     19  C   UNL     1       4.858   0.647   5.839  1.00  0.00     0.029 A 
ATOM     20  N   UNL     1       6.201  -0.767   6.932  1.00  0.00    -0.354 N 
ATOM     21  C   UNL     1       6.996  -4.723   5.364  1.00  0.00     0.074 A 
ATOM     22  C   UNL     1       6.321  -4.931   4.100  1.00  0.00     0.031 C 
ATOM     23  C   UNL     1       5.307   1.285   6.928  1.00  0.00     0.029 A 
ATOM     24  C   UNL     1       6.171   0.383   7.681  1.00  0.00     0.049 A 
ATOM     25  H   UNL     1       6.712  -1.568   7.191  1.00  0.00     0.167 HD
ATOM     26  C   UNL     1       7.788  -5.638   5.974  1.00  0.00     0.037 A 
ATOM     27  C   UNL     1       6.765   0.676   8.851  1.00  0.00     0.037 A 
ATOM     28  C   UNL     1       8.464  -5.420   7.228  1.00  0.00     0.049 A 
ATOM     29  C   UNL     1       7.635  -0.358   9.502  1.00  0.00     0.074 A 
ATOM     30  C   UNL     1       9.287  -6.284   7.929  1.00  0.00     0.029 A 
ATOM     31  N   UNL     1       8.397  -4.247   7.966  1.00  0.00    -0.354 N 
ATOM     32  N   UNL     1       7.933  -1.565   9.088  1.00  0.00    -0.248 NA
ATOM     33  C   UNL     1       8.250   0.009  10.784  1.00  0.00     0.031 C 
ATOM     34  C   UNL     1       9.694  -5.646   9.106  1.00  0.00     0.029 A 
ATOM     35  C   UNL     1       9.157  -4.369   9.119  1.00  0.00     0.049 A 
ATOM     36  H   UNL     1       7.886  -3.446   7.710  1.00  0.00     0.167 HD
ATOM     37  C   UNL     1       8.772  -2.101  10.053  1.00  0.00     0.074 A 
ATOM     38  C   UNL     1       8.961  -1.075  11.058  1.00  0.00     0.031 C 
ATOM     39  C   UNL     1       9.327  -3.336  10.108  1.00  0.00     0.037 A 
BRANCH  26  40
ATOM     40  C   UNL     1       7.965  -6.968   5.301  1.00  0.00     0.064 A 
ATOM     41  C   UNL     1       8.762  -7.109   4.156  1.00  0.00     0.173 A 
ATOM     42  C   UNL     1       7.380  -8.124   5.840  1.00  0.00     0.173 A 
ATOM     43  F   UNL     1       9.333  -6.033   3.594  1.00  0.00    -0.203 F 
ATOM     44  C   UNL     1       8.956  -8.356   3.567  1.00  0.00     0.198 A 
ATOM     45  C   UNL     1       7.594  -9.373   5.262  1.00  0.00     0.198 A 
ATOM     46  F   UNL     1       6.612  -8.044   6.938  1.00  0.00    -0.203 F 
ATOM     47  F   UNL     1       9.696  -8.463   2.454  1.00  0.00    -0.200 F 
ATOM     48  C   UNL     1       8.379  -9.488   4.125  1.00  0.00     0.200 A 
ATOM     49  F   UNL     1       7.044 -10.466   5.808  1.00  0.00    -0.200 F 
ATOM     50  F   UNL     1       8.575 -10.688   3.562  1.00  0.00    -0.200 F 
ENDBRANCH  26  40
BRANCH  27  51
ATOM     51  C   UNL     1       6.548   2.006   9.472  1.00  0.00     0.064 A 
ATOM     52  C   UNL     1       7.582   2.949   9.544  1.00  0.00     0.173 A 
ATOM     53  C   UNL     1       5.295   2.368   9.987  1.00  0.00     0.173 A 
ATOM     54  F   UNL     1       8.802   2.642   9.080  1.00  0.00    -0.203 F 
ATOM     55  C   UNL     1       7.374   4.199  10.123  1.00  0.00     0.198 A 
ATOM     56  C   UNL     1       5.080   3.629  10.538  1.00  0.00     0.198 A 
ATOM     57  F   UNL     1       4.271   1.503   9.933  1.00  0.00    -0.203 F 
ATOM     58  F   UNL     1       8.389   5.069  10.215  1.00  0.00    -0.200 F 
ATOM     59  C   UNL     1       6.122   4.540  10.612  1.00  0.00     0.200 A 
ATOM     60  F   UNL     1       3.864   3.960  10.992  1.00  0.00    -0.200 F 
ATOM     61  F   UNL     1       5.920   5.747  11.159  1.00  0.00    -0.200 F 
ENDBRANCH  27  51
BRANCH  39  62
ATOM     62  C   UNL     1      10.198  -3.630  11.292  1.00  0.00     0.064 A 
ATOM     63  C   UNL     1       9.650  -3.846  12.565  1.00  0.00     0.173 A 
ATOM     64  C   UNL     1      11.591  -3.707  11.150  1.00  0.00     0.173 A 
ATOM     65  F   UNL     1       8.324  -3.764  12.752  1.00  0.00    -0.203 F 
ATOM     66  C   UNL     1      10.470  -4.098  13.661  1.00  0.00     0.198 A 
ATOM     67  C   UNL     1      12.405  -3.985  12.244  1.00  0.00     0.198 A 
ATOM     68  F   UNL     1      12.161  -3.511   9.951  1.00  0.00    -0.203 F 
ATOM     69  F   UNL     1       9.930  -4.250  14.878  1.00  0.00    -0.200 F 
ATOM     70  C   UNL     1      11.846  -4.172  13.499  1.00  0.00     0.200 A 
ATOM     71  F   UNL     1      13.734  -4.062  12.085  1.00  0.00    -0.200 F 
ATOM     72  F   UNL     1      12.634  -4.412  14.556  1.00  0.00    -0.200 F 
ENDBRANCH  39  62
ENDBRANCH  13  14
ENDBRANCH   6   8
ENDBRANCH   3   4
ENDBRANCH   2   3
ENDBRANCH   1   2
BRANCH   1  73
ATOM     73  C   UNL     1       5.153   1.544  -3.741  1.00  0.00     0.116 C 
BRANCH  73  74
ATOM     74  N   UNL     1       6.532   1.391  -4.155  1.00  0.00    -0.356 N 
ATOM     75  C   UNL     1       7.121   1.541  -5.371  1.00  0.00     0.223 C 
ATOM     76  H   UNL     1       7.149   1.134  -3.432  1.00  0.00     0.163 HD
ATOM     77  O   UNL     1       8.321   1.262  -5.452  1.00  0.00    -0.275 OA
BRANCH  75  78
ATOM     78  C   UNL     1       6.378   2.091  -6.588  1.00  0.00     0.078 C 
ATOM     79  C   UNL     1       5.145   1.286  -7.011  1.00  0.00     0.014 C 
ATOM     80  C   UNL     1       6.108   3.592  -6.432  1.00  0.00     0.014 C 
ATOM     81  C   UNL     1       4.410   1.914  -8.194  1.00  0.00     0.006 C 
ATOM     82  C   UNL     1       5.371   4.163  -7.640  1.00  0.00     0.006 C 
ATOM     83  C   UNL     1       4.077   3.400  -7.973  1.00  0.00     0.008 C 
BRANCH  83  84
ATOM     84  C   UNL     1       2.957   3.588  -6.923  1.00  0.00     0.119 C 
BRANCH  84  85
ATOM     85  N   UNL     1       2.496   4.959  -6.922  1.00  0.00    -0.360 N 
ATOM     86  H   UNL     1       3.159   5.654  -7.138  1.00  0.00     0.162 HD
BRANCH  85  87
ATOM     87  C   UNL     1       1.238   5.372  -6.650  1.00  0.00     0.205 A 
ATOM     88  N   UNL     1       0.882   6.636  -6.772  1.00  0.00    -0.121 NA
ATOM     89  S   UNL     1      -0.061   4.364  -6.123  1.00  0.00    -0.083 S 
ATOM     90  N   UNL     1      -0.451   6.860  -6.498  1.00  0.00    -0.145 NA
ATOM     91  C   UNL     1      -1.062   5.751  -6.152  1.00  0.00     0.204 A 
ENDBRANCH  85  87
ENDBRANCH  84  85
ENDBRANCH  83  84
ENDBRANCH  75  78
ENDBRANCH  73  74
ENDBRANCH   1  73
TORSDOF 14
