REMARK SMILES CN(Cc1ccc(C(=O)NCCCCNC(=O)c2ccc(-c3c4nc(c(-c5c(F)c(F)c(F)c(F)c5F)c5ccc([nH]5)c(-c5c(F)c(F)c(F)c(F)c5F)c5nc(c(-c6c(F)c(F)c(F)c(F)c6F)c6ccc3[nH]6)C=C5)C=C4)cc2)cc1)c1ccccc1N
REMARK SMILES IDX 11 1 10 2 8 3 9 4 7 6 4 7 5 8 82 9 6 10 81 11 3 12 2 13 1 14
REMARK SMILES IDX 83 15 84 16 88 17 85 18 87 19 86 20 89 21 12 24 13 25 14 26
REMARK SMILES IDX 15 27 16 28 17 30 18 31 19 32 80 33 20 34 79 35 21 36 22 37
REMARK SMILES IDX 23 38 73 39 24 40 78 41 72 42 74 43 25 44 77 45 71 46 70 47
REMARK SMILES IDX 26 49 58 50 38 51 57 52 39 53 42 54 56 55 75 56 40 57 41 58
REMARK SMILES IDX 55 60 76 61 43 62 27 63 28 64 36 65 29 66 30 67 34 68 37 69
REMARK SMILES IDX 31 70 32 71 35 72 33 73 59 74 60 75 68 76 61 77 62 78 66 79
REMARK SMILES IDX 69 80 63 81 64 82 67 83 65 84 44 85 45 86 53 87 46 88 47 89
REMARK SMILES IDX 51 90 54 91 48 92 49 93 52 94 50 95
REMARK H PARENT 10 5 89 22 89 23 15 29 74 48 42 59
REMARK Flexibility Score: inf
ROOT
ATOM      1  C   UNL     1      -4.286  -4.788   2.249  1.00  0.00     0.116 C 
ENDROOT
BRANCH   1   2
ATOM      2  N   UNL     1      -5.314  -3.857   2.684  1.00  0.00    -0.352 N 
ATOM      3  C   UNL     1      -5.229  -2.510   2.953  1.00  0.00     0.251 C 
ATOM      4  O   UNL     1      -6.253  -1.869   3.172  1.00  0.00    -0.269 OA
ATOM      5  H   UNL     1      -6.209  -4.250   2.805  1.00  0.00     0.163 HD
BRANCH   3   6
ATOM      6  C   UNL     1      -3.923  -1.815   2.908  1.00  0.00     0.039 A 
ATOM      7  C   UNL     1      -1.420  -0.607   2.530  1.00  0.00    -0.029 A 
ATOM      8  C   UNL     1      -2.566  -0.065   1.929  1.00  0.00     0.006 A 
ATOM      9  C   UNL     1      -1.565  -1.690   3.413  1.00  0.00     0.006 A 
ATOM     10  C   UNL     1      -3.815  -0.661   2.125  1.00  0.00     0.014 A 
ATOM     11  C   UNL     1      -2.810  -2.290   3.603  1.00  0.00     0.014 A 
BRANCH   7  12
ATOM     12  C   UNL     1      -0.036  -0.123   2.141  1.00  0.00     0.151 C 
BRANCH  12  13
ATOM     13  N   UNL     1       0.428  -0.796   0.926  1.00  0.00    -0.369 N 
ATOM     14  C   UNL     1       0.670  -0.040  -0.286  1.00  0.00     0.144 C 
BRANCH  13  15
ATOM     15  C   UNL     1       0.954  -2.084   1.037  1.00  0.00     0.060 A 
ATOM     16  C   UNL     1       0.064  -3.174   1.047  1.00  0.00     0.028 A 
ATOM     17  C   UNL     1       2.337  -2.352   1.155  1.00  0.00     0.055 A 
ATOM     18  C   UNL     1       0.505  -4.481   1.256  1.00  0.00     0.002 A 
ATOM     19  C   UNL     1       2.769  -3.671   1.360  1.00  0.00     0.027 A 
ATOM     20  C   UNL     1       1.860  -4.729   1.420  1.00  0.00     0.002 A 
BRANCH  17  21
ATOM     21  N   UNL     1       3.279  -1.326   1.226  1.00  0.00    -0.397 N 
ATOM     22  H   UNL     1       3.001  -0.392   1.086  1.00  0.00     0.156 HD
ATOM     23  H   UNL     1       4.222  -1.535   1.416  1.00  0.00     0.156 HD
ENDBRANCH  17  21
ENDBRANCH  13  15
ENDBRANCH  12  13
ENDBRANCH   7  12
ENDBRANCH   3   6
ENDBRANCH   1   2
BRANCH   1  24
ATOM     24  C   UNL     1      -3.910  -5.772   3.357  1.00  0.00     0.023 C 
BRANCH  24  25
ATOM     25  C   UNL     1      -4.991  -6.806   3.687  1.00  0.00     0.023 C 
BRANCH  25  26
ATOM     26  C   UNL     1      -5.333  -7.777   2.562  1.00  0.00     0.116 C 
BRANCH  26  27
ATOM     27  N   UNL     1      -4.202  -8.590   2.142  1.00  0.00    -0.352 N 
ATOM     28  C   UNL     1      -4.164  -9.925   1.820  1.00  0.00     0.251 C 
ATOM     29  H   UNL     1      -3.341  -8.116   2.079  1.00  0.00     0.163 HD
ATOM     30  O   UNL     1      -3.090 -10.475   1.593  1.00  0.00    -0.269 OA
BRANCH  28  31
ATOM     31  C   UNL     1      -5.415 -10.713   1.784  1.00  0.00     0.039 A 
ATOM     32  C   UNL     1      -5.442 -11.962   2.411  1.00  0.00     0.014 A 
ATOM     33  C   UNL     1      -6.559 -10.222   1.148  1.00  0.00     0.014 A 
ATOM     34  C   UNL     1      -6.635 -12.686   2.464  1.00  0.00     0.010 A 
ATOM     35  C   UNL     1      -7.763 -10.912   1.261  1.00  0.00     0.010 A 
ATOM     36  C   UNL     1      -7.814 -12.148   1.924  1.00  0.00    -0.014 A 
BRANCH  36  37
ATOM     37  C   UNL     1      -9.113 -12.858   2.052  1.00  0.00     0.031 A 
ATOM     38  C   UNL     1      -9.829 -13.354   0.827  1.00  0.00     0.074 A 
ATOM     39  C   UNL     1      -9.682 -12.990   3.266  1.00  0.00     0.049 A 
ATOM     40  N   UNL     1     -11.002 -13.926   0.728  1.00  0.00    -0.248 NA
ATOM     41  C   UNL     1      -9.147 -13.157  -0.462  1.00  0.00     0.031 C 
ATOM     42  C   UNL     1      -9.111 -12.508   4.524  1.00  0.00     0.029 A 
ATOM     43  N   UNL     1     -10.875 -13.559   3.639  1.00  0.00    -0.354 N 
ATOM     44  C   UNL     1     -11.205 -14.141  -0.629  1.00  0.00     0.074 A 
ATOM     45  C   UNL     1     -10.057 -13.594  -1.319  1.00  0.00     0.031 C 
ATOM     46  C   UNL     1      -9.943 -12.818   5.532  1.00  0.00     0.029 A 
ATOM     47  C   UNL     1     -11.121 -13.487   4.989  1.00  0.00     0.049 A 
ATOM     48  H   UNL     1     -11.495 -13.979   3.000  1.00  0.00     0.167 HD
ATOM     49  C   UNL     1     -12.243 -14.759  -1.241  1.00  0.00     0.037 A 
ATOM     50  C   UNL     1     -12.181 -13.906   5.705  1.00  0.00     0.037 A 
ATOM     51  C   UNL     1     -13.370 -15.327  -0.549  1.00  0.00     0.049 A 
ATOM     52  C   UNL     1     -13.323 -14.586   4.999  1.00  0.00     0.074 A 
ATOM     53  C   UNL     1     -14.440 -16.032  -1.074  1.00  0.00     0.029 A 
ATOM     54  N   UNL     1     -13.575 -15.253   0.821  1.00  0.00    -0.354 N 
ATOM     55  N   UNL     1     -13.469 -14.850   3.724  1.00  0.00    -0.248 NA
ATOM     56  C   UNL     1     -14.446 -15.033   5.836  1.00  0.00     0.031 C 
ATOM     57  C   UNL     1     -15.314 -16.345  -0.028  1.00  0.00     0.029 A 
ATOM     58  C   UNL     1     -14.765 -15.879   1.156  1.00  0.00     0.049 A 
ATOM     59  H   UNL     1     -12.965 -14.819   1.461  1.00  0.00     0.167 HD
ATOM     60  C   UNL     1     -14.680 -15.519   3.608  1.00  0.00     0.074 A 
ATOM     61  C   UNL     1     -15.224 -15.633   4.945  1.00  0.00     0.031 C 
ATOM     62  C   UNL     1     -15.287 -15.995   2.494  1.00  0.00     0.037 A 
BRANCH  49  63
ATOM     63  C   UNL     1     -12.209 -14.858  -2.738  1.00  0.00     0.064 A 
ATOM     64  C   UNL     1     -11.297 -15.696  -3.399  1.00  0.00     0.173 A 
ATOM     65  C   UNL     1     -13.124 -14.139  -3.521  1.00  0.00     0.173 A 
ATOM     66  F   UNL     1     -10.394 -16.397  -2.698  1.00  0.00    -0.203 F 
ATOM     67  C   UNL     1     -11.285 -15.788  -4.788  1.00  0.00     0.198 A 
ATOM     68  C   UNL     1     -13.129 -14.256  -4.909  1.00  0.00     0.198 A 
ATOM     69  F   UNL     1     -14.021 -13.328  -2.940  1.00  0.00    -0.203 F 
ATOM     70  F   UNL     1     -10.374 -16.558  -5.399  1.00  0.00    -0.200 F 
ATOM     71  C   UNL     1     -12.205 -15.074  -5.541  1.00  0.00     0.200 A 
ATOM     72  F   UNL     1     -14.028 -13.577  -5.635  1.00  0.00    -0.200 F 
ATOM     73  F   UNL     1     -12.197 -15.171  -6.878  1.00  0.00    -0.200 F 
ENDBRANCH  49  63
BRANCH  50  74
ATOM     74  C   UNL     1     -12.205 -13.717   7.179  1.00  0.00     0.064 A 
ATOM     75  C   UNL     1     -12.107 -14.815   8.045  1.00  0.00     0.173 A 
ATOM     76  C   UNL     1     -12.339 -12.444   7.753  1.00  0.00     0.173 A 
ATOM     77  F   UNL     1     -12.000 -16.055   7.544  1.00  0.00    -0.203 F 
ATOM     78  C   UNL     1     -12.165 -14.650   9.428  1.00  0.00     0.198 A 
ATOM     79  C   UNL     1     -12.367 -12.277   9.136  1.00  0.00     0.198 A 
ATOM     80  F   UNL     1     -12.432 -11.360   6.968  1.00  0.00    -0.203 F 
ATOM     81  F   UNL     1     -12.118 -15.722  10.230  1.00  0.00    -0.200 F 
ATOM     82  C   UNL     1     -12.289 -13.381   9.972  1.00  0.00     0.200 A 
ATOM     83  F   UNL     1     -12.474 -11.048   9.658  1.00  0.00    -0.200 F 
ATOM     84  F   UNL     1     -12.343 -13.222  11.301  1.00  0.00    -0.200 F 
ENDBRANCH  50  74
BRANCH  62  85
ATOM     85  C   UNL     1     -16.590 -16.717   2.675  1.00  0.00     0.064 A 
ATOM     86  C   UNL     1     -17.770 -16.036   3.010  1.00  0.00     0.173 A 
ATOM     87  C   UNL     1     -16.666 -18.104   2.473  1.00  0.00     0.173 A 
ATOM     88  F   UNL     1     -17.747 -14.713   3.229  1.00  0.00    -0.203 F 
ATOM     89  C   UNL     1     -18.973 -16.721   3.159  1.00  0.00     0.198 A 
ATOM     90  C   UNL     1     -17.877 -18.780   2.593  1.00  0.00     0.198 A 
ATOM     91  F   UNL     1     -15.568 -18.800   2.145  1.00  0.00    -0.203 F 
ATOM     92  F   UNL     1     -20.079 -16.057   3.525  1.00  0.00    -0.200 F 
ATOM     93  C   UNL     1     -19.027 -18.090   2.943  1.00  0.00     0.200 A 
ATOM     94  F   UNL     1     -17.929 -20.101   2.370  1.00  0.00    -0.200 F 
ATOM     95  F   UNL     1     -20.188 -18.746   3.079  1.00  0.00    -0.200 F 
ENDBRANCH  62  85
ENDBRANCH  36  37
ENDBRANCH  28  31
ENDBRANCH  26  27
ENDBRANCH  25  26
ENDBRANCH  24  25
ENDBRANCH   1  24
TORSDOF 15
