REMARK SMILES CC(C)(Cn1ccc(=O)nc1SCC(=O)NCCCCNC(=O)c1ccc(-c2c3nc(c(-c4c(F)c(F)c(F)c(F)c4F)c4ccc([nH]4)c(-c4c(F)c(F)c(F)c(F)c4F)c4nc(c(-c5c(F)c(F)c(F)c(F)c5F)c5ccc2[nH]5)C=C4)C=C3)cc1)S(C)(=O)=O
REMARK SMILES IDX 17 1 16 2 14 3 15 4 13 6 12 7 11 8 5 9 6 10 7 11 10 12 8 13
REMARK SMILES IDX 9 14 4 15 2 16 1 17 3 18 87 19 88 20 89 21 90 22 18 23 19 24
REMARK SMILES IDX 20 25 21 26 22 27 23 29 24 30 25 31 86 32 26 33 85 34 27 35
REMARK SMILES IDX 28 36 29 37 79 38 30 39 84 40 78 41 80 42 31 43 83 44 77 45
REMARK SMILES IDX 76 46 32 48 64 49 44 50 63 51 45 52 48 53 62 54 81 55 46 56
REMARK SMILES IDX 47 57 61 59 82 60 49 61 33 62 34 63 42 64 35 65 36 66 40 67
REMARK SMILES IDX 43 68 37 69 38 70 41 71 39 72 65 73 66 74 74 75 67 76 68 77
REMARK SMILES IDX 72 78 75 79 69 80 70 81 73 82 71 83 50 84 51 85 59 86 52 87
REMARK SMILES IDX 53 88 57 89 60 90 54 91 55 92 58 93 56 94
REMARK H PARENT 16 5 21 28 80 47 48 58
REMARK Flexibility Score: inf
ROOT
ATOM      1  C   UNL     1       3.030   0.867  -3.680  1.00  0.00     0.116 C 
ENDROOT
BRANCH   1   2
ATOM      2  N   UNL     1       2.019  -0.188  -3.494  1.00  0.00    -0.355 N 
ATOM      3  C   UNL     1       0.692  -0.405  -3.756  1.00  0.00     0.230 C 
ATOM      4  O   UNL     1       0.372  -1.593  -3.570  1.00  0.00    -0.274 OA
ATOM      5  H   UNL     1       2.415  -0.971  -3.047  1.00  0.00     0.163 HD
BRANCH   3   6
ATOM      6  C   UNL     1      -0.381   0.598  -4.249  1.00  0.00     0.178 C 
BRANCH   6   7
ATOM      7  S   UNL     1      -2.083   0.119  -3.672  1.00  0.00    -0.078 SA
BRANCH   7   8
ATOM      8  C   UNL     1      -2.570   1.056  -2.236  1.00  0.00     0.172 A 
ATOM      9  N   UNL     1      -2.291   0.590  -0.941  1.00  0.00    -0.326 N 
ATOM     10  C   UNL     1      -3.051   1.083   0.105  1.00  0.00     0.094 A 
ATOM     11  C   UNL     1      -3.860   2.128  -0.051  1.00  0.00     0.091 A 
ATOM     12  N   UNL     1      -3.369   2.055  -2.469  1.00  0.00    -0.185 NA
ATOM     13  C   UNL     1      -3.898   2.755  -1.398  1.00  0.00     0.273 A 
ATOM     14  O   UNL     1      -4.460   3.843  -1.500  1.00  0.00    -0.267 OA
BRANCH   9  15
ATOM     15  C   UNL     1      -1.092  -0.157  -0.617  1.00  0.00     0.146 C 
BRANCH  15  16
ATOM     16  C   UNL     1       0.085   0.718  -0.086  1.00  0.00     0.084 C 
ATOM     17  C   UNL     1       0.052   0.975   1.424  1.00  0.00     0.030 C 
ATOM     18  C   UNL     1       1.325  -0.156  -0.314  1.00  0.00     0.030 C 
BRANCH  16  19
ATOM     19  S   UNL     1       0.116   2.411  -0.890  1.00  0.00     0.154 S 
ATOM     20  C   UNL     1       1.372   3.409  -0.130  1.00  0.00     0.158 C 
ATOM     21  O   UNL     1       0.485   2.276  -2.275  1.00  0.00    -0.229 OA
ATOM     22  O   UNL     1      -1.098   3.138  -0.570  1.00  0.00    -0.229 OA
ENDBRANCH  16  19
ENDBRANCH  15  16
ENDBRANCH   9  15
ENDBRANCH   7   8
ENDBRANCH   6   7
ENDBRANCH   3   6
ENDBRANCH   1   2
BRANCH   1  23
ATOM     23  C   UNL     1       3.398   1.731  -2.456  1.00  0.00     0.023 C 
BRANCH  23  24
ATOM     24  C   UNL     1       4.336   1.268  -1.342  1.00  0.00     0.023 C 
BRANCH  24  25
ATOM     25  C   UNL     1       5.831   1.292  -1.555  1.00  0.00     0.116 C 
BRANCH  25  26
ATOM     26  N   UNL     1       6.407   2.573  -1.924  1.00  0.00    -0.352 N 
ATOM     27  C   UNL     1       7.562   3.191  -1.477  1.00  0.00     0.251 C 
ATOM     28  H   UNL     1       5.898   3.080  -2.597  1.00  0.00     0.163 HD
ATOM     29  O   UNL     1       7.886   4.277  -1.949  1.00  0.00    -0.269 OA
BRANCH  27  30
ATOM     30  C   UNL     1       8.373   2.599  -0.378  1.00  0.00     0.039 A 
ATOM     31  C   UNL     1       8.505   1.223  -0.234  1.00  0.00     0.014 A 
ATOM     32  C   UNL     1       8.966   3.438   0.573  1.00  0.00     0.014 A 
ATOM     33  C   UNL     1       8.945   0.695   0.971  1.00  0.00     0.010 A 
ATOM     34  C   UNL     1       9.575   2.894   1.715  1.00  0.00     0.010 A 
ATOM     35  C   UNL     1       9.507   1.516   1.961  1.00  0.00    -0.014 A 
BRANCH  35  36
ATOM     36  C   UNL     1      10.024   0.880   3.208  1.00  0.00     0.031 A 
ATOM     37  C   UNL     1       9.510   1.276   4.569  1.00  0.00     0.074 A 
ATOM     38  C   UNL     1      10.910  -0.134   3.098  1.00  0.00     0.049 A 
ATOM     39  N   UNL     1       9.829   0.784   5.742  1.00  0.00    -0.248 NA
ATOM     40  C   UNL     1       8.522   2.365   4.636  1.00  0.00     0.031 C 
ATOM     41  C   UNL     1      11.492  -0.606   1.838  1.00  0.00     0.029 A 
ATOM     42  N   UNL     1      11.442  -0.982   4.038  1.00  0.00    -0.354 N 
ATOM     43  C   UNL     1       9.117   1.525   6.678  1.00  0.00     0.074 A 
ATOM     44  C   UNL     1       8.356   2.510   5.945  1.00  0.00     0.031 C 
ATOM     45  C   UNL     1      12.217  -1.707   2.068  1.00  0.00     0.029 A 
ATOM     46  C   UNL     1      12.243  -1.963   3.502  1.00  0.00     0.049 A 
ATOM     47  H   UNL     1      11.267  -0.895   5.003  1.00  0.00     0.167 HD
ATOM     48  C   UNL     1       9.098   1.386   8.025  1.00  0.00     0.037 A 
ATOM     49  C   UNL     1      12.947  -2.948   4.092  1.00  0.00     0.037 A 
ATOM     50  C   UNL     1       9.814   0.366   8.747  1.00  0.00     0.049 A 
ATOM     51  C   UNL     1      12.906  -3.072   5.587  1.00  0.00     0.074 A 
ATOM     52  C   UNL     1       9.812   0.117  10.109  1.00  0.00     0.029 A 
ATOM     53  N   UNL     1      10.651  -0.575   8.169  1.00  0.00    -0.354 N 
ATOM     54  N   UNL     1      12.213  -2.373   6.450  1.00  0.00    -0.248 NA
ATOM     55  C   UNL     1      13.758  -4.104   6.193  1.00  0.00     0.031 C 
ATOM     56  C   UNL     1      10.683  -0.944  10.361  1.00  0.00     0.029 A 
ATOM     57  C   UNL     1      11.191  -1.389   9.151  1.00  0.00     0.049 A 
ATOM     58  H   UNL     1      10.835  -0.653   7.205  1.00  0.00     0.167 HD
ATOM     59  C   UNL     1      12.539  -2.880   7.699  1.00  0.00     0.074 A 
ATOM     60  C   UNL     1      13.473  -3.964   7.481  1.00  0.00     0.031 C 
ATOM     61  C   UNL     1      12.110  -2.472   8.916  1.00  0.00     0.037 A 
BRANCH  48  62
ATOM     62  C   UNL     1       8.280   2.350   8.836  1.00  0.00     0.064 A 
ATOM     63  C   UNL     1       6.882   2.263   8.893  1.00  0.00     0.173 A 
ATOM     64  C   UNL     1       8.915   3.288   9.667  1.00  0.00     0.173 A 
ATOM     65  F   UNL     1       6.228   1.389   8.115  1.00  0.00    -0.203 F 
ATOM     66  C   UNL     1       6.150   3.079   9.753  1.00  0.00     0.198 A 
ATOM     67  C   UNL     1       8.181   4.085  10.542  1.00  0.00     0.198 A 
ATOM     68  F   UNL     1      10.251   3.403   9.657  1.00  0.00    -0.203 F 
ATOM     69  F   UNL     1       4.813   2.988   9.783  1.00  0.00    -0.200 F 
ATOM     70  C   UNL     1       6.800   3.979  10.585  1.00  0.00     0.200 A 
ATOM     71  F   UNL     1       8.813   4.941  11.357  1.00  0.00    -0.200 F 
ATOM     72  F   UNL     1       6.094   4.742  11.432  1.00  0.00    -0.200 F 
ENDBRANCH  48  62
BRANCH  49  73
ATOM     73  C   UNL     1      13.765  -3.869   3.260  1.00  0.00     0.064 A 
ATOM     74  C   UNL     1      13.434  -5.224   3.139  1.00  0.00     0.173 A 
ATOM     75  C   UNL     1      14.875  -3.402   2.538  1.00  0.00     0.173 A 
ATOM     76  F   UNL     1      12.393  -5.723   3.821  1.00  0.00    -0.203 F 
ATOM     77  C   UNL     1      14.184  -6.079   2.333  1.00  0.00     0.198 A 
ATOM     78  C   UNL     1      15.603  -4.249   1.706  1.00  0.00     0.198 A 
ATOM     79  F   UNL     1      15.231  -2.111   2.613  1.00  0.00    -0.203 F 
ATOM     80  F   UNL     1      13.866  -7.378   2.260  1.00  0.00    -0.200 F 
ATOM     81  C   UNL     1      15.261  -5.588   1.609  1.00  0.00     0.200 A 
ATOM     82  F   UNL     1      16.626  -3.763   0.990  1.00  0.00    -0.200 F 
ATOM     83  F   UNL     1      15.969  -6.406   0.818  1.00  0.00    -0.200 F 
ENDBRANCH  49  73
BRANCH  61  84
ATOM     84  C   UNL     1      12.629  -3.200  10.117  1.00  0.00     0.064 A 
ATOM     85  C   UNL     1      13.931  -2.985  10.591  1.00  0.00     0.173 A 
ATOM     86  C   UNL     1      11.783  -4.036  10.862  1.00  0.00     0.173 A 
ATOM     87  F   UNL     1      14.778  -2.205   9.904  1.00  0.00    -0.203 F 
ATOM     88  C   UNL     1      14.367  -3.581  11.770  1.00  0.00     0.198 A 
ATOM     89  C   UNL     1      12.215  -4.610  12.053  1.00  0.00     0.198 A 
ATOM     90  F   UNL     1      10.526  -4.264  10.451  1.00  0.00    -0.203 F 
ATOM     91  F   UNL     1      15.621  -3.377  12.197  1.00  0.00    -0.200 F 
ATOM     92  C   UNL     1      13.505  -4.382  12.506  1.00  0.00     0.200 A 
ATOM     93  F   UNL     1      11.376  -5.369  12.771  1.00  0.00    -0.200 F 
ATOM     94  F   UNL     1      13.919  -4.932  13.656  1.00  0.00    -0.200 F 
ENDBRANCH  61  84
ENDBRANCH  35  36
ENDBRANCH  27  30
ENDBRANCH  25  26
ENDBRANCH  24  25
ENDBRANCH  23  24
ENDBRANCH   1  23
TORSDOF 16
