REMARK SMILES Cc1nnc(-c2ccccc2-c2cc(NCC(=O)NCCCCNC(=O)c3ccc(-c4c5nc(c(-c6c(F)c(F)c(F)c(F)c6F)c6ccc([nH]6)c(-c6c(F)c(F)c(F)c(F)c6F)c6nc(c(-c7c(F)c(F)c(F)c(F)c7F)c7ccc4[nH]7)C=C6)C=C5)cc3)nc3[nH]ccc23)o1
REMARK SMILES IDX 20 1 19 2 17 3 18 4 16 6 15 7 14 9 12 10 13 11 95 12 91 13
REMARK SMILES IDX 94 14 90 15 92 16 93 17 11 19 6 20 7 21 8 22 10 23 9 24 5 25
REMARK SMILES IDX 1 26 2 27 3 28 96 29 4 30 21 31 22 32 23 33 24 34 25 35
REMARK SMILES IDX 26 37 27 38 28 39 89 40 29 41 88 42 30 43 31 44 32 45 82 46
REMARK SMILES IDX 33 47 87 48 81 49 83 50 34 51 86 52 80 53 79 54 35 56 67 57
REMARK SMILES IDX 47 58 66 59 48 60 51 61 65 62 84 63 49 64 50 65 64 67 85 68
REMARK SMILES IDX 52 69 36 70 37 71 45 72 38 73 39 74 43 75 46 76 40 77 41 78
REMARK SMILES IDX 44 79 42 80 68 81 69 82 77 83 70 84 71 85 75 86 78 87 72 88
REMARK SMILES IDX 73 89 76 90 74 91 53 92 54 93 62 94 55 95 56 96 60 97 63 98
REMARK SMILES IDX 57 99 58 100 61 101 59 102
REMARK H PARENT 19 5 15 8 92 18 24 36 83 55 51 66
REMARK Flexibility Score: inf
ROOT
ATOM      1  C   UNL     1       0.520  -3.653  -3.097  1.00  0.00     0.116 C 
ENDROOT
BRANCH   1   2
ATOM      2  N   UNL     1      -0.532  -3.508  -4.085  1.00  0.00    -0.355 N 
ATOM      3  C   UNL     1      -0.571  -2.665  -5.161  1.00  0.00     0.239 C 
ATOM      4  O   UNL     1      -1.620  -2.598  -5.807  1.00  0.00    -0.273 OA
ATOM      5  H   UNL     1      -1.317  -4.091  -3.966  1.00  0.00     0.163 HD
BRANCH   3   6
ATOM      6  C   UNL     1       0.662  -1.833  -5.539  1.00  0.00     0.214 C 
BRANCH   6   7
ATOM      7  N   UNL     1       0.838  -0.705  -4.630  1.00  0.00    -0.361 N 
ATOM      8  H   UNL     1       0.124  -0.032  -4.548  1.00  0.00     0.162 HD
BRANCH   7   9
ATOM      9  C   UNL     1       1.995  -0.567  -3.881  1.00  0.00     0.129 A 
ATOM     10  C   UNL     1       3.175   0.603  -2.091  1.00  0.00    -0.003 A 
ATOM     11  C   UNL     1       2.059   0.460  -2.937  1.00  0.00     0.056 A 
ATOM     12  C   UNL     1       4.226  -0.318  -2.277  1.00  0.00     0.027 A 
ATOM     13  C   UNL     1       4.066  -1.261  -3.282  1.00  0.00     0.140 A 
ATOM     14  C   UNL     1       5.495  -0.579  -1.681  1.00  0.00     0.030 A 
ATOM     15  N   UNL     1       3.012  -1.422  -4.094  1.00  0.00    -0.213 NA
ATOM     16  N   UNL     1       5.186  -2.045  -3.318  1.00  0.00    -0.346 N 
ATOM     17  C   UNL     1       6.064  -1.646  -2.345  1.00  0.00     0.085 A 
ATOM     18  H   UNL     1       5.339  -2.785  -3.949  1.00  0.00     0.167 HD
BRANCH  10  19
ATOM     19  C   UNL     1       3.277   1.654  -1.067  1.00  0.00    -0.005 A 
ATOM     20  C   UNL     1       2.397   1.747   0.033  1.00  0.00     0.047 A 
ATOM     21  C   UNL     1       2.555   2.780   0.976  1.00  0.00     0.014 A 
ATOM     22  C   UNL     1       3.575   3.720   0.843  1.00  0.00     0.001 A 
ATOM     23  C   UNL     1       4.295   2.623  -1.183  1.00  0.00     0.009 A 
ATOM     24  C   UNL     1       4.445   3.641  -0.238  1.00  0.00     0.001 A 
BRANCH  20  25
ATOM     25  C   UNL     1       1.330   0.793   0.259  1.00  0.00     0.248 A 
ATOM     26  C   UNL     1      -2.142   0.225   0.138  1.00  0.00     0.113 C 
ATOM     27  C   UNL     1      -0.686   0.146   0.343  1.00  0.00     0.213 A 
ATOM     28  N   UNL     1       0.039  -0.831   0.842  1.00  0.00    -0.113 NA
ATOM     29  O   UNL     1       0.063   1.223  -0.042  1.00  0.00    -0.421 OA
ATOM     30  N   UNL     1       1.352  -0.418   0.772  1.00  0.00    -0.108 NA
ENDBRANCH  20  25
ENDBRANCH  10  19
ENDBRANCH   7   9
ENDBRANCH   6   7
ENDBRANCH   3   6
ENDBRANCH   1   2
BRANCH   1  31
ATOM     31  C   UNL     1       0.203  -2.851  -1.835  1.00  0.00     0.023 C 
BRANCH  31  32
ATOM     32  C   UNL     1      -0.913  -3.460  -0.983  1.00  0.00     0.023 C 
BRANCH  32  33
ATOM     33  C   UNL     1      -0.593  -4.815  -0.368  1.00  0.00     0.116 C 
BRANCH  33  34
ATOM     34  N   UNL     1       0.551  -4.800   0.529  1.00  0.00    -0.352 N 
ATOM     35  C   UNL     1       0.753  -5.523   1.680  1.00  0.00     0.251 C 
ATOM     36  H   UNL     1       1.280  -4.188   0.277  1.00  0.00     0.163 HD
ATOM     37  O   UNL     1       1.764  -5.356   2.357  1.00  0.00    -0.269 OA
BRANCH  35  38
ATOM     38  C   UNL     1      -0.281  -6.476   2.138  1.00  0.00     0.039 A 
ATOM     39  C   UNL     1      -0.670  -6.443   3.480  1.00  0.00     0.014 A 
ATOM     40  C   UNL     1      -0.885  -7.372   1.254  1.00  0.00     0.014 A 
ATOM     41  C   UNL     1      -1.712  -7.262   3.920  1.00  0.00     0.010 A 
ATOM     42  C   UNL     1      -1.975  -8.129   1.674  1.00  0.00     0.010 A 
ATOM     43  C   UNL     1      -2.397  -8.085   3.012  1.00  0.00    -0.014 A 
BRANCH  43  44
ATOM     44  C   UNL     1      -3.548  -8.918   3.441  1.00  0.00     0.031 A 
ATOM     45  C   UNL     1      -3.460 -10.416   3.362  1.00  0.00     0.074 A 
ATOM     46  C   UNL     1      -4.692  -8.328   3.839  1.00  0.00     0.049 A 
ATOM     47  N   UNL     1      -4.380 -11.316   3.605  1.00  0.00    -0.248 NA
ATOM     48  C   UNL     1      -2.174 -10.979   2.921  1.00  0.00     0.031 C 
ATOM     49  C   UNL     1      -4.917  -6.884   3.920  1.00  0.00     0.029 A 
ATOM     50  N   UNL     1      -5.887  -8.873   4.241  1.00  0.00    -0.354 N 
ATOM     51  C   UNL     1      -3.789 -12.542   3.332  1.00  0.00     0.074 A 
ATOM     52  C   UNL     1      -2.452 -12.271   2.850  1.00  0.00     0.031 C 
ATOM     53  C   UNL     1      -6.164  -6.658   4.366  1.00  0.00     0.029 A 
ATOM     54  C   UNL     1      -6.838  -7.937   4.566  1.00  0.00     0.049 A 
ATOM     55  H   UNL     1      -6.047  -9.843   4.291  1.00  0.00     0.167 HD
ATOM     56  C   UNL     1      -4.305 -13.784   3.493  1.00  0.00     0.037 A 
ATOM     57  C   UNL     1      -8.112  -8.095   4.972  1.00  0.00     0.037 A 
ATOM     58  C   UNL     1      -5.625 -14.052   3.999  1.00  0.00     0.049 A 
ATOM     59  C   UNL     1      -8.664  -9.486   5.137  1.00  0.00     0.074 A 
ATOM     60  C   UNL     1      -6.224 -15.275   4.245  1.00  0.00     0.029 A 
ATOM     61  N   UNL     1      -6.552 -13.077   4.339  1.00  0.00    -0.354 N 
ATOM     62  N   UNL     1      -8.076 -10.640   4.931  1.00  0.00    -0.248 NA
ATOM     63  C   UNL     1     -10.055  -9.596   5.597  1.00  0.00     0.031 C 
ATOM     64  C   UNL     1      -7.528 -15.041   4.696  1.00  0.00     0.029 A 
ATOM     65  C   UNL     1      -7.724 -13.672   4.779  1.00  0.00     0.049 A 
ATOM     66  H   UNL     1      -6.399 -12.107   4.278  1.00  0.00     0.167 HD
ATOM     67  C   UNL     1      -9.011 -11.609   5.270  1.00  0.00     0.074 A 
ATOM     68  C   UNL     1     -10.201 -10.909   5.704  1.00  0.00     0.031 C 
ATOM     69  C   UNL     1      -8.893 -12.959   5.225  1.00  0.00     0.037 A 
BRANCH  56  70
ATOM     70  C   UNL     1      -3.433 -14.949   3.123  1.00  0.00     0.064 A 
ATOM     71  C   UNL     1      -2.301 -15.288   3.880  1.00  0.00     0.173 A 
ATOM     72  C   UNL     1      -3.749 -15.755   2.019  1.00  0.00     0.173 A 
ATOM     73  F   UNL     1      -1.948 -14.543   4.938  1.00  0.00    -0.203 F 
ATOM     74  C   UNL     1      -1.500 -16.370   3.526  1.00  0.00     0.198 A 
ATOM     75  C   UNL     1      -2.963 -16.855   1.687  1.00  0.00     0.198 A 
ATOM     76  F   UNL     1      -4.823 -15.479   1.264  1.00  0.00    -0.203 F 
ATOM     77  F   UNL     1      -0.394 -16.643   4.233  1.00  0.00    -0.200 F 
ATOM     78  C   UNL     1      -1.835 -17.157   2.435  1.00  0.00     0.200 A 
ATOM     79  F   UNL     1      -3.296 -17.623   0.639  1.00  0.00    -0.200 F 
ATOM     80  F   UNL     1      -1.067 -18.203   2.099  1.00  0.00    -0.200 F 
ENDBRANCH  56  70
BRANCH  57  81
ATOM     81  C   UNL     1      -8.949  -6.906   5.282  1.00  0.00     0.064 A 
ATOM     82  C   UNL     1      -9.332  -6.623   6.601  1.00  0.00     0.173 A 
ATOM     83  C   UNL     1      -9.394  -6.040   4.274  1.00  0.00     0.173 A 
ATOM     84  F   UNL     1      -8.949  -7.434   7.598  1.00  0.00    -0.203 F 
ATOM     85  C   UNL     1     -10.148  -5.533   6.896  1.00  0.00     0.198 A 
ATOM     86  C   UNL     1     -10.187  -4.934   4.573  1.00  0.00     0.198 A 
ATOM     87  F   UNL     1      -9.053  -6.264   2.996  1.00  0.00    -0.203 F 
ATOM     88  F   UNL     1     -10.540  -5.315   8.159  1.00  0.00    -0.200 F 
ATOM     89  C   UNL     1     -10.571  -4.686   5.883  1.00  0.00     0.200 A 
ATOM     90  F   UNL     1     -10.582  -4.110   3.593  1.00  0.00    -0.200 F 
ATOM     91  F   UNL     1     -11.355  -3.638   6.167  1.00  0.00    -0.200 F 
ENDBRANCH  57  81
BRANCH  69  92
ATOM     92  C   UNL     1     -10.062 -13.769   5.705  1.00  0.00     0.064 A 
ATOM     93  C   UNL     1     -11.248 -13.865   4.962  1.00  0.00     0.173 A 
ATOM     94  C   UNL     1      -9.977 -14.491   6.905  1.00  0.00     0.173 A 
ATOM     95  F   UNL     1     -11.384 -13.182   3.816  1.00  0.00    -0.203 F 
ATOM     96  C   UNL     1     -12.316 -14.634   5.418  1.00  0.00     0.198 A 
ATOM     97  C   UNL     1     -11.035 -15.282   7.342  1.00  0.00     0.198 A 
ATOM     98  F   UNL     1      -8.862 -14.438   7.649  1.00  0.00    -0.203 F 
ATOM     99  F   UNL     1     -13.457 -14.673   4.716  1.00  0.00    -0.200 F 
ATOM    100  C   UNL     1     -12.206 -15.347   6.602  1.00  0.00     0.200 A 
ATOM    101  F   UNL     1     -10.922 -15.982   8.479  1.00  0.00    -0.200 F 
ATOM    102  F   UNL     1     -13.232 -16.093   7.034  1.00  0.00    -0.200 F 
ENDBRANCH  69  92
ENDBRANCH  43  44
ENDBRANCH  35  38
ENDBRANCH  33  34
ENDBRANCH  32  33
ENDBRANCH  31  32
ENDBRANCH   1  31
TORSDOF 15
