REMARK SMILES CCOc1ccc(N)c(SCc2ccccc2C(=O)NCCCCNC(=O)c2ccc(-c3c4nc(c(-c5c(F)c(F)c(F)c(F)c5F)c5ccc([nH]5)c(-c5c(F)c(F)c(F)c(F)c5F)c5nc(c(-c6c(F)c(F)c(F)c(F)c6F)c6ccc3[nH]6)C=C5)C=C4)cc2)c1
REMARK SMILES IDX 21 1 20 2 18 3 19 4 17 6 12 7 13 8 14 9 16 10 15 11 11 12
REMARK SMILES IDX 10 13 9 14 4 15 5 16 91 17 6 18 7 19 3 20 2 21 1 22 8 23
REMARK SMILES IDX 22 26 23 27 24 28 25 29 26 30 27 32 28 33 29 34 90 35 30 36
REMARK SMILES IDX 89 37 31 38 32 39 33 40 83 41 34 42 88 43 82 44 84 45 35 46
REMARK SMILES IDX 87 47 81 48 80 49 36 51 68 52 48 53 67 54 49 55 52 56 66 57
REMARK SMILES IDX 85 58 50 59 51 60 65 62 86 63 53 64 37 65 38 66 46 67 39 68
REMARK SMILES IDX 40 69 44 70 47 71 41 72 42 73 45 74 43 75 69 76 70 77 78 78
REMARK SMILES IDX 71 79 72 80 76 81 79 82 73 83 74 84 77 85 75 86 54 87 55 88
REMARK SMILES IDX 63 89 56 90 57 91 61 92 64 93 58 94 59 95 62 96 60 97
REMARK H PARENT 20 5 8 24 8 25 25 31 84 50 52 61
REMARK Flexibility Score: inf
ROOT
ATOM      1  C   UNL     1       7.974   0.107   6.698  1.00  0.00     0.116 C 
ENDROOT
BRANCH   1   2
ATOM      2  N   UNL     1       8.500   0.486   5.404  1.00  0.00    -0.352 N 
ATOM      3  C   UNL     1       8.641  -0.202   4.220  1.00  0.00     0.251 C 
ATOM      4  O   UNL     1       9.111   0.448   3.279  1.00  0.00    -0.269 OA
ATOM      5  H   UNL     1       8.820   1.416   5.362  1.00  0.00     0.163 HD
BRANCH   3   6
ATOM      6  C   UNL     1       8.307  -1.651   3.988  1.00  0.00     0.043 A 
ATOM      7  C   UNL     1       7.186  -2.377   4.452  1.00  0.00    -0.025 A 
ATOM      8  C   UNL     1       7.100  -3.756   4.136  1.00  0.00     0.005 A 
ATOM      9  C   UNL     1       7.988  -4.366   3.255  1.00  0.00     0.000 A 
ATOM     10  C   UNL     1       9.177  -2.287   3.071  1.00  0.00     0.014 A 
ATOM     11  C   UNL     1       9.009  -3.620   2.691  1.00  0.00     0.001 A 
BRANCH   7  12
ATOM     12  C   UNL     1       6.049  -1.769   5.234  1.00  0.00     0.111 C 
BRANCH  12  13
ATOM     13  S   UNL     1       4.365  -2.225   4.720  1.00  0.00    -0.119 SA
BRANCH  13  14
ATOM     14  C   UNL     1       3.864  -0.994   3.503  1.00  0.00     0.034 A 
ATOM     15  C   UNL     1       1.916  -0.157   2.308  1.00  0.00     0.120 A 
ATOM     16  C   UNL     1       2.706   0.726   1.591  1.00  0.00     0.048 A 
ATOM     17  C   UNL     1       2.476  -0.993   3.269  1.00  0.00     0.063 A 
ATOM     18  C   UNL     1       4.077   0.730   1.798  1.00  0.00     0.030 A 
ATOM     19  C   UNL     1       4.674  -0.133   2.729  1.00  0.00     0.045 A 
BRANCH  15  20
ATOM     20  O   UNL     1       0.563  -0.149   2.123  1.00  0.00    -0.494 OA
BRANCH  20  21
ATOM     21  C   UNL     1       0.178  -1.036   1.065  1.00  0.00     0.226 C 
ATOM     22  C   UNL     1       0.302  -0.368  -0.296  1.00  0.00     0.049 C 
ENDBRANCH  20  21
ENDBRANCH  15  20
BRANCH  19  23
ATOM     23  N   UNL     1       6.023   0.100   2.977  1.00  0.00    -0.398 N 
ATOM     24  H   UNL     1       6.531   0.713   2.398  1.00  0.00     0.156 HD
ATOM     25  H   UNL     1       6.470  -0.348   3.731  1.00  0.00     0.156 HD
ENDBRANCH  19  23
ENDBRANCH  13  14
ENDBRANCH  12  13
ENDBRANCH   7  12
ENDBRANCH   3   6
ENDBRANCH   1   2
BRANCH   1  26
ATOM     26  C   UNL     1       8.486   0.940   7.869  1.00  0.00     0.023 C 
BRANCH  26  27
ATOM     27  C   UNL     1       8.128   2.432   7.851  1.00  0.00     0.023 C 
BRANCH  27  28
ATOM     28  C   UNL     1       6.679   2.804   7.531  1.00  0.00     0.116 C 
BRANCH  28  29
ATOM     29  N   UNL     1       5.701   2.260   8.464  1.00  0.00    -0.352 N 
ATOM     30  C   UNL     1       4.917   2.881   9.410  1.00  0.00     0.251 C 
ATOM     31  H   UNL     1       5.581   1.285   8.409  1.00  0.00     0.163 HD
ATOM     32  O   UNL     1       4.217   2.207  10.162  1.00  0.00    -0.269 OA
BRANCH  30  33
ATOM     33  C   UNL     1       4.944   4.351   9.566  1.00  0.00     0.039 A 
ATOM     34  C   UNL     1       5.085   4.890  10.848  1.00  0.00     0.014 A 
ATOM     35  C   UNL     1       4.847   5.198   8.461  1.00  0.00     0.014 A 
ATOM     36  C   UNL     1       5.245   6.269  11.008  1.00  0.00     0.010 A 
ATOM     37  C   UNL     1       5.095   6.560   8.612  1.00  0.00     0.010 A 
ATOM     38  C   UNL     1       5.312   7.110   9.886  1.00  0.00    -0.014 A 
BRANCH  38  39
ATOM     39  C   UNL     1       5.636   8.556  10.019  1.00  0.00     0.031 A 
ATOM     40  C   UNL     1       4.656   9.601   9.561  1.00  0.00     0.074 A 
ATOM     41  C   UNL     1       6.848   8.929  10.477  1.00  0.00     0.049 A 
ATOM     42  N   UNL     1       4.793  10.902   9.513  1.00  0.00    -0.248 NA
ATOM     43  C   UNL     1       3.360   9.117   9.061  1.00  0.00     0.031 C 
ATOM     44  C   UNL     1       7.911   8.015  10.901  1.00  0.00     0.029 A 
ATOM     45  N   UNL     1       7.398  10.176  10.651  1.00  0.00    -0.354 N 
ATOM     46  C   UNL     1       3.614  11.387   8.964  1.00  0.00     0.074 A 
ATOM     47  C   UNL     1       2.795  10.239   8.641  1.00  0.00     0.031 C 
ATOM     48  C   UNL     1       8.971   8.730  11.310  1.00  0.00     0.029 A 
ATOM     49  C   UNL     1       8.683  10.151  11.138  1.00  0.00     0.049 A 
ATOM     50  H   UNL     1       6.916  11.010  10.447  1.00  0.00     0.167 HD
ATOM     51  C   UNL     1       3.235  12.674   8.772  1.00  0.00     0.037 A 
ATOM     52  C   UNL     1       9.536  11.158  11.407  1.00  0.00     0.037 A 
ATOM     53  C   UNL     1       4.038  13.816   9.120  1.00  0.00     0.049 A 
ATOM     54  C   UNL     1       9.093  12.578  11.178  1.00  0.00     0.074 A 
ATOM     55  C   UNL     1       3.717  15.159   9.025  1.00  0.00     0.029 A 
ATOM     56  N   UNL     1       5.327  13.749   9.631  1.00  0.00    -0.354 N 
ATOM     57  N   UNL     1       7.946  13.025  10.729  1.00  0.00    -0.248 NA
ATOM     58  C   UNL     1      10.063  13.634  11.500  1.00  0.00     0.031 C 
ATOM     59  C   UNL     1       4.827  15.905   9.432  1.00  0.00     0.029 A 
ATOM     60  C   UNL     1       5.822  15.028   9.832  1.00  0.00     0.049 A 
ATOM     61  H   UNL     1       5.817  12.917   9.821  1.00  0.00     0.167 HD
ATOM     62  C   UNL     1       8.044  14.410  10.741  1.00  0.00     0.074 A 
ATOM     63  C   UNL     1       9.358  14.730  11.259  1.00  0.00     0.031 C 
ATOM     64  C   UNL     1       7.128  15.332  10.357  1.00  0.00     0.037 A 
BRANCH  51  65
ATOM     65  C   UNL     1       1.884  12.916   8.161  1.00  0.00     0.064 A 
ATOM     66  C   UNL     1       0.700  12.634   8.860  1.00  0.00     0.173 A 
ATOM     67  C   UNL     1       1.771  13.470   6.877  1.00  0.00     0.173 A 
ATOM     68  F   UNL     1       0.753  12.094  10.087  1.00  0.00    -0.203 F 
ATOM     69  C   UNL     1      -0.546  12.867   8.284  1.00  0.00     0.198 A 
ATOM     70  C   UNL     1       0.523  13.732   6.317  1.00  0.00     0.198 A 
ATOM     71  F   UNL     1       2.870  13.765   6.167  1.00  0.00    -0.203 F 
ATOM     72  F   UNL     1      -1.661  12.540   8.950  1.00  0.00    -0.200 F 
ATOM     73  C   UNL     1      -0.633  13.422   7.016  1.00  0.00     0.200 A 
ATOM     74  F   UNL     1       0.440  14.282   5.098  1.00  0.00    -0.200 F 
ATOM     75  F   UNL     1      -1.833  13.653   6.466  1.00  0.00    -0.200 F 
ENDBRANCH  51  65
BRANCH  52  76
ATOM     76  C   UNL     1      10.891  10.864  11.946  1.00  0.00     0.064 A 
ATOM     77  C   UNL     1      11.232  11.209  13.261  1.00  0.00     0.173 A 
ATOM     78  C   UNL     1      11.875  10.248  11.159  1.00  0.00     0.173 A 
ATOM     79  F   UNL     1      10.332  11.820  14.047  1.00  0.00    -0.203 F 
ATOM     80  C   UNL     1      12.511  10.973  13.761  1.00  0.00     0.198 A 
ATOM     81  C   UNL     1      13.145   9.985  11.669  1.00  0.00     0.198 A 
ATOM     82  F   UNL     1      11.601   9.894   9.895  1.00  0.00    -0.203 F 
ATOM     83  F   UNL     1      12.824  11.360  15.005  1.00  0.00    -0.200 F 
ATOM     84  C   UNL     1      13.465  10.356  12.966  1.00  0.00     0.200 A 
ATOM     85  F   UNL     1      14.060   9.375  10.902  1.00  0.00    -0.200 F 
ATOM     86  F   UNL     1      14.694  10.127  13.447  1.00  0.00    -0.200 F 
ENDBRANCH  52  76
BRANCH  64  87
ATOM     87  C   UNL     1       7.498  16.779  10.516  1.00  0.00     0.064 A 
ATOM     88  C   UNL     1       8.451  17.391   9.688  1.00  0.00     0.173 A 
ATOM     89  C   UNL     1       6.858  17.573  11.480  1.00  0.00     0.173 A 
ATOM     90  F   UNL     1       9.103  16.672   8.762  1.00  0.00    -0.203 F 
ATOM     91  C   UNL     1       8.767  18.739   9.837  1.00  0.00     0.198 A 
ATOM     92  C   UNL     1       7.154  18.928  11.604  1.00  0.00     0.198 A 
ATOM     93  F   UNL     1       5.934  17.038  12.292  1.00  0.00    -0.203 F 
ATOM     94  F   UNL     1       9.715  19.292   9.067  1.00  0.00    -0.200 F 
ATOM     95  C   UNL     1       8.113  19.508  10.788  1.00  0.00     0.200 A 
ATOM     96  F   UNL     1       6.509  19.672  12.514  1.00  0.00    -0.200 F 
ATOM     97  F   UNL     1       8.411  20.807  10.922  1.00  0.00    -0.200 F 
ENDBRANCH  64  87
ENDBRANCH  38  39
ENDBRANCH  30  33
ENDBRANCH  28  29
ENDBRANCH  27  28
ENDBRANCH  26  27
ENDBRANCH   1  26
TORSDOF 17
