REMARK SMILES CC[C@H](C)C[C@@H](C)[NH2+]Cc1cc(C(=O)NCCCCNC(=O)c2ccc(-c3c4nc(c(-c5c(F)c(F)c(F)c(F)c5F)c5ccc([nH]5)c(-c5c(F)c(F)c(F)c(F)c5F)c5nc(c(-c6c(F)c(F)c(F)c(F)c6F)c6ccc3[nH]6)C=C5)C=C4)cc2)cs1
REMARK SMILES IDX 13 1 14 2 15 3 12 5 10 6 11 7 87 8 86 9 9 10 8 11 6 14 7 15
REMARK SMILES IDX 5 16 3 17 4 18 2 19 1 20 16 21 17 22 18 23 19 24 20 25 21 26
REMARK SMILES IDX 22 28 23 29 24 30 85 31 25 32 84 33 26 34 27 35 28 36 78 37
REMARK SMILES IDX 29 38 83 39 77 40 79 41 30 42 82 43 76 44 75 45 31 47 63 48
REMARK SMILES IDX 43 49 62 50 44 51 47 52 61 53 80 54 45 55 46 56 60 58 81 59
REMARK SMILES IDX 48 60 32 61 33 62 41 63 34 64 35 65 39 66 42 67 36 68 37 69
REMARK SMILES IDX 40 70 38 71 64 72 65 73 73 74 66 75 67 76 71 77 74 78 68 79
REMARK SMILES IDX 69 80 72 81 70 82 49 83 50 84 58 85 51 86 52 87 56 88 59 89
REMARK SMILES IDX 53 90 54 91 57 92 55 93
REMARK H PARENT 15 4 8 12 8 13 20 27 79 46 47 57
REMARK Flexibility Score: inf
ROOT
ATOM      1  C   UNL     1       5.848  -4.924  -0.896  1.00  0.00     0.252 C 
ATOM      2  O   UNL     1       7.008  -5.330  -0.978  1.00  0.00    -0.269 OA
ATOM      3  N   UNL     1       5.659  -3.560  -0.884  1.00  0.00    -0.352 N 
ATOM      4  H   UNL     1       6.480  -3.041  -1.045  1.00  0.00     0.163 HD
ENDROOT
BRANCH   1   5
ATOM      5  C   UNL     1       4.726  -5.851  -0.740  1.00  0.00     0.051 A 
ATOM      6  C   UNL     1       2.524  -6.629  -0.567  1.00  0.00     0.059 A 
ATOM      7  C   UNL     1       3.370  -5.729  -1.189  1.00  0.00     0.035 A 
ATOM      8  S   UNL     1       3.411  -7.907   0.138  1.00  0.00    -0.142 S 
ATOM      9  C   UNL     1       4.890  -7.084  -0.126  1.00  0.00     0.079 A 
BRANCH   6  10
ATOM     10  C   UNL     1       1.031  -6.540  -0.444  1.00  0.00     0.308 C 
BRANCH  10  11
ATOM     11  N   UNL     1       0.593  -5.941   0.833  1.00  0.00    -0.340 N 
ATOM     12  H   UNL     1      -0.425  -5.883   0.823  1.00  0.00     0.346 HD
ATOM     13  H   UNL     1       0.955  -6.543   1.572  1.00  0.00     0.346 HD
BRANCH  11  14
ATOM     14  C   UNL     1       1.127  -4.592   1.098  1.00  0.00     0.179 C 
ATOM     15  C   UNL     1       2.270  -4.672   2.123  1.00  0.00     0.075 C 
BRANCH  14  16
ATOM     16  C   UNL     1       0.007  -3.689   1.665  1.00  0.00     0.068 C 
BRANCH  16  17
ATOM     17  C   UNL     1       0.319  -2.171   1.540  1.00  0.00    -0.009 C 
ATOM     18  C   UNL     1       0.031  -1.684   0.116  1.00  0.00     0.008 C 
BRANCH  17  19
ATOM     19  C   UNL     1      -0.434  -1.383   2.633  1.00  0.00    -0.000 C 
ATOM     20  C   UNL     1      -0.644   0.098   2.349  1.00  0.00     0.004 C 
ENDBRANCH  17  19
ENDBRANCH  16  17
ENDBRANCH  14  16
ENDBRANCH  11  14
ENDBRANCH  10  11
ENDBRANCH   6  10
ENDBRANCH   1   5
BRANCH   3  21
ATOM     21  C   UNL     1       4.477  -2.744  -0.680  1.00  0.00     0.116 C 
BRANCH  21  22
ATOM     22  C   UNL     1       4.423  -2.093   0.698  1.00  0.00     0.023 C 
BRANCH  22  23
ATOM     23  C   UNL     1       5.169  -0.772   0.845  1.00  0.00     0.023 C 
BRANCH  23  24
ATOM     24  C   UNL     1       4.785   0.323  -0.145  1.00  0.00     0.116 C 
BRANCH  24  25
ATOM     25  N   UNL     1       3.362   0.623  -0.208  1.00  0.00    -0.352 N 
ATOM     26  C   UNL     1       2.740   1.845  -0.396  1.00  0.00     0.251 C 
ATOM     27  H   UNL     1       2.760  -0.148  -0.102  1.00  0.00     0.163 HD
ATOM     28  O   UNL     1       1.527   1.933  -0.391  1.00  0.00    -0.269 OA
BRANCH  26  29
ATOM     29  C   UNL     1       3.575   3.058  -0.548  1.00  0.00     0.039 A 
ATOM     30  C   UNL     1       3.288   4.175   0.241  1.00  0.00     0.014 A 
ATOM     31  C   UNL     1       4.675   3.064  -1.405  1.00  0.00     0.014 A 
ATOM     32  C   UNL     1       4.172   5.257   0.251  1.00  0.00     0.010 A 
ATOM     33  C   UNL     1       5.599   4.099  -1.327  1.00  0.00     0.010 A 
ATOM     34  C   UNL     1       5.364   5.201  -0.489  1.00  0.00    -0.014 A 
BRANCH  34  35
ATOM     35  C   UNL     1       6.393   6.268  -0.399  1.00  0.00     0.031 A 
ATOM     36  C   UNL     1       6.777   7.040  -1.630  1.00  0.00     0.074 A 
ATOM     37  C   UNL     1       7.052   6.468   0.759  1.00  0.00     0.049 A 
ATOM     38  N   UNL     1       7.745   7.904  -1.799  1.00  0.00    -0.248 NA
ATOM     39  C   UNL     1       5.990   6.774  -2.846  1.00  0.00     0.031 C 
ATOM     40  C   UNL     1       6.815   5.741   2.008  1.00  0.00     0.029 A 
ATOM     41  N   UNL     1       8.073   7.332   1.070  1.00  0.00    -0.354 N 
ATOM     42  C   UNL     1       7.701   8.261  -3.140  1.00  0.00     0.074 A 
ATOM     43  C   UNL     1       6.646   7.482  -3.753  1.00  0.00     0.031 C 
ATOM     44  C   UNL     1       7.650   6.202   2.953  1.00  0.00     0.029 A 
ATOM     45  C   UNL     1       8.508   7.228   2.370  1.00  0.00     0.049 A 
ATOM     46  H   UNL     1       8.458   7.966   0.423  1.00  0.00     0.167 HD
ATOM     47  C   UNL     1       8.454   9.174  -3.796  1.00  0.00     0.037 A 
ATOM     48  C   UNL     1       9.495   7.881   3.013  1.00  0.00     0.037 A 
ATOM     49  C   UNL     1       9.470   9.980  -3.174  1.00  0.00     0.049 A 
ATOM     50  C   UNL     1      10.297   8.913   2.267  1.00  0.00     0.074 A 
ATOM     51  C   UNL     1      10.245  10.979  -3.736  1.00  0.00     0.029 A 
ATOM     52  N   UNL     1       9.844   9.883  -1.842  1.00  0.00    -0.354 N 
ATOM     53  N   UNL     1      10.206   9.284   1.013  1.00  0.00    -0.248 NA
ATOM     54  C   UNL     1      11.335   9.623   3.028  1.00  0.00     0.031 C 
ATOM     55  C   UNL     1      11.110  11.467  -2.751  1.00  0.00     0.029 A 
ATOM     56  C   UNL     1      10.845  10.800  -1.566  1.00  0.00     0.049 A 
ATOM     57  H   UNL     1       9.456   9.256  -1.190  1.00  0.00     0.167 HD
ATOM     58  C   UNL     1      11.151  10.286   0.842  1.00  0.00     0.074 A 
ATOM     59  C   UNL     1      11.796  10.476   2.125  1.00  0.00     0.031 C 
ATOM     60  C   UNL     1      11.461  10.984  -0.277  1.00  0.00     0.037 A 
BRANCH  47  61
ATOM     61  C   UNL     1       8.194   9.364  -5.262  1.00  0.00     0.064 A 
ATOM     62  C   UNL     1       7.019   9.977  -5.723  1.00  0.00     0.173 A 
ATOM     63  C   UNL     1       9.142   8.962  -6.214  1.00  0.00     0.173 A 
ATOM     64  F   UNL     1       6.074  10.366  -4.854  1.00  0.00    -0.203 F 
ATOM     65  C   UNL     1       6.790  10.155  -7.085  1.00  0.00     0.198 A 
ATOM     66  C   UNL     1       8.923   9.168  -7.574  1.00  0.00     0.198 A 
ATOM     67  F   UNL     1      10.284   8.374  -5.826  1.00  0.00    -0.203 F 
ATOM     68  F   UNL     1       5.639  10.698  -7.504  1.00  0.00    -0.200 F 
ATOM     69  C   UNL     1       7.745   9.757  -8.008  1.00  0.00     0.200 A 
ATOM     70  F   UNL     1       9.852   8.793  -8.464  1.00  0.00    -0.200 F 
ATOM     71  F   UNL     1       7.527   9.936  -9.318  1.00  0.00    -0.200 F 
ENDBRANCH  47  61
BRANCH  48  72
ATOM     72  C   UNL     1       9.765   7.603   4.448  1.00  0.00     0.064 A 
ATOM     73  C   UNL     1       9.464   8.556   5.432  1.00  0.00     0.173 A 
ATOM     74  C   UNL     1      10.339   6.394   4.865  1.00  0.00     0.173 A 
ATOM     75  F   UNL     1       8.933   9.736   5.079  1.00  0.00    -0.203 F 
ATOM     76  C   UNL     1       9.752   8.321   6.775  1.00  0.00     0.198 A 
ATOM     77  C   UNL     1      10.601   6.149   6.212  1.00  0.00     0.198 A 
ATOM     78  F   UNL     1      10.640   5.447   3.965  1.00  0.00    -0.203 F 
ATOM     79  F   UNL     1       9.500   9.269   7.687  1.00  0.00    -0.200 F 
ATOM     80  C   UNL     1      10.316   7.116   7.164  1.00  0.00     0.200 A 
ATOM     81  F   UNL     1      11.135   4.978   6.586  1.00  0.00    -0.200 F 
ATOM     82  F   UNL     1      10.593   6.890   8.456  1.00  0.00    -0.200 F 
ENDBRANCH  48  72
BRANCH  60  83
ATOM     83  C   UNL     1      12.514  12.044  -0.156  1.00  0.00     0.064 A 
ATOM     84  C   UNL     1      13.872  11.719  -0.029  1.00  0.00     0.173 A 
ATOM     85  C   UNL     1      12.163  13.401  -0.211  1.00  0.00     0.173 A 
ATOM     86  F   UNL     1      14.255  10.435   0.044  1.00  0.00    -0.203 F 
ATOM     87  C   UNL     1      14.839  12.716   0.059  1.00  0.00     0.198 A 
ATOM     88  C   UNL     1      13.135  14.394  -0.150  1.00  0.00     0.198 A 
ATOM     89  F   UNL     1      10.877  13.762  -0.338  1.00  0.00    -0.203 F 
ATOM     90  F   UNL     1      16.127  12.384   0.222  1.00  0.00    -0.200 F 
ATOM     91  C   UNL     1      14.471  14.052  -0.009  1.00  0.00     0.200 A 
ATOM     92  F   UNL     1      12.779  15.684  -0.228  1.00  0.00    -0.200 F 
ATOM     93  F   UNL     1      15.405  15.009   0.069  1.00  0.00    -0.200 F 
ENDBRANCH  60  83
ENDBRANCH  34  35
ENDBRANCH  26  29
ENDBRANCH  24  25
ENDBRANCH  23  24
ENDBRANCH  22  23
ENDBRANCH  21  22
ENDBRANCH   3  21
TORSDOF 17
