REMARK SMILES CCCOC(=O)c1c(NC(=O)[C@@H]2CC=CC[C@H]2C(=O)NCCCCNC(=O)c2ccc(-c3c4nc(c(-c5c(F)c(F)c(F)c(F)c5F)c5ccc([nH]5)c(-c5c(F)c(F)c(F)c(F)c5F)c5nc(c(-c6c(F)c(F)c(F)c(F)c6F)c6ccc3[nH]6)C=C5)C=C4)cc2)sc2c1CCCC2
REMARK SMILES IDX 18 1 19 2 20 3 17 5 12 6 13 7 14 8 16 9 15 10 10 11 9 12
REMARK SMILES IDX 11 14 8 15 7 16 93 17 91 18 92 19 94 20 97 21 95 22 96 23
REMARK SMILES IDX 5 24 6 25 4 26 3 27 2 28 1 29 21 30 22 31 23 32 24 33 25 34
REMARK SMILES IDX 26 35 27 37 28 38 29 39 90 40 30 41 89 42 31 43 32 44 33 45
REMARK SMILES IDX 83 46 34 47 88 48 82 49 84 50 35 51 87 52 81 53 80 54 36 56
REMARK SMILES IDX 68 57 48 58 67 59 49 60 52 61 66 62 85 63 50 64 51 65 65 67
REMARK SMILES IDX 86 68 53 69 37 70 38 71 46 72 39 73 40 74 44 75 47 76 41 77
REMARK SMILES IDX 42 78 45 79 43 80 69 81 70 82 78 83 71 84 72 85 76 86 79 87
REMARK SMILES IDX 73 88 74 89 77 90 75 91 54 92 55 93 63 94 56 95 57 96 61 97
REMARK SMILES IDX 64 98 58 99 59 100 62 101 60 102
REMARK H PARENT 20 4 9 13 25 36 84 55 52 66
REMARK Flexibility Score: inf
ROOT
ATOM      1  C   UNL     1       1.723   3.541  -0.840  1.00  0.00     0.224 C 
ATOM      2  O   UNL     1       2.260   4.481  -0.240  1.00  0.00    -0.275 OA
ATOM      3  N   UNL     1       1.633   3.697  -2.189  1.00  0.00    -0.356 N 
ATOM      4  H   UNL     1       1.808   4.618  -2.492  1.00  0.00     0.163 HD
ENDROOT
BRANCH   1   5
ATOM      5  C   UNL     1       1.290   2.301  -0.034  1.00  0.00     0.095 C 
ATOM      6  C   UNL     1      -0.030   1.635  -0.381  1.00  0.00     0.095 C 
ATOM      7  C   UNL     1      -0.478   0.686   0.735  1.00  0.00     0.041 C 
ATOM      8  C   UNL     1       0.563  -0.365   0.903  1.00  0.00    -0.030 C 
ATOM      9  C   UNL     1       2.347   1.183  -0.017  1.00  0.00     0.041 C 
ATOM     10  C   UNL     1       1.836  -0.140   0.544  1.00  0.00    -0.030 C 
BRANCH   6  11
ATOM     11  C   UNL     1      -1.179   2.507  -0.684  1.00  0.00     0.229 C 
ATOM     12  N   UNL     1      -2.070   2.064  -1.605  1.00  0.00    -0.317 N 
ATOM     13  H   UNL     1      -2.968   2.452  -1.493  1.00  0.00     0.170 HD
ATOM     14  O   UNL     1      -1.405   3.542  -0.059  1.00  0.00    -0.274 OA
BRANCH  12  15
ATOM     15  C   UNL     1      -1.987   1.184  -2.667  1.00  0.00     0.110 A 
ATOM     16  C   UNL     1      -1.208   0.191  -3.290  1.00  0.00     0.098 A 
ATOM     17  C   UNL     1      -1.664   0.074  -4.684  1.00  0.00    -0.017 A 
ATOM     18  S   UNL     1      -3.397   1.570  -3.572  1.00  0.00    -0.122 S 
ATOM     19  C   UNL     1      -2.782   0.842  -4.945  1.00  0.00     0.011 A 
ATOM     20  C   UNL     1      -1.054  -0.754  -5.782  1.00  0.00     0.038 C 
ATOM     21  C   UNL     1      -3.433   1.074  -6.269  1.00  0.00     0.047 C 
ATOM     22  C   UNL     1      -1.477  -0.226  -7.165  1.00  0.00     0.005 C 
ATOM     23  C   UNL     1      -2.985   0.019  -7.276  1.00  0.00     0.006 C 
BRANCH  16  24
ATOM     24  C   UNL     1      -0.149  -0.720  -2.752  1.00  0.00     0.341 C 
ATOM     25  O   UNL     1      -0.454  -1.773  -2.207  1.00  0.00    -0.246 OA
BRANCH  24  26
ATOM     26  O   UNL     1       1.171  -0.387  -3.056  1.00  0.00    -0.462 OA
BRANCH  26  27
ATOM     27  C   UNL     1       2.170  -1.439  -2.848  1.00  0.00     0.233 C 
BRANCH  27  28
ATOM     28  C   UNL     1       3.629  -0.953  -2.613  1.00  0.00     0.038 C 
ATOM     29  C   UNL     1       4.303  -1.469  -1.330  1.00  0.00     0.007 C 
ENDBRANCH  27  28
ENDBRANCH  26  27
ENDBRANCH  24  26
ENDBRANCH  16  24
ENDBRANCH  12  15
ENDBRANCH   6  11
ENDBRANCH   1   5
BRANCH   3  30
ATOM     30  C   UNL     1       1.333   2.781  -3.266  1.00  0.00     0.116 C 
BRANCH  30  31
ATOM     31  C   UNL     1       0.223   3.257  -4.208  1.00  0.00     0.023 C 
BRANCH  31  32
ATOM     32  C   UNL     1       0.632   4.215  -5.321  1.00  0.00     0.023 C 
BRANCH  32  33
ATOM     33  C   UNL     1       1.639   3.647  -6.319  1.00  0.00     0.116 C 
BRANCH  33  34
ATOM     34  N   UNL     1       1.144   2.525  -7.118  1.00  0.00    -0.352 N 
ATOM     35  C   UNL     1       0.866   2.450  -8.472  1.00  0.00     0.251 C 
ATOM     36  H   UNL     1       0.984   1.695  -6.614  1.00  0.00     0.163 HD
ATOM     37  O   UNL     1       0.485   1.425  -9.003  1.00  0.00    -0.269 OA
BRANCH  35  38
ATOM     38  C   UNL     1       1.034   3.657  -9.292  1.00  0.00     0.039 A 
ATOM     39  C   UNL     1      -0.044   4.168 -10.022  1.00  0.00     0.014 A 
ATOM     40  C   UNL     1       2.267   4.296  -9.281  1.00  0.00     0.014 A 
ATOM     41  C   UNL     1       0.094   5.397 -10.668  1.00  0.00     0.010 A 
ATOM     42  C   UNL     1       2.365   5.562  -9.822  1.00  0.00     0.010 A 
ATOM     43  C   UNL     1       1.285   6.123 -10.528  1.00  0.00    -0.014 A 
BRANCH  43  44
ATOM     44  C   UNL     1       1.511   7.455 -11.134  1.00  0.00     0.031 A 
ATOM     45  C   UNL     1       2.684   7.612 -12.059  1.00  0.00     0.074 A 
ATOM     46  C   UNL     1       0.807   8.525 -10.719  1.00  0.00     0.049 A 
ATOM     47  N   UNL     1       3.329   8.691 -12.412  1.00  0.00    -0.248 NA
ATOM     48  C   UNL     1       3.259   6.362 -12.589  1.00  0.00     0.031 C 
ATOM     49  C   UNL     1      -0.333   8.496  -9.802  1.00  0.00     0.029 A 
ATOM     50  N   UNL     1       0.985   9.858 -10.987  1.00  0.00    -0.354 N 
ATOM     51  C   UNL     1       4.422   8.244 -13.143  1.00  0.00     0.074 A 
ATOM     52  C   UNL     1       4.381   6.799 -13.139  1.00  0.00     0.031 C 
ATOM     53  C   UNL     1      -0.756   9.753  -9.588  1.00  0.00     0.029 A 
ATOM     54  C   UNL     1       0.118  10.676 -10.304  1.00  0.00     0.049 A 
ATOM     55  H   UNL     1       1.667  10.197 -11.610  1.00  0.00     0.167 HD
ATOM     56  C   UNL     1       5.365   8.981 -13.774  1.00  0.00     0.037 A 
ATOM     57  C   UNL     1       0.062  12.020 -10.246  1.00  0.00     0.037 A 
ATOM     58  C   UNL     1       5.342  10.417 -13.826  1.00  0.00     0.049 A 
ATOM     59  C   UNL     1       1.088  12.819 -11.007  1.00  0.00     0.074 A 
ATOM     60  C   UNL     1       6.200  11.274 -14.488  1.00  0.00     0.029 A 
ATOM     61  N   UNL     1       4.383  11.205 -13.204  1.00  0.00    -0.354 N 
ATOM     62  N   UNL     1       2.110  12.397 -11.712  1.00  0.00    -0.248 NA
ATOM     63  C   UNL     1       0.952  14.282 -10.966  1.00  0.00     0.031 C 
ATOM     64  C   UNL     1       5.771  12.584 -14.252  1.00  0.00     0.029 A 
ATOM     65  C   UNL     1       4.622  12.540 -13.478  1.00  0.00     0.049 A 
ATOM     66  H   UNL     1       3.643  10.865 -12.651  1.00  0.00     0.167 HD
ATOM     67  C   UNL     1       2.712  13.534 -12.233  1.00  0.00     0.074 A 
ATOM     68  C   UNL     1       1.940  14.666 -11.763  1.00  0.00     0.031 C 
ATOM     69  C   UNL     1       3.804  13.637 -13.028  1.00  0.00     0.037 A 
BRANCH  56  70
ATOM     70  C   UNL     1       6.476   8.246 -14.466  1.00  0.00     0.064 A 
ATOM     71  C   UNL     1       6.242   7.452 -15.599  1.00  0.00     0.173 A 
ATOM     72  C   UNL     1       7.796   8.342 -13.998  1.00  0.00     0.173 A 
ATOM     73  F   UNL     1       4.997   7.311 -16.079  1.00  0.00    -0.203 F 
ATOM     74  C   UNL     1       7.277   6.751 -16.213  1.00  0.00     0.198 A 
ATOM     75  C   UNL     1       8.835   7.670 -14.637  1.00  0.00     0.198 A 
ATOM     76  F   UNL     1       8.079   9.089 -12.920  1.00  0.00    -0.203 F 
ATOM     77  F   UNL     1       7.014   5.948 -17.252  1.00  0.00    -0.200 F 
ATOM     78  C   UNL     1       8.573   6.867 -15.736  1.00  0.00     0.200 A 
ATOM     79  F   UNL     1      10.090   7.793 -14.183  1.00  0.00    -0.200 F 
ATOM     80  F   UNL     1       9.569   6.196 -16.331  1.00  0.00    -0.200 F 
ENDBRANCH  56  70
BRANCH  57  81
ATOM     81  C   UNL     1      -1.014  12.694  -9.474  1.00  0.00     0.064 A 
ATOM     82  C   UNL     1      -2.036  13.389 -10.138  1.00  0.00     0.173 A 
ATOM     83  C   UNL     1      -1.050  12.669  -8.072  1.00  0.00     0.173 A 
ATOM     84  F   UNL     1      -2.037  13.456 -11.477  1.00  0.00    -0.203 F 
ATOM     85  C   UNL     1      -3.036  14.053  -9.431  1.00  0.00     0.198 A 
ATOM     86  C   UNL     1      -2.067  13.311  -7.366  1.00  0.00     0.198 A 
ATOM     87  F   UNL     1      -0.102  12.012  -7.388  1.00  0.00    -0.203 F 
ATOM     88  F   UNL     1      -3.971  14.748 -10.093  1.00  0.00    -0.200 F 
ATOM     89  C   UNL     1      -3.053  14.011  -8.046  1.00  0.00     0.200 A 
ATOM     90  F   UNL     1      -2.089  13.255  -6.028  1.00  0.00    -0.200 F 
ATOM     91  F   UNL     1      -4.016  14.649  -7.366  1.00  0.00    -0.200 F 
ENDBRANCH  57  81
BRANCH  69  92
ATOM     92  C   UNL     1       4.180  15.005 -13.509  1.00  0.00     0.064 A 
ATOM     93  C   UNL     1       4.790  15.943 -12.665  1.00  0.00     0.173 A 
ATOM     94  C   UNL     1       3.990  15.351 -14.856  1.00  0.00     0.173 A 
ATOM     95  F   UNL     1       4.980  15.662 -11.368  1.00  0.00    -0.203 F 
ATOM     96  C   UNL     1       5.183  17.187 -13.151  1.00  0.00     0.198 A 
ATOM     97  C   UNL     1       4.409  16.584 -15.343  1.00  0.00     0.198 A 
ATOM     98  F   UNL     1       3.418  14.481 -15.703  1.00  0.00    -0.203 F 
ATOM     99  F   UNL     1       5.732  18.084 -12.321  1.00  0.00    -0.200 F 
ATOM    100  C   UNL     1       5.001  17.503 -14.490  1.00  0.00     0.200 A 
ATOM    101  F   UNL     1       4.247  16.880 -16.640  1.00  0.00    -0.200 F 
ATOM    102  F   UNL     1       5.394  18.695 -14.958  1.00  0.00    -0.200 F 
ENDBRANCH  69  92
ENDBRANCH  43  44
ENDBRANCH  35  38
ENDBRANCH  33  34
ENDBRANCH  32  33
ENDBRANCH  31  32
ENDBRANCH  30  31
ENDBRANCH   3  30
TORSDOF 17
