REMARK SMILES CC[C@]1(C(=O)NCCCCNC(=O)c2ccc(-c3c4nc(c(-c5c(F)c(F)c(F)c(F)c5F)c5ccc([nH]5)c(-c5c(F)c(F)c(F)c(F)c5F)c5nc(c(-c6c(F)c(F)c(F)c(F)c6F)c6ccc3[nH]6)C=C5)C=C4)cc2)CCCN(S(=O)(=O)CCOC(C)C)C1
REMARK SMILES IDX 7 1 6 2 4 3 5 4 3 6 77 7 90 8 78 9 80 10 79 11 2 12 1 13
REMARK SMILES IDX 81 14 82 15 83 16 84 17 85 18 86 19 87 20 88 21 89 22 8 23
REMARK SMILES IDX 9 24 10 25 11 26 12 27 13 29 14 30 15 31 76 32 16 33 75 34
REMARK SMILES IDX 17 35 18 36 19 37 69 38 20 39 74 40 68 41 70 42 21 43 73 44
REMARK SMILES IDX 67 45 66 46 22 48 54 49 34 50 53 51 35 52 38 53 52 54 71 55
REMARK SMILES IDX 36 56 37 57 51 59 72 60 39 61 23 62 24 63 32 64 25 65 26 66
REMARK SMILES IDX 30 67 33 68 27 69 28 70 31 71 29 72 55 73 56 74 64 75 57 76
REMARK SMILES IDX 58 77 62 78 65 79 59 80 60 81 63 82 61 83 40 84 41 85 49 86
REMARK SMILES IDX 42 87 43 88 47 89 50 90 44 91 45 92 48 93 46 94
REMARK H PARENT 6 5 11 28 70 47 38 58
REMARK Flexibility Score: inf
ROOT
ATOM      1  C   UNL     1      -0.555   1.207   3.296  1.00  0.00     0.116 C 
ENDROOT
BRANCH   1   2
ATOM      2  N   UNL     1       0.208   0.432   2.268  1.00  0.00    -0.356 N 
ATOM      3  C   UNL     1       1.305   0.743   1.429  1.00  0.00     0.227 C 
ATOM      4  O   UNL     1       2.009  -0.163   0.990  1.00  0.00    -0.274 OA
ATOM      5  H   UNL     1      -0.123  -0.488   2.149  1.00  0.00     0.163 HD
BRANCH   3   6
ATOM      6  C   UNL     1       1.512   2.220   1.048  1.00  0.00     0.063 C 
ATOM      7  C   UNL     1       2.043   2.692   2.453  1.00  0.00     0.019 C 
ATOM      8  C   UNL     1       2.542   2.997   0.149  1.00  0.00     0.119 C 
ATOM      9  C   UNL     1       1.948   4.158   2.786  1.00  0.00     0.018 C 
ATOM     10  N   UNL     1       2.259   4.501   0.428  1.00  0.00    -0.201 NA
ATOM     11  C   UNL     1       2.752   4.924   1.754  1.00  0.00     0.102 C 
BRANCH   6  12
ATOM     12  C   UNL     1       0.223   2.377   0.160  1.00  0.00     0.015 C 
ATOM     13  C   UNL     1       0.188   1.456  -1.097  1.00  0.00     0.005 C 
ENDBRANCH   6  12
BRANCH  10  14
ATOM     14  S   UNL     1       2.310   5.641  -0.818  1.00  0.00     0.216 S 
ATOM     15  O   UNL     1       3.693   6.085  -0.889  1.00  0.00    -0.212 OA
ATOM     16  O   UNL     1       1.665   5.058  -1.965  1.00  0.00    -0.212 OA
BRANCH  14  17
ATOM     17  C   UNL     1       1.310   7.043  -0.201  1.00  0.00     0.182 C 
BRANCH  17  18
ATOM     18  C   UNL     1       0.001   7.273  -0.953  1.00  0.00     0.178 C 
BRANCH  18  19
ATOM     19  O   UNL     1      -1.168   7.363  -0.118  1.00  0.00    -0.378 OA
BRANCH  19  20
ATOM     20  C   UNL     1      -1.852   6.160   0.244  1.00  0.00     0.112 C 
ATOM     21  C   UNL     1      -2.365   5.337  -0.941  1.00  0.00     0.038 C 
ATOM     22  C   UNL     1      -1.020   5.355   1.212  1.00  0.00     0.038 C 
ENDBRANCH  19  20
ENDBRANCH  18  19
ENDBRANCH  17  18
ENDBRANCH  14  17
ENDBRANCH  10  14
ENDBRANCH   3   6
ENDBRANCH   1   2
BRANCH   1  23
ATOM     23  C   UNL     1      -1.803   2.032   2.936  1.00  0.00     0.023 C 
BRANCH  23  24
ATOM     24  C   UNL     1      -3.157   1.407   3.218  1.00  0.00     0.023 C 
BRANCH  24  25
ATOM     25  C   UNL     1      -3.385   0.965   4.649  1.00  0.00     0.116 C 
BRANCH  25  26
ATOM     26  N   UNL     1      -3.202   2.008   5.651  1.00  0.00    -0.352 N 
ATOM     27  C   UNL     1      -3.906   2.178   6.824  1.00  0.00     0.251 C 
ATOM     28  H   UNL     1      -2.493   2.667   5.468  1.00  0.00     0.163 HD
ATOM     29  O   UNL     1      -3.685   3.130   7.562  1.00  0.00    -0.269 OA
BRANCH  27  30
ATOM     30  C   UNL     1      -4.980   1.214   7.141  1.00  0.00     0.039 A 
ATOM     31  C   UNL     1      -6.261   1.693   7.417  1.00  0.00     0.014 A 
ATOM     32  C   UNL     1      -4.743  -0.158   7.026  1.00  0.00     0.014 A 
ATOM     33  C   UNL     1      -7.328   0.794   7.480  1.00  0.00     0.010 A 
ATOM     34  C   UNL     1      -5.819  -1.033   6.976  1.00  0.00     0.010 A 
ATOM     35  C   UNL     1      -7.122  -0.568   7.204  1.00  0.00    -0.014 A 
BRANCH  35  36
ATOM     36  C   UNL     1      -8.251  -1.530   7.151  1.00  0.00     0.031 A 
ATOM     37  C   UNL     1      -8.282  -2.695   8.101  1.00  0.00     0.074 A 
ATOM     38  C   UNL     1      -9.200  -1.405   6.203  1.00  0.00     0.049 A 
ATOM     39  N   UNL     1      -9.133  -3.687   8.171  1.00  0.00    -0.248 NA
ATOM     40  C   UNL     1      -7.188  -2.774   9.082  1.00  0.00     0.031 C 
ATOM     41  C   UNL     1      -9.249  -0.353   5.186  1.00  0.00     0.029 A 
ATOM     42  N   UNL     1     -10.304  -2.175   5.936  1.00  0.00    -0.354 N 
ATOM     43  C   UNL     1      -8.667  -4.509   9.188  1.00  0.00     0.074 A 
ATOM     44  C   UNL     1      -7.421  -3.944   9.654  1.00  0.00     0.031 C 
ATOM     45  C   UNL     1     -10.347  -0.522   4.431  1.00  0.00     0.029 A 
ATOM     46  C   UNL     1     -11.056  -1.715   4.882  1.00  0.00     0.049 A 
ATOM     47  H   UNL     1     -10.536  -2.982   6.451  1.00  0.00     0.167 HD
ATOM     48  C   UNL     1      -9.244  -5.617   9.711  1.00  0.00     0.037 A 
ATOM     49  C   UNL     1     -12.189  -2.204   4.342  1.00  0.00     0.037 A 
ATOM     50  C   UNL     1     -10.494  -6.164   9.257  1.00  0.00     0.049 A 
ATOM     51  C   UNL     1     -12.803  -3.447   4.928  1.00  0.00     0.074 A 
ATOM     52  C   UNL     1     -11.193  -7.249   9.754  1.00  0.00     0.029 A 
ATOM     53  N   UNL     1     -11.232  -5.665   8.193  1.00  0.00    -0.354 N 
ATOM     54  N   UNL     1     -12.394  -4.176   5.939  1.00  0.00    -0.248 NA
ATOM     55  C   UNL     1     -14.039  -3.933   4.300  1.00  0.00     0.031 C 
ATOM     56  C   UNL     1     -12.328  -7.438   8.958  1.00  0.00     0.029 A 
ATOM     57  C   UNL     1     -12.367  -6.436   8.001  1.00  0.00     0.049 A 
ATOM     58  H   UNL     1     -10.985  -4.879   7.653  1.00  0.00     0.167 HD
ATOM     59  C   UNL     1     -13.336  -5.184   6.089  1.00  0.00     0.074 A 
ATOM     60  C   UNL     1     -14.345  -4.966   5.072  1.00  0.00     0.031 C 
ATOM     61  C   UNL     1     -13.365  -6.199   6.988  1.00  0.00     0.037 A 
BRANCH  48  62
ATOM     62  C   UNL     1      -8.520  -6.302  10.835  1.00  0.00     0.064 A 
ATOM     63  C   UNL     1      -8.369  -5.695  12.093  1.00  0.00     0.173 A 
ATOM     64  C   UNL     1      -7.970  -7.580  10.657  1.00  0.00     0.173 A 
ATOM     65  F   UNL     1      -8.862  -4.467  12.313  1.00  0.00    -0.203 F 
ATOM     66  C   UNL     1      -7.657  -6.321  13.112  1.00  0.00     0.198 A 
ATOM     67  C   UNL     1      -7.290  -8.219  11.691  1.00  0.00     0.198 A 
ATOM     68  F   UNL     1      -8.088  -8.209   9.478  1.00  0.00    -0.203 F 
ATOM     69  F   UNL     1      -7.466  -5.690  14.279  1.00  0.00    -0.200 F 
ATOM     70  C   UNL     1      -7.123  -7.585  12.912  1.00  0.00     0.200 A 
ATOM     71  F   UNL     1      -6.786  -9.447  11.500  1.00  0.00    -0.200 F 
ATOM     72  F   UNL     1      -6.437  -8.187  13.894  1.00  0.00    -0.200 F 
ENDBRANCH  48  62
BRANCH  49  73
ATOM     73  C   UNL     1     -12.841  -1.492   3.212  1.00  0.00     0.064 A 
ATOM     74  C   UNL     1     -14.063  -0.829   3.392  1.00  0.00     0.173 A 
ATOM     75  C   UNL     1     -12.261  -1.454   1.935  1.00  0.00     0.173 A 
ATOM     76  F   UNL     1     -14.667  -0.854   4.590  1.00  0.00    -0.203 F 
ATOM     77  C   UNL     1     -14.690  -0.171   2.336  1.00  0.00     0.198 A 
ATOM     78  C   UNL     1     -12.875  -0.771   0.886  1.00  0.00     0.198 A 
ATOM     79  F   UNL     1     -11.090  -2.067   1.710  1.00  0.00    -0.203 F 
ATOM     80  F   UNL     1     -15.878   0.417   2.527  1.00  0.00    -0.200 F 
ATOM     81  C   UNL     1     -14.092  -0.137   1.086  1.00  0.00     0.200 A 
ATOM     82  F   UNL     1     -12.287  -0.727  -0.317  1.00  0.00    -0.200 F 
ATOM     83  F   UNL     1     -14.692   0.502   0.072  1.00  0.00    -0.200 F 
ENDBRANCH  49  73
BRANCH  61  84
ATOM     84  C   UNL     1     -14.543  -7.129   6.941  1.00  0.00     0.064 A 
ATOM     85  C   UNL     1     -14.716  -8.050   5.897  1.00  0.00     0.173 A 
ATOM     86  C   UNL     1     -15.489  -7.126   7.978  1.00  0.00     0.173 A 
ATOM     87  F   UNL     1     -13.849  -8.082   4.874  1.00  0.00    -0.203 F 
ATOM     88  C   UNL     1     -15.807  -8.915   5.880  1.00  0.00     0.198 A 
ATOM     89  C   UNL     1     -16.560  -8.015   7.975  1.00  0.00     0.198 A 
ATOM     90  F   UNL     1     -15.366  -6.270   9.004  1.00  0.00    -0.203 F 
ATOM     91  F   UNL     1     -15.980  -9.752   4.848  1.00  0.00    -0.200 F 
ATOM     92  C   UNL     1     -16.723  -8.903   6.922  1.00  0.00     0.200 A 
ATOM     93  F   UNL     1     -17.434  -8.013   8.991  1.00  0.00    -0.200 F 
ATOM     94  F   UNL     1     -17.766  -9.743   6.909  1.00  0.00    -0.200 F 
ENDBRANCH  61  84
ENDBRANCH  35  36
ENDBRANCH  27  30
ENDBRANCH  25  26
ENDBRANCH  24  25
ENDBRANCH  23  24
ENDBRANCH   1  23
TORSDOF 17
