REMARK SMILES CC(C)N1C(=O)C[C@@H](C(=O)NCCCCNC(=O)c2ccc(-c3c4nc(c(-c5c(F)c(F)c(F)c(F)c5F)c5ccc([nH]5)c(-c5c(F)c(F)c(F)c(F)c5F)c5nc(c(-c6c(F)c(F)c(F)c(F)c6F)c6ccc3[nH]6)C=C5)C=C4)cc2)[C@H]1c1ccccc1
REMARK SMILES IDX 14 1 13 2 12 3 11 4 9 5 10 6 8 8 4 9 5 10 82 11 6 12 7 13
REMARK SMILES IDX 2 14 1 15 3 16 83 17 84 18 88 19 85 20 87 21 86 22 15 23
REMARK SMILES IDX 16 24 17 25 18 27 19 28 20 29 81 30 21 31 80 32 22 33 23 34
REMARK SMILES IDX 24 35 74 36 25 37 79 38 73 39 75 40 26 41 78 42 72 43 71 44
REMARK SMILES IDX 27 46 59 47 39 48 58 49 40 50 43 51 57 52 76 53 41 54 42 55
REMARK SMILES IDX 56 57 77 58 44 59 28 60 29 61 37 62 30 63 31 64 35 65 38 66
REMARK SMILES IDX 32 67 33 68 36 69 34 70 60 71 61 72 69 73 62 74 63 75 67 76
REMARK SMILES IDX 70 77 64 78 65 79 68 80 66 81 45 82 46 83 54 84 47 85 48 86
REMARK SMILES IDX 52 87 55 88 49 89 50 90 53 91 51 92
REMARK H PARENT 11 7 16 26 75 45 43 56
REMARK Flexibility Score: inf
ROOT
ATOM      1  C   UNL     1      -7.306   0.751  -4.411  1.00  0.00     0.023 C 
ENDROOT
BRANCH   1   2
ATOM      2  C   UNL     1      -6.824   0.595  -2.964  1.00  0.00     0.023 C 
BRANCH   2   3
ATOM      3  C   UNL     1      -6.044  -0.693  -2.683  1.00  0.00     0.116 C 
BRANCH   3   4
ATOM      4  N   UNL     1      -4.879  -0.771  -3.542  1.00  0.00    -0.356 N 
ATOM      5  C   UNL     1      -3.601  -0.396  -3.251  1.00  0.00     0.226 C 
ATOM      6  O   UNL     1      -2.942   0.098  -4.163  1.00  0.00    -0.275 OA
ATOM      7  H   UNL     1      -5.028  -1.140  -4.443  1.00  0.00     0.163 HD
BRANCH   5   8
ATOM      8  C   UNL     1      -3.103  -0.532  -1.823  1.00  0.00     0.115 C 
ATOM      9  N   UNL     1      -0.837   0.152  -1.639  1.00  0.00    -0.332 N 
ATOM     10  C   UNL     1      -1.621   1.279  -1.372  1.00  0.00     0.224 C 
ATOM     11  C   UNL     1      -1.664  -1.046  -1.633  1.00  0.00     0.128 C 
ATOM     12  O   UNL     1      -1.214   2.414  -1.153  1.00  0.00    -0.275 OA
ATOM     13  C   UNL     1      -3.063   0.865  -1.220  1.00  0.00     0.116 C 
BRANCH   9  14
ATOM     14  C   UNL     1       0.607   0.210  -1.353  1.00  0.00     0.079 C 
ATOM     15  C   UNL     1       0.866   0.116   0.155  1.00  0.00     0.031 C 
ATOM     16  C   UNL     1       1.483  -0.798  -2.091  1.00  0.00     0.031 C 
ENDBRANCH   9  14
BRANCH  11  17
ATOM     17  C   UNL     1      -1.256  -2.203  -2.523  1.00  0.00    -0.025 A 
ATOM     18  C   UNL     1      -0.954  -2.038  -3.883  1.00  0.00     0.006 A 
ATOM     19  C   UNL     1      -1.152  -3.497  -1.983  1.00  0.00     0.006 A 
ATOM     20  C   UNL     1      -0.579  -3.119  -4.683  1.00  0.00     0.000 A 
ATOM     21  C   UNL     1      -0.751  -4.577  -2.777  1.00  0.00     0.000 A 
ATOM     22  C   UNL     1      -0.471  -4.388  -4.128  1.00  0.00     0.000 A 
ENDBRANCH  11  17
ENDBRANCH   5   8
ENDBRANCH   3   4
ENDBRANCH   2   3
ENDBRANCH   1   2
BRANCH   1  23
ATOM     23  C   UNL     1      -8.116  -0.420  -4.952  1.00  0.00     0.116 C 
BRANCH  23  24
ATOM     24  N   UNL     1      -9.331  -0.658  -4.190  1.00  0.00    -0.352 N 
ATOM     25  C   UNL     1     -10.613  -0.852  -4.639  1.00  0.00     0.251 C 
ATOM     26  H   UNL     1      -9.217  -0.682  -3.212  1.00  0.00     0.163 HD
ATOM     27  O   UNL     1     -11.546  -0.884  -3.843  1.00  0.00    -0.269 OA
BRANCH  25  28
ATOM     28  C   UNL     1     -10.874  -0.998  -6.087  1.00  0.00     0.039 A 
ATOM     29  C   UNL     1     -11.950  -0.308  -6.650  1.00  0.00     0.014 A 
ATOM     30  C   UNL     1     -10.068  -1.813  -6.887  1.00  0.00     0.014 A 
ATOM     31  C   UNL     1     -12.187  -0.394  -8.023  1.00  0.00     0.010 A 
ATOM     32  C   UNL     1     -10.256  -1.835  -8.266  1.00  0.00     0.010 A 
ATOM     33  C   UNL     1     -11.324  -1.134  -8.848  1.00  0.00    -0.014 A 
BRANCH  33  34
ATOM     34  C   UNL     1     -11.534  -1.204 -10.317  1.00  0.00     0.031 A 
ATOM     35  C   UNL     1     -11.845  -2.522 -10.972  1.00  0.00     0.074 A 
ATOM     36  C   UNL     1     -11.392  -0.095 -11.068  1.00  0.00     0.049 A 
ATOM     37  N   UNL     1     -11.998  -2.802 -12.242  1.00  0.00    -0.248 NA
ATOM     38  C   UNL     1     -11.973  -3.687 -10.082  1.00  0.00     0.031 C 
ATOM     39  C   UNL     1     -11.050   1.234 -10.559  1.00  0.00     0.029 A 
ATOM     40  N   UNL     1     -11.507   0.089 -12.424  1.00  0.00    -0.354 N 
ATOM     41  C   UNL     1     -12.224  -4.171 -12.302  1.00  0.00     0.074 A 
ATOM     42  C   UNL     1     -12.130  -4.676 -10.950  1.00  0.00     0.031 C 
ATOM     43  C   UNL     1     -11.006   2.100 -11.584  1.00  0.00     0.029 A 
ATOM     44  C   UNL     1     -11.275   1.382 -12.826  1.00  0.00     0.049 A 
ATOM     45  H   UNL     1     -11.734  -0.637 -13.049  1.00  0.00     0.167 HD
ATOM     46  C   UNL     1     -12.511  -4.935 -13.383  1.00  0.00     0.037 A 
ATOM     47  C   UNL     1     -11.273   1.925 -14.059  1.00  0.00     0.037 A 
ATOM     48  C   UNL     1     -12.625  -4.426 -14.725  1.00  0.00     0.049 A 
ATOM     49  C   UNL     1     -11.582   1.052 -15.246  1.00  0.00     0.074 A 
ATOM     50  C   UNL     1     -12.960  -5.108 -15.882  1.00  0.00     0.029 A 
ATOM     51  N   UNL     1     -12.402  -3.106 -15.090  1.00  0.00    -0.354 N 
ATOM     52  N   UNL     1     -11.860  -0.229 -15.283  1.00  0.00    -0.248 NA
ATOM     53  C   UNL     1     -11.588   1.704 -16.563  1.00  0.00     0.031 C 
ATOM     54  C   UNL     1     -12.888  -4.213 -16.954  1.00  0.00     0.029 A 
ATOM     55  C   UNL     1     -12.572  -2.959 -16.458  1.00  0.00     0.049 A 
ATOM     56  H   UNL     1     -12.158  -2.381 -14.470  1.00  0.00     0.167 HD
ATOM     57  C   UNL     1     -12.112  -0.527 -16.616  1.00  0.00     0.074 A 
ATOM     58  C   UNL     1     -11.964   0.710 -17.354  1.00  0.00     0.031 C 
ATOM     59  C   UNL     1     -12.438  -1.717 -17.178  1.00  0.00     0.037 A 
BRANCH  46  60
ATOM     60  C   UNL     1     -12.722  -6.406 -13.159  1.00  0.00     0.064 A 
ATOM     61  C   UNL     1     -13.836  -6.894 -12.459  1.00  0.00     0.173 A 
ATOM     62  C   UNL     1     -11.816  -7.343 -13.679  1.00  0.00     0.173 A 
ATOM     63  F   UNL     1     -14.728  -6.042 -11.931  1.00  0.00    -0.203 F 
ATOM     64  C   UNL     1     -14.017  -8.260 -12.259  1.00  0.00     0.198 A 
ATOM     65  C   UNL     1     -12.018  -8.710 -13.507  1.00  0.00     0.198 A 
ATOM     66  F   UNL     1     -10.736  -6.934 -14.362  1.00  0.00    -0.203 F 
ATOM     67  F   UNL     1     -15.059  -8.697 -11.538  1.00  0.00    -0.200 F 
ATOM     68  C   UNL     1     -13.113  -9.167 -12.789  1.00  0.00     0.200 A 
ATOM     69  F   UNL     1     -11.151  -9.585 -14.034  1.00  0.00    -0.200 F 
ATOM     70  F   UNL     1     -13.292 -10.482 -12.602  1.00  0.00    -0.200 F 
ENDBRANCH  46  60
BRANCH  47  71
ATOM     71  C   UNL     1     -10.992   3.375 -14.234  1.00  0.00     0.064 A 
ATOM     72  C   UNL     1     -11.994   4.256 -14.664  1.00  0.00     0.173 A 
ATOM     73  C   UNL     1      -9.718   3.907 -13.990  1.00  0.00     0.173 A 
ATOM     74  F   UNL     1     -13.225   3.792 -14.929  1.00  0.00    -0.203 F 
ATOM     75  C   UNL     1     -11.726   5.608 -14.869  1.00  0.00     0.198 A 
ATOM     76  C   UNL     1      -9.459   5.265 -14.165  1.00  0.00     0.198 A 
ATOM     77  F   UNL     1      -8.725   3.109 -13.572  1.00  0.00    -0.203 F 
ATOM     78  F   UNL     1     -12.689   6.416 -15.332  1.00  0.00    -0.200 F 
ATOM     79  C   UNL     1     -10.460   6.113 -14.614  1.00  0.00     0.200 A 
ATOM     80  F   UNL     1      -8.238   5.752 -13.903  1.00  0.00    -0.200 F 
ATOM     81  F   UNL     1     -10.204   7.413 -14.810  1.00  0.00    -0.200 F 
ENDBRANCH  47  71
BRANCH  59  82
ATOM     82  C   UNL     1     -12.717  -1.732 -18.654  1.00  0.00     0.064 A 
ATOM     83  C   UNL     1     -11.701  -1.551 -19.604  1.00  0.00     0.173 A 
ATOM     84  C   UNL     1     -14.019  -1.968 -19.123  1.00  0.00     0.173 A 
ATOM     85  F   UNL     1     -10.442  -1.309 -19.209  1.00  0.00    -0.203 F 
ATOM     86  C   UNL     1     -11.984  -1.575 -20.968  1.00  0.00     0.198 A 
ATOM     87  C   UNL     1     -14.291  -2.027 -20.487  1.00  0.00     0.198 A 
ATOM     88  F   UNL     1     -15.026  -2.157 -18.258  1.00  0.00    -0.203 F 
ATOM     89  F   UNL     1     -11.008  -1.345 -21.857  1.00  0.00    -0.200 F 
ATOM     90  C   UNL     1     -13.276  -1.820 -21.408  1.00  0.00     0.200 A 
ATOM     91  F   UNL     1     -15.537  -2.281 -20.909  1.00  0.00    -0.200 F 
ATOM     92  F   UNL     1     -13.544  -1.850 -22.720  1.00  0.00    -0.200 F 
ENDBRANCH  59  82
ENDBRANCH  33  34
ENDBRANCH  25  28
ENDBRANCH  23  24
ENDBRANCH   1  23
TORSDOF 13
