REMARK SMILES CC(C)[C@@H](NC(=O)[C@@](C)([NH3+])C(F)(F)F)C(=O)NCCCCNC(=O)c1ccc(-c2c3nc(c(-c4c(F)c(F)c(F)c(F)c4F)c4ccc([nH]4)c(-c4c(F)c(F)c(F)c(F)c4F)c4nc(c(-c5c(F)c(F)c(F)c(F)c5F)c5ccc2[nH]5)C=C4)C=C3)cc1
REMARK SMILES IDX 19 1 18 2 17 3 15 4 16 5 4 7 2 8 1 9 3 10 5 11 6 12 7 14
REMARK SMILES IDX 8 15 9 16 10 17 11 21 12 22 13 23 14 24 20 25 21 26 22 27
REMARK SMILES IDX 23 28 24 30 25 31 26 32 87 33 27 34 86 35 28 36 29 37 30 38
REMARK SMILES IDX 80 39 31 40 85 41 79 42 81 43 32 44 84 45 78 46 77 47 33 49
REMARK SMILES IDX 65 50 45 51 64 52 46 53 49 54 63 55 82 56 47 57 48 58 62 60
REMARK SMILES IDX 83 61 50 62 34 63 35 64 43 65 36 66 37 67 41 68 44 69 38 70
REMARK SMILES IDX 39 71 42 72 40 73 66 74 67 75 75 76 68 77 69 78 73 79 76 80
REMARK SMILES IDX 70 81 71 82 74 83 72 84 51 85 52 86 60 87 53 88 54 89 58 90
REMARK SMILES IDX 61 91 55 92 56 93 59 94 57 95
REMARK H PARENT 17 6 5 13 10 18 10 19 10 20 22 29 81 48 49 59
REMARK Flexibility Score: inf
ROOT
ATOM      1  C   UNL     1       1.936   3.956  -3.148  1.00  0.00     0.023 C 
ENDROOT
BRANCH   1   2
ATOM      2  C   UNL     1       0.918   3.133  -2.366  1.00  0.00     0.116 C 
BRANCH   2   3
ATOM      3  N   UNL     1       0.204   2.191  -3.212  1.00  0.00    -0.354 N 
ATOM      4  C   UNL     1      -0.703   1.234  -2.858  1.00  0.00     0.242 C 
ATOM      5  O   UNL     1      -1.414   0.758  -3.749  1.00  0.00    -0.273 OA
ATOM      6  H   UNL     1       0.403   2.252  -4.175  1.00  0.00     0.163 HD
BRANCH   4   7
ATOM      7  C   UNL     1      -0.835   0.740  -1.407  1.00  0.00     0.174 C 
BRANCH   7   8
ATOM      8  C   UNL     1       0.507   0.065  -0.965  1.00  0.00     0.015 C 
ATOM      9  C   UNL     1       0.433  -0.606   0.410  1.00  0.00     0.010 C 
ATOM     10  C   UNL     1       1.020  -0.964  -1.985  1.00  0.00     0.010 C 
ENDBRANCH   7   8
BRANCH   7  11
ATOM     11  N   UNL     1      -1.242   1.830  -0.500  1.00  0.00    -0.338 N 
ATOM     12  C   UNL     1      -2.407   2.539  -0.356  1.00  0.00     0.291 C 
ATOM     13  H   UNL     1      -0.535   2.104   0.129  1.00  0.00     0.164 HD
ATOM     14  O   UNL     1      -2.532   3.058   0.759  1.00  0.00    -0.267 OA
BRANCH  12  15
ATOM     15  C   UNL     1      -3.444   2.795  -1.485  1.00  0.00     0.267 C 
ATOM     16  C   UNL     1      -2.874   3.696  -2.591  1.00  0.00     0.100 C 
BRANCH  15  17
ATOM     17  N   UNL     1      -3.879   1.493  -2.094  1.00  0.00    -0.337 N 
ATOM     18  H   UNL     1      -3.068   1.013  -2.486  1.00  0.00     0.345 HD
ATOM     19  H   UNL     1      -4.557   1.674  -2.835  1.00  0.00     0.345 HD
ATOM     20  H   UNL     1      -4.307   0.908  -1.377  1.00  0.00     0.345 HD
ENDBRANCH  15  17
BRANCH  15  21
ATOM     21  C   UNL     1      -4.615   3.617  -0.853  1.00  0.00     0.453 C 
ATOM     22  F   UNL     1      -5.291   2.950   0.104  1.00  0.00    -0.164 F 
ATOM     23  F   UNL     1      -4.209   4.805  -0.347  1.00  0.00    -0.164 F 
ATOM     24  F   UNL     1      -5.523   3.921  -1.827  1.00  0.00    -0.164 F 
ENDBRANCH  15  21
ENDBRANCH  12  15
ENDBRANCH   7  11
ENDBRANCH   4   7
ENDBRANCH   2   3
ENDBRANCH   1   2
BRANCH   1  25
ATOM     25  C   UNL     1       1.337   4.857  -4.229  1.00  0.00     0.023 C 
BRANCH  25  26
ATOM     26  C   UNL     1       0.274   5.832  -3.734  1.00  0.00     0.116 C 
BRANCH  26  27
ATOM     27  N   UNL     1       0.792   6.788  -2.770  1.00  0.00    -0.352 N 
ATOM     28  C   UNL     1       1.000   8.142  -2.907  1.00  0.00     0.251 C 
ATOM     29  H   UNL     1       1.030   6.412  -1.891  1.00  0.00     0.163 HD
ATOM     30  O   UNL     1       1.604   8.771  -2.055  1.00  0.00    -0.269 OA
BRANCH  28  31
ATOM     31  C   UNL     1       0.513   8.820  -4.126  1.00  0.00     0.039 A 
ATOM     32  C   UNL     1       1.410   9.582  -4.876  1.00  0.00     0.014 A 
ATOM     33  C   UNL     1      -0.810   8.660  -4.546  1.00  0.00     0.014 A 
ATOM     34  C   UNL     1       1.005  10.104  -6.106  1.00  0.00     0.010 A 
ATOM     35  C   UNL     1      -1.190   9.119  -5.803  1.00  0.00     0.010 A 
ATOM     36  C   UNL     1      -0.281   9.830  -6.602  1.00  0.00    -0.014 A 
BRANCH  36  37
ATOM     37  C   UNL     1      -0.682  10.242  -7.970  1.00  0.00     0.031 A 
ATOM     38  C   UNL     1      -1.789  11.236  -8.167  1.00  0.00     0.074 A 
ATOM     39  C   UNL     1      -0.099   9.659  -9.035  1.00  0.00     0.049 A 
ATOM     40  N   UNL     1      -2.340  11.651  -9.279  1.00  0.00    -0.248 NA
ATOM     41  C   UNL     1      -2.370  11.823  -6.950  1.00  0.00     0.031 C 
ATOM     42  C   UNL     1       0.964   8.654  -8.973  1.00  0.00     0.029 A 
ATOM     43  N   UNL     1      -0.326   9.817 -10.380  1.00  0.00    -0.354 N 
ATOM     44  C   UNL     1      -3.333  12.542  -8.897  1.00  0.00     0.074 A 
ATOM     45  C   UNL     1      -3.348  12.565  -7.450  1.00  0.00     0.031 C 
ATOM     46  C   UNL     1       1.311   8.302 -10.221  1.00  0.00     0.029 A 
ATOM     47  C   UNL     1       0.466   9.021 -11.170  1.00  0.00     0.049 A 
ATOM     48  H   UNL     1      -0.995  10.442 -10.743  1.00  0.00     0.167 HD
ATOM     49  C   UNL     1      -4.145  13.289  -9.684  1.00  0.00     0.037 A 
ATOM     50  C   UNL     1       0.499   8.878 -12.509  1.00  0.00     0.037 A 
ATOM     51  C   UNL     1      -4.121  13.270 -11.123  1.00  0.00     0.049 A 
ATOM     52  C   UNL     1      -0.447   9.683 -13.357  1.00  0.00     0.074 A 
ATOM     53  C   UNL     1      -4.868  14.027 -12.008  1.00  0.00     0.029 A 
ATOM     54  N   UNL     1      -3.312  12.442 -11.888  1.00  0.00    -0.354 N 
ATOM     55  N   UNL     1      -1.339  10.569 -12.988  1.00  0.00    -0.248 NA
ATOM     56  C   UNL     1      -0.383   9.465 -14.809  1.00  0.00     0.031 C 
ATOM     57  C   UNL     1      -4.547  13.622 -13.309  1.00  0.00     0.029 A 
ATOM     58  C   UNL     1      -3.563  12.649 -13.235  1.00  0.00     0.049 A 
ATOM     59  H   UNL     1      -2.657  11.802 -11.527  1.00  0.00     0.167 HD
ATOM     60  C   UNL     1      -1.922  11.034 -14.159  1.00  0.00     0.074 A 
ATOM     61  C   UNL     1      -1.274  10.340 -15.253  1.00  0.00     0.031 C 
ATOM     62  C   UNL     1      -2.906  11.954 -14.313  1.00  0.00     0.037 A 
BRANCH  49  63
ATOM     63  C   UNL     1      -5.129  14.192  -8.998  1.00  0.00     0.064 A 
ATOM     64  C   UNL     1      -4.712  15.330  -8.290  1.00  0.00     0.173 A 
ATOM     65  C   UNL     1      -6.506  13.932  -9.070  1.00  0.00     0.173 A 
ATOM     66  F   UNL     1      -3.406  15.616  -8.182  1.00  0.00    -0.203 F 
ATOM     67  C   UNL     1      -5.634  16.155  -7.652  1.00  0.00     0.198 A 
ATOM     68  C   UNL     1      -7.427  14.777  -8.457  1.00  0.00     0.198 A 
ATOM     69  F   UNL     1      -6.959  12.862  -9.740  1.00  0.00    -0.203 F 
ATOM     70  F   UNL     1      -5.208  17.206  -6.937  1.00  0.00    -0.200 F 
ATOM     71  C   UNL     1      -6.991  15.882  -7.741  1.00  0.00     0.200 A 
ATOM     72  F   UNL     1      -8.739  14.520  -8.556  1.00  0.00    -0.200 F 
ATOM     73  F   UNL     1      -7.878  16.680  -7.131  1.00  0.00    -0.200 F 
ENDBRANCH  49  63
BRANCH  50  74
ATOM     74  C   UNL     1       1.474   7.946 -13.132  1.00  0.00     0.064 A 
ATOM     75  C   UNL     1       2.551   8.435 -13.886  1.00  0.00     0.173 A 
ATOM     76  C   UNL     1       1.354   6.556 -12.991  1.00  0.00     0.173 A 
ATOM     77  F   UNL     1       2.695   9.756 -14.067  1.00  0.00    -0.203 F 
ATOM     78  C   UNL     1       3.460   7.568 -14.488  1.00  0.00     0.198 A 
ATOM     79  C   UNL     1       2.281   5.691 -13.570  1.00  0.00     0.198 A 
ATOM     80  F   UNL     1       0.345   6.037 -12.276  1.00  0.00    -0.203 F 
ATOM     81  F   UNL     1       4.456   8.061 -15.237  1.00  0.00    -0.200 F 
ATOM     82  C   UNL     1       3.328   6.197 -14.325  1.00  0.00     0.200 A 
ATOM     83  F   UNL     1       2.158   4.368 -13.398  1.00  0.00    -0.200 F 
ATOM     84  F   UNL     1       4.207   5.365 -14.899  1.00  0.00    -0.200 F 
ENDBRANCH  50  74
BRANCH  62  85
ATOM     85  C   UNL     1      -3.324  12.287 -15.716  1.00  0.00     0.064 A 
ATOM     86  C   UNL     1      -4.074  11.392 -16.492  1.00  0.00     0.173 A 
ATOM     87  C   UNL     1      -3.012  13.538 -16.271  1.00  0.00     0.173 A 
ATOM     88  F   UNL     1      -4.382  10.178 -16.013  1.00  0.00    -0.203 F 
ATOM     89  C   UNL     1      -4.482  11.730 -17.780  1.00  0.00     0.198 A 
ATOM     90  C   UNL     1      -3.446  13.884 -17.547  1.00  0.00     0.198 A 
ATOM     91  F   UNL     1      -2.300  14.432 -15.567  1.00  0.00    -0.203 F 
ATOM     92  F   UNL     1      -5.162  10.844 -18.519  1.00  0.00    -0.200 F 
ATOM     93  C   UNL     1      -4.176  12.978 -18.302  1.00  0.00     0.200 A 
ATOM     94  F   UNL     1      -3.160  15.095 -18.046  1.00  0.00    -0.200 F 
ATOM     95  F   UNL     1      -4.578  13.306 -19.538  1.00  0.00    -0.200 F 
ENDBRANCH  62  85
ENDBRANCH  36  37
ENDBRANCH  28  31
ENDBRANCH  26  27
ENDBRANCH  25  26
ENDBRANCH   1  25
TORSDOF 16
