REMARK SMILES C[NH2+][C@@]1(C(=O)NCCCCNC(=O)c2ccc(-c3c4nc(c(-c5c(F)c(F)c(F)c(F)c5F)c5ccc([nH]5)c(-c5c(F)c(F)c(F)c(F)c5F)c5nc(c(-c6c(F)c(F)c(F)c(F)c6F)c6ccc3[nH]6)C=C5)C=C4)cc2)CCC[C@H]1CCSc1nccc(=O)[nH]1
REMARK SMILES IDX 7 1 6 2 4 3 5 4 3 6 77 7 80 8 78 9 79 10 2 11 1 12 81 15
REMARK SMILES IDX 82 16 83 17 84 18 85 19 90 20 86 21 88 22 87 24 89 25 8 26
REMARK SMILES IDX 9 27 10 28 11 29 12 30 13 32 14 33 15 34 76 35 16 36 75 37
REMARK SMILES IDX 17 38 18 39 19 40 69 41 20 42 74 43 68 44 70 45 21 46 73 47
REMARK SMILES IDX 67 48 66 49 22 51 54 52 34 53 53 54 35 55 38 56 52 57 71 58
REMARK SMILES IDX 36 59 37 60 51 62 72 63 39 64 23 65 24 66 32 67 25 68 26 69
REMARK SMILES IDX 30 70 33 71 27 72 28 73 31 74 29 75 55 76 56 77 64 78 57 79
REMARK SMILES IDX 58 80 62 81 65 82 59 83 60 84 63 85 61 86 40 87 41 88 49 89
REMARK SMILES IDX 42 90 43 91 47 92 50 93 44 94 45 95 48 96 46 97
REMARK H PARENT 6 5 2 13 2 14 90 23 11 31 70 50 38 61
REMARK Flexibility Score: inf
ROOT
ATOM      1  C   UNL     1      -4.009  -1.379   0.840  1.00  0.00     0.116 C 
ENDROOT
BRANCH   1   2
ATOM      2  N   UNL     1      -2.771  -1.088   1.516  1.00  0.00    -0.351 N 
ATOM      3  C   UNL     1      -1.502  -0.821   1.101  1.00  0.00     0.281 C 
ATOM      4  O   UNL     1      -0.767  -0.507   2.050  1.00  0.00    -0.268 OA
ATOM      5  H   UNL     1      -2.863  -1.080   2.496  1.00  0.00     0.163 HD
BRANCH   3   6
ATOM      6  C   UNL     1      -0.988  -0.841  -0.422  1.00  0.00     0.178 C 
ATOM      7  C   UNL     1      -1.567   0.322  -1.255  1.00  0.00     0.079 C 
ATOM      8  C   UNL     1      -1.432  -2.149  -1.181  1.00  0.00     0.061 C 
ATOM      9  C   UNL     1      -2.721  -0.204  -2.080  1.00  0.00     0.008 C 
ATOM     10  C   UNL     1      -2.492  -1.699  -2.225  1.00  0.00     0.011 C 
BRANCH   6  11
ATOM     11  N   UNL     1       0.505  -0.718  -0.427  1.00  0.00    -0.336 N 
ATOM     12  C   UNL     1       1.069   0.542   0.049  1.00  0.00     0.331 C 
ATOM     13  H   UNL     1       0.876  -1.463   0.162  1.00  0.00     0.346 HD
ATOM     14  H   UNL     1       0.772  -0.773  -1.410  1.00  0.00     0.346 HD
ENDBRANCH   6  11
BRANCH   8  15
ATOM     15  C   UNL     1      -0.370  -2.972  -1.966  1.00  0.00     0.022 C 
BRANCH  15  16
ATOM     16  C   UNL     1       0.714  -3.720  -1.182  1.00  0.00     0.079 C 
BRANCH  16  17
ATOM     17  S   UNL     1       0.156  -5.345  -0.583  1.00  0.00    -0.088 SA
BRANCH  17  18
ATOM     18  C   UNL     1      -0.446  -4.939   0.987  1.00  0.00     0.168 A 
ATOM     19  N   UNL     1      -0.091  -3.883   1.631  1.00  0.00    -0.233 NA
ATOM     20  N   UNL     1      -1.333  -5.857   1.449  1.00  0.00    -0.301 N 
ATOM     21  C   UNL     1      -0.670  -3.690   2.856  1.00  0.00     0.120 A 
ATOM     22  C   UNL     1      -1.966  -5.699   2.643  1.00  0.00     0.251 A 
ATOM     23  H   UNL     1      -1.523  -6.656   0.907  1.00  0.00     0.172 HD
ATOM     24  C   UNL     1      -1.578  -4.502   3.405  1.00  0.00     0.091 A 
ATOM     25  O   UNL     1      -2.820  -6.471   3.059  1.00  0.00    -0.269 OA
ENDBRANCH  17  18
ENDBRANCH  16  17
ENDBRANCH  15  16
ENDBRANCH   8  15
ENDBRANCH   3   6
ENDBRANCH   1   2
BRANCH   1  26
ATOM     26  C   UNL     1      -4.567  -2.763   1.148  1.00  0.00     0.023 C 
BRANCH  26  27
ATOM     27  C   UNL     1      -5.240  -2.913   2.510  1.00  0.00     0.023 C 
BRANCH  27  28
ATOM     28  C   UNL     1      -6.278  -1.853   2.862  1.00  0.00     0.116 C 
BRANCH  28  29
ATOM     29  N   UNL     1      -7.290  -1.638   1.839  1.00  0.00    -0.352 N 
ATOM     30  C   UNL     1      -8.625  -1.334   1.996  1.00  0.00     0.251 C 
ATOM     31  H   UNL     1      -6.980  -1.721   0.908  1.00  0.00     0.163 HD
ATOM     32  O   UNL     1      -9.359  -1.222   1.027  1.00  0.00    -0.269 OA
BRANCH  30  33
ATOM     33  C   UNL     1      -9.171  -1.198   3.364  1.00  0.00     0.039 A 
ATOM     34  C   UNL     1     -10.301  -1.942   3.710  1.00  0.00     0.014 A 
ATOM     35  C   UNL     1      -8.529  -0.399   4.312  1.00  0.00     0.014 A 
ATOM     36  C   UNL     1     -10.734  -1.957   5.037  1.00  0.00     0.010 A 
ATOM     37  C   UNL     1      -8.914  -0.476   5.646  1.00  0.00     0.010 A 
ATOM     38  C   UNL     1     -10.014  -1.263   6.023  1.00  0.00    -0.014 A 
BRANCH  38  39
ATOM     39  C   UNL     1     -10.380  -1.361   7.458  1.00  0.00     0.031 A 
ATOM     40  C   UNL     1     -10.821  -0.136   8.207  1.00  0.00     0.074 A 
ATOM     41  C   UNL     1     -10.233  -2.534   8.105  1.00  0.00     0.049 A 
ATOM     42  N   UNL     1     -11.095   0.002   9.480  1.00  0.00    -0.248 NA
ATOM     43  C   UNL     1     -10.937   1.107   7.429  1.00  0.00     0.031 C 
ATOM     44  C   UNL     1      -9.752  -3.779   7.503  1.00  0.00     0.029 A 
ATOM     45  N   UNL     1     -10.457  -2.867   9.418  1.00  0.00    -0.354 N 
ATOM     46  C   UNL     1     -11.392   1.347   9.656  1.00  0.00     0.074 A 
ATOM     47  C   UNL     1     -11.215   1.992   8.374  1.00  0.00     0.031 C 
ATOM     48  C   UNL     1      -9.736  -4.743   8.437  1.00  0.00     0.029 A 
ATOM     49  C   UNL     1     -10.173  -4.178   9.710  1.00  0.00     0.049 A 
ATOM     50  H   UNL     1     -10.791  -2.226  10.086  1.00  0.00     0.167 HD
ATOM     51  C   UNL     1     -11.797   1.980  10.782  1.00  0.00     0.037 A 
ATOM     52  C   UNL     1     -10.250  -4.848  10.876  1.00  0.00     0.037 A 
ATOM     53  C   UNL     1     -12.009   1.327  12.046  1.00  0.00     0.049 A 
ATOM     54  C   UNL     1     -10.729  -4.127  12.106  1.00  0.00     0.074 A 
ATOM     55  C   UNL     1     -12.493   1.865  13.226  1.00  0.00     0.029 A 
ATOM     56  N   UNL     1     -11.749  -0.013  12.295  1.00  0.00    -0.354 N 
ATOM     57  N   UNL     1     -11.080  -2.871  12.245  1.00  0.00    -0.248 NA
ATOM     58  C   UNL     1     -10.831  -4.917  13.341  1.00  0.00     0.031 C 
ATOM     59  C   UNL     1     -12.489   0.861  14.199  1.00  0.00     0.029 A 
ATOM     60  C   UNL     1     -12.046  -0.315  13.614  1.00  0.00     0.049 A 
ATOM     61  H   UNL     1     -11.405  -0.654  11.632  1.00  0.00     0.167 HD
ATOM     62  C   UNL     1     -11.468  -2.727  13.569  1.00  0.00     0.074 A 
ATOM     63  C   UNL     1     -11.323  -4.027  14.191  1.00  0.00     0.031 C 
ATOM     64  C   UNL     1     -11.903  -1.617  14.214  1.00  0.00     0.037 A 
BRANCH  51  65
ATOM     65  C   UNL     1     -12.048   3.457  10.694  1.00  0.00     0.064 A 
ATOM     66  C   UNL     1     -13.140   3.977   9.984  1.00  0.00     0.173 A 
ATOM     67  C   UNL     1     -11.204   4.363  11.356  1.00  0.00     0.173 A 
ATOM     68  F   UNL     1     -13.969   3.154   9.324  1.00  0.00    -0.203 F 
ATOM     69  C   UNL     1     -13.363   5.350   9.915  1.00  0.00     0.198 A 
ATOM     70  C   UNL     1     -11.447   5.733  11.310  1.00  0.00     0.198 A 
ATOM     71  F   UNL     1     -10.148   3.918  12.053  1.00  0.00    -0.203 F 
ATOM     72  F   UNL     1     -14.384   5.825   9.189  1.00  0.00    -0.200 F 
ATOM     73  C   UNL     1     -12.521   6.226  10.583  1.00  0.00     0.200 A 
ATOM     74  F   UNL     1     -10.640   6.578  11.966  1.00  0.00    -0.200 F 
ATOM     75  F   UNL     1     -12.741   7.546  10.521  1.00  0.00    -0.200 F 
ENDBRANCH  51  65
BRANCH  52  76
ATOM     76  C   UNL     1      -9.892  -6.289  10.929  1.00  0.00     0.064 A 
ATOM     77  C   UNL     1     -10.880  -7.268  11.108  1.00  0.00     0.173 A 
ATOM     78  C   UNL     1      -8.563  -6.718  10.802  1.00  0.00     0.173 A 
ATOM     79  F   UNL     1     -12.162  -6.904  11.256  1.00  0.00    -0.203 F 
ATOM     80  C   UNL     1     -10.550  -8.620  11.178  1.00  0.00     0.198 A 
ATOM     81  C   UNL     1      -8.237  -8.072  10.845  1.00  0.00     0.198 A 
ATOM     82  F   UNL     1      -7.582  -5.821  10.624  1.00  0.00    -0.203 F 
ATOM     83  F   UNL     1     -11.508  -9.530  11.393  1.00  0.00    -0.200 F 
ATOM     84  C   UNL     1      -9.229  -9.021  11.040  1.00  0.00     0.200 A 
ATOM     85  F   UNL     1      -6.962  -8.457  10.700  1.00  0.00    -0.200 F 
ATOM     86  F   UNL     1      -8.913 -10.322  11.104  1.00  0.00    -0.200 F 
ENDBRANCH  52  76
BRANCH  64  87
ATOM     87  C   UNL     1     -12.286  -1.764  15.657  1.00  0.00     0.064 A 
ATOM     88  C   UNL     1     -11.321  -1.934  16.660  1.00  0.00     0.173 A 
ATOM     89  C   UNL     1     -13.633  -1.687  16.044  1.00  0.00     0.173 A 
ATOM     90  F   UNL     1     -10.022  -2.028  16.337  1.00  0.00    -0.203 F 
ATOM     91  C   UNL     1     -11.692  -2.044  17.997  1.00  0.00     0.198 A 
ATOM     92  C   UNL     1     -13.997  -1.769  17.385  1.00  0.00     0.198 A 
ATOM     93  F   UNL     1     -14.593  -1.518  15.123  1.00  0.00    -0.203 F 
ATOM     94  F   UNL     1     -10.757  -2.249  18.935  1.00  0.00    -0.200 F 
ATOM     95  C   UNL     1     -13.028  -1.954  18.359  1.00  0.00     0.200 A 
ATOM     96  F   UNL     1     -15.287  -1.669  17.734  1.00  0.00    -0.200 F 
ATOM     97  F   UNL     1     -13.382  -2.051  19.648  1.00  0.00    -0.200 F 
ENDBRANCH  64  87
ENDBRANCH  38  39
ENDBRANCH  30  33
ENDBRANCH  28  29
ENDBRANCH  27  28
ENDBRANCH  26  27
ENDBRANCH   1  26
TORSDOF 16
