REMARK SMILES CCCC[C@@H](Sc1nc(OCCC2CCCCC2)cc(OCCC2CCCCC2)n1)C(=O)NCCCCNC(=O)c1ccc(-c2c3nc(c(-c4c(F)c(F)c(F)c(F)c4F)c4ccc([nH]4)c(-c4c(F)c(F)c(F)c(F)c4F)c4nc(c(-c5c(F)c(F)c(F)c(F)c5F)c5ccc2[nH]5)C=C4)C=C3)cc1
REMARK SMILES IDX 31 1 32 2 33 3 5 5 4 6 3 7 2 8 1 9 6 10 7 11 8 12 30 13 9 14
REMARK SMILES IDX 20 15 19 16 10 17 11 18 12 19 13 20 14 21 18 22 15 23 17 24
REMARK SMILES IDX 16 25 21 26 22 27 23 28 24 29 25 30 29 31 26 32 28 33 27 34
REMARK SMILES IDX 34 35 35 36 36 37 37 38 38 39 39 40 40 42 41 43 42 44 103 45
REMARK SMILES IDX 43 46 102 47 44 48 45 49 46 50 96 51 47 52 101 53 95 54
REMARK SMILES IDX 97 55 48 56 100 57 94 58 93 59 49 61 81 62 61 63 80 64 62 65
REMARK SMILES IDX 65 66 79 67 98 68 63 69 64 70 78 72 99 73 66 74 50 75 51 76
REMARK SMILES IDX 59 77 52 78 53 79 57 80 60 81 54 82 55 83 58 84 56 85 82 86
REMARK SMILES IDX 83 87 91 88 84 89 85 90 89 91 92 92 86 93 87 94 90 95 88 96
REMARK SMILES IDX 67 97 68 98 76 99 69 100 70 101 74 102 77 103 71 104 72 105
REMARK SMILES IDX 75 106 73 107
REMARK H PARENT 33 4 38 41 97 60 65 71
REMARK Flexibility Score: inf
ROOT
ATOM      1  C   UNL     1      -1.489  -2.195   3.171  1.00  0.00     0.233 C 
ATOM      2  O   UNL     1      -2.180  -1.233   3.519  1.00  0.00    -0.274 OA
ATOM      3  N   UNL     1      -1.184  -3.138   4.123  1.00  0.00    -0.355 N 
ATOM      4  H   UNL     1      -1.526  -2.945   5.026  1.00  0.00     0.163 HD
ENDROOT
BRANCH   1   5
ATOM      5  C   UNL     1      -0.958  -2.321   1.723  1.00  0.00     0.144 C 
BRANCH   5   6
ATOM      6  C   UNL     1       0.592  -2.304   1.820  1.00  0.00     0.025 C 
BRANCH   6   7
ATOM      7  C   UNL     1       1.490  -1.791   0.690  1.00  0.00     0.001 C 
BRANCH   7   8
ATOM      8  C   UNL     1       1.082  -0.501  -0.018  1.00  0.00    -0.003 C 
ATOM      9  C   UNL     1       1.324   0.739   0.822  1.00  0.00     0.004 C 
ENDBRANCH   7   8
ENDBRANCH   6   7
ENDBRANCH   5   6
BRANCH   5  10
ATOM     10  S   UNL     1      -1.929  -3.774   1.035  1.00  0.00    -0.073 SA
BRANCH  10  11
ATOM     11  C   UNL     1      -1.464  -3.839  -0.656  1.00  0.00     0.195 A 
ATOM     12  N   UNL     1      -0.478  -3.041  -1.034  1.00  0.00    -0.187 NA
ATOM     13  N   UNL     1      -2.026  -4.781  -1.428  1.00  0.00    -0.187 NA
ATOM     14  C   UNL     1       0.033  -3.232  -2.244  1.00  0.00     0.221 A 
ATOM     15  C   UNL     1      -1.518  -4.935  -2.659  1.00  0.00     0.221 A 
ATOM     16  C   UNL     1      -0.463  -4.177  -3.101  1.00  0.00     0.136 A 
BRANCH  14  17
ATOM     17  O   UNL     1       1.175  -2.513  -2.443  1.00  0.00    -0.477 OA
BRANCH  17  18
ATOM     18  C   UNL     1       1.562  -2.206  -3.770  1.00  0.00     0.231 C 
BRANCH  18  19
ATOM     19  C   UNL     1       2.784  -3.015  -4.236  1.00  0.00     0.045 C 
BRANCH  19  20
ATOM     20  C   UNL     1       2.787  -4.506  -3.843  1.00  0.00    -0.008 C 
ATOM     21  C   UNL     1       2.877  -5.427  -5.064  1.00  0.00     0.004 C 
ATOM     22  C   UNL     1       3.877  -4.843  -2.820  1.00  0.00     0.004 C 
ATOM     23  C   UNL     1       2.784  -6.896  -4.648  1.00  0.00     0.000 C 
ATOM     24  C   UNL     1       3.753  -6.303  -2.382  1.00  0.00     0.000 C 
ATOM     25  C   UNL     1       3.808  -7.254  -3.575  1.00  0.00     0.000 C 
ENDBRANCH  19  20
ENDBRANCH  18  19
ENDBRANCH  17  18
ENDBRANCH  14  17
BRANCH  15  26
ATOM     26  O   UNL     1      -2.159  -5.886  -3.408  1.00  0.00    -0.477 OA
BRANCH  26  27
ATOM     27  C   UNL     1      -1.514  -6.451  -4.558  1.00  0.00     0.231 C 
BRANCH  27  28
ATOM     28  C   UNL     1      -2.174  -5.977  -5.870  1.00  0.00     0.045 C 
BRANCH  28  29
ATOM     29  C   UNL     1      -1.946  -4.481  -6.131  1.00  0.00    -0.008 C 
ATOM     30  C   UNL     1      -0.919  -4.193  -7.231  1.00  0.00     0.004 C 
ATOM     31  C   UNL     1      -3.217  -3.677  -6.392  1.00  0.00     0.004 C 
ATOM     32  C   UNL     1      -0.542  -2.711  -7.220  1.00  0.00     0.000 C 
ATOM     33  C   UNL     1      -2.874  -2.192  -6.255  1.00  0.00     0.000 C 
ATOM     34  C   UNL     1      -1.744  -1.764  -7.195  1.00  0.00     0.000 C 
ENDBRANCH  28  29
ENDBRANCH  27  28
ENDBRANCH  26  27
ENDBRANCH  15  26
ENDBRANCH  10  11
ENDBRANCH   5  10
ENDBRANCH   1   5
BRANCH   3  35
ATOM     35  C   UNL     1      -0.435  -4.380   4.000  1.00  0.00     0.116 C 
BRANCH  35  36
ATOM     36  C   UNL     1       0.950  -4.283   4.639  1.00  0.00     0.023 C 
BRANCH  36  37
ATOM     37  C   UNL     1       0.942  -4.326   6.163  1.00  0.00     0.023 C 
BRANCH  37  38
ATOM     38  C   UNL     1       0.260  -5.548   6.760  1.00  0.00     0.116 C 
BRANCH  38  39
ATOM     39  N   UNL     1       0.816  -6.809   6.294  1.00  0.00    -0.352 N 
ATOM     40  C   UNL     1       0.967  -7.983   6.997  1.00  0.00     0.251 C 
ATOM     41  H   UNL     1       1.122  -6.825   5.358  1.00  0.00     0.163 HD
ATOM     42  O   UNL     1       1.548  -8.940   6.511  1.00  0.00    -0.269 OA
BRANCH  40  43
ATOM     43  C   UNL     1       0.447  -8.045   8.378  1.00  0.00     0.039 A 
ATOM     44  C   UNL     1       1.302  -8.458   9.400  1.00  0.00     0.014 A 
ATOM     45  C   UNL     1      -0.858  -7.632   8.661  1.00  0.00     0.014 A 
ATOM     46  C   UNL     1       0.869  -8.389  10.724  1.00  0.00     0.010 A 
ATOM     47  C   UNL     1      -1.260  -7.492   9.983  1.00  0.00     0.010 A 
ATOM     48  C   UNL     1      -0.401  -7.870  11.026  1.00  0.00    -0.014 A 
BRANCH  48  49
ATOM     49  C   UNL     1      -0.853  -7.715  12.430  1.00  0.00     0.031 A 
ATOM     50  C   UNL     1      -2.023  -8.511  12.931  1.00  0.00     0.074 A 
ATOM     51  C   UNL     1      -0.256  -6.807  13.225  1.00  0.00     0.049 A 
ATOM     52  N   UNL     1      -2.613  -8.470  14.099  1.00  0.00    -0.248 NA
ATOM     53  C   UNL     1      -2.631  -9.459  11.984  1.00  0.00     0.031 C 
ATOM     54  C   UNL     1       0.851  -5.934  12.832  1.00  0.00     0.029 A 
ATOM     55  N   UNL     1      -0.506  -6.460  14.529  1.00  0.00    -0.354 N 
ATOM     56  C   UNL     1      -3.668  -9.368  14.018  1.00  0.00     0.074 A 
ATOM     57  C   UNL     1      -3.672  -9.901  12.674  1.00  0.00     0.031 C 
ATOM     58  C   UNL     1       1.198  -5.166  13.877  1.00  0.00     0.029 A 
ATOM     59  C   UNL     1       0.320  -5.470  15.003  1.00  0.00     0.049 A 
ATOM     60  H   UNL     1      -1.210  -6.880  15.073  1.00  0.00     0.167 HD
ATOM     61  C   UNL     1      -4.540  -9.733  14.988  1.00  0.00     0.037 A 
ATOM     62  C   UNL     1       0.358  -4.873  16.209  1.00  0.00     0.037 A 
ATOM     63  C   UNL     1      -4.511  -9.225  16.333  1.00  0.00     0.049 A 
ATOM     64  C   UNL     1      -0.611  -5.311  17.274  1.00  0.00     0.074 A 
ATOM     65  C   UNL     1      -5.305  -9.583  17.408  1.00  0.00     0.029 A 
ATOM     66  N   UNL     1      -3.639  -8.246  16.786  1.00  0.00    -0.354 N 
ATOM     67  N   UNL     1      -1.555  -6.217  17.211  1.00  0.00    -0.248 NA
ATOM     68  C   UNL     1      -0.502  -4.647  18.581  1.00  0.00     0.031 C 
ATOM     69  C   UNL     1      -4.939  -8.793  18.503  1.00  0.00     0.029 A 
ATOM     70  C   UNL     1      -3.887  -7.975  18.122  1.00  0.00     0.049 A 
ATOM     71  H   UNL     1      -2.946  -7.810  16.240  1.00  0.00     0.167 HD
ATOM     72  C   UNL     1      -2.135  -6.253  18.472  1.00  0.00     0.074 A 
ATOM     73  C   UNL     1      -1.425  -5.287  19.285  1.00  0.00     0.031 C 
ATOM     74  C   UNL     1      -3.163  -7.016  18.916  1.00  0.00     0.037 A 
BRANCH  61  75
ATOM     75  C   UNL     1      -5.593 -10.739  14.627  1.00  0.00     0.064 A 
ATOM     76  C   UNL     1      -5.272 -12.083  14.382  1.00  0.00     0.173 A 
ATOM     77  C   UNL     1      -6.943 -10.364  14.556  1.00  0.00     0.173 A 
ATOM     78  F   UNL     1      -3.995 -12.491  14.424  1.00  0.00    -0.203 F 
ATOM     79  C   UNL     1      -6.260 -13.007  14.050  1.00  0.00     0.198 A 
ATOM     80  C   UNL     1      -7.931 -11.296  14.254  1.00  0.00     0.198 A 
ATOM     81  F   UNL     1      -7.304  -9.092  14.786  1.00  0.00    -0.203 F 
ATOM     82  F   UNL     1      -5.923 -14.274  13.772  1.00  0.00    -0.200 F 
ATOM     83  C   UNL     1      -7.588 -12.615  13.993  1.00  0.00     0.200 A 
ATOM     84  F   UNL     1      -9.216 -10.919  14.211  1.00  0.00    -0.200 F 
ATOM     85  F   UNL     1      -8.539 -13.507  13.681  1.00  0.00    -0.200 F 
ENDBRANCH  61  75
BRANCH  62  86
ATOM     86  C   UNL     1       1.370  -3.821  16.485  1.00  0.00     0.064 A 
ATOM     87  C   UNL     1       2.441  -4.066  17.355  1.00  0.00     0.173 A 
ATOM     88  C   UNL     1       1.288  -2.554  15.890  1.00  0.00     0.173 A 
ATOM     89  F   UNL     1       2.550  -5.256  17.964  1.00  0.00    -0.203 F 
ATOM     90  C   UNL     1       3.381  -3.077  17.637  1.00  0.00     0.198 A 
ATOM     91  C   UNL     1       2.244  -1.574  16.151  1.00  0.00     0.198 A 
ATOM     92  F   UNL     1       0.286  -2.272  15.045  1.00  0.00    -0.203 F 
ATOM     93  F   UNL     1       4.370  -3.324  18.506  1.00  0.00    -0.200 F 
ATOM     94  C   UNL     1       3.285  -1.833  17.030  1.00  0.00     0.200 A 
ATOM     95  F   UNL     1       2.155  -0.378  15.554  1.00  0.00    -0.200 F 
ATOM     96  F   UNL     1       4.191  -0.883  17.299  1.00  0.00    -0.200 F 
ENDBRANCH  62  86
BRANCH  74  97
ATOM     97  C   UNL     1      -3.560  -6.862  20.355  1.00  0.00     0.064 A 
ATOM     98  C   UNL     1      -4.241  -5.725  20.811  1.00  0.00     0.173 A 
ATOM     99  C   UNL     1      -3.291  -7.885  21.277  1.00  0.00     0.173 A 
ATOM    100  F   UNL     1      -4.506  -4.714  19.971  1.00  0.00    -0.203 F 
ATOM    101  C   UNL     1      -4.618  -5.607  22.146  1.00  0.00     0.198 A 
ATOM    102  C   UNL     1      -3.695  -7.775  22.604  1.00  0.00     0.198 A 
ATOM    103  F   UNL     1      -2.647  -8.995  20.888  1.00  0.00    -0.203 F 
ATOM    104  F   UNL     1      -5.229  -4.492  22.572  1.00  0.00    -0.200 F 
ATOM    105  C   UNL     1      -4.352  -6.634  23.039  1.00  0.00     0.200 A 
ATOM    106  F   UNL     1      -3.448  -8.774  23.463  1.00  0.00    -0.200 F 
ATOM    107  F   UNL     1      -4.723  -6.521  24.322  1.00  0.00    -0.200 F 
ENDBRANCH  74  97
ENDBRANCH  48  49
ENDBRANCH  40  43
ENDBRANCH  38  39
ENDBRANCH  37  38
ENDBRANCH  36  37
ENDBRANCH  35  36
ENDBRANCH   3  35
TORSDOF 24
