REMARK SMILES Cc1nc(-c2ccc(C(F)(F)F)cc2)nc(SCC(=O)NCCCCNC(=O)c2ccc(-c3c4nc(c(-c5c(F)c(F)c(F)c(F)c5F)c5ccc([nH]5)c(-c5c(F)c(F)c(F)c(F)c5F)c5nc(c(-c6c(F)c(F)c(F)c(F)c6F)c6ccc3[nH]6)C=C5)C=C4)cc2)c1C
REMARK SMILES IDX 22 1 21 2 19 3 20 4 18 6 17 7 16 8 1 9 2 10 3 11 92 12 4 13
REMARK SMILES IDX 93 14 15 15 5 16 6 17 14 18 7 19 13 20 8 21 9 22 10 23 11 24
REMARK SMILES IDX 12 25 23 26 24 27 25 28 26 29 27 30 28 32 29 33 30 34 91 35
REMARK SMILES IDX 31 36 90 37 32 38 33 39 34 40 84 41 35 42 89 43 83 44 85 45
REMARK SMILES IDX 36 46 88 47 82 48 81 49 37 51 69 52 49 53 68 54 50 55 53 56
REMARK SMILES IDX 67 57 86 58 51 59 52 60 66 62 87 63 54 64 38 65 39 66 47 67
REMARK SMILES IDX 40 68 41 69 45 70 48 71 42 72 43 73 46 74 44 75 70 76 71 77
REMARK SMILES IDX 79 78 72 79 73 80 77 81 80 82 74 83 75 84 78 85 76 86 55 87
REMARK SMILES IDX 56 88 64 89 57 90 58 91 62 92 65 93 59 94 60 95 63 96 61 97
REMARK H PARENT 21 5 26 31 85 50 53 61
REMARK Flexibility Score: inf
ROOT
ATOM      1  C   UNL     1      -1.960   5.713  -2.874  1.00  0.00     0.116 C 
ENDROOT
BRANCH   1   2
ATOM      2  N   UNL     1      -1.296   5.467  -1.611  1.00  0.00    -0.355 N 
ATOM      3  C   UNL     1      -0.004   5.132  -1.361  1.00  0.00     0.230 C 
ATOM      4  O   UNL     1       0.356   5.143  -0.180  1.00  0.00    -0.274 OA
ATOM      5  H   UNL     1      -1.867   5.557  -0.814  1.00  0.00     0.163 HD
BRANCH   3   6
ATOM      6  C   UNL     1       0.992   4.885  -2.473  1.00  0.00     0.176 C 
BRANCH   6   7
ATOM      7  S   UNL     1       0.641   3.512  -3.603  1.00  0.00    -0.096 SA
BRANCH   7   8
ATOM      8  C   UNL     1       0.517   1.948  -2.755  1.00  0.00     0.104 A 
ATOM      9  C   UNL     1       0.929  -0.348   0.217  1.00  0.00     0.067 C 
ATOM     10  C   UNL     1       0.607   0.234  -1.132  1.00  0.00     0.045 A 
ATOM     11  N   UNL     1       0.032  -0.636  -1.978  1.00  0.00    -0.233 NA
ATOM     12  C   UNL     1       0.911   1.558  -1.478  1.00  0.00     0.003 A 
ATOM     13  C   UNL     1      -0.235  -0.201  -3.210  1.00  0.00     0.160 A 
ATOM     14  C   UNL     1       1.575   2.420  -0.457  1.00  0.00     0.049 C 
ATOM     15  N   UNL     1      -0.022   1.052  -3.627  1.00  0.00    -0.221 NA
BRANCH  13  16
ATOM     16  C   UNL     1      -0.744  -1.205  -4.152  1.00  0.00     0.019 A 
ATOM     17  C   UNL     1      -1.736  -2.117  -3.747  1.00  0.00     0.012 A 
ATOM     18  C   UNL     1      -0.206  -1.356  -5.440  1.00  0.00     0.012 A 
ATOM     19  C   UNL     1      -2.151  -3.160  -4.578  1.00  0.00     0.014 A 
ATOM     20  C   UNL     1      -0.608  -2.412  -6.272  1.00  0.00     0.014 A 
ATOM     21  C   UNL     1      -1.573  -3.334  -5.842  1.00  0.00     0.056 A 
BRANCH  21  22
ATOM     22  C   UNL     1      -1.982  -4.511  -6.693  1.00  0.00     0.416 C 
ATOM     23  F   UNL     1      -1.807  -5.701  -6.051  1.00  0.00    -0.166 F 
ATOM     24  F   UNL     1      -3.296  -4.471  -7.045  1.00  0.00    -0.166 F 
ATOM     25  F   UNL     1      -1.284  -4.614  -7.859  1.00  0.00    -0.166 F 
ENDBRANCH  21  22
ENDBRANCH  13  16
ENDBRANCH   7   8
ENDBRANCH   6   7
ENDBRANCH   3   6
ENDBRANCH   1   2
BRANCH   1  26
ATOM     26  C   UNL     1      -3.004   4.645  -3.191  1.00  0.00     0.023 C 
BRANCH  26  27
ATOM     27  C   UNL     1      -4.126   4.503  -2.158  1.00  0.00     0.023 C 
BRANCH  27  28
ATOM     28  C   UNL     1      -4.841   5.794  -1.770  1.00  0.00     0.116 C 
BRANCH  28  29
ATOM     29  N   UNL     1      -5.409   6.499  -2.906  1.00  0.00    -0.352 N 
ATOM     30  C   UNL     1      -6.672   7.015  -3.075  1.00  0.00     0.251 C 
ATOM     31  H   UNL     1      -4.799   6.625  -3.668  1.00  0.00     0.163 HD
ATOM     32  O   UNL     1      -7.004   7.491  -4.152  1.00  0.00    -0.269 OA
BRANCH  30  33
ATOM     33  C   UNL     1      -7.644   6.961  -1.962  1.00  0.00     0.039 A 
ATOM     34  C   UNL     1      -8.936   6.497  -2.227  1.00  0.00     0.014 A 
ATOM     35  C   UNL     1      -7.290   7.360  -0.671  1.00  0.00     0.014 A 
ATOM     36  C   UNL     1      -9.852   6.369  -1.182  1.00  0.00     0.010 A 
ATOM     37  C   UNL     1      -8.183   7.170   0.381  1.00  0.00     0.010 A 
ATOM     38  C   UNL     1      -9.472   6.671   0.135  1.00  0.00    -0.014 A 
BRANCH  38  39
ATOM     39  C   UNL     1     -10.414   6.476   1.265  1.00  0.00     0.031 A 
ATOM     40  C   UNL     1     -10.925   7.661   2.033  1.00  0.00     0.074 A 
ATOM     41  C   UNL     1     -10.777   5.229   1.623  1.00  0.00     0.049 A 
ATOM     42  N   UNL     1     -11.714   7.692   3.078  1.00  0.00    -0.248 NA
ATOM     43  C   UNL     1     -10.474   8.988   1.582  1.00  0.00     0.031 C 
ATOM     44  C   UNL     1     -10.323   3.999   0.975  1.00  0.00     0.029 A 
ATOM     45  N   UNL     1     -11.610   4.791   2.623  1.00  0.00    -0.354 N 
ATOM     46  C   UNL     1     -11.850   9.034   3.407  1.00  0.00     0.074 A 
ATOM     47  C   UNL     1     -11.020   9.784   2.490  1.00  0.00     0.031 C 
ATOM     48  C   UNL     1     -10.906   2.947   1.572  1.00  0.00     0.029 A 
ATOM     49  C   UNL     1     -11.746   3.425   2.667  1.00  0.00     0.049 A 
ATOM     50  H   UNL     1     -12.067   5.398   3.249  1.00  0.00     0.167 HD
ATOM     51  C   UNL     1     -12.623   9.591   4.368  1.00  0.00     0.037 A 
ATOM     52  C   UNL     1     -12.466   2.646   3.497  1.00  0.00     0.037 A 
ATOM     53  C   UNL     1     -13.467   8.845   5.263  1.00  0.00     0.049 A 
ATOM     54  C   UNL     1     -13.294   3.290   4.576  1.00  0.00     0.074 A 
ATOM     55  C   UNL     1     -14.318   9.324   6.244  1.00  0.00     0.029 A 
ATOM     56  N   UNL     1     -13.568   7.462   5.284  1.00  0.00    -0.354 N 
ATOM     57  N   UNL     1     -13.452   4.562   4.847  1.00  0.00    -0.248 NA
ATOM     58  C   UNL     1     -14.044   2.390   5.464  1.00  0.00     0.031 C 
ATOM     59  C   UNL     1     -14.905   8.229   6.885  1.00  0.00     0.029 A 
ATOM     60  C   UNL     1     -14.454   7.070   6.275  1.00  0.00     0.049 A 
ATOM     61  H   UNL     1     -13.083   6.850   4.685  1.00  0.00     0.167 HD
ATOM     62  C   UNL     1     -14.333   4.618   5.918  1.00  0.00     0.074 A 
ATOM     63  C   UNL     1     -14.688   3.252   6.240  1.00  0.00     0.031 C 
ATOM     64  C   UNL     1     -14.802   5.705   6.578  1.00  0.00     0.037 A 
BRANCH  51  65
ATOM     65  C   UNL     1     -12.611  11.086   4.493  1.00  0.00     0.064 A 
ATOM     66  C   UNL     1     -13.227  11.902   3.532  1.00  0.00     0.173 A 
ATOM     67  C   UNL     1     -12.037  11.706   5.612  1.00  0.00     0.173 A 
ATOM     68  F   UNL     1     -13.779  11.357   2.438  1.00  0.00    -0.203 F 
ATOM     69  C   UNL     1     -13.253  13.286   3.679  1.00  0.00     0.198 A 
ATOM     70  C   UNL     1     -12.090  13.088   5.770  1.00  0.00     0.198 A 
ATOM     71  F   UNL     1     -11.440  10.970   6.562  1.00  0.00    -0.203 F 
ATOM     72  F   UNL     1     -13.816  14.048   2.731  1.00  0.00    -0.200 F 
ATOM     73  C   UNL     1     -12.694  13.877   4.802  1.00  0.00     0.200 A 
ATOM     74  F   UNL     1     -11.560  13.658   6.861  1.00  0.00    -0.200 F 
ATOM     75  F   UNL     1     -12.734  15.208   4.950  1.00  0.00    -0.200 F 
ENDBRANCH  51  65
BRANCH  52  76
ATOM     76  C   UNL     1     -12.464   1.171   3.315  1.00  0.00     0.064 A 
ATOM     77  C   UNL     1     -13.604   0.508   2.839  1.00  0.00     0.173 A 
ATOM     78  C   UNL     1     -11.329   0.399   3.597  1.00  0.00     0.173 A 
ATOM     79  F   UNL     1     -14.721   1.202   2.577  1.00  0.00    -0.203 F 
ATOM     80  C   UNL     1     -13.611  -0.874   2.663  1.00  0.00     0.198 A 
ATOM     81  C   UNL     1     -11.329  -0.980   3.395  1.00  0.00     0.198 A 
ATOM     82  F   UNL     1     -10.213   0.986   4.052  1.00  0.00    -0.203 F 
ATOM     83  F   UNL     1     -14.725  -1.488   2.240  1.00  0.00    -0.200 F 
ATOM     84  C   UNL     1     -12.472  -1.616   2.934  1.00  0.00     0.200 A 
ATOM     85  F   UNL     1     -10.222  -1.692   3.646  1.00  0.00    -0.200 F 
ATOM     86  F   UNL     1     -12.476  -2.944   2.755  1.00  0.00    -0.200 F 
ENDBRANCH  52  76
BRANCH  64  87
ATOM     87  C   UNL     1     -15.764   5.474   7.705  1.00  0.00     0.064 A 
ATOM     88  C   UNL     1     -15.335   4.968   8.940  1.00  0.00     0.173 A 
ATOM     89  C   UNL     1     -17.113   5.838   7.575  1.00  0.00     0.173 A 
ATOM     90  F   UNL     1     -14.057   4.594   9.108  1.00  0.00    -0.203 F 
ATOM     91  C   UNL     1     -16.224   4.826  10.002  1.00  0.00     0.198 A 
ATOM     92  C   UNL     1     -17.993   5.720   8.647  1.00  0.00     0.198 A 
ATOM     93  F   UNL     1     -17.571   6.335   6.415  1.00  0.00    -0.203 F 
ATOM     94  F   UNL     1     -15.798   4.314  11.165  1.00  0.00    -0.200 F 
ATOM     95  C   UNL     1     -17.548   5.212   9.858  1.00  0.00     0.200 A 
ATOM     96  F   UNL     1     -19.268   6.108   8.511  1.00  0.00    -0.200 F 
ATOM     97  F   UNL     1     -18.398   5.092  10.887  1.00  0.00    -0.200 F 
ENDBRANCH  64  87
ENDBRANCH  38  39
ENDBRANCH  30  33
ENDBRANCH  28  29
ENDBRANCH  27  28
ENDBRANCH  26  27
ENDBRANCH   1  26
TORSDOF 15
