REMARK SMILES Cc1ccc(C(=O)NCCCCNC(=O)c2ccc(-c3c4nc(c(-c5c(F)c(F)c(F)c(F)c5F)c5ccc([nH]5)c(-c5c(F)c(F)c(F)c(F)c5F)c5nc(c(-c6c(F)c(F)c(F)c(F)c6F)c6ccc3[nH]6)C=C5)C=C4)cc2)cc1O[C@@H](C)C(=O)N[C@@H]1CCS(=O)(=O)C1
REMARK SMILES IDX 9 1 8 2 6 3 7 4 5 6 1 7 2 8 3 9 80 10 4 11 79 12 81 13 82 14
REMARK SMILES IDX 83 15 84 16 85 17 86 18 87 20 88 21 93 22 89 23 90 24 91 25
REMARK SMILES IDX 92 26 10 27 11 28 12 29 13 30 14 31 15 33 16 34 17 35 78 36
REMARK SMILES IDX 18 37 77 38 19 39 20 40 21 41 71 42 22 43 76 44 70 45 72 46
REMARK SMILES IDX 23 47 75 48 69 49 68 50 24 52 56 53 36 54 55 55 37 56 40 57
REMARK SMILES IDX 54 58 73 59 38 60 39 61 53 63 74 64 41 65 25 66 26 67 34 68
REMARK SMILES IDX 27 69 28 70 32 71 35 72 29 73 30 74 33 75 31 76 57 77 58 78
REMARK SMILES IDX 66 79 59 80 60 81 64 82 67 83 61 84 62 85 65 86 63 87 42 88
REMARK SMILES IDX 43 89 51 90 44 91 45 92 49 93 52 94 46 95 47 96 50 97 48 98
REMARK H PARENT 8 5 86 19 13 32 72 51 40 62
REMARK Flexibility Score: inf
ROOT
ATOM      1  C   UNL     1      -3.112   2.661  -0.198  1.00  0.00     0.116 C 
ENDROOT
BRANCH   1   2
ATOM      2  N   UNL     1      -3.665   1.348   0.098  1.00  0.00    -0.352 N 
ATOM      3  C   UNL     1      -3.168   0.213   0.702  1.00  0.00     0.251 C 
ATOM      4  O   UNL     1      -3.952  -0.729   0.839  1.00  0.00    -0.269 OA
ATOM      5  H   UNL     1      -4.599   1.249  -0.197  1.00  0.00     0.163 HD
BRANCH   3   6
ATOM      6  C   UNL     1      -1.741   0.003   1.112  1.00  0.00     0.043 A 
ATOM      7  C   UNL     1       2.459  -0.972   1.734  1.00  0.00     0.048 C 
ATOM      8  C   UNL     1       1.029  -0.577   1.504  1.00  0.00    -0.009 A 
ATOM      9  C   UNL     1       0.075  -1.604   1.374  1.00  0.00     0.008 A 
ATOM     10  C   UNL     1       0.578   0.740   1.416  1.00  0.00     0.124 A 
ATOM     11  C   UNL     1      -1.275  -1.319   1.131  1.00  0.00     0.014 A 
ATOM     12  C   UNL     1      -0.813   1.010   1.371  1.00  0.00     0.060 A 
BRANCH  10  13
ATOM     13  O   UNL     1       1.313   1.873   1.308  1.00  0.00    -0.481 OA
BRANCH  13  14
ATOM     14  C   UNL     1       2.508   2.067   0.575  1.00  0.00     0.258 C 
ATOM     15  C   UNL     1       3.584   2.324   1.653  1.00  0.00     0.064 C 
BRANCH  14  16
ATOM     16  C   UNL     1       3.229   1.511  -0.746  1.00  0.00     0.261 C 
ATOM     17  O   UNL     1       4.386   1.867  -1.013  1.00  0.00    -0.271 OA
ATOM     18  N   UNL     1       2.646   0.753  -1.716  1.00  0.00    -0.349 N 
ATOM     19  H   UNL     1       3.157   0.690  -2.555  1.00  0.00     0.163 HD
BRANCH  18  20
ATOM     20  C   UNL     1       1.397   0.025  -1.710  1.00  0.00     0.098 C 
ATOM     21  C   UNL     1       1.255  -1.012  -2.841  1.00  0.00     0.042 C 
ATOM     22  C   UNL     1       0.192   0.938  -1.702  1.00  0.00     0.161 C 
ATOM     23  C   UNL     1       0.072  -0.673  -3.735  1.00  0.00     0.139 C 
ATOM     24  S   UNL     1      -0.440   0.963  -3.335  1.00  0.00     0.152 S 
ATOM     25  O   UNL     1       0.328   1.919  -4.112  1.00  0.00    -0.229 OA
ATOM     26  O   UNL     1      -1.878   0.979  -3.282  1.00  0.00    -0.229 OA
ENDBRANCH  18  20
ENDBRANCH  14  16
ENDBRANCH  13  14
ENDBRANCH  10  13
ENDBRANCH   3   6
ENDBRANCH   1   2
BRANCH   1  27
ATOM     27  C   UNL     1      -3.492   3.252  -1.562  1.00  0.00     0.023 C 
BRANCH  27  28
ATOM     28  C   UNL     1      -4.962   3.440  -1.892  1.00  0.00     0.023 C 
BRANCH  28  29
ATOM     29  C   UNL     1      -5.679   4.431  -1.008  1.00  0.00     0.116 C 
BRANCH  29  30
ATOM     30  N   UNL     1      -5.352   5.828  -1.246  1.00  0.00    -0.352 N 
ATOM     31  C   UNL     1      -5.969   6.975  -0.772  1.00  0.00     0.251 C 
ATOM     32  H   UNL     1      -4.576   5.982  -1.831  1.00  0.00     0.163 HD
ATOM     33  O   UNL     1      -5.654   8.064  -1.245  1.00  0.00    -0.269 OA
BRANCH  31  34
ATOM     34  C   UNL     1      -6.842   6.928   0.435  1.00  0.00     0.039 A 
ATOM     35  C   UNL     1      -6.779   8.027   1.306  1.00  0.00     0.014 A 
ATOM     36  C   UNL     1      -7.317   5.718   0.907  1.00  0.00     0.014 A 
ATOM     37  C   UNL     1      -6.848   7.809   2.673  1.00  0.00     0.010 A 
ATOM     38  C   UNL     1      -7.131   5.445   2.228  1.00  0.00     0.010 A 
ATOM     39  C   UNL     1      -6.848   6.494   3.101  1.00  0.00    -0.014 A 
BRANCH  39  40
ATOM     40  C   UNL     1      -6.750   6.045   4.466  1.00  0.00     0.031 A 
ATOM     41  C   UNL     1      -8.034   5.742   5.116  1.00  0.00     0.074 A 
ATOM     42  C   UNL     1      -5.538   5.606   4.868  1.00  0.00     0.049 A 
ATOM     43  N   UNL     1      -8.159   5.381   6.336  1.00  0.00    -0.248 NA
ATOM     44  C   UNL     1      -9.323   5.845   4.419  1.00  0.00     0.031 C 
ATOM     45  C   UNL     1      -5.203   4.676   5.940  1.00  0.00     0.029 A 
ATOM     46  N   UNL     1      -4.290   6.108   4.457  1.00  0.00    -0.354 N 
ATOM     47  C   UNL     1      -9.435   4.885   6.484  1.00  0.00     0.074 A 
ATOM     48  C   UNL     1     -10.156   5.328   5.325  1.00  0.00     0.031 C 
ATOM     49  C   UNL     1      -3.938   4.910   6.336  1.00  0.00     0.029 A 
ATOM     50  C   UNL     1      -3.498   6.104   5.631  1.00  0.00     0.049 A 
ATOM     51  H   UNL     1      -4.026   6.396   3.553  1.00  0.00     0.167 HD
ATOM     52  C   UNL     1      -9.646   4.017   7.510  1.00  0.00     0.037 A 
ATOM     53  C   UNL     1      -3.192   7.293   6.239  1.00  0.00     0.037 A 
ATOM     54  C   UNL     1      -8.482   4.041   8.398  1.00  0.00     0.049 A 
ATOM     55  C   UNL     1      -3.816   7.392   7.613  1.00  0.00     0.074 A 
ATOM     56  C   UNL     1      -7.389   3.204   8.534  1.00  0.00     0.029 A 
ATOM     57  N   UNL     1      -8.140   5.249   9.003  1.00  0.00    -0.354 N 
ATOM     58  N   UNL     1      -4.938   6.811   7.951  1.00  0.00    -0.248 NA
ATOM     59  C   UNL     1      -3.176   8.081   8.727  1.00  0.00     0.031 C 
ATOM     60  C   UNL     1      -6.336   3.974   9.109  1.00  0.00     0.029 A 
ATOM     61  C   UNL     1      -6.806   5.255   9.358  1.00  0.00     0.049 A 
ATOM     62  H   UNL     1      -8.764   5.995   9.157  1.00  0.00     0.167 HD
ATOM     63  C   UNL     1      -5.148   6.986   9.294  1.00  0.00     0.074 A 
ATOM     64  C   UNL     1      -4.024   7.797   9.730  1.00  0.00     0.031 C 
ATOM     65  C   UNL     1      -6.204   6.435   9.965  1.00  0.00     0.037 A 
BRANCH  52  66
ATOM     66  C   UNL     1     -10.757   2.997   7.620  1.00  0.00     0.064 A 
ATOM     67  C   UNL     1     -10.788   2.133   8.738  1.00  0.00     0.173 A 
ATOM     68  C   UNL     1     -11.736   2.721   6.641  1.00  0.00     0.173 A 
ATOM     69  F   UNL     1      -9.920   2.276   9.749  1.00  0.00    -0.203 F 
ATOM     70  C   UNL     1     -11.697   1.076   8.850  1.00  0.00     0.198 A 
ATOM     71  C   UNL     1     -12.670   1.688   6.774  1.00  0.00     0.198 A 
ATOM     72  F   UNL     1     -11.813   3.396   5.492  1.00  0.00    -0.203 F 
ATOM     73  F   UNL     1     -11.639   0.260   9.911  1.00  0.00    -0.200 F 
ATOM     74  C   UNL     1     -12.643   0.857   7.870  1.00  0.00     0.200 A 
ATOM     75  F   UNL     1     -13.581   1.492   5.808  1.00  0.00    -0.200 F 
ATOM     76  F   UNL     1     -13.514  -0.156   7.976  1.00  0.00    -0.200 F 
ENDBRANCH  52  66
BRANCH  53  77
ATOM     77  C   UNL     1      -3.058   8.398   5.237  1.00  0.00     0.064 A 
ATOM     78  C   UNL     1      -2.094   8.211   4.220  1.00  0.00     0.173 A 
ATOM     79  C   UNL     1      -4.115   9.274   4.964  1.00  0.00     0.173 A 
ATOM     80  F   UNL     1      -1.037   7.413   4.442  1.00  0.00    -0.203 F 
ATOM     81  C   UNL     1      -2.311   8.676   2.925  1.00  0.00     0.198 A 
ATOM     82  C   UNL     1      -4.292   9.791   3.676  1.00  0.00     0.198 A 
ATOM     83  F   UNL     1      -5.051   9.523   5.891  1.00  0.00    -0.203 F 
ATOM     84  F   UNL     1      -1.488   8.300   1.935  1.00  0.00    -0.200 F 
ATOM     85  C   UNL     1      -3.433   9.433   2.645  1.00  0.00     0.200 A 
ATOM     86  F   UNL     1      -5.367  10.546   3.402  1.00  0.00    -0.200 F 
ATOM     87  F   UNL     1      -3.715   9.777   1.381  1.00  0.00    -0.200 F 
ENDBRANCH  53  77
BRANCH  65  88
ATOM     88  C   UNL     1      -6.702   6.892  11.319  1.00  0.00     0.064 A 
ATOM     89  C   UNL     1      -6.454   8.170  11.848  1.00  0.00     0.173 A 
ATOM     90  C   UNL     1      -7.595   6.091  12.073  1.00  0.00     0.173 A 
ATOM     91  F   UNL     1      -5.766   9.092  11.164  1.00  0.00    -0.203 F 
ATOM     92  C   UNL     1      -6.965   8.572  13.084  1.00  0.00     0.198 A 
ATOM     93  C   UNL     1      -8.169   6.528  13.265  1.00  0.00     0.198 A 
ATOM     94  F   UNL     1      -7.970   4.870  11.665  1.00  0.00    -0.203 F 
ATOM     95  F   UNL     1      -6.634   9.774  13.575  1.00  0.00    -0.200 F 
ATOM     96  C   UNL     1      -7.829   7.756  13.787  1.00  0.00     0.200 A 
ATOM     97  F   UNL     1      -9.069   5.756  13.891  1.00  0.00    -0.200 F 
ATOM     98  F   UNL     1      -8.352   8.164  14.950  1.00  0.00    -0.200 F 
ENDBRANCH  65  88
ENDBRANCH  39  40
ENDBRANCH  31  34
ENDBRANCH  29  30
ENDBRANCH  28  29
ENDBRANCH  27  28
ENDBRANCH   1  27
TORSDOF 15
