REMARK SMILES CCC(=O)N1CCc2cc(C(=O)NC3(C(=O)NCCCCNC(=O)c4ccc(-c5c6nc(c(-c7c(F)c(F)c(F)c(F)c7F)c7ccc([nH]7)c(-c7c(F)c(F)c(F)c(F)c7F)c7nc(c(-c8c(F)c(F)c(F)c(F)c8F)c8ccc5[nH]8)C=C7)C=C6)cc4)CCCC3)ccc21
REMARK SMILES IDX 18 1 17 2 15 3 16 4 14 6 88 7 91 8 89 9 90 10 13 11 11 12
REMARK SMILES IDX 12 13 10 15 5 16 6 17 94 18 7 19 8 20 93 21 9 22 92 23 3 24
REMARK SMILES IDX 4 25 2 26 1 27 19 28 20 29 21 30 22 31 23 32 24 34 25 35
REMARK SMILES IDX 26 36 87 37 27 38 86 39 28 40 29 41 30 42 80 43 31 44 85 45
REMARK SMILES IDX 79 46 81 47 32 48 84 49 78 50 77 51 33 53 65 54 45 55 64 56
REMARK SMILES IDX 46 57 49 58 63 59 82 60 47 61 48 62 62 64 83 65 50 66 34 67
REMARK SMILES IDX 35 68 43 69 36 70 37 71 41 72 44 73 38 74 39 75 42 76 40 77
REMARK SMILES IDX 66 78 67 79 75 80 68 81 69 82 73 83 76 84 70 85 71 86 74 87
REMARK SMILES IDX 72 88 51 89 52 90 60 91 53 92 54 93 58 94 61 95 55 96 56 97
REMARK SMILES IDX 59 98 57 99
REMARK H PARENT 17 5 13 14 22 33 81 52 49 63
REMARK Flexibility Score: inf
ROOT
ATOM      1  C   UNL     1       2.037   3.095  -2.567  1.00  0.00     0.116 C 
ENDROOT
BRANCH   1   2
ATOM      2  N   UNL     1       2.814   3.382  -1.379  1.00  0.00    -0.354 N 
ATOM      3  C   UNL     1       4.146   3.363  -1.101  1.00  0.00     0.245 C 
ATOM      4  O   UNL     1       4.452   3.901  -0.027  1.00  0.00    -0.272 OA
ATOM      5  H   UNL     1       2.261   3.647  -0.609  1.00  0.00     0.163 HD
BRANCH   3   6
ATOM      6  C   UNL     1       5.261   2.772  -2.038  1.00  0.00     0.119 C 
ATOM      7  C   UNL     1       5.802   3.946  -2.896  1.00  0.00     0.038 C 
ATOM      8  C   UNL     1       4.923   1.701  -3.095  1.00  0.00     0.038 C 
ATOM      9  C   UNL     1       5.074   3.861  -4.225  1.00  0.00     0.003 C 
ATOM     10  C   UNL     1       4.931   2.370  -4.472  1.00  0.00     0.003 C 
BRANCH   6  11
ATOM     11  N   UNL     1       6.377   2.279  -1.169  1.00  0.00    -0.338 N 
ATOM     12  C   UNL     1       6.530   1.340  -0.176  1.00  0.00     0.252 C 
ATOM     13  O   UNL     1       7.686   1.119   0.195  1.00  0.00    -0.269 OA
ATOM     14  H   UNL     1       7.220   2.751  -1.358  1.00  0.00     0.164 HD
BRANCH  12  15
ATOM     15  C   UNL     1       5.424   0.620   0.521  1.00  0.00     0.040 A 
ATOM     16  N   UNL     1       2.492  -1.288   2.845  1.00  0.00    -0.312 N 
ATOM     17  C   UNL     1       3.225  -1.551   4.091  1.00  0.00     0.130 C 
ATOM     18  C   UNL     1       3.364  -0.670   1.944  1.00  0.00     0.047 A 
ATOM     19  C   UNL     1       4.694  -1.161   3.857  1.00  0.00     0.059 C 
ATOM     20  C   UNL     1       4.647  -0.580   2.478  1.00  0.00    -0.022 A 
ATOM     21  C   UNL     1       3.095  -0.085   0.735  1.00  0.00     0.027 A 
ATOM     22  C   UNL     1       5.682   0.049   1.782  1.00  0.00     0.019 A 
ATOM     23  C   UNL     1       4.133   0.504   0.012  1.00  0.00     0.016 A 
BRANCH  16  24
ATOM     24  C   UNL     1       1.149  -1.579   2.748  1.00  0.00     0.226 C 
ATOM     25  O   UNL     1       0.412  -1.528   3.738  1.00  0.00    -0.275 OA
BRANCH  24  26
ATOM     26  C   UNL     1       0.616  -2.198   1.459  1.00  0.00     0.097 C 
ATOM     27  C   UNL     1       0.050  -1.271   0.405  1.00  0.00     0.014 C 
ENDBRANCH  24  26
ENDBRANCH  16  24
ENDBRANCH  12  15
ENDBRANCH   6  11
ENDBRANCH   3   6
ENDBRANCH   1   2
BRANCH   1  28
ATOM     28  C   UNL     1       1.202   1.822  -2.477  1.00  0.00     0.023 C 
BRANCH  28  29
ATOM     29  C   UNL     1       0.070   1.851  -1.457  1.00  0.00     0.023 C 
BRANCH  29  30
ATOM     30  C   UNL     1      -0.866   3.047  -1.538  1.00  0.00     0.116 C 
BRANCH  30  31
ATOM     31  N   UNL     1      -1.492   3.216  -2.840  1.00  0.00    -0.352 N 
ATOM     32  C   UNL     1      -2.818   3.423  -3.155  1.00  0.00     0.251 C 
ATOM     33  H   UNL     1      -0.879   3.178  -3.610  1.00  0.00     0.163 HD
ATOM     34  O   UNL     1      -3.175   3.466  -4.321  1.00  0.00    -0.269 OA
BRANCH  32  35
ATOM     35  C   UNL     1      -3.816   3.542  -2.067  1.00  0.00     0.039 A 
ATOM     36  C   UNL     1      -5.006   2.816  -2.163  1.00  0.00     0.014 A 
ATOM     37  C   UNL     1      -3.558   4.322  -0.939  1.00  0.00     0.014 A 
ATOM     38  C   UNL     1      -5.895   2.804  -1.086  1.00  0.00     0.010 A 
ATOM     39  C   UNL     1      -4.392   4.225   0.170  1.00  0.00     0.010 A 
ATOM     40  C   UNL     1      -5.572   3.469   0.108  1.00  0.00    -0.014 A 
BRANCH  40  41
ATOM     41  C   UNL     1      -6.456   3.400   1.300  1.00  0.00     0.031 A 
ATOM     42  C   UNL     1      -7.053   4.660   1.864  1.00  0.00     0.074 A 
ATOM     43  C   UNL     1      -6.657   2.221   1.922  1.00  0.00     0.049 A 
ATOM     44  N   UNL     1      -7.772   4.826   2.945  1.00  0.00    -0.248 NA
ATOM     45  C   UNL     1      -6.772   5.908   1.136  1.00  0.00     0.031 C 
ATOM     46  C   UNL     1      -6.079   0.939   1.516  1.00  0.00     0.029 A 
ATOM     47  N   UNL     1      -7.395   1.913   3.038  1.00  0.00    -0.354 N 
ATOM     48  C   UNL     1      -7.998   6.192   3.042  1.00  0.00     0.074 A 
ATOM     49  C   UNL     1      -7.296   6.818   1.944  1.00  0.00     0.031 C 
ATOM     50  C   UNL     1      -6.508  -0.021   2.352  1.00  0.00     0.029 A 
ATOM     51  C   UNL     1      -7.360   0.581   3.372  1.00  0.00     0.049 A 
ATOM     52  H   UNL     1      -7.901   2.584   3.550  1.00  0.00     0.167 HD
ATOM     53  C   UNL     1      -8.748   6.863   3.947  1.00  0.00     0.037 A 
ATOM     54  C   UNL     1      -7.949  -0.078   4.388  1.00  0.00     0.037 A 
ATOM     55  C   UNL     1      -9.490   6.234   5.006  1.00  0.00     0.049 A 
ATOM     56  C   UNL     1      -8.809   0.685   5.358  1.00  0.00     0.074 A 
ATOM     57  C   UNL     1     -10.349   6.816   5.921  1.00  0.00     0.029 A 
ATOM     58  N   UNL     1      -9.464   4.876   5.286  1.00  0.00    -0.354 N 
ATOM     59  N   UNL     1      -9.079   1.967   5.393  1.00  0.00    -0.248 NA
ATOM     60  C   UNL     1      -9.452  -0.092   6.427  1.00  0.00     0.031 C 
ATOM     61  C   UNL     1     -10.814   5.814   6.780  1.00  0.00     0.029 A 
ATOM     62  C   UNL     1     -10.280   4.603   6.371  1.00  0.00     0.049 A 
ATOM     63  H   UNL     1      -8.943   4.205   4.788  1.00  0.00     0.167 HD
ATOM     64  C   UNL     1      -9.940   2.147   6.467  1.00  0.00     0.074 A 
ATOM     65  C   UNL     1     -10.161   0.840   7.049  1.00  0.00     0.031 C 
ATOM     66  C   UNL     1     -10.497   3.293   6.930  1.00  0.00     0.037 A 
BRANCH  53  67
ATOM     67  C   UNL     1      -8.814   8.357   3.821  1.00  0.00     0.064 A 
ATOM     68  C   UNL     1      -9.492   8.978   2.761  1.00  0.00     0.173 A 
ATOM     69  C   UNL     1      -8.217   9.180   4.788  1.00  0.00     0.173 A 
ATOM     70  F   UNL     1     -10.068   8.236   1.802  1.00  0.00    -0.203 F 
ATOM     71  C   UNL     1      -9.541  10.365   2.655  1.00  0.00     0.198 A 
ATOM     72  C   UNL     1      -8.295  10.567   4.696  1.00  0.00     0.198 A 
ATOM     73  F   UNL     1      -7.560   8.639   5.825  1.00  0.00    -0.203 F 
ATOM     74  F   UNL     1     -10.148  10.934   1.604  1.00  0.00    -0.200 F 
ATOM     75  C   UNL     1      -8.949  11.158   3.626  1.00  0.00     0.200 A 
ATOM     76  F   UNL     1      -7.733  11.333   5.642  1.00  0.00    -0.200 F 
ATOM     77  F   UNL     1      -9.003  12.494   3.526  1.00  0.00    -0.200 F 
ENDBRANCH  53  67
BRANCH  54  78
ATOM     78  C   UNL     1      -7.779  -1.549   4.515  1.00  0.00     0.064 A 
ATOM     79  C   UNL     1      -8.845  -2.419   4.247  1.00  0.00     0.173 A 
ATOM     80  C   UNL     1      -6.557  -2.115   4.903  1.00  0.00     0.173 A 
ATOM     81  F   UNL     1     -10.040  -1.923   3.893  1.00  0.00    -0.203 F 
ATOM     82  C   UNL     1      -8.700  -3.798   4.378  1.00  0.00     0.198 A 
ATOM     83  C   UNL     1      -6.405  -3.496   5.009  1.00  0.00     0.198 A 
ATOM     84  F   UNL     1      -5.506  -1.325   5.167  1.00  0.00    -0.203 F 
ATOM     85  F   UNL     1      -9.747  -4.604   4.154  1.00  0.00    -0.200 F 
ATOM     86  C   UNL     1      -7.479  -4.336   4.753  1.00  0.00     0.200 A 
ATOM     87  F   UNL     1      -5.220  -4.014   5.360  1.00  0.00    -0.200 F 
ATOM     88  F   UNL     1      -7.338  -5.663   4.874  1.00  0.00    -0.200 F 
ENDBRANCH  54  78
BRANCH  66  89
ATOM     89  C   UNL     1     -11.426   3.182   8.102  1.00  0.00     0.064 A 
ATOM     90  C   UNL     1     -10.950   2.928   9.396  1.00  0.00     0.173 A 
ATOM     91  C   UNL     1     -12.805   3.383   7.934  1.00  0.00     0.173 A 
ATOM     92  F   UNL     1      -9.642   2.715   9.604  1.00  0.00    -0.203 F 
ATOM     93  C   UNL     1     -11.824   2.858  10.477  1.00  0.00     0.198 A 
ATOM     94  C   UNL     1     -13.672   3.340   9.022  1.00  0.00     0.198 A 
ATOM     95  F   UNL     1     -13.309   3.637   6.717  1.00  0.00    -0.203 F 
ATOM     96  F   UNL     1     -11.353   2.573  11.699  1.00  0.00    -0.200 F 
ATOM     97  C   UNL     1     -13.182   3.072  10.291  1.00  0.00     0.200 A 
ATOM     98  F   UNL     1     -14.982   3.561   8.842  1.00  0.00    -0.200 F 
ATOM     99  F   UNL     1     -14.020   3.013  11.335  1.00  0.00    -0.200 F 
ENDBRANCH  66  89
ENDBRANCH  40  41
ENDBRANCH  32  35
ENDBRANCH  30  31
ENDBRANCH  29  30
ENDBRANCH  28  29
ENDBRANCH   1  28
TORSDOF 15
