REMARK SMILES CC(C)[C@H](CO)NS(=O)(=O)c1ccc(C(=O)NCCCCNC(=O)c2ccc(-c3c4nc(c(-c5c(F)c(F)c(F)c(F)c5F)c5ccc([nH]5)c(-c5c(F)c(F)c(F)c(F)c5F)c5nc(c(-c6c(F)c(F)c(F)c(F)c6F)c6ccc3[nH]6)C=C5)C=C4)cc2)cn1
REMARK SMILES IDX 18 1 17 2 15 3 16 4 14 6 11 7 12 8 89 9 13 10 88 11 8 12
REMARK SMILES IDX 9 13 10 14 7 15 4 17 2 18 1 19 3 20 5 21 6 22 19 24 20 25
REMARK SMILES IDX 21 26 22 27 23 28 24 30 25 31 26 32 87 33 27 34 86 35 28 36
REMARK SMILES IDX 29 37 30 38 80 39 31 40 85 41 79 42 81 43 32 44 84 45 78 46
REMARK SMILES IDX 77 47 33 49 65 50 45 51 64 52 46 53 49 54 63 55 82 56 47 57
REMARK SMILES IDX 48 58 62 60 83 61 50 62 34 63 35 64 43 65 36 66 37 67 41 68
REMARK SMILES IDX 44 69 38 70 39 71 42 72 40 73 66 74 67 75 75 76 68 77 69 78
REMARK SMILES IDX 73 79 76 80 70 81 71 82 74 83 72 84 51 85 52 86 60 87 53 88
REMARK SMILES IDX 54 89 58 90 61 91 55 92 56 93 59 94 57 95
REMARK H PARENT 17 5 7 16 6 23 22 29 81 48 49 59
REMARK Flexibility Score: inf
ROOT
ATOM      1  C   UNL     1      -5.401  -5.407   4.108  1.00  0.00     0.116 C 
ENDROOT
BRANCH   1   2
ATOM      2  N   UNL     1      -5.389  -4.014   4.506  1.00  0.00    -0.352 N 
ATOM      3  C   UNL     1      -4.992  -2.882   3.840  1.00  0.00     0.252 C 
ATOM      4  O   UNL     1      -5.110  -1.803   4.420  1.00  0.00    -0.269 OA
ATOM      5  H   UNL     1      -5.726  -3.850   5.416  1.00  0.00     0.163 HD
BRANCH   3   6
ATOM      6  C   UNL     1      -4.474  -2.893   2.449  1.00  0.00     0.058 A 
ATOM      7  C   UNL     1      -3.693  -2.684  -0.169  1.00  0.00     0.170 A 
ATOM      8  C   UNL     1      -3.453  -3.877   0.486  1.00  0.00     0.043 A 
ATOM      9  N   UNL     1      -4.251  -1.588   0.407  1.00  0.00    -0.243 NA
ATOM     10  C   UNL     1      -3.821  -3.961   1.826  1.00  0.00     0.018 A 
ATOM     11  C   UNL     1      -4.634  -1.727   1.702  1.00  0.00     0.126 A 
BRANCH   7  12
ATOM     12  S   UNL     1      -3.296  -2.527  -1.903  1.00  0.00     0.258 S 
ATOM     13  O   UNL     1      -4.201  -1.586  -2.517  1.00  0.00    -0.205 OA
ATOM     14  O   UNL     1      -3.179  -3.868  -2.450  1.00  0.00    -0.205 OA
BRANCH  12  15
ATOM     15  N   UNL     1      -1.728  -1.874  -1.987  1.00  0.00    -0.204 NA
ATOM     16  H   UNL     1      -1.085  -2.666  -1.972  1.00  0.00     0.141 HD
BRANCH  15  17
ATOM     17  C   UNL     1      -1.231  -0.902  -0.955  1.00  0.00     0.098 C 
BRANCH  17  18
ATOM     18  C   UNL     1      -1.349   0.578  -1.408  1.00  0.00     0.003 C 
ATOM     19  C   UNL     1      -2.735   0.963  -1.927  1.00  0.00     0.009 C 
ATOM     20  C   UNL     1      -1.016   1.526  -0.242  1.00  0.00     0.009 C 
ENDBRANCH  17  18
BRANCH  17  21
ATOM     21  C   UNL     1       0.252  -1.301  -0.706  1.00  0.00     0.176 C 
BRANCH  21  22
ATOM     22  O   UNL     1       0.922  -1.558  -1.942  1.00  0.00    -0.395 OA
ATOM     23  H   UNL     1       0.483  -2.289  -2.403  1.00  0.00     0.210 HD
ENDBRANCH  21  22
ENDBRANCH  17  21
ENDBRANCH  15  17
ENDBRANCH  12  15
ENDBRANCH   7  12
ENDBRANCH   3   6
ENDBRANCH   1   2
BRANCH   1  24
ATOM     24  C   UNL     1      -4.122  -6.106   4.577  1.00  0.00     0.023 C 
BRANCH  24  25
ATOM     25  C   UNL     1      -4.171  -6.583   6.028  1.00  0.00     0.023 C 
BRANCH  25  26
ATOM     26  C   UNL     1      -5.240  -7.629   6.312  1.00  0.00     0.116 C 
BRANCH  26  27
ATOM     27  N   UNL     1      -5.126  -8.814   5.475  1.00  0.00    -0.352 N 
ATOM     28  C   UNL     1      -5.436 -10.113   5.798  1.00  0.00     0.251 C 
ATOM     29  H   UNL     1      -4.784  -8.667   4.563  1.00  0.00     0.163 HD
ATOM     30  O   UNL     1      -5.181 -11.030   5.026  1.00  0.00    -0.269 OA
BRANCH  28  31
ATOM     31  C   UNL     1      -6.040 -10.389   7.114  1.00  0.00     0.039 A 
ATOM     32  C   UNL     1      -5.462 -11.362   7.930  1.00  0.00     0.014 A 
ATOM     33  C   UNL     1      -7.132  -9.639   7.561  1.00  0.00     0.014 A 
ATOM     34  C   UNL     1      -5.941 -11.537   9.229  1.00  0.00     0.010 A 
ATOM     35  C   UNL     1      -7.550  -9.757   8.880  1.00  0.00     0.010 A 
ATOM     36  C   UNL     1      -6.961 -10.709   9.726  1.00  0.00    -0.014 A 
BRANCH  36  37
ATOM     37  C   UNL     1      -7.426 -10.826  11.130  1.00  0.00     0.031 A 
ATOM     38  C   UNL     1      -8.845 -11.228  11.420  1.00  0.00     0.074 A 
ATOM     39  C   UNL     1      -6.589 -10.511  12.137  1.00  0.00     0.049 A 
ATOM     40  N   UNL     1      -9.456 -11.334  12.573  1.00  0.00    -0.248 NA
ATOM     41  C   UNL     1      -9.700 -11.522  10.259  1.00  0.00     0.031 C 
ATOM     42  C   UNL     1      -5.207 -10.055  11.978  1.00  0.00     0.029 A 
ATOM     43  N   UNL     1      -6.781 -10.518  13.496  1.00  0.00    -0.354 N 
ATOM     44  C   UNL     1     -10.763 -11.694  12.274  1.00  0.00     0.074 A 
ATOM     45  C   UNL     1     -10.876 -11.726  10.833  1.00  0.00     0.031 C 
ATOM     46  C   UNL     1      -4.668  -9.853  13.191  1.00  0.00     0.029 A 
ATOM     47  C   UNL     1      -5.676 -10.124  14.211  1.00  0.00     0.049 A 
ATOM     48  H   UNL     1      -7.631 -10.780  13.919  1.00  0.00     0.167 HD
ATOM     49  C   UNL     1     -11.770 -11.997  13.127  1.00  0.00     0.037 A 
ATOM     50  C   UNL     1      -5.500  -9.992  15.539  1.00  0.00     0.037 A 
ATOM     51  C   UNL     1     -11.645 -11.983  14.561  1.00  0.00     0.049 A 
ATOM     52  C   UNL     1      -6.640 -10.326  16.464  1.00  0.00     0.074 A 
ATOM     53  C   UNL     1     -12.587 -12.332  15.512  1.00  0.00     0.029 A 
ATOM     54  N   UNL     1     -10.505 -11.594  15.249  1.00  0.00    -0.354 N 
ATOM     55  N   UNL     1      -7.849 -10.741  16.173  1.00  0.00    -0.248 NA
ATOM     56  C   UNL     1      -6.387 -10.181  17.904  1.00  0.00     0.031 C 
ATOM     57  C   UNL     1     -12.037 -12.100  16.777  1.00  0.00     0.029 A 
ATOM     58  C   UNL     1     -10.729 -11.669  16.615  1.00  0.00     0.049 A 
ATOM     59  H   UNL     1      -9.661 -11.308  14.830  1.00  0.00     0.167 HD
ATOM     60  C   UNL     1      -8.489 -10.937  17.390  1.00  0.00     0.074 A 
ATOM     61  C   UNL     1      -7.528 -10.612  18.423  1.00  0.00     0.031 C 
ATOM     62  C   UNL     1      -9.758 -11.349  17.630  1.00  0.00     0.037 A 
BRANCH  49  63
ATOM     63  C   UNL     1     -13.097 -12.371  12.531  1.00  0.00     0.064 A 
ATOM     64  C   UNL     1     -13.276 -13.569  11.821  1.00  0.00     0.173 A 
ATOM     65  C   UNL     1     -14.214 -11.539  12.702  1.00  0.00     0.173 A 
ATOM     66  F   UNL     1     -12.239 -14.395  11.617  1.00  0.00    -0.203 F 
ATOM     67  C   UNL     1     -14.514 -13.904  11.279  1.00  0.00     0.198 A 
ATOM     68  C   UNL     1     -15.459 -11.894  12.188  1.00  0.00     0.198 A 
ATOM     69  F   UNL     1     -14.101 -10.384  13.375  1.00  0.00    -0.203 F 
ATOM     70  F   UNL     1     -14.647 -15.026  10.559  1.00  0.00    -0.200 F 
ATOM     71  C   UNL     1     -15.606 -13.071  11.470  1.00  0.00     0.200 A 
ATOM     72  F   UNL     1     -16.516 -11.094  12.386  1.00  0.00    -0.200 F 
ATOM     73  F   UNL     1     -16.799 -13.399  10.956  1.00  0.00    -0.200 F 
ENDBRANCH  49  63
BRANCH  50  74
ATOM     74  C   UNL     1      -4.188  -9.542  16.077  1.00  0.00     0.064 A 
ATOM     75  C   UNL     1      -3.377 -10.412  16.820  1.00  0.00     0.173 A 
ATOM     76  C   UNL     1      -3.724  -8.235  15.872  1.00  0.00     0.173 A 
ATOM     77  F   UNL     1      -3.785 -11.667  17.059  1.00  0.00    -0.203 F 
ATOM     78  C   UNL     1      -2.166  -9.983  17.361  1.00  0.00     0.198 A 
ATOM     79  C   UNL     1      -2.498  -7.816  16.385  1.00  0.00     0.198 A 
ATOM     80  F   UNL     1      -4.457  -7.365  15.162  1.00  0.00    -0.203 F 
ATOM     81  F   UNL     1      -1.438 -10.819  18.112  1.00  0.00    -0.200 F 
ATOM     82  C   UNL     1      -1.725  -8.687  17.138  1.00  0.00     0.200 A 
ATOM     83  F   UNL     1      -2.068  -6.569  16.153  1.00  0.00    -0.200 F 
ATOM     84  F   UNL     1      -0.560  -8.276  17.656  1.00  0.00    -0.200 F 
ENDBRANCH  50  74
BRANCH  62  85
ATOM     85  C   UNL     1     -10.169 -11.513  19.066  1.00  0.00     0.064 A 
ATOM     86  C   UNL     1     -10.351 -10.411  19.914  1.00  0.00     0.173 A 
ATOM     87  C   UNL     1     -10.421 -12.791  19.588  1.00  0.00     0.173 A 
ATOM     88  F   UNL     1     -10.110  -9.169  19.468  1.00  0.00    -0.203 F 
ATOM     89  C   UNL     1     -10.739 -10.585  21.240  1.00  0.00     0.198 A 
ATOM     90  C   UNL     1     -10.843 -12.959  20.904  1.00  0.00     0.198 A 
ATOM     91  F   UNL     1     -10.270 -13.879  18.817  1.00  0.00    -0.203 F 
ATOM     92  F   UNL     1     -10.853  -9.521  22.047  1.00  0.00    -0.200 F 
ATOM     93  C   UNL     1     -10.993 -11.857  21.731  1.00  0.00     0.200 A 
ATOM     94  F   UNL     1     -11.105 -14.188  21.370  1.00  0.00    -0.200 F 
ATOM     95  F   UNL     1     -11.375 -12.021  23.005  1.00  0.00    -0.200 F 
ENDBRANCH  62  85
ENDBRANCH  36  37
ENDBRANCH  28  31
ENDBRANCH  26  27
ENDBRANCH  25  26
ENDBRANCH  24  25
ENDBRANCH   1  24
TORSDOF 17
