REMARK SMILES CCOc1ccc2c(c1)=N[C@H](SCC(=O)NCCCCNC(=O)c1ccc(-c3c4nc(c(-c5c(F)c(F)c(F)c(F)c5F)c5ccc([nH]5)c(-c5c(F)c(F)c(F)c(F)c5F)c5nc(c(-c6c(F)c(F)c(F)c(F)c6F)c6ccc3[nH]6)C=C5)C=C4)cc1)N=2
REMARK SMILES IDX 17 1 16 2 14 3 15 4 13 6 12 7 11 8 4 9 5 10 9 11 6 12 8 13
REMARK SMILES IDX 7 14 10 15 87 16 3 17 2 18 1 19 18 20 19 21 20 22 21 23
REMARK SMILES IDX 22 24 23 26 24 27 25 28 86 29 26 30 85 31 27 32 28 33 29 34
REMARK SMILES IDX 79 35 30 36 84 37 78 38 80 39 31 40 83 41 77 42 76 43 32 45
REMARK SMILES IDX 64 46 44 47 63 48 45 49 48 50 62 51 81 52 46 53 47 54 61 56
REMARK SMILES IDX 82 57 49 58 33 59 34 60 42 61 35 62 36 63 40 64 43 65 37 66
REMARK SMILES IDX 38 67 41 68 39 69 65 70 66 71 74 72 67 73 68 74 72 75 75 76
REMARK SMILES IDX 69 77 70 78 73 79 71 80 50 81 51 82 59 83 52 84 53 85 57 86
REMARK SMILES IDX 60 87 54 88 55 89 58 90 56 91
REMARK H PARENT 16 5 21 25 80 44 48 55
REMARK Flexibility Score: inf
ROOT
ATOM      1  C   UNL     1       7.602   0.269  -9.018  1.00  0.00     0.116 C 
ENDROOT
BRANCH   1   2
ATOM      2  N   UNL     1       8.451   0.944  -8.054  1.00  0.00    -0.355 N 
ATOM      3  C   UNL     1       8.763   0.587  -6.774  1.00  0.00     0.230 C 
ATOM      4  O   UNL     1       9.430   1.379  -6.103  1.00  0.00    -0.274 OA
ATOM      5  H   UNL     1       8.861   1.782  -8.368  1.00  0.00     0.163 HD
BRANCH   3   6
ATOM      6  C   UNL     1       8.367  -0.770  -6.220  1.00  0.00     0.173 C 
BRANCH   6   7
ATOM      7  S   UNL     1       6.578  -1.003  -6.078  1.00  0.00    -0.102 SA
BRANCH   7   8
ATOM      8  C   UNL     1       6.174   0.361  -4.902  1.00  0.00     0.281 C 
ATOM      9  C   UNL     1       2.423   0.003  -2.459  1.00  0.00     0.121 A 
ATOM     10  C   UNL     1       3.379  -0.560  -1.522  1.00  0.00     0.049 A 
ATOM     11  C   UNL     1       2.775   0.492  -3.657  1.00  0.00     0.076 A 
ATOM     12  C   UNL     1       4.700  -0.595  -1.746  1.00  0.00     0.034 A 
ATOM     13  C   UNL     1       4.195   0.440  -4.008  1.00  0.00     0.090 A 
ATOM     14  C   UNL     1       5.169  -0.103  -3.041  1.00  0.00     0.087 A 
ATOM     15  N   UNL     1       4.764   0.813  -5.100  1.00  0.00    -0.246 NA
ATOM     16  N   UNL     1       6.372  -0.078  -3.496  1.00  0.00    -0.246 NA
BRANCH   9  17
ATOM     17  O   UNL     1       1.097  -0.142  -2.120  1.00  0.00    -0.494 OA
BRANCH  17  18
ATOM     18  C   UNL     1       0.614   0.859  -1.218  1.00  0.00     0.226 C 
ATOM     19  C   UNL     1       0.529   0.299   0.191  1.00  0.00     0.049 C 
ENDBRANCH  17  18
ENDBRANCH   9  17
ENDBRANCH   7   8
ENDBRANCH   6   7
ENDBRANCH   3   6
ENDBRANCH   1   2
BRANCH   1  20
ATOM     20  C   UNL     1       6.209   0.902  -9.086  1.00  0.00     0.023 C 
BRANCH  20  21
ATOM     21  C   UNL     1       6.183   2.345  -9.592  1.00  0.00     0.023 C 
BRANCH  21  22
ATOM     22  C   UNL     1       6.729   2.547 -10.999  1.00  0.00     0.116 C 
BRANCH  22  23
ATOM     23  N   UNL     1       5.977   1.831 -12.019  1.00  0.00    -0.352 N 
ATOM     24  C   UNL     1       5.641   2.243 -13.287  1.00  0.00     0.251 C 
ATOM     25  H   UNL     1       5.667   0.931 -11.767  1.00  0.00     0.163 HD
ATOM     26  O   UNL     1       4.909   1.557 -13.994  1.00  0.00    -0.269 OA
BRANCH  24  27
ATOM     27  C   UNL     1       6.127   3.550 -13.777  1.00  0.00     0.039 A 
ATOM     28  C   UNL     1       7.465   3.917 -13.619  1.00  0.00     0.014 A 
ATOM     29  C   UNL     1       5.215   4.440 -14.353  1.00  0.00     0.014 A 
ATOM     30  C   UNL     1       7.852   5.228 -13.876  1.00  0.00     0.010 A 
ATOM     31  C   UNL     1       5.625   5.734 -14.682  1.00  0.00     0.010 A 
ATOM     32  C   UNL     1       6.932   6.155 -14.394  1.00  0.00    -0.014 A 
BRANCH  32  33
ATOM     33  C   UNL     1       7.354   7.565 -14.593  1.00  0.00     0.031 A 
ATOM     34  C   UNL     1       6.766   8.665 -13.752  1.00  0.00     0.074 A 
ATOM     35  C   UNL     1       8.323   7.844 -15.484  1.00  0.00     0.049 A 
ATOM     36  N   UNL     1       7.038   9.947 -13.762  1.00  0.00    -0.248 NA
ATOM     37  C   UNL     1       5.739   8.281 -12.771  1.00  0.00     0.031 C 
ATOM     38  C   UNL     1       8.982   6.860 -16.344  1.00  0.00     0.029 A 
ATOM     39  N   UNL     1       8.944   9.027 -15.793  1.00  0.00    -0.354 N 
ATOM     40  C   UNL     1       6.208  10.520 -12.807  1.00  0.00     0.074 A 
ATOM     41  C   UNL     1       5.402   9.454 -12.253  1.00  0.00     0.031 C 
ATOM     42  C   UNL     1       9.953   7.468 -17.041  1.00  0.00     0.029 A 
ATOM     43  C   UNL     1       9.949   8.892 -16.718  1.00  0.00     0.049 A 
ATOM     44  H   UNL     1       8.694   9.889 -15.390  1.00  0.00     0.167 HD
ATOM     45  C   UNL     1       6.136  11.815 -12.418  1.00  0.00     0.037 A 
ATOM     46  C   UNL     1      10.774   9.813 -17.252  1.00  0.00     0.037 A 
ATOM     47  C   UNL     1       6.958  12.872 -12.948  1.00  0.00     0.049 A 
ATOM     48  C   UNL     1      10.647  11.248 -16.829  1.00  0.00     0.074 A 
ATOM     49  C   UNL     1       6.969  14.212 -12.601  1.00  0.00     0.029 A 
ATOM     50  N   UNL     1       7.920  12.705 -13.933  1.00  0.00    -0.354 N 
ATOM     51  N   UNL     1       9.853  11.777 -15.931  1.00  0.00    -0.248 NA
ATOM     52  C   UNL     1      11.522  12.216 -17.505  1.00  0.00     0.031 C 
ATOM     53  C   UNL     1       7.915  14.863 -13.400  1.00  0.00     0.029 A 
ATOM     54  C   UNL     1       8.518  13.922 -14.219  1.00  0.00     0.049 A 
ATOM     55  H   UNL     1       8.144  11.850 -14.365  1.00  0.00     0.167 HD
ATOM     56  C   UNL     1      10.132  13.135 -15.929  1.00  0.00     0.074 A 
ATOM     57  C   UNL     1      11.186  13.348 -16.900  1.00  0.00     0.031 C 
ATOM     58  C   UNL     1       9.560  14.118 -15.192  1.00  0.00     0.037 A 
BRANCH  45  59
ATOM     59  C   UNL     1       5.130  12.174 -11.365  1.00  0.00     0.064 A 
ATOM     60  C   UNL     1       5.331  11.845 -10.017  1.00  0.00     0.173 A 
ATOM     61  C   UNL     1       3.984  12.912 -11.699  1.00  0.00     0.173 A 
ATOM     62  F   UNL     1       6.406  11.131  -9.650  1.00  0.00    -0.203 F 
ATOM     63  C   UNL     1       4.415  12.231  -9.042  1.00  0.00     0.198 A 
ATOM     64  C   UNL     1       3.082  13.315 -10.719  1.00  0.00     0.198 A 
ATOM     65  F   UNL     1       3.749  13.256 -12.974  1.00  0.00    -0.203 F 
ATOM     66  F   UNL     1       4.612  11.882  -7.763  1.00  0.00    -0.200 F 
ATOM     67  C   UNL     1       3.296  12.973  -9.392  1.00  0.00     0.200 A 
ATOM     68  F   UNL     1       2.007  14.041 -11.057  1.00  0.00    -0.200 F 
ATOM     69  F   UNL     1       2.422  13.354  -8.451  1.00  0.00    -0.200 F 
ENDBRANCH  45  59
BRANCH  46  70
ATOM     70  C   UNL     1      11.799   9.390 -18.238  1.00  0.00     0.064 A 
ATOM     71  C   UNL     1      13.157   9.371 -17.896  1.00  0.00     0.173 A 
ATOM     72  C   UNL     1      11.439   8.963 -19.524  1.00  0.00     0.173 A 
ATOM     73  F   UNL     1      13.549   9.790 -16.684  1.00  0.00    -0.203 F 
ATOM     74  C   UNL     1      14.119   8.939 -18.806  1.00  0.00     0.198 A 
ATOM     75  C   UNL     1      12.400   8.509 -20.425  1.00  0.00     0.198 A 
ATOM     76  F   UNL     1      10.151   8.962 -19.896  1.00  0.00    -0.203 F 
ATOM     77  F   UNL     1      15.415   8.952 -18.465  1.00  0.00    -0.200 F 
ATOM     78  C   UNL     1      13.739   8.500 -20.066  1.00  0.00     0.200 A 
ATOM     79  F   UNL     1      12.027   8.072 -21.635  1.00  0.00    -0.200 F 
ATOM     80  F   UNL     1      14.664   8.070 -20.935  1.00  0.00    -0.200 F 
ENDBRANCH  46  70
BRANCH  58  81
ATOM     81  C   UNL     1      10.058  15.515 -15.405  1.00  0.00     0.064 A 
ATOM     82  C   UNL     1       9.697  16.250 -16.543  1.00  0.00     0.173 A 
ATOM     83  C   UNL     1      10.852  16.146 -14.435  1.00  0.00     0.173 A 
ATOM     84  F   UNL     1       8.950  15.684 -17.503  1.00  0.00    -0.203 F 
ATOM     85  C   UNL     1      10.122  17.565 -16.708  1.00  0.00     0.198 A 
ATOM     86  C   UNL     1      11.257  17.468 -14.594  1.00  0.00     0.198 A 
ATOM     87  F   UNL     1      11.219  15.485 -13.327  1.00  0.00    -0.203 F 
ATOM     88  F   UNL     1       9.790  18.241 -17.817  1.00  0.00    -0.200 F 
ATOM     89  C   UNL     1      10.895  18.175 -15.731  1.00  0.00     0.200 A 
ATOM     90  F   UNL     1      11.995  18.059 -13.644  1.00  0.00    -0.200 F 
ATOM     91  F   UNL     1      11.295  19.445 -15.887  1.00  0.00    -0.200 F 
ENDBRANCH  58  81
ENDBRANCH  32  33
ENDBRANCH  24  27
ENDBRANCH  22  23
ENDBRANCH  21  22
ENDBRANCH  20  21
ENDBRANCH   1  20
TORSDOF 15
