REMARK SMILES O=C(CCC(=O)N1N=C(c2ccc(F)cc2)C[C@@H]1c1ccc2nccnc2c1)NCCCCNC(=O)c1ccc(-c2c3nc(c(-c4c(F)c(F)c(F)c(F)c4F)c4ccc([nH]4)c(-c4c(F)c(F)c(F)c(F)c4F)c4nc(c(-c5c(F)c(F)c(F)c(F)c5F)c5ccc2[nH]5)C=C4)C=C3)cc1
REMARK SMILES IDX 30 1 29 2 1 3 2 4 3 6 4 7 5 8 6 9 7 10 8 11 18 12 9 13 17 14
REMARK SMILES IDX 19 15 20 16 28 17 21 18 27 19 22 20 26 21 23 22 25 23 24 24
REMARK SMILES IDX 10 25 11 26 16 27 12 28 15 29 13 30 14 31 31 32 32 33 33 34
REMARK SMILES IDX 34 35 35 36 36 38 37 39 38 40 99 41 39 42 98 43 40 44 41 45
REMARK SMILES IDX 42 46 92 47 43 48 97 49 91 50 93 51 44 52 96 53 90 54 89 55
REMARK SMILES IDX 45 57 77 58 57 59 76 60 58 61 61 62 75 63 94 64 59 65 60 66
REMARK SMILES IDX 74 68 95 69 62 70 46 71 47 72 55 73 48 74 49 75 53 76 56 77
REMARK SMILES IDX 50 78 51 79 54 80 52 81 78 82 79 83 87 84 80 85 81 86 85 87
REMARK SMILES IDX 88 88 82 89 83 90 86 91 84 92 63 93 64 94 72 95 65 96 66 97
REMARK SMILES IDX 70 98 73 99 67 100 68 101 71 102 69 103
REMARK H PARENT 29 5 34 37 93 56 61 67
REMARK Flexibility Score: inf
ROOT
ATOM      1  C   UNL     1       0.967   1.185   2.467  1.00  0.00     0.116 C 
ENDROOT
BRANCH   1   2
ATOM      2  N   UNL     1       1.296   0.333   1.300  1.00  0.00    -0.356 N 
ATOM      3  O   UNL     1       0.905   1.938  -0.315  1.00  0.00    -0.275 OA
ATOM      4  C   UNL     1       1.394   0.848  -0.007  1.00  0.00     0.220 C 
ATOM      5  H   UNL     1       1.452  -0.628   1.444  1.00  0.00     0.163 HD
BRANCH   4   6
ATOM      6  C   UNL     1       2.322   0.065  -0.995  1.00  0.00     0.110 C 
BRANCH   6   7
ATOM      7  C   UNL     1       3.349   0.975  -1.749  1.00  0.00     0.112 C 
BRANCH   7   8
ATOM      8  C   UNL     1       4.808   1.357  -1.302  1.00  0.00     0.243 C 
ATOM      9  O   UNL     1       5.660   1.548  -2.176  1.00  0.00    -0.273 OA
BRANCH   8  10
ATOM     10  N   UNL     1       5.061   1.674   0.025  1.00  0.00    -0.225 N 
ATOM     11  N   UNL     1       5.616   2.930   0.360  1.00  0.00    -0.174 NA
ATOM     12  C   UNL     1       4.346   1.116   1.129  1.00  0.00     0.147 C 
ATOM     13  C   UNL     1       5.051   3.295   1.481  1.00  0.00     0.071 C 
ATOM     14  C   UNL     1       3.995   2.344   1.937  1.00  0.00     0.091 C 
BRANCH  12  15
ATOM     15  C   UNL     1       4.715  -0.304   1.573  1.00  0.00    -0.021 A 
ATOM     16  C   UNL     1       3.747  -1.052   2.244  1.00  0.00     0.008 A 
ATOM     17  C   UNL     1       5.799  -1.062   1.111  1.00  0.00     0.036 A 
ATOM     18  C   UNL     1       3.790  -2.425   2.459  1.00  0.00     0.031 A 
ATOM     19  C   UNL     1       5.886  -2.466   1.306  1.00  0.00     0.089 A 
ATOM     20  C   UNL     1       4.849  -3.145   1.997  1.00  0.00     0.089 A 
ATOM     21  N   UNL     1       6.915  -3.187   0.818  1.00  0.00    -0.253 NA
ATOM     22  N   UNL     1       4.822  -4.472   2.207  1.00  0.00    -0.253 NA
ATOM     23  C   UNL     1       6.884  -4.529   1.030  1.00  0.00     0.132 A 
ATOM     24  C   UNL     1       5.863  -5.160   1.711  1.00  0.00     0.132 A 
ENDBRANCH  12  15
BRANCH  13  25
ATOM     25  C   UNL     1       5.250   4.584   2.211  1.00  0.00    -0.002 A 
ATOM     26  C   UNL     1       4.819   4.742   3.541  1.00  0.00     0.013 A 
ATOM     27  C   UNL     1       5.859   5.671   1.581  1.00  0.00     0.013 A 
ATOM     28  C   UNL     1       5.117   5.896   4.273  1.00  0.00     0.040 A 
ATOM     29  C   UNL     1       6.109   6.852   2.297  1.00  0.00     0.040 A 
ATOM     30  C   UNL     1       5.773   6.940   3.645  1.00  0.00     0.123 A 
ATOM     31  F   UNL     1       6.083   8.040   4.343  1.00  0.00    -0.207 F 
ENDBRANCH  13  25
ENDBRANCH   8  10
ENDBRANCH   7   8
ENDBRANCH   6   7
ENDBRANCH   4   6
ENDBRANCH   1   2
BRANCH   1  32
ATOM     32  C   UNL     1       1.368   0.887   3.995  1.00  0.00     0.023 C 
BRANCH  32  33
ATOM     33  C   UNL     1       2.640   0.372   4.803  1.00  0.00     0.023 C 
BRANCH  33  34
ATOM     34  C   UNL     1       3.961   1.117   5.178  1.00  0.00     0.116 C 
BRANCH  34  35
ATOM     35  N   UNL     1       3.764   2.289   6.012  1.00  0.00    -0.352 N 
ATOM     36  C   UNL     1       4.635   3.025   6.790  1.00  0.00     0.251 C 
ATOM     37  H   UNL     1       2.837   2.620   6.025  1.00  0.00     0.163 HD
ATOM     38  O   UNL     1       4.127   3.751   7.649  1.00  0.00    -0.269 OA
BRANCH  36  39
ATOM     39  C   UNL     1       6.125   3.053   6.653  1.00  0.00     0.039 A 
ATOM     40  C   UNL     1       6.877   3.397   7.793  1.00  0.00     0.014 A 
ATOM     41  C   UNL     1       6.797   2.941   5.435  1.00  0.00     0.014 A 
ATOM     42  C   UNL     1       8.260   3.621   7.716  1.00  0.00     0.010 A 
ATOM     43  C   UNL     1       8.177   3.191   5.346  1.00  0.00     0.010 A 
ATOM     44  C   UNL     1       8.921   3.522   6.485  1.00  0.00    -0.014 A 
BRANCH  44  45
ATOM     45  C   UNL     1      10.404   3.565   6.410  1.00  0.00     0.031 A 
ATOM     46  C   UNL     1      11.154   4.785   5.965  1.00  0.00     0.074 A 
ATOM     47  C   UNL     1      11.061   2.424   6.690  1.00  0.00     0.049 A 
ATOM     48  N   UNL     1      12.449   4.967   5.877  1.00  0.00    -0.248 NA
ATOM     49  C   UNL     1      10.357   5.948   5.551  1.00  0.00     0.031 C 
ATOM     50  C   UNL     1      10.412   1.168   7.072  1.00  0.00     0.029 A 
ATOM     51  N   UNL     1      12.397   2.119   6.681  1.00  0.00    -0.354 N 
ATOM     52  C   UNL     1      12.625   6.268   5.422  1.00  0.00     0.074 A 
ATOM     53  C   UNL     1      11.302   6.816   5.206  1.00  0.00     0.031 C 
ATOM     54  C   UNL     1      11.347   0.227   7.254  1.00  0.00     0.029 A 
ATOM     55  C   UNL     1      12.660   0.809   6.996  1.00  0.00     0.049 A 
ATOM     56  H   UNL     1      13.100   2.776   6.470  1.00  0.00     0.167 HD
ATOM     57  C   UNL     1      13.790   6.935   5.223  1.00  0.00     0.037 A 
ATOM     58  C   UNL     1      13.830   0.147   7.072  1.00  0.00     0.037 A 
ATOM     59  C   UNL     1      15.096   6.352   5.420  1.00  0.00     0.049 A 
ATOM     60  C   UNL     1      15.103   0.907   6.839  1.00  0.00     0.074 A 
ATOM     61  C   UNL     1      16.338   6.953   5.301  1.00  0.00     0.029 A 
ATOM     62  N   UNL     1      15.329   5.025   5.756  1.00  0.00    -0.354 N 
ATOM     63  N   UNL     1      15.260   2.168   6.517  1.00  0.00    -0.248 NA
ATOM     64  C   UNL     1      16.359   0.166   7.000  1.00  0.00     0.031 C 
ATOM     65  C   UNL     1      17.319   5.979   5.507  1.00  0.00     0.029 A 
ATOM     66  C   UNL     1      16.692   4.783   5.821  1.00  0.00     0.049 A 
ATOM     67  H   UNL     1      14.628   4.354   5.925  1.00  0.00     0.167 HD
ATOM     68  C   UNL     1      16.629   2.381   6.459  1.00  0.00     0.074 A 
ATOM     69  C   UNL     1      17.259   1.119   6.796  1.00  0.00     0.031 C 
ATOM     70  C   UNL     1      17.301   3.517   6.154  1.00  0.00     0.037 A 
BRANCH  57  71
ATOM     71  C   UNL     1      13.727   8.376   4.793  1.00  0.00     0.064 A 
ATOM     72  C   UNL     1      14.219   8.778   3.540  1.00  0.00     0.173 A 
ATOM     73  C   UNL     1      13.288   9.380   5.670  1.00  0.00     0.173 A 
ATOM     74  F   UNL     1      14.668   7.866   2.665  1.00  0.00    -0.203 F 
ATOM     75  C   UNL     1      14.289  10.126   3.191  1.00  0.00     0.198 A 
ATOM     76  C   UNL     1      13.334  10.725   5.308  1.00  0.00     0.198 A 
ATOM     77  F   UNL     1      12.813   9.056   6.882  1.00  0.00    -0.203 F 
ATOM     78  F   UNL     1      14.803  10.486   2.006  1.00  0.00    -0.200 F 
ATOM     79  C   UNL     1      13.844  11.098   4.074  1.00  0.00     0.200 A 
ATOM     80  F   UNL     1      12.892  11.662   6.158  1.00  0.00    -0.200 F 
ATOM     81  F   UNL     1      13.913  12.394   3.738  1.00  0.00    -0.200 F 
ENDBRANCH  57  71
BRANCH  58  82
ATOM     82  C   UNL     1      13.825  -1.289   7.450  1.00  0.00     0.064 A 
ATOM     83  C   UNL     1      13.301  -2.268   6.592  1.00  0.00     0.173 A 
ATOM     84  C   UNL     1      14.272  -1.701   8.713  1.00  0.00     0.173 A 
ATOM     85  F   UNL     1      12.843  -1.923   5.380  1.00  0.00    -0.203 F 
ATOM     86  C   UNL     1      13.202  -3.599   6.993  1.00  0.00     0.198 A 
ATOM     87  C   UNL     1      14.199  -3.036   9.102  1.00  0.00     0.198 A 
ATOM     88  F   UNL     1      14.788  -0.803   9.565  1.00  0.00    -0.203 F 
ATOM     89  F   UNL     1      12.650  -4.505   6.174  1.00  0.00    -0.200 F 
ATOM     90  C   UNL     1      13.654  -3.982   8.246  1.00  0.00     0.200 A 
ATOM     91  F   UNL     1      14.651  -3.406  10.308  1.00  0.00    -0.200 F 
ATOM     92  F   UNL     1      13.559  -5.262   8.632  1.00  0.00    -0.200 F 
ENDBRANCH  58  82
BRANCH  70  93
ATOM     93  C   UNL     1      18.801   3.459   6.180  1.00  0.00     0.064 A 
ATOM     94  C   UNL     1      19.522   4.157   7.161  1.00  0.00     0.173 A 
ATOM     95  C   UNL     1      19.525   2.776   5.193  1.00  0.00     0.173 A 
ATOM     96  F   UNL     1      18.876   4.831   8.124  1.00  0.00    -0.203 F 
ATOM     97  C   UNL     1      20.913   4.188   7.141  1.00  0.00     0.198 A 
ATOM     98  C   UNL     1      20.917   2.782   5.195  1.00  0.00     0.198 A 
ATOM     99  F   UNL     1      18.882   2.080   4.243  1.00  0.00    -0.203 F 
ATOM    100  F   UNL     1      21.579   4.894   8.065  1.00  0.00    -0.200 F 
ATOM    101  C   UNL     1      21.609   3.497   6.161  1.00  0.00     0.200 A 
ATOM    102  F   UNL     1      21.589   2.091   4.264  1.00  0.00    -0.200 F 
ATOM    103  F   UNL     1      22.949   3.518   6.149  1.00  0.00    -0.200 F 
ENDBRANCH  70  93
ENDBRANCH  44  45
ENDBRANCH  36  39
ENDBRANCH  34  35
ENDBRANCH  33  34
ENDBRANCH  32  33
ENDBRANCH   1  32
TORSDOF 16
