REMARK SMILES O=C(NCCCCNC(=O)[C@@H]1C[NH2+]CCN1C(=O)N[C@@H]1CCOC1)c1ccc(-c2c3nc(c(-c4c(F)c(F)c(F)c(F)c4F)c4ccc([nH]4)c(-c4c(F)c(F)c(F)c(F)c4F)c4nc(c(-c5c(F)c(F)c(F)c(F)c5F)c5ccc2[nH]5)C=C4)C=C3)cc1
REMARK SMILES IDX 5 1 4 2 3 3 1 4 2 5 25 7 26 8 87 9 27 10 86 11 28 12 29 13
REMARK SMILES IDX 30 14 80 15 31 16 85 17 79 18 81 19 32 20 84 21 78 22 77 23
REMARK SMILES IDX 33 25 65 26 45 27 64 28 46 29 49 30 63 31 82 32 47 33 48 34
REMARK SMILES IDX 62 36 83 37 50 38 34 39 35 40 43 41 36 42 37 43 41 44 44 45
REMARK SMILES IDX 38 46 39 47 42 48 40 49 66 50 67 51 75 52 68 53 69 54 73 55
REMARK SMILES IDX 76 56 70 57 71 58 74 59 72 60 51 61 52 62 60 63 53 64 54 65
REMARK SMILES IDX 58 66 61 67 55 68 56 69 59 70 57 71 6 72 7 73 8 74 9 75
REMARK SMILES IDX 10 77 11 78 12 79 16 80 13 81 15 82 14 83 17 86 18 87 19 88
REMARK SMILES IDX 20 90 21 91 24 92 22 93 23 94
REMARK H PARENT 3 6 81 24 49 35 8 76 13 84 13 85 19 89
REMARK Flexibility Score: inf
ROOT
ATOM      1  C   UNL     1       4.261  -2.234  -1.521  1.00  0.00     0.023 C 
ENDROOT
BRANCH   1   2
ATOM      2  C   UNL     1       4.212  -0.723  -1.308  1.00  0.00     0.116 C 
BRANCH   2   3
ATOM      3  N   UNL     1       2.848  -0.235  -1.156  1.00  0.00    -0.352 N 
ATOM      4  O   UNL     1       0.978   0.371  -0.054  1.00  0.00    -0.269 OA
ATOM      5  C   UNL     1       2.193   0.226  -0.037  1.00  0.00     0.251 C 
ATOM      6  H   UNL     1       2.312  -0.236  -1.981  1.00  0.00     0.163 HD
BRANCH   5   7
ATOM      7  C   UNL     1       2.953   0.546   1.192  1.00  0.00     0.039 A 
ATOM      8  C   UNL     1       4.146   1.266   1.121  1.00  0.00     0.014 A 
ATOM      9  C   UNL     1       2.440   0.164   2.437  1.00  0.00     0.014 A 
ATOM     10  C   UNL     1       4.894   1.483   2.273  1.00  0.00     0.010 A 
ATOM     11  C   UNL     1       3.153   0.458   3.605  1.00  0.00     0.010 A 
ATOM     12  C   UNL     1       4.400   1.096   3.530  1.00  0.00    -0.014 A 
BRANCH  12  13
ATOM     13  C   UNL     1       5.183   1.429   4.748  1.00  0.00     0.031 A 
ATOM     14  C   UNL     1       5.780   0.352   5.610  1.00  0.00     0.074 A 
ATOM     15  C   UNL     1       5.386   2.726   5.048  1.00  0.00     0.049 A 
ATOM     16  N   UNL     1       6.528   0.472   6.679  1.00  0.00    -0.248 NA
ATOM     17  C   UNL     1       5.497  -1.039   5.230  1.00  0.00     0.031 C 
ATOM     18  C   UNL     1       4.845   3.857   4.292  1.00  0.00     0.029 A 
ATOM     19  N   UNL     1       6.117   3.315   6.048  1.00  0.00    -0.354 N 
ATOM     20  C   UNL     1       6.788  -0.823   7.109  1.00  0.00     0.074 A 
ATOM     21  C   UNL     1       6.097  -1.714   6.201  1.00  0.00     0.031 C 
ATOM     22  C   UNL     1       5.308   5.000   4.817  1.00  0.00     0.029 A 
ATOM     23  C   UNL     1       6.127   4.687   5.983  1.00  0.00     0.049 A 
ATOM     24  H   UNL     1       6.590   2.804   6.744  1.00  0.00     0.167 HD
ATOM     25  C   UNL     1       7.541  -1.227   8.161  1.00  0.00     0.037 A 
ATOM     26  C   UNL     1       6.720   5.594   6.779  1.00  0.00     0.037 A 
ATOM     27  C   UNL     1       8.240  -0.334   9.051  1.00  0.00     0.049 A 
ATOM     28  C   UNL     1       7.530   5.116   7.950  1.00  0.00     0.074 A 
ATOM     29  C   UNL     1       9.062  -0.647  10.121  1.00  0.00     0.029 A 
ATOM     30  N   UNL     1       8.194   1.052   8.978  1.00  0.00    -0.354 N 
ATOM     31  N   UNL     1       7.801   3.889   8.322  1.00  0.00    -0.248 NA
ATOM     32  C   UNL     1       8.114   6.151   8.813  1.00  0.00     0.031 C 
ATOM     33  C   UNL     1       9.473   0.548  10.723  1.00  0.00     0.029 A 
ATOM     34  C   UNL     1       8.951   1.607   9.998  1.00  0.00     0.049 A 
ATOM     35  H   UNL     1       7.697   1.565   8.300  1.00  0.00     0.167 HD
ATOM     36  C   UNL     1       8.601   4.002   9.450  1.00  0.00     0.074 A 
ATOM     37  C   UNL     1       8.788   5.419   9.688  1.00  0.00     0.031 C 
ATOM     38  C   UNL     1       9.129   3.020  10.221  1.00  0.00     0.037 A 
BRANCH  25  39
ATOM     39  C   UNL     1       7.634  -2.703   8.425  1.00  0.00     0.064 A 
ATOM     40  C   UNL     1       8.356  -3.562   7.583  1.00  0.00     0.173 A 
ATOM     41  C   UNL     1       7.025  -3.260   9.561  1.00  0.00     0.173 A 
ATOM     42  F   UNL     1       8.950  -3.084   6.480  1.00  0.00    -0.203 F 
ATOM     43  C   UNL     1       8.441  -4.927   7.853  1.00  0.00     0.198 A 
ATOM     44  C   UNL     1       7.136  -4.620   9.842  1.00  0.00     0.198 A 
ATOM     45  F   UNL     1       6.329  -2.484  10.404  1.00  0.00    -0.203 F 
ATOM     46  F   UNL     1       9.098  -5.735   7.009  1.00  0.00    -0.200 F 
ATOM     47  C   UNL     1       7.837  -5.453   8.985  1.00  0.00     0.200 A 
ATOM     48  F   UNL     1       6.562  -5.124  10.944  1.00  0.00    -0.200 F 
ATOM     49  F   UNL     1       7.924  -6.765   9.245  1.00  0.00    -0.200 F 
ENDBRANCH  25  39
BRANCH  26  50
ATOM     50  C   UNL     1       6.574   7.043   6.485  1.00  0.00     0.064 A 
ATOM     51  C   UNL     1       7.668   7.803   6.050  1.00  0.00     0.173 A 
ATOM     52  C   UNL     1       5.338   7.693   6.617  1.00  0.00     0.173 A 
ATOM     53  F   UNL     1       8.874   7.231   5.926  1.00  0.00    -0.203 F 
ATOM     54  C   UNL     1       7.533   9.162   5.771  1.00  0.00     0.198 A 
ATOM     55  C   UNL     1       5.198   9.043   6.308  1.00  0.00     0.198 A 
ATOM     56  F   UNL     1       4.259   7.008   7.025  1.00  0.00    -0.203 F 
ATOM     57  F   UNL     1       8.603   9.874   5.393  1.00  0.00    -0.200 F 
ATOM     58  C   UNL     1       6.297   9.778   5.892  1.00  0.00     0.200 A 
ATOM     59  F   UNL     1       3.998   9.630   6.410  1.00  0.00    -0.200 F 
ATOM     60  F   UNL     1       6.166  11.082   5.613  1.00  0.00    -0.200 F 
ENDBRANCH  26  50
BRANCH  38  61
ATOM     61  C   UNL     1       9.986   3.450  11.375  1.00  0.00     0.064 A 
ATOM     62  C   UNL     1       9.436   4.049  12.517  1.00  0.00     0.173 A 
ATOM     63  C   UNL     1      11.374   3.247  11.342  1.00  0.00     0.173 A 
ATOM     64  F   UNL     1       8.116   4.282  12.589  1.00  0.00    -0.203 F 
ATOM     65  C   UNL     1      10.248   4.459  13.572  1.00  0.00     0.198 A 
ATOM     66  C   UNL     1      12.179   3.630  12.411  1.00  0.00     0.198 A 
ATOM     67  F   UNL     1      11.949   2.674  10.274  1.00  0.00    -0.203 F 
ATOM     68  F   UNL     1       9.707   5.080  14.629  1.00  0.00    -0.200 F 
ATOM     69  C   UNL     1      11.617   4.244  13.520  1.00  0.00     0.200 A 
ATOM     70  F   UNL     1      13.500   3.412  12.364  1.00  0.00    -0.200 F 
ATOM     71  F   UNL     1      12.397   4.638  14.536  1.00  0.00    -0.200 F 
ENDBRANCH  38  61
ENDBRANCH  12  13
ENDBRANCH   5   7
ENDBRANCH   2   3
ENDBRANCH   1   2
BRANCH   1  72
ATOM     72  C   UNL     1       3.699  -2.709  -2.866  1.00  0.00     0.023 C 
BRANCH  72  73
ATOM     73  C   UNL     1       4.535  -2.323  -4.093  1.00  0.00     0.116 C 
BRANCH  73  74
ATOM     74  N   UNL     1       5.827  -2.994  -4.107  1.00  0.00    -0.354 N 
ATOM     75  C   UNL     1       6.682  -3.281  -5.142  1.00  0.00     0.248 C 
ATOM     76  H   UNL     1       6.142  -3.292  -3.223  1.00  0.00     0.163 HD
ATOM     77  O   UNL     1       7.705  -3.918  -4.875  1.00  0.00    -0.272 OA
BRANCH  75  78
ATOM     78  C   UNL     1       6.313  -2.925  -6.593  1.00  0.00     0.231 C 
ATOM     79  C   UNL     1       6.839  -4.080  -7.501  1.00  0.00     0.296 C 
ATOM     80  N   UNL     1       6.454  -1.609  -7.306  1.00  0.00    -0.302 N 
ATOM     81  N   UNL     1       6.108  -4.173  -8.788  1.00  0.00    -0.343 N 
ATOM     82  C   UNL     1       5.638  -1.690  -8.544  1.00  0.00     0.183 C 
ATOM     83  C   UNL     1       6.117  -2.860  -9.461  1.00  0.00     0.282 C 
ATOM     84  H   UNL     1       5.145  -4.457  -8.611  1.00  0.00     0.346 HD
ATOM     85  H   UNL     1       6.564  -4.862  -9.386  1.00  0.00     0.346 HD
BRANCH  80  86
ATOM     86  C   UNL     1       7.636  -0.971  -7.581  1.00  0.00     0.318 C 
ATOM     87  O   UNL     1       8.053  -0.839  -8.741  1.00  0.00    -0.249 OA
ATOM     88  N   UNL     1       8.379  -0.275  -6.732  1.00  0.00    -0.333 N 
ATOM     89  H   UNL     1       9.179   0.017  -7.226  1.00  0.00     0.165 HD
BRANCH  88  90
ATOM     90  C   UNL     1       8.510   0.240  -5.367  1.00  0.00     0.112 C 
ATOM     91  C   UNL     1       9.941  -0.037  -4.931  1.00  0.00     0.056 C 
ATOM     92  C   UNL     1       7.749  -0.431  -4.256  1.00  0.00     0.185 C 
ATOM     93  C   UNL     1       9.807  -1.478  -4.488  1.00  0.00     0.162 C 
ATOM     94  O   UNL     1       8.561  -1.512  -3.770  1.00  0.00    -0.379 OA
ENDBRANCH  88  90
ENDBRANCH  80  86
ENDBRANCH  75  78
ENDBRANCH  73  74
ENDBRANCH  72  73
ENDBRANCH   1  72
TORSDOF 13
