REMARK SMILES O=C(NCCCCNC(=O)[C@H]1C[C@H]2CCCC[C@@H]2[N@@H+]1Cc1ccno1)c1ccc(-c2c3nc(c(-c4c(F)c(F)c(F)c(F)c4F)c4ccc([nH]4)c(-c4c(F)c(F)c(F)c(F)c4F)c4nc(c(-c5c(F)c(F)c(F)c(F)c5F)c5ccc2[nH]5)C=C4)C=C3)cc1
REMARK SMILES IDX 5 1 4 2 3 3 1 4 2 5 26 7 27 8 88 9 28 10 87 11 29 12 30 13
REMARK SMILES IDX 31 14 81 15 32 16 86 17 80 18 82 19 33 20 85 21 79 22 78 23
REMARK SMILES IDX 34 25 66 26 46 27 65 28 47 29 50 30 64 31 83 32 48 33 49 34
REMARK SMILES IDX 63 36 84 37 51 38 35 39 36 40 44 41 37 42 38 43 42 44 45 45
REMARK SMILES IDX 39 46 40 47 43 48 41 49 67 50 68 51 76 52 69 53 70 54 74 55
REMARK SMILES IDX 77 56 71 57 72 58 75 59 73 60 52 61 53 62 61 63 54 64 55 65
REMARK SMILES IDX 59 66 62 67 56 68 57 69 60 70 58 71 6 72 7 73 8 74 9 75
REMARK SMILES IDX 10 77 11 78 12 79 19 80 13 81 18 82 14 84 17 85 15 86 16 87
REMARK SMILES IDX 20 88 21 89 22 90 25 91 23 92 24 93
REMARK H PARENT 3 6 82 24 50 35 8 76 19 83
REMARK Flexibility Score: inf
ROOT
ATOM      1  C   UNL     1       2.316  -6.819   6.769  1.00  0.00     0.023 C 
ENDROOT
BRANCH   1   2
ATOM      2  C   UNL     1       1.051  -7.363   6.117  1.00  0.00     0.116 C 
BRANCH   2   3
ATOM      3  N   UNL     1       1.137  -8.771   5.758  1.00  0.00    -0.352 N 
ATOM      4  O   UNL     1       0.351 -10.871   5.458  1.00  0.00    -0.269 OA
ATOM      5  C   UNL     1       0.121  -9.692   5.698  1.00  0.00     0.251 C 
ATOM      6  H   UNL     1       2.035  -9.104   5.530  1.00  0.00     0.163 HD
BRANCH   5   7
ATOM      7  C   UNL     1      -1.256  -9.243   5.974  1.00  0.00     0.039 A 
ATOM      8  C   UNL     1      -1.790  -8.139   5.304  1.00  0.00     0.014 A 
ATOM      9  C   UNL     1      -1.993  -9.912   6.953  1.00  0.00     0.014 A 
ATOM     10  C   UNL     1      -3.021  -7.628   5.697  1.00  0.00     0.010 A 
ATOM     11  C   UNL     1      -3.255  -9.434   7.302  1.00  0.00     0.010 A 
ATOM     12  C   UNL     1      -3.762  -8.273   6.697  1.00  0.00    -0.014 A 
BRANCH  12  13
ATOM     13  C   UNL     1      -5.093  -7.757   7.086  1.00  0.00     0.031 A 
ATOM     14  C   UNL     1      -5.319  -7.183   8.452  1.00  0.00     0.074 A 
ATOM     15  C   UNL     1      -6.104  -7.845   6.205  1.00  0.00     0.049 A 
ATOM     16  N   UNL     1      -6.436  -6.789   9.009  1.00  0.00    -0.248 NA
ATOM     17  C   UNL     1      -4.134  -7.042   9.313  1.00  0.00     0.031 C 
ATOM     18  C   UNL     1      -5.991  -8.383   4.848  1.00  0.00     0.029 A 
ATOM     19  N   UNL     1      -7.426  -7.502   6.322  1.00  0.00    -0.354 N 
ATOM     20  C   UNL     1      -6.096  -6.381  10.291  1.00  0.00     0.074 A 
ATOM     21  C   UNL     1      -4.670  -6.586  10.437  1.00  0.00     0.031 C 
ATOM     22  C   UNL     1      -7.193  -8.335   4.257  1.00  0.00     0.029 A 
ATOM     23  C   UNL     1      -8.168  -7.819   5.212  1.00  0.00     0.049 A 
ATOM     24  H   UNL     1      -7.804  -7.072   7.122  1.00  0.00     0.167 HD
ATOM     25  C   UNL     1      -6.907  -5.882  11.254  1.00  0.00     0.037 A 
ATOM     26  C   UNL     1      -9.494  -7.738   5.001  1.00  0.00     0.037 A 
ATOM     27  C   UNL     1      -8.322  -5.668  11.088  1.00  0.00     0.049 A 
ATOM     28  C   UNL     1     -10.376  -7.205   6.091  1.00  0.00     0.074 A 
ATOM     29  C   UNL     1      -9.225  -5.126  11.986  1.00  0.00     0.029 A 
ATOM     30  N   UNL     1      -9.040  -5.994   9.946  1.00  0.00    -0.354 N 
ATOM     31  N   UNL     1     -10.045  -6.800   7.293  1.00  0.00    -0.248 NA
ATOM     32  C   UNL     1     -11.812  -7.121   5.800  1.00  0.00     0.031 C 
ATOM     33  C   UNL     1     -10.496  -5.164  11.402  1.00  0.00     0.029 A 
ATOM     34  C   UNL     1     -10.379  -5.687  10.124  1.00  0.00     0.049 A 
ATOM     35  H   UNL     1      -8.654  -6.387   9.129  1.00  0.00     0.167 HD
ATOM     36  C   UNL     1     -11.225  -6.393   7.896  1.00  0.00     0.074 A 
ATOM     37  C   UNL     1     -12.281  -6.597   6.925  1.00  0.00     0.031 C 
ATOM     38  C   UNL     1     -11.413  -5.893   9.142  1.00  0.00     0.037 A 
BRANCH  25  39
ATOM     39  C   UNL     1      -6.289  -5.562  12.584  1.00  0.00     0.064 A 
ATOM     40  C   UNL     1      -5.434  -4.464  12.758  1.00  0.00     0.173 A 
ATOM     41  C   UNL     1      -6.577  -6.354  13.706  1.00  0.00     0.173 A 
ATOM     42  F   UNL     1      -5.116  -3.683  11.715  1.00  0.00    -0.203 F 
ATOM     43  C   UNL     1      -4.867  -4.188  14.000  1.00  0.00     0.198 A 
ATOM     44  C   UNL     1      -6.029  -6.059  14.952  1.00  0.00     0.198 A 
ATOM     45  F   UNL     1      -7.393  -7.412  13.596  1.00  0.00    -0.203 F 
ATOM     46  F   UNL     1      -4.014  -3.162  14.133  1.00  0.00    -0.200 F 
ATOM     47  C   UNL     1      -5.168  -4.982  15.097  1.00  0.00     0.200 A 
ATOM     48  F   UNL     1      -6.330  -6.822  16.012  1.00  0.00    -0.200 F 
ATOM     49  F   UNL     1      -4.622  -4.715  16.291  1.00  0.00    -0.200 F 
ENDBRANCH  25  39
BRANCH  26  50
ATOM     50  C   UNL     1     -10.043  -8.191   3.700  1.00  0.00     0.064 A 
ATOM     51  C   UNL     1     -10.489  -7.269   2.747  1.00  0.00     0.173 A 
ATOM     52  C   UNL     1     -10.062  -9.552   3.358  1.00  0.00     0.173 A 
ATOM     53  F   UNL     1     -10.501  -5.960   3.036  1.00  0.00    -0.203 F 
ATOM     54  C   UNL     1     -10.932  -7.691   1.496  1.00  0.00     0.198 A 
ATOM     55  C   UNL     1     -10.482  -9.970   2.099  1.00  0.00     0.198 A 
ATOM     56  F   UNL     1      -9.633 -10.471   4.237  1.00  0.00    -0.203 F 
ATOM     57  F   UNL     1     -11.369  -6.790   0.604  1.00  0.00    -0.200 F 
ATOM     58  C   UNL     1     -10.919  -9.039   1.169  1.00  0.00     0.200 A 
ATOM     59  F   UNL     1     -10.449 -11.271   1.781  1.00  0.00    -0.200 F 
ATOM     60  F   UNL     1     -11.324  -9.441  -0.043  1.00  0.00    -0.200 F 
ENDBRANCH  26  50
BRANCH  38  61
ATOM     61  C   UNL     1     -12.810  -5.498   9.517  1.00  0.00     0.064 A 
ATOM     62  C   UNL     1     -13.780  -6.456   9.843  1.00  0.00     0.173 A 
ATOM     63  C   UNL     1     -13.160  -4.143   9.608  1.00  0.00     0.173 A 
ATOM     64  F   UNL     1     -13.494  -7.764   9.754  1.00  0.00    -0.203 F 
ATOM     65  C   UNL     1     -15.057  -6.070  10.238  1.00  0.00     0.198 A 
ATOM     66  C   UNL     1     -14.431  -3.761  10.025  1.00  0.00     0.198 A 
ATOM     67  F   UNL     1     -12.264  -3.191   9.309  1.00  0.00    -0.203 F 
ATOM     68  F   UNL     1     -15.980  -7.001  10.517  1.00  0.00    -0.200 F 
ATOM     69  C   UNL     1     -15.380  -4.724  10.336  1.00  0.00     0.200 A 
ATOM     70  F   UNL     1     -14.738  -2.460  10.129  1.00  0.00    -0.200 F 
ATOM     71  F   UNL     1     -16.607  -4.354  10.729  1.00  0.00    -0.200 F 
ENDBRANCH  38  61
ENDBRANCH  12  13
ENDBRANCH   5   7
ENDBRANCH   2   3
ENDBRANCH   1   2
BRANCH   1  72
ATOM     72  C   UNL     1       3.590  -7.013   5.950  1.00  0.00     0.023 C 
BRANCH  72  73
ATOM     73  C   UNL     1       3.605  -6.293   4.600  1.00  0.00     0.116 C 
BRANCH  73  74
ATOM     74  N   UNL     1       4.088  -4.934   4.705  1.00  0.00    -0.351 N 
ATOM     75  C   UNL     1       5.337  -4.402   4.601  1.00  0.00     0.278 C 
ATOM     76  H   UNL     1       3.383  -4.270   4.886  1.00  0.00     0.163 HD
ATOM     77  O   UNL     1       5.392  -3.165   4.661  1.00  0.00    -0.268 OA
BRANCH  75  78
ATOM     78  C   UNL     1       6.650  -5.212   4.524  1.00  0.00     0.275 C 
ATOM     79  C   UNL     1       7.141  -5.675   5.906  1.00  0.00     0.085 C 
ATOM     80  N   UNL     1       6.581  -6.428   3.659  1.00  0.00    -0.316 N 
ATOM     81  C   UNL     1       7.716  -7.059   5.639  1.00  0.00     0.054 C 
ATOM     82  C   UNL     1       6.796  -7.575   4.545  1.00  0.00     0.188 C 
ATOM     83  H   UNL     1       5.666  -6.542   3.224  1.00  0.00     0.349 HD
ATOM     84  C   UNL     1       7.748  -8.024   6.816  1.00  0.00     0.010 C 
ATOM     85  C   UNL     1       7.190  -8.951   4.020  1.00  0.00     0.065 C 
ATOM     86  C   UNL     1       8.165  -9.419   6.332  1.00  0.00     0.001 C 
ATOM     87  C   UNL     1       7.279  -9.938   5.193  1.00  0.00     0.006 C 
BRANCH  80  88
ATOM     88  C   UNL     1       7.403  -6.337   2.441  1.00  0.00     0.342 C 
BRANCH  88  89
ATOM     89  C   UNL     1       8.871  -6.135   2.620  1.00  0.00     0.190 A 
ATOM     90  C   UNL     1       9.963  -6.963   2.740  1.00  0.00     0.075 A 
ATOM     91  O   UNL     1       9.303  -4.840   2.647  1.00  0.00    -0.355 OA
ATOM     92  C   UNL     1      11.049  -6.087   2.905  1.00  0.00     0.158 A 
ATOM     93  N   UNL     1      10.672  -4.809   2.846  1.00  0.00    -0.088 NA
ENDBRANCH  88  89
ENDBRANCH  80  88
ENDBRANCH  75  78
ENDBRANCH  73  74
ENDBRANCH  72  73
ENDBRANCH   1  72
TORSDOF 13
