REMARK SMILES C[C@H]1[C@H]([NH+]2CCC(CC(=O)NCCCCNC(=O)c3ccc(-c4c5nc(c(-c6c(F)c(F)c(F)c(F)c6F)c6ccc([nH]6)c(-c6c(F)c(F)c(F)c(F)c6F)c6nc(c(-c7c(F)c(F)c(F)c(F)c7F)c7ccc4[nH]7)C=C6)C=C5)cc3)CC2)CCC[C@@H]1C
REMARK SMILES IDX 13 1 12 2 11 3 9 4 10 5 8 7 7 8 4 9 5 10 83 11 6 13 82 14
REMARK SMILES IDX 3 15 1 16 2 17 87 18 84 19 86 20 88 21 85 22 14 23 15 24
REMARK SMILES IDX 16 25 17 26 18 28 19 29 20 30 81 31 21 32 80 33 22 34 23 35
REMARK SMILES IDX 24 36 74 37 25 38 79 39 73 40 75 41 26 42 78 43 72 44 71 45
REMARK SMILES IDX 27 47 59 48 39 49 58 50 40 51 43 52 57 53 76 54 41 55 42 56
REMARK SMILES IDX 56 58 77 59 44 60 28 61 29 62 37 63 30 64 31 65 35 66 38 67
REMARK SMILES IDX 32 68 33 69 36 70 34 71 60 72 61 73 69 74 62 75 63 76 67 77
REMARK SMILES IDX 70 78 64 79 65 80 68 81 66 82 45 83 46 84 54 85 47 86 48 87
REMARK SMILES IDX 52 88 55 89 49 90 50 91 53 92 51 93
REMARK H PARENT 11 6 4 12 16 27 75 46 43 57
REMARK Flexibility Score: inf
ROOT
ATOM      1  C   UNL     1      -2.000   1.739  -2.756  1.00  0.00     0.023 C 
ENDROOT
BRANCH   1   2
ATOM      2  C   UNL     1      -0.744   1.544  -3.615  1.00  0.00     0.116 C 
BRANCH   2   3
ATOM      3  N   UNL     1       0.151   2.684  -3.514  1.00  0.00    -0.356 N 
ATOM      4  C   UNL     1       1.287   2.865  -2.781  1.00  0.00     0.220 C 
ATOM      5  O   UNL     1       1.830   3.971  -2.819  1.00  0.00    -0.275 OA
ATOM      6  H   UNL     1      -0.106   3.456  -4.068  1.00  0.00     0.163 HD
BRANCH   4   7
ATOM      7  C   UNL     1       1.884   1.740  -1.954  1.00  0.00     0.104 C 
BRANCH   7   8
ATOM      8  C   UNL     1       1.535   1.788  -0.446  1.00  0.00     0.009 C 
ATOM      9  N   UNL     1       0.473  -0.185   1.525  1.00  0.00    -0.332 N 
ATOM     10  C   UNL     1       1.856   0.269   1.612  1.00  0.00     0.262 C 
ATOM     11  C   UNL     1      -0.400   0.878   1.071  1.00  0.00     0.262 C 
ATOM     12  H   UNL     1       0.211  -0.378   2.492  1.00  0.00     0.348 HD
ATOM     13  C   UNL     1       2.439   0.800   0.306  1.00  0.00     0.066 C 
ATOM     14  C   UNL     1       0.044   1.526  -0.233  1.00  0.00     0.066 C 
BRANCH   9  15
ATOM     15  C   UNL     1       0.156  -1.591   1.182  1.00  0.00     0.187 C 
ATOM     16  C   UNL     1      -0.389  -1.679  -1.333  1.00  0.00     0.014 C 
ATOM     17  C   UNL     1       0.596  -2.115  -0.227  1.00  0.00     0.047 C 
ATOM     18  C   UNL     1       0.772  -3.655  -0.363  1.00  0.00    -0.006 C 
ATOM     19  C   UNL     1       0.641  -2.464   2.363  1.00  0.00     0.065 C 
ATOM     20  C   UNL     1       1.381  -4.303   0.875  1.00  0.00     0.004 C 
ATOM     21  C   UNL     1       1.599  -4.016  -1.612  1.00  0.00     0.008 C 
ATOM     22  C   UNL     1       0.551  -3.957   2.097  1.00  0.00     0.006 C 
ENDBRANCH   9  15
ENDBRANCH   7   8
ENDBRANCH   4   7
ENDBRANCH   2   3
ENDBRANCH   1   2
BRANCH   1  23
ATOM     23  C   UNL     1      -3.187   2.343  -3.486  1.00  0.00     0.023 C 
BRANCH  23  24
ATOM     24  C   UNL     1      -3.842   1.399  -4.479  1.00  0.00     0.116 C 
BRANCH  24  25
ATOM     25  N   UNL     1      -4.514   0.263  -3.854  1.00  0.00    -0.352 N 
ATOM     26  C   UNL     1      -5.796  -0.197  -4.059  1.00  0.00     0.251 C 
ATOM     27  H   UNL     1      -3.979  -0.242  -3.199  1.00  0.00     0.163 HD
ATOM     28  O   UNL     1      -6.250  -1.127  -3.401  1.00  0.00    -0.269 OA
BRANCH  26  29
ATOM     29  C   UNL     1      -6.641   0.498  -5.051  1.00  0.00     0.039 A 
ATOM     30  C   UNL     1      -7.867   1.025  -4.642  1.00  0.00     0.014 A 
ATOM     31  C   UNL     1      -6.143   0.756  -6.329  1.00  0.00     0.014 A 
ATOM     32  C   UNL     1      -8.534   1.927  -5.474  1.00  0.00     0.010 A 
ATOM     33  C   UNL     1      -6.757   1.726  -7.111  1.00  0.00     0.010 A 
ATOM     34  C   UNL     1      -7.944   2.340  -6.679  1.00  0.00    -0.014 A 
BRANCH  34  35
ATOM     35  C   UNL     1      -8.511   3.450  -7.488  1.00  0.00     0.031 A 
ATOM     36  C   UNL     1      -8.928   3.201  -8.909  1.00  0.00     0.074 A 
ATOM     37  C   UNL     1      -8.538   4.700  -6.982  1.00  0.00     0.049 A 
ATOM     38  N   UNL     1      -9.302   4.059  -9.823  1.00  0.00    -0.248 NA
ATOM     39  C   UNL     1      -8.879   1.807  -9.378  1.00  0.00     0.031 C 
ATOM     40  C   UNL     1      -8.101   5.084  -5.638  1.00  0.00     0.029 A 
ATOM     41  N   UNL     1      -8.932   5.887  -7.550  1.00  0.00    -0.354 N 
ATOM     42  C   UNL     1      -9.498   3.315 -10.978  1.00  0.00     0.074 A 
ATOM     43  C   UNL     1      -9.162   1.943 -10.665  1.00  0.00     0.031 C 
ATOM     44  C   UNL     1      -8.274   6.406  -5.477  1.00  0.00     0.029 A 
ATOM     45  C   UNL     1      -8.788   6.973  -6.719  1.00  0.00     0.049 A 
ATOM     46  H   UNL     1      -9.285   5.955  -8.466  1.00  0.00     0.167 HD
ATOM     47  C   UNL     1      -9.940   3.736 -12.185  1.00  0.00     0.037 A 
ATOM     48  C   UNL     1      -9.030   8.279  -6.939  1.00  0.00     0.037 A 
ATOM     49  C   UNL     1     -10.338   5.087 -12.474  1.00  0.00     0.049 A 
ATOM     50  C   UNL     1      -9.530   8.715  -8.290  1.00  0.00     0.074 A 
ATOM     51  C   UNL     1     -10.924   5.584 -13.625  1.00  0.00     0.029 A 
ATOM     52  N   UNL     1     -10.192   6.154 -11.602  1.00  0.00    -0.354 N 
ATOM     53  N   UNL     1      -9.798   7.987  -9.346  1.00  0.00    -0.248 NA
ATOM     54  C   UNL     1      -9.750  10.156  -8.483  1.00  0.00     0.031 C 
ATOM     55  C   UNL     1     -11.095   6.963 -13.465  1.00  0.00     0.029 A 
ATOM     56  C   UNL     1     -10.646   7.317 -12.203  1.00  0.00     0.049 A 
ATOM     57  H   UNL     1      -9.821   6.095 -10.692  1.00  0.00     0.167 HD
ATOM     58  C   UNL     1     -10.236   8.875 -10.319  1.00  0.00     0.074 A 
ATOM     59  C   UNL     1     -10.213  10.194  -9.724  1.00  0.00     0.031 C 
ATOM     60  C   UNL     1     -10.618   8.620 -11.593  1.00  0.00     0.037 A 
BRANCH  47  61
ATOM     61  C   UNL     1     -10.037   2.724 -13.286  1.00  0.00     0.064 A 
ATOM     62  C   UNL     1     -11.038   1.742 -13.294  1.00  0.00     0.173 A 
ATOM     63  C   UNL     1      -9.154   2.775 -14.374  1.00  0.00     0.173 A 
ATOM     64  F   UNL     1     -11.898   1.646 -12.269  1.00  0.00    -0.203 F 
ATOM     65  C   UNL     1     -11.139   0.833 -14.344  1.00  0.00     0.198 A 
ATOM     66  C   UNL     1      -9.274   1.880 -15.434  1.00  0.00     0.198 A 
ATOM     67  F   UNL     1      -8.181   3.698 -14.414  1.00  0.00    -0.203 F 
ATOM     68  F   UNL     1     -12.081  -0.120 -14.313  1.00  0.00    -0.200 F 
ATOM     69  C   UNL     1     -10.263   0.908 -15.416  1.00  0.00     0.200 A 
ATOM     70  F   UNL     1      -8.432   1.959 -16.474  1.00  0.00    -0.200 F 
ATOM     71  F   UNL     1     -10.370   0.040 -16.431  1.00  0.00    -0.200 F 
ENDBRANCH  47  61
BRANCH  48  72
ATOM     72  C   UNL     1      -8.811   9.278  -5.860  1.00  0.00     0.064 A 
ATOM     73  C   UNL     1      -9.897   9.925  -5.255  1.00  0.00     0.173 A 
ATOM     74  C   UNL     1      -7.522   9.627  -5.433  1.00  0.00     0.173 A 
ATOM     75  F   UNL     1     -11.148   9.643  -5.648  1.00  0.00    -0.203 F 
ATOM     76  C   UNL     1      -9.702  10.900  -4.279  1.00  0.00     0.198 A 
ATOM     77  C   UNL     1      -7.329  10.585  -4.439  1.00  0.00     0.198 A 
ATOM     78  F   UNL     1      -6.450   9.037  -5.980  1.00  0.00    -0.203 F 
ATOM     79  F   UNL     1     -10.756  11.538  -3.752  1.00  0.00    -0.200 F 
ATOM     80  C   UNL     1      -8.418  11.227  -3.869  1.00  0.00     0.200 A 
ATOM     81  F   UNL     1      -6.087  10.891  -4.039  1.00  0.00    -0.200 F 
ATOM     82  F   UNL     1      -8.230  12.167  -2.933  1.00  0.00    -0.200 F 
ENDBRANCH  48  72
BRANCH  60  83
ATOM     83  C   UNL     1     -11.053   9.787 -12.426  1.00  0.00     0.064 A 
ATOM     84  C   UNL     1     -10.122  10.694 -12.950  1.00  0.00     0.173 A 
ATOM     85  C   UNL     1     -12.406   9.968 -12.748  1.00  0.00     0.173 A 
ATOM     86  F   UNL     1      -8.819  10.570 -12.654  1.00  0.00    -0.203 F 
ATOM     87  C   UNL     1     -10.532  11.751 -13.758  1.00  0.00     0.198 A 
ATOM     88  C   UNL     1     -12.810  11.011 -13.575  1.00  0.00     0.198 A 
ATOM     89  F   UNL     1     -13.334   9.122 -12.273  1.00  0.00    -0.203 F 
ATOM     90  F   UNL     1      -9.630  12.626 -14.221  1.00  0.00    -0.200 F 
ATOM     91  C   UNL     1     -11.874  11.903 -14.076  1.00  0.00     0.200 A 
ATOM     92  F   UNL     1     -14.105  11.151 -13.892  1.00  0.00    -0.200 F 
ATOM     93  F   UNL     1     -12.265  12.915 -14.863  1.00  0.00    -0.200 F 
ENDBRANCH  60  83
ENDBRANCH  34  35
ENDBRANCH  26  29
ENDBRANCH  24  25
ENDBRANCH  23  24
ENDBRANCH   1  23
TORSDOF 13
