REMARK SMILES CCN(CC)C(=O)N[C@@H](C)c1cccc(/C=C/C(=O)NCCCCNC(=O)c2ccc(-c3c4nc(c(-c5c(F)c(F)c(F)c(F)c5F)c5ccc([nH]5)c(-c5c(F)c(F)c(F)c(F)c5F)c5nc(c(-c6c(F)c(F)c(F)c(F)c6F)c6ccc3[nH]6)C=C5)C=C4)cc2)c1
REMARK SMILES IDX 21 1 20 2 18 3 19 4 17 6 16 7 15 8 11 9 12 10 91 11 13 12
REMARK SMILES IDX 14 13 9 14 10 15 8 16 3 17 6 18 7 19 2 21 1 22 4 23 5 24
REMARK SMILES IDX 22 25 23 26 24 27 25 28 26 29 27 31 28 32 29 33 90 34 30 35
REMARK SMILES IDX 89 36 31 37 32 38 33 39 83 40 34 41 88 42 82 43 84 44 35 45
REMARK SMILES IDX 87 46 81 47 80 48 36 50 68 51 48 52 67 53 49 54 52 55 66 56
REMARK SMILES IDX 85 57 50 58 51 59 65 61 86 62 53 63 37 64 38 65 46 66 39 67
REMARK SMILES IDX 40 68 44 69 47 70 41 71 42 72 45 73 43 74 69 75 70 76 78 77
REMARK SMILES IDX 71 78 72 79 76 80 79 81 73 82 74 83 77 84 75 85 54 86 55 87
REMARK SMILES IDX 63 88 56 89 57 90 61 91 64 92 58 93 59 94 62 95 60 96
REMARK H PARENT 20 5 8 20 25 30 84 49 52 60
REMARK Flexibility Score: inf
ROOT
ATOM      1  C   UNL     1       2.353  -0.199   5.892  1.00  0.00     0.116 C 
ENDROOT
BRANCH   1   2
ATOM      2  N   UNL     1       2.153  -0.645   7.258  1.00  0.00    -0.353 N 
ATOM      3  C   UNL     1       2.186  -1.896   7.789  1.00  0.00     0.243 C 
ATOM      4  O   UNL     1       2.080  -2.044   9.004  1.00  0.00    -0.270 OA
ATOM      5  H   UNL     1       1.963   0.074   7.904  1.00  0.00     0.163 HD
BRANCH   3   6
ATOM      6  C   UNL     1       2.438  -3.078   6.934  1.00  0.00     0.072 C 
ATOM      7  C   UNL     1       1.793  -3.335   5.786  1.00  0.00     0.014 C 
BRANCH   7   8
ATOM      8  C   UNL     1       2.041  -4.521   4.957  1.00  0.00    -0.025 A 
ATOM      9  C   UNL     1       2.213  -5.499   2.703  1.00  0.00    -0.025 A 
ATOM     10  C   UNL     1       2.391  -6.755   3.300  1.00  0.00     0.006 A 
ATOM     11  C   UNL     1       2.025  -4.391   3.558  1.00  0.00     0.014 A 
ATOM     12  C   UNL     1       2.397  -6.898   4.690  1.00  0.00     0.001 A 
ATOM     13  C   UNL     1       2.219  -5.788   5.514  1.00  0.00     0.008 A 
BRANCH   9  14
ATOM     14  C   UNL     1       2.105  -5.324   1.190  1.00  0.00     0.111 C 
ATOM     15  C   UNL     1       2.732  -6.446   0.353  1.00  0.00     0.036 C 
BRANCH  14  16
ATOM     16  N   UNL     1       2.710  -4.063   0.765  1.00  0.00    -0.331 N 
ATOM     17  N   UNL     1       1.039  -2.622  -0.162  1.00  0.00    -0.325 N 
ATOM     18  C   UNL     1       2.337  -2.945   0.125  1.00  0.00     0.317 C 
ATOM     19  O   UNL     1       3.269  -2.192  -0.178  1.00  0.00    -0.249 OA
ATOM     20  H   UNL     1       3.660  -4.024   1.020  1.00  0.00     0.165 HD
BRANCH  17  21
ATOM     21  C   UNL     1       0.820  -1.380  -0.915  1.00  0.00     0.118 C 
ATOM     22  C   UNL     1       0.917  -0.145  -0.028  1.00  0.00     0.027 C 
ENDBRANCH  17  21
BRANCH  17  23
ATOM     23  C   UNL     1      -0.176  -3.337   0.218  1.00  0.00     0.118 C 
ATOM     24  C   UNL     1      -0.563  -4.375  -0.828  1.00  0.00     0.027 C 
ENDBRANCH  17  23
ENDBRANCH  14  16
ENDBRANCH   9  14
ENDBRANCH   7   8
ENDBRANCH   3   6
ENDBRANCH   1   2
BRANCH   1  25
ATOM     25  C   UNL     1       1.033   0.249   5.263  1.00  0.00     0.023 C 
BRANCH  25  26
ATOM     26  C   UNL     1       0.527   1.609   5.755  1.00  0.00     0.023 C 
BRANCH  26  27
ATOM     27  C   UNL     1       1.455   2.785   5.469  1.00  0.00     0.116 C 
BRANCH  27  28
ATOM     28  N   UNL     1       1.747   2.960   4.055  1.00  0.00    -0.352 N 
ATOM     29  C   UNL     1       2.006   4.127   3.374  1.00  0.00     0.251 C 
ATOM     30  H   UNL     1       1.760   2.137   3.516  1.00  0.00     0.163 HD
ATOM     31  O   UNL     1       2.123   4.125   2.157  1.00  0.00    -0.269 OA
BRANCH  29  32
ATOM     32  C   UNL     1       2.096   5.396   4.126  1.00  0.00     0.039 A 
ATOM     33  C   UNL     1       1.361   6.495   3.676  1.00  0.00     0.014 A 
ATOM     34  C   UNL     1       2.876   5.491   5.281  1.00  0.00     0.014 A 
ATOM     35  C   UNL     1       1.351   7.672   4.426  1.00  0.00     0.010 A 
ATOM     36  C   UNL     1       2.813   6.641   6.062  1.00  0.00     0.010 A 
ATOM     37  C   UNL     1       2.048   7.741   5.643  1.00  0.00    -0.014 A 
BRANCH  37  38
ATOM     38  C   UNL     1       1.984   8.953   6.496  1.00  0.00     0.031 A 
ATOM     39  C   UNL     1       3.222   9.766   6.742  1.00  0.00     0.074 A 
ATOM     40  C   UNL     1       0.828   9.276   7.106  1.00  0.00     0.049 A 
ATOM     41  N   UNL     1       3.387  10.810   7.515  1.00  0.00    -0.248 NA
ATOM     42  C   UNL     1       4.445   9.332   6.050  1.00  0.00     0.031 C 
ATOM     43  C   UNL     1      -0.428   8.533   6.988  1.00  0.00     0.029 A 
ATOM     44  N   UNL     1       0.524  10.307   7.960  1.00  0.00    -0.354 N 
ATOM     45  C   UNL     1       4.731  11.144   7.415  1.00  0.00     0.074 A 
ATOM     46  C   UNL     1       5.348  10.164   6.548  1.00  0.00     0.031 C 
ATOM     47  C   UNL     1      -1.371   9.142   7.724  1.00  0.00     0.029 A 
ATOM     48  C   UNL     1      -0.779  10.297   8.392  1.00  0.00     0.049 A 
ATOM     49  H   UNL     1       1.178  10.988   8.236  1.00  0.00     0.167 HD
ATOM     50  C   UNL     1       5.385  12.188   7.978  1.00  0.00     0.037 A 
ATOM     51  C   UNL     1      -1.422  11.126   9.237  1.00  0.00     0.037 A 
ATOM     52  C   UNL     1       4.761  13.178   8.815  1.00  0.00     0.049 A 
ATOM     53  C   UNL     1      -0.675  12.285   9.839  1.00  0.00     0.074 A 
ATOM     54  C   UNL     1       5.322  14.309   9.380  1.00  0.00     0.029 A 
ATOM     55  N   UNL     1       3.430  13.153   9.206  1.00  0.00    -0.354 N 
ATOM     56  N   UNL     1       0.579  12.632   9.681  1.00  0.00    -0.248 NA
ATOM     57  C   UNL     1      -1.435  13.171  10.731  1.00  0.00     0.031 C 
ATOM     58  C   UNL     1       4.341  14.948  10.146  1.00  0.00     0.029 A 
ATOM     59  C   UNL     1       3.157  14.240  10.020  1.00  0.00     0.049 A 
ATOM     60  H   UNL     1       2.777  12.464   8.944  1.00  0.00     0.167 HD
ATOM     61  C   UNL     1       0.752  13.789  10.428  1.00  0.00     0.074 A 
ATOM     62  C   UNL     1      -0.530  14.093  11.029  1.00  0.00     0.031 C 
ATOM     63  C   UNL     1       1.871  14.533  10.600  1.00  0.00     0.037 A 
BRANCH  50  64
ATOM     64  C   UNL     1       6.854  12.315   7.699  1.00  0.00     0.064 A 
ATOM     65  C   UNL     1       7.333  12.675   6.430  1.00  0.00     0.173 A 
ATOM     66  C   UNL     1       7.794  12.106   8.719  1.00  0.00     0.173 A 
ATOM     67  F   UNL     1       6.475  12.874   5.417  1.00  0.00    -0.203 F 
ATOM     68  C   UNL     1       8.698  12.792   6.185  1.00  0.00     0.198 A 
ATOM     69  C   UNL     1       9.158  12.253   8.478  1.00  0.00     0.198 A 
ATOM     70  F   UNL     1       7.391  11.766   9.952  1.00  0.00    -0.203 F 
ATOM     71  F   UNL     1       9.133  13.088   4.952  1.00  0.00    -0.200 F 
ATOM     72  C   UNL     1       9.609  12.588   7.210  1.00  0.00     0.200 A 
ATOM     73  F   UNL     1      10.037  12.068   9.473  1.00  0.00    -0.200 F 
ATOM     74  F   UNL     1      10.923  12.707   6.974  1.00  0.00    -0.200 F 
ENDBRANCH  50  64
BRANCH  51  75
ATOM     75  C   UNL     1      -2.861  10.909   9.538  1.00  0.00     0.064 A 
ATOM     76  C   UNL     1      -3.837  11.790   9.051  1.00  0.00     0.173 A 
ATOM     77  C   UNL     1      -3.290   9.824  10.316  1.00  0.00     0.173 A 
ATOM     78  F   UNL     1      -3.473  12.853   8.319  1.00  0.00    -0.203 F 
ATOM     79  C   UNL     1      -5.185  11.606   9.348  1.00  0.00     0.198 A 
ATOM     80  C   UNL     1      -4.641   9.626  10.590  1.00  0.00     0.198 A 
ATOM     81  F   UNL     1      -2.396   8.950  10.800  1.00  0.00    -0.203 F 
ATOM     82  F   UNL     1      -6.092  12.488   8.907  1.00  0.00    -0.200 F 
ATOM     83  C   UNL     1      -5.587  10.521  10.113  1.00  0.00     0.200 A 
ATOM     84  F   UNL     1      -5.027   8.570  11.318  1.00  0.00    -0.200 F 
ATOM     85  F   UNL     1      -6.885  10.343  10.396  1.00  0.00    -0.200 F 
ENDBRANCH  51  75
BRANCH  63  86
ATOM     86  C   UNL     1       1.753  15.768  11.443  1.00  0.00     0.064 A 
ATOM     87  C   UNL     1       1.619  15.698  12.837  1.00  0.00     0.173 A 
ATOM     88  C   UNL     1       1.816  17.039  10.851  1.00  0.00     0.173 A 
ATOM     89  F   UNL     1       1.538  14.506  13.448  1.00  0.00    -0.203 F 
ATOM     90  C   UNL     1       1.532  16.855  13.606  1.00  0.00     0.198 A 
ATOM     91  C   UNL     1       1.756  18.193  11.626  1.00  0.00     0.198 A 
ATOM     92  F   UNL     1       1.949  17.159   9.522  1.00  0.00    -0.203 F 
ATOM     93  F   UNL     1       1.361  16.765  14.932  1.00  0.00    -0.200 F 
ATOM     94  C   UNL     1       1.608  18.101  13.001  1.00  0.00     0.200 A 
ATOM     95  F   UNL     1       1.843  19.396  11.041  1.00  0.00    -0.200 F 
ATOM     96  F   UNL     1       1.531  19.214  13.744  1.00  0.00    -0.200 F 
ENDBRANCH  63  86
ENDBRANCH  37  38
ENDBRANCH  29  32
ENDBRANCH  27  28
ENDBRANCH  26  27
ENDBRANCH  25  26
ENDBRANCH   1  25
TORSDOF 16
