REMARK SMILES Cc1c(C(=O)NCCCCNC(=O)c2ccc(-c3c4nc(c(-c5c(F)c(F)c(F)c(F)c5F)c5ccc([nH]5)c(-c5c(F)c(F)c(F)c(F)c5F)c5nc(c(-c6c(F)c(F)c(F)c(F)c6F)c6ccc3[nH]6)C=C5)C=C4)cc2)sc2c1=C(CSc1nncn1-c1ccccc1)CC(=O)N=2
REMARK SMILES IDX 7 1 6 2 4 3 5 4 3 6 1 7 2 8 79 9 77 10 78 11 80 12 97 13
REMARK SMILES IDX 94 14 95 15 96 16 81 17 82 18 83 19 84 20 87 21 85 22 86 23
REMARK SMILES IDX 88 24 89 25 93 26 90 27 92 28 91 29 8 30 9 31 10 32 11 33
REMARK SMILES IDX 12 34 13 36 14 37 15 38 76 39 16 40 75 41 17 42 18 43 19 44
REMARK SMILES IDX 69 45 20 46 74 47 68 48 70 49 21 50 73 51 67 52 66 53 22 55
REMARK SMILES IDX 54 56 34 57 53 58 35 59 38 60 52 61 71 62 36 63 37 64 51 66
REMARK SMILES IDX 72 67 39 68 23 69 24 70 32 71 25 72 26 73 30 74 33 75 27 76
REMARK SMILES IDX 28 77 31 78 29 79 55 80 56 81 64 82 57 83 58 84 62 85 65 86
REMARK SMILES IDX 59 87 60 88 63 89 61 90 40 91 41 92 49 93 42 94 43 95 47 96
REMARK SMILES IDX 50 97 44 98 45 99 48 100 46 101
REMARK H PARENT 6 5 11 35 70 54 38 65
REMARK Flexibility Score: inf
ROOT
ATOM      1  C   UNL     1       0.993  -2.887   0.717  1.00  0.00     0.116 C 
ENDROOT
BRANCH   1   2
ATOM      2  N   UNL     1       0.378  -3.518  -0.431  1.00  0.00    -0.351 N 
ATOM      3  C   UNL     1       0.152  -3.168  -1.724  1.00  0.00     0.261 C 
ATOM      4  O   UNL     1      -0.175  -4.127  -2.436  1.00  0.00    -0.268 OA
ATOM      5  H   UNL     1       0.041  -4.420  -0.225  1.00  0.00     0.163 HD
BRANCH   3   6
ATOM      6  C   UNL     1       0.287  -1.787  -2.341  1.00  0.00     0.098 A 
ATOM      7  C   UNL     1       0.241   0.026  -0.513  1.00  0.00     0.047 C 
ATOM      8  C   UNL     1       0.374  -0.507  -1.895  1.00  0.00    -0.018 A 
ATOM      9  C   UNL     1       0.426   0.473  -2.991  1.00  0.00     0.016 A 
ATOM     10  S   UNL     1       0.055  -1.807  -4.130  1.00  0.00    -0.110 S 
ATOM     11  C   UNL     1      -0.250  -0.093  -4.185  1.00  0.00     0.128 A 
ATOM     12  C   UNL     1       0.374   1.822  -2.941  1.00  0.00    -0.040 C 
ATOM     13  N   UNL     1      -0.990   0.491  -5.054  1.00  0.00    -0.202 NA
ATOM     14  C   UNL     1      -0.940   2.400  -3.453  1.00  0.00     0.135 C 
ATOM     15  C   UNL     1      -1.226   1.841  -4.854  1.00  0.00     0.251 C 
ATOM     16  O   UNL     1      -1.687   2.568  -5.719  1.00  0.00    -0.272 OA
BRANCH  12  17
ATOM     17  C   UNL     1       1.530   2.644  -3.526  1.00  0.00     0.110 C 
BRANCH  17  18
ATOM     18  S   UNL     1       3.149   2.217  -2.868  1.00  0.00    -0.081 SA
BRANCH  18  19
ATOM     19  C   UNL     1       3.133   3.063  -1.356  1.00  0.00     0.195 A 
ATOM     20  N   UNL     1       2.658   4.279  -1.201  1.00  0.00    -0.123 NA
ATOM     21  N   UNL     1       3.427   2.506  -0.125  1.00  0.00    -0.277 N 
ATOM     22  N   UNL     1       2.607   4.546   0.141  1.00  0.00    -0.138 NA
ATOM     23  C   UNL     1       3.054   3.484   0.769  1.00  0.00     0.231 A 
BRANCH  21  24
ATOM     24  C   UNL     1       3.848   1.193   0.205  1.00  0.00     0.049 A 
ATOM     25  C   UNL     1       4.603   0.413  -0.682  1.00  0.00     0.027 A 
ATOM     26  C   UNL     1       3.393   0.633   1.400  1.00  0.00     0.027 A 
ATOM     27  C   UNL     1       4.796  -0.944  -0.440  1.00  0.00     0.002 A 
ATOM     28  C   UNL     1       3.579  -0.722   1.628  1.00  0.00     0.002 A 
ATOM     29  C   UNL     1       4.256  -1.516   0.700  1.00  0.00     0.000 A 
ENDBRANCH  21  24
ENDBRANCH  18  19
ENDBRANCH  17  18
ENDBRANCH  12  17
ENDBRANCH   3   6
ENDBRANCH   1   2
BRANCH   1  30
ATOM     30  C   UNL     1       0.028  -2.727   1.907  1.00  0.00     0.023 C 
BRANCH  30  31
ATOM     31  C   UNL     1       0.073  -3.828   2.987  1.00  0.00     0.023 C 
BRANCH  31  32
ATOM     32  C   UNL     1       1.370  -3.927   3.786  1.00  0.00     0.116 C 
BRANCH  32  33
ATOM     33  N   UNL     1       1.679  -2.753   4.617  1.00  0.00    -0.352 N 
ATOM     34  C   UNL     1       2.828  -2.490   5.358  1.00  0.00     0.251 C 
ATOM     35  H   UNL     1       0.980  -2.061   4.654  1.00  0.00     0.163 HD
ATOM     36  O   UNL     1       2.807  -1.692   6.287  1.00  0.00    -0.269 OA
BRANCH  34  37
ATOM     37  C   UNL     1       4.099  -3.143   4.976  1.00  0.00     0.039 A 
ATOM     38  C   UNL     1       5.126  -3.464   5.865  1.00  0.00     0.014 A 
ATOM     39  C   UNL     1       4.261  -3.409   3.628  1.00  0.00     0.014 A 
ATOM     40  C   UNL     1       6.274  -4.090   5.363  1.00  0.00     0.010 A 
ATOM     41  C   UNL     1       5.282  -4.171   3.158  1.00  0.00     0.010 A 
ATOM     42  C   UNL     1       6.337  -4.425   4.000  1.00  0.00    -0.014 A 
BRANCH  42  43
ATOM     43  C   UNL     1       7.435  -5.142   3.390  1.00  0.00     0.031 A 
ATOM     44  C   UNL     1       7.621  -6.511   3.916  1.00  0.00     0.074 A 
ATOM     45  C   UNL     1       8.033  -4.733   2.250  1.00  0.00     0.049 A 
ATOM     46  N   UNL     1       8.592  -6.918   4.656  1.00  0.00    -0.248 NA
ATOM     47  C   UNL     1       6.546  -7.499   3.739  1.00  0.00     0.031 C 
ATOM     48  C   UNL     1       7.710  -3.594   1.380  1.00  0.00     0.029 A 
ATOM     49  N   UNL     1       9.033  -5.347   1.569  1.00  0.00    -0.354 N 
ATOM     50  C   UNL     1       8.360  -8.266   4.892  1.00  0.00     0.074 A 
ATOM     51  C   UNL     1       7.008  -8.520   4.466  1.00  0.00     0.031 C 
ATOM     52  C   UNL     1       8.354  -3.730   0.197  1.00  0.00     0.029 A 
ATOM     53  C   UNL     1       9.252  -4.867   0.285  1.00  0.00     0.049 A 
ATOM     54  H   UNL     1       9.564  -6.079   1.957  1.00  0.00     0.167 HD
ATOM     55  C   UNL     1       9.391  -9.095   5.211  1.00  0.00     0.037 A 
ATOM     56  C   UNL     1      10.094  -5.409  -0.631  1.00  0.00     0.037 A 
ATOM     57  C   UNL     1      10.577  -8.334   5.534  1.00  0.00     0.049 A 
ATOM     58  C   UNL     1      11.067  -6.249   0.122  1.00  0.00     0.074 A 
ATOM     59  C   UNL     1      10.879  -7.381   6.489  1.00  0.00     0.029 A 
ATOM     60  N   UNL     1      11.536  -8.197   4.557  1.00  0.00    -0.354 N 
ATOM     61  N   UNL     1      11.957  -5.761   0.943  1.00  0.00    -0.248 NA
ATOM     62  C   UNL     1      10.722  -7.648   0.338  1.00  0.00     0.031 C 
ATOM     63  C   UNL     1      11.668  -6.411   5.802  1.00  0.00     0.029 A 
ATOM     64  C   UNL     1      11.872  -6.867   4.499  1.00  0.00     0.049 A 
ATOM     65  H   UNL     1      11.911  -8.918   4.002  1.00  0.00     0.167 HD
ATOM     66  C   UNL     1      11.954  -6.630   2.025  1.00  0.00     0.074 A 
ATOM     67  C   UNL     1      11.232  -7.815   1.562  1.00  0.00     0.031 C 
ATOM     68  C   UNL     1      12.265  -6.195   3.282  1.00  0.00     0.037 A 
BRANCH  55  69
ATOM     69  C   UNL     1       9.461 -10.564   4.889  1.00  0.00     0.064 A 
ATOM     70  C   UNL     1      10.532 -11.318   5.410  1.00  0.00     0.173 A 
ATOM     71  C   UNL     1       8.713 -11.189   3.870  1.00  0.00     0.173 A 
ATOM     72  F   UNL     1      11.310 -10.818   6.382  1.00  0.00    -0.203 F 
ATOM     73  C   UNL     1      10.888 -12.558   4.878  1.00  0.00     0.198 A 
ATOM     74  C   UNL     1       9.038 -12.453   3.381  1.00  0.00     0.198 A 
ATOM     75  F   UNL     1       7.718 -10.567   3.228  1.00  0.00    -0.203 F 
ATOM     76  F   UNL     1      11.997 -13.172   5.311  1.00  0.00    -0.200 F 
ATOM     77  C   UNL     1      10.146 -13.120   3.857  1.00  0.00     0.200 A 
ATOM     78  F   UNL     1       8.314 -12.976   2.381  1.00  0.00    -0.200 F 
ATOM     79  F   UNL     1      10.524 -14.277   3.299  1.00  0.00    -0.200 F 
ENDBRANCH  55  69
BRANCH  56  80
ATOM     80  C   UNL     1       9.923  -5.511  -2.102  1.00  0.00     0.064 A 
ATOM     81  C   UNL     1      10.990  -5.909  -2.926  1.00  0.00     0.173 A 
ATOM     82  C   UNL     1       8.646  -5.510  -2.696  1.00  0.00     0.173 A 
ATOM     83  F   UNL     1      12.236  -5.973  -2.432  1.00  0.00    -0.203 F 
ATOM     84  C   UNL     1      10.786  -6.322  -4.248  1.00  0.00     0.198 A 
ATOM     85  C   UNL     1       8.444  -5.917  -4.016  1.00  0.00     0.198 A 
ATOM     86  F   UNL     1       7.553  -5.207  -1.980  1.00  0.00    -0.203 F 
ATOM     87  F   UNL     1      11.820  -6.762  -4.978  1.00  0.00    -0.200 F 
ATOM     88  C   UNL     1       9.511  -6.340  -4.787  1.00  0.00     0.200 A 
ATOM     89  F   UNL     1       7.200  -5.960  -4.514  1.00  0.00    -0.200 F 
ATOM     90  F   UNL     1       9.304  -6.802  -6.027  1.00  0.00    -0.200 F 
ENDBRANCH  56  80
BRANCH  68  91
ATOM     91  C   UNL     1      12.852  -4.818   3.432  1.00  0.00     0.064 A 
ATOM     92  C   UNL     1      12.187  -3.631   3.075  1.00  0.00     0.173 A 
ATOM     93  C   UNL     1      14.072  -4.689   4.108  1.00  0.00     0.173 A 
ATOM     94  F   UNL     1      10.971  -3.659   2.520  1.00  0.00    -0.203 F 
ATOM     95  C   UNL     1      12.741  -2.380   3.345  1.00  0.00     0.198 A 
ATOM     96  C   UNL     1      14.604  -3.439   4.411  1.00  0.00     0.198 A 
ATOM     97  F   UNL     1      14.726  -5.785   4.525  1.00  0.00    -0.203 F 
ATOM     98  F   UNL     1      12.088  -1.264   2.985  1.00  0.00    -0.200 F 
ATOM     99  C   UNL     1      13.945  -2.285   4.020  1.00  0.00     0.200 A 
ATOM    100  F   UNL     1      15.745  -3.354   5.110  1.00  0.00    -0.200 F 
ATOM    101  F   UNL     1      14.457  -1.083   4.319  1.00  0.00    -0.200 F 
ENDBRANCH  68  91
ENDBRANCH  42  43
ENDBRANCH  34  37
ENDBRANCH  32  33
ENDBRANCH  31  32
ENDBRANCH  30  31
ENDBRANCH   1  30
TORSDOF 15
