REMARK SMILES Cc1cccc(NC(=O)COc2ccc(N3C[C@@H](C(=O)NCCCCNC(=O)c4ccc(-c5c6nc(c(-c7c(F)c(F)c(F)c(F)c7F)c7ccc([nH]7)c(-c7c(F)c(F)c(F)c(F)c7F)c7nc(c(-c8c(F)c(F)c(F)c(F)c8F)c8ccc5[nH]8)C=C7)C=C6)cc4)CC3=O)cc2)c1
REMARK SMILES IDX 22 1 21 2 19 3 20 4 18 6 16 7 17 8 93 9 92 10 94 11 15 12
REMARK SMILES IDX 12 13 13 14 96 15 14 16 95 17 11 18 10 19 8 20 7 21 9 23
REMARK SMILES IDX 6 24 1 25 2 26 3 27 97 28 4 29 5 30 23 31 24 32 25 33 26 34
REMARK SMILES IDX 27 35 28 37 29 38 30 39 91 40 31 41 90 42 32 43 33 44 34 45
REMARK SMILES IDX 84 46 35 47 89 48 83 49 85 50 36 51 88 52 82 53 81 54 37 56
REMARK SMILES IDX 69 57 49 58 68 59 50 60 53 61 67 62 86 63 51 64 52 65 66 67
REMARK SMILES IDX 87 68 54 69 38 70 39 71 47 72 40 73 41 74 45 75 48 76 42 77
REMARK SMILES IDX 43 78 46 79 44 80 70 81 71 82 79 83 72 84 73 85 77 86 80 87
REMARK SMILES IDX 74 88 75 89 78 90 76 91 55 92 56 93 64 94 57 95 58 96 62 97
REMARK SMILES IDX 65 98 59 99 60 100 63 101 61 102
REMARK H PARENT 21 5 7 22 26 36 85 55 53 66
REMARK Flexibility Score: inf
ROOT
ATOM      1  C   UNL     1      -6.765   5.470  -7.436  1.00  0.00     0.116 C 
ENDROOT
BRANCH   1   2
ATOM      2  N   UNL     1      -7.332   4.648  -8.494  1.00  0.00    -0.356 N 
ATOM      3  C   UNL     1      -7.002   3.442  -9.016  1.00  0.00     0.225 C 
ATOM      4  O   UNL     1      -7.757   2.995  -9.886  1.00  0.00    -0.275 OA
ATOM      5  H   UNL     1      -8.121   5.053  -8.920  1.00  0.00     0.163 HD
BRANCH   3   6
ATOM      6  C   UNL     1      -5.812   2.613  -8.576  1.00  0.00     0.107 C 
ATOM      7  N   UNL     1      -4.827   2.395  -6.438  1.00  0.00    -0.312 N 
ATOM      8  C   UNL     1      -5.984   1.998  -7.203  1.00  0.00     0.139 C 
ATOM      9  C   UNL     1      -3.967   3.220  -7.164  1.00  0.00     0.227 C 
ATOM     10  C   UNL     1      -4.475   3.325  -8.577  1.00  0.00     0.116 C 
ATOM     11  O   UNL     1      -2.930   3.754  -6.800  1.00  0.00    -0.274 OA
BRANCH   7  12
ATOM     12  C   UNL     1      -4.638   1.988  -5.093  1.00  0.00     0.044 A 
ATOM     13  C   UNL     1      -4.255   1.163  -2.419  1.00  0.00     0.120 A 
ATOM     14  C   UNL     1      -4.981   0.371  -3.304  1.00  0.00     0.048 A 
ATOM     15  C   UNL     1      -3.701   2.355  -2.870  1.00  0.00     0.048 A 
ATOM     16  C   UNL     1      -5.197   0.793  -4.620  1.00  0.00     0.030 A 
ATOM     17  C   UNL     1      -3.881   2.755  -4.201  1.00  0.00     0.030 A 
BRANCH  13  18
ATOM     18  O   UNL     1      -4.060   0.641  -1.174  1.00  0.00    -0.484 OA
BRANCH  18  19
ATOM     19  C   UNL     1      -4.245   1.530  -0.087  1.00  0.00     0.329 C 
BRANCH  19  20
ATOM     20  C   UNL     1      -3.135   2.510   0.291  1.00  0.00     0.262 C 
ATOM     21  N   UNL     1      -1.820   2.171   0.365  1.00  0.00    -0.323 N 
ATOM     22  H   UNL     1      -1.235   2.947   0.523  1.00  0.00     0.170 HD
ATOM     23  O   UNL     1      -3.423   3.691   0.535  1.00  0.00    -0.271 OA
BRANCH  21  24
ATOM     24  C   UNL     1      -1.105   0.965   0.267  1.00  0.00     0.041 A 
ATOM     25  C   UNL     1       2.605   0.102  -0.083  1.00  0.00     0.044 C 
ATOM     26  C   UNL     1       1.117  -0.041   0.045  1.00  0.00    -0.049 A 
ATOM     27  C   UNL     1       0.536  -1.310   0.062  1.00  0.00     0.003 A 
ATOM     28  C   UNL     1       0.290   1.086   0.152  1.00  0.00     0.029 A 
ATOM     29  C   UNL     1      -0.844  -1.443   0.200  1.00  0.00     0.002 A 
ATOM     30  C   UNL     1      -1.658  -0.311   0.313  1.00  0.00     0.026 A 
ENDBRANCH  21  24
ENDBRANCH  19  20
ENDBRANCH  18  19
ENDBRANCH  13  18
ENDBRANCH   7  12
ENDBRANCH   3   6
ENDBRANCH   1   2
BRANCH   1  31
ATOM     31  C   UNL     1      -6.005   6.704  -7.948  1.00  0.00     0.023 C 
BRANCH  31  32
ATOM     32  C   UNL     1      -6.737   7.565  -8.984  1.00  0.00     0.023 C 
BRANCH  32  33
ATOM     33  C   UNL     1      -7.970   8.290  -8.458  1.00  0.00     0.116 C 
BRANCH  33  34
ATOM     34  N   UNL     1      -7.725   9.654  -8.004  1.00  0.00    -0.352 N 
ATOM     35  C   UNL     1      -8.584  10.538  -7.360  1.00  0.00     0.251 C 
ATOM     36  H   UNL     1      -6.819   9.999  -8.178  1.00  0.00     0.163 HD
ATOM     37  O   UNL     1      -8.232  11.666  -7.102  1.00  0.00    -0.269 OA
BRANCH  35  38
ATOM     38  C   UNL     1      -9.895  10.034  -6.873  1.00  0.00     0.039 A 
ATOM     39  C   UNL     1     -10.233  10.285  -5.538  1.00  0.00     0.014 A 
ATOM     40  C   UNL     1     -10.662   9.163  -7.641  1.00  0.00     0.014 A 
ATOM     41  C   UNL     1     -11.165   9.465  -4.908  1.00  0.00     0.010 A 
ATOM     42  C   UNL     1     -11.516   8.288  -6.999  1.00  0.00     0.010 A 
ATOM     43  C   UNL     1     -11.698   8.389  -5.616  1.00  0.00    -0.014 A 
BRANCH  43  44
ATOM     44  C   UNL     1     -12.315   7.239  -4.965  1.00  0.00     0.031 A 
ATOM     45  C   UNL     1     -13.774   7.024  -5.028  1.00  0.00     0.074 A 
ATOM     46  C   UNL     1     -11.514   6.325  -4.372  1.00  0.00     0.049 A 
ATOM     47  N   UNL     1     -14.420   6.238  -4.234  1.00  0.00    -0.248 NA
ATOM     48  C   UNL     1     -14.646   7.751  -5.944  1.00  0.00     0.031 C 
ATOM     49  C   UNL     1     -11.870   4.982  -3.923  1.00  0.00     0.029 A 
ATOM     50  N   UNL     1     -10.221   6.532  -3.856  1.00  0.00    -0.354 N 
ATOM     51  C   UNL     1     -15.705   6.126  -4.707  1.00  0.00     0.074 A 
ATOM     52  C   UNL     1     -15.829   7.189  -5.671  1.00  0.00     0.031 C 
ATOM     53  C   UNL     1     -11.000   4.597  -2.976  1.00  0.00     0.029 A 
ATOM     54  C   UNL     1     -10.153   5.740  -2.686  1.00  0.00     0.049 A 
ATOM     55  H   UNL     1      -9.514   7.106  -4.229  1.00  0.00     0.167 HD
ATOM     56  C   UNL     1     -16.449   5.051  -4.318  1.00  0.00     0.037 A 
ATOM     57  C   UNL     1      -9.999   6.303  -1.453  1.00  0.00     0.037 A 
ATOM     58  C   UNL     1     -15.832   4.394  -3.161  1.00  0.00     0.049 A 
ATOM     59  C   UNL     1     -11.118   5.990  -0.487  1.00  0.00     0.074 A 
ATOM     60  C   UNL     1     -15.134   3.210  -2.993  1.00  0.00     0.029 A 
ATOM     61  N   UNL     1     -15.666   5.119  -1.982  1.00  0.00    -0.354 N 
ATOM     62  N   UNL     1     -12.284   5.533  -0.849  1.00  0.00    -0.248 NA
ATOM     63  C   UNL     1     -11.029   6.217   0.953  1.00  0.00     0.031 C 
ATOM     64  C   UNL     1     -14.464   3.275  -1.741  1.00  0.00     0.029 A 
ATOM     65  C   UNL     1     -14.789   4.475  -1.131  1.00  0.00     0.049 A 
ATOM     66  H   UNL     1     -16.112   5.973  -1.782  1.00  0.00     0.167 HD
ATOM     67  C   UNL     1     -13.101   5.447   0.247  1.00  0.00     0.074 A 
ATOM     68  C   UNL     1     -12.260   5.858   1.356  1.00  0.00     0.031 C 
ATOM     69  C   UNL     1     -14.410   5.073   0.142  1.00  0.00     0.037 A 
BRANCH  56  70
ATOM     70  C   UNL     1     -17.610   4.443  -5.095  1.00  0.00     0.064 A 
ATOM     71  C   UNL     1     -18.203   3.235  -4.653  1.00  0.00     0.173 A 
ATOM     72  C   UNL     1     -18.102   4.899  -6.338  1.00  0.00     0.173 A 
ATOM     73  F   UNL     1     -17.860   2.678  -3.484  1.00  0.00    -0.203 F 
ATOM     74  C   UNL     1     -19.156   2.535  -5.406  1.00  0.00     0.198 A 
ATOM     75  C   UNL     1     -19.082   4.220  -7.071  1.00  0.00     0.198 A 
ATOM     76  F   UNL     1     -17.639   5.996  -6.938  1.00  0.00    -0.203 F 
ATOM     77  F   UNL     1     -19.631   1.365  -4.958  1.00  0.00    -0.200 F 
ATOM     78  C   UNL     1     -19.597   3.029  -6.615  1.00  0.00     0.200 A 
ATOM     79  F   UNL     1     -19.497   4.725  -8.242  1.00  0.00    -0.200 F 
ATOM     80  F   UNL     1     -20.500   2.359  -7.343  1.00  0.00    -0.200 F 
ENDBRANCH  56  70
BRANCH  57  81
ATOM     81  C   UNL     1      -9.226   7.574  -1.477  1.00  0.00     0.064 A 
ATOM     82  C   UNL     1      -7.892   7.536  -1.929  1.00  0.00     0.173 A 
ATOM     83  C   UNL     1      -9.856   8.822  -1.426  1.00  0.00     0.173 A 
ATOM     84  F   UNL     1      -7.245   6.362  -2.007  1.00  0.00    -0.203 F 
ATOM     85  C   UNL     1      -7.259   8.676  -2.418  1.00  0.00     0.198 A 
ATOM     86  C   UNL     1      -9.212   9.966  -1.903  1.00  0.00     0.198 A 
ATOM     87  F   UNL     1     -11.133   8.922  -1.029  1.00  0.00    -0.203 F 
ATOM     88  F   UNL     1      -6.033   8.582  -2.952  1.00  0.00    -0.200 F 
ATOM     89  C   UNL     1      -7.929   9.886  -2.428  1.00  0.00     0.200 A 
ATOM     90  F   UNL     1      -9.873  11.132  -1.946  1.00  0.00    -0.200 F 
ATOM     91  F   UNL     1      -7.362  10.965  -2.985  1.00  0.00    -0.200 F 
ENDBRANCH  57  81
BRANCH  69  92
ATOM     92  C   UNL     1     -15.435   5.171   1.246  1.00  0.00     0.064 A 
ATOM     93  C   UNL     1     -15.415   6.156   2.249  1.00  0.00     0.173 A 
ATOM     94  C   UNL     1     -16.575   4.334   1.235  1.00  0.00     0.173 A 
ATOM     95  F   UNL     1     -14.453   7.087   2.291  1.00  0.00    -0.203 F 
ATOM     96  C   UNL     1     -16.424   6.250   3.212  1.00  0.00     0.198 A 
ATOM     97  C   UNL     1     -17.608   4.468   2.163  1.00  0.00     0.198 A 
ATOM     98  F   UNL     1     -16.729   3.377   0.309  1.00  0.00    -0.203 F 
ATOM     99  F   UNL     1     -16.337   7.179   4.175  1.00  0.00    -0.200 F 
ATOM    100  C   UNL     1     -17.524   5.415   3.163  1.00  0.00     0.200 A 
ATOM    101  F   UNL     1     -18.692   3.686   2.071  1.00  0.00    -0.200 F 
ATOM    102  F   UNL     1     -18.509   5.537   4.063  1.00  0.00    -0.200 F 
ENDBRANCH  69  92
ENDBRANCH  43  44
ENDBRANCH  35  38
ENDBRANCH  33  34
ENDBRANCH  32  33
ENDBRANCH  31  32
ENDBRANCH   1  31
TORSDOF 16
