REMARK SMILES CC(=O)N[C@H](CSCC(=O)Nc1ccc2c(c1)N1CC[NH+]=C1S2)C(=O)NCCCCNC(=O)c1ccc(-c2c3nc(c(-c4c(F)c(F)c(F)c(F)c4F)c4ccc([nH]4)c(-c4c(F)c(F)c(F)c(F)c4F)c4nc(c(-c5c(F)c(F)c(F)c(F)c5F)c5ccc2[nH]5)C=C4)C=C3)cc1
REMARK SMILES IDX 27 1 26 2 24 3 25 4 5 6 4 7 1 8 2 9 3 10 6 12 7 13 8 14 9 15
REMARK SMILES IDX 10 16 11 17 12 19 13 20 17 21 14 22 16 23 15 24 18 25 23 26
REMARK SMILES IDX 19 27 22 28 20 29 21 30 28 32 29 33 30 34 31 35 32 36 33 38
REMARK SMILES IDX 34 39 35 40 96 41 36 42 95 43 37 44 38 45 39 46 89 47 40 48
REMARK SMILES IDX 94 49 88 50 90 51 41 52 93 53 87 54 86 55 42 57 74 58 54 59
REMARK SMILES IDX 73 60 55 61 58 62 72 63 91 64 56 65 57 66 71 68 92 69 59 70
REMARK SMILES IDX 43 71 44 72 52 73 45 74 46 75 50 76 53 77 47 78 48 79 51 80
REMARK SMILES IDX 49 81 75 82 76 83 84 84 77 85 78 86 82 87 85 88 79 89 80 90
REMARK SMILES IDX 83 91 81 92 60 93 61 94 69 95 62 96 63 97 67 98 70 99 64 100
REMARK SMILES IDX 65 101 68 102 66 103
REMARK H PARENT 26 5 4 11 11 18 21 31 31 37 90 56 58 67
REMARK Flexibility Score: inf
ROOT
ATOM      1  C   UNL     1       0.307   5.135  -2.291  1.00  0.00     0.116 C 
ENDROOT
BRANCH   1   2
ATOM      2  N   UNL     1       0.213   4.747  -0.900  1.00  0.00    -0.354 N 
ATOM      3  C   UNL     1       0.867   3.750  -0.237  1.00  0.00     0.243 C 
ATOM      4  O   UNL     1       0.503   3.501   0.915  1.00  0.00    -0.273 OA
ATOM      5  H   UNL     1      -0.412   5.277  -0.354  1.00  0.00     0.163 HD
BRANCH   3   6
ATOM      6  C   UNL     1       1.962   2.896  -0.917  1.00  0.00     0.181 C 
BRANCH   6   7
ATOM      7  N   UNL     1       3.048   3.692  -1.495  1.00  0.00    -0.344 N 
ATOM      8  C   UNL     1       3.686   4.859   0.584  1.00  0.00     0.114 C 
ATOM      9  C   UNL     1       3.972   4.440  -0.830  1.00  0.00     0.217 C 
ATOM     10  O   UNL     1       4.991   4.793  -1.421  1.00  0.00    -0.275 OA
ATOM     11  H   UNL     1       3.117   3.686  -2.477  1.00  0.00     0.164 HD
ENDBRANCH   6   7
BRANCH   6  12
ATOM     12  C   UNL     1       1.295   1.951  -1.936  1.00  0.00     0.105 C 
BRANCH  12  13
ATOM     13  S   UNL     1       2.469   0.964  -2.940  1.00  0.00    -0.149 SA
BRANCH  13  14
ATOM     14  C   UNL     1       2.582   1.846  -4.538  1.00  0.00     0.169 C 
BRANCH  14  15
ATOM     15  C   UNL     1       1.409   2.698  -4.966  1.00  0.00     0.234 C 
ATOM     16  O   UNL     1       1.475   3.930  -4.853  1.00  0.00    -0.274 OA
ATOM     17  N   UNL     1       0.305   2.215  -5.607  1.00  0.00    -0.325 N 
ATOM     18  H   UNL     1      -0.427   2.863  -5.718  1.00  0.00     0.169 HD
BRANCH  17  19
ATOM     19  C   UNL     1       0.053   0.943  -6.129  1.00  0.00     0.045 A 
ATOM     20  C   UNL     1       0.344  -0.254  -5.462  1.00  0.00     0.027 A 
ATOM     21  C   UNL     1      -0.459   0.921  -7.431  1.00  0.00     0.079 A 
ATOM     22  C   UNL     1       0.255  -1.483  -6.121  1.00  0.00     0.022 A 
ATOM     23  C   UNL     1      -0.481  -0.279  -8.112  1.00  0.00     0.144 A 
ATOM     24  C   UNL     1      -0.118  -1.473  -7.450  1.00  0.00     0.067 A 
ATOM     25  N   UNL     1      -0.708  -0.462  -9.447  1.00  0.00    -0.216 N 
ATOM     26  S   UNL     1      -0.099  -2.843  -8.617  1.00  0.00     0.002 SA
ATOM     27  C   UNL     1      -1.009   0.409 -10.535  1.00  0.00     0.289 C 
ATOM     28  C   UNL     1      -0.427  -1.710  -9.909  1.00  0.00     0.316 C 
ATOM     29  C   UNL     1      -0.572  -0.494 -11.716  1.00  0.00     0.280 C 
ATOM     30  N   UNL     1      -0.376  -1.901 -11.194  1.00  0.00    -0.264 N 
ATOM     31  H   UNL     1      -0.244  -2.738 -11.694  1.00  0.00     0.305 HD
ENDBRANCH  17  19
ENDBRANCH  14  15
ENDBRANCH  13  14
ENDBRANCH  12  13
ENDBRANCH   6  12
ENDBRANCH   3   6
ENDBRANCH   1   2
BRANCH   1  32
ATOM     32  C   UNL     1      -0.962   4.730  -3.050  1.00  0.00     0.023 C 
BRANCH  32  33
ATOM     33  C   UNL     1      -1.878   5.894  -3.394  1.00  0.00     0.023 C 
BRANCH  33  34
ATOM     34  C   UNL     1      -1.246   6.981  -4.255  1.00  0.00     0.116 C 
BRANCH  34  35
ATOM     35  N   UNL     1      -0.786   6.545  -5.568  1.00  0.00    -0.352 N 
ATOM     36  C   UNL     1      -0.914   7.217  -6.773  1.00  0.00     0.251 C 
ATOM     37  H   UNL     1      -0.333   5.671  -5.603  1.00  0.00     0.163 HD
ATOM     38  O   UNL     1      -0.582   6.698  -7.828  1.00  0.00    -0.269 OA
BRANCH  36  39
ATOM     39  C   UNL     1      -1.521   8.571  -6.752  1.00  0.00     0.039 A 
ATOM     40  C   UNL     1      -1.087   9.502  -5.809  1.00  0.00     0.014 A 
ATOM     41  C   UNL     1      -2.624   8.850  -7.562  1.00  0.00     0.014 A 
ATOM     42  C   UNL     1      -1.905  10.578  -5.494  1.00  0.00     0.010 A 
ATOM     43  C   UNL     1      -3.381  10.004  -7.320  1.00  0.00     0.010 A 
ATOM     44  C   UNL     1      -3.079  10.831  -6.226  1.00  0.00    -0.014 A 
BRANCH  44  45
ATOM     45  C   UNL     1      -3.987  11.925  -5.777  1.00  0.00     0.031 A 
ATOM     46  C   UNL     1      -5.395  11.628  -5.319  1.00  0.00     0.074 A 
ATOM     47  C   UNL     1      -3.507  13.180  -5.673  1.00  0.00     0.049 A 
ATOM     48  N   UNL     1      -6.302  12.452  -4.850  1.00  0.00    -0.248 NA
ATOM     49  C   UNL     1      -5.851  10.231  -5.397  1.00  0.00     0.031 C 
ATOM     50  C   UNL     1      -2.157  13.595  -6.056  1.00  0.00     0.029 A 
ATOM     51  N   UNL     1      -4.075  14.323  -5.168  1.00  0.00    -0.354 N 
ATOM     52  C   UNL     1      -7.434  11.683  -4.611  1.00  0.00     0.074 A 
ATOM     53  C   UNL     1      -7.113  10.328  -5.002  1.00  0.00     0.031 C 
ATOM     54  C   UNL     1      -1.971  14.872  -5.694  1.00  0.00     0.029 A 
ATOM     55  C   UNL     1      -3.211  15.390  -5.125  1.00  0.00     0.049 A 
ATOM     56  H   UNL     1      -5.011  14.373  -4.867  1.00  0.00     0.167 HD
ATOM     57  C   UNL     1      -8.629  12.068  -4.102  1.00  0.00     0.037 A 
ATOM     58  C   UNL     1      -3.392  16.649  -4.684  1.00  0.00     0.037 A 
ATOM     59  C   UNL     1      -8.938  13.405  -3.667  1.00  0.00     0.049 A 
ATOM     60  C   UNL     1      -4.732  17.054  -4.144  1.00  0.00     0.074 A 
ATOM     61  C   UNL     1     -10.120  13.884  -3.126  1.00  0.00     0.029 A 
ATOM     62  N   UNL     1      -8.056  14.474  -3.708  1.00  0.00    -0.354 N 
ATOM     63  N   UNL     1      -5.800  16.320  -3.954  1.00  0.00    -0.248 NA
ATOM     64  C   UNL     1      -4.898  18.467  -3.775  1.00  0.00     0.031 C 
ATOM     65  C   UNL     1      -9.963  15.250  -2.869  1.00  0.00     0.029 A 
ATOM     66  C   UNL     1      -8.672  15.613  -3.214  1.00  0.00     0.049 A 
ATOM     67  H   UNL     1      -7.130  14.430  -4.039  1.00  0.00     0.167 HD
ATOM     68  C   UNL     1      -6.763  17.177  -3.442  1.00  0.00     0.074 A 
ATOM     69  C   UNL     1      -6.147  18.483  -3.329  1.00  0.00     0.031 C 
ATOM     70  C   UNL     1      -8.046  16.905  -3.106  1.00  0.00     0.037 A 
BRANCH  57  71
ATOM     71  C   UNL     1      -9.713  11.036  -3.986  1.00  0.00     0.064 A 
ATOM     72  C   UNL     1      -9.689  10.054  -2.985  1.00  0.00     0.173 A 
ATOM     73  C   UNL     1     -10.830  11.082  -4.834  1.00  0.00     0.173 A 
ATOM     74  F   UNL     1      -8.639   9.961  -2.156  1.00  0.00    -0.203 F 
ATOM     75  C   UNL     1     -10.741   9.151  -2.843  1.00  0.00     0.198 A 
ATOM     76  C   UNL     1     -11.889  10.193  -4.675  1.00  0.00     0.198 A 
ATOM     77  F   UNL     1     -10.905  12.007  -5.803  1.00  0.00    -0.203 F 
ATOM     78  F   UNL     1     -10.685   8.204  -1.896  1.00  0.00    -0.200 F 
ATOM     79  C   UNL     1     -11.843   9.226  -3.682  1.00  0.00     0.200 A 
ATOM     80  F   UNL     1     -12.959  10.275  -5.479  1.00  0.00    -0.200 F 
ATOM     81  F   UNL     1     -12.860   8.366  -3.534  1.00  0.00    -0.200 F 
ENDBRANCH  57  71
BRANCH  58  82
ATOM     82  C   UNL     1      -2.261  17.609  -4.737  1.00  0.00     0.064 A 
ATOM     83  C   UNL     1      -1.629  18.039  -3.563  1.00  0.00     0.173 A 
ATOM     84  C   UNL     1      -1.761  18.080  -5.960  1.00  0.00     0.173 A 
ATOM     85  F   UNL     1      -2.085  17.631  -2.369  1.00  0.00    -0.203 F 
ATOM     86  C   UNL     1      -0.535  18.901  -3.611  1.00  0.00     0.198 A 
ATOM     87  C   UNL     1      -0.651  18.919  -6.008  1.00  0.00     0.198 A 
ATOM     88  F   UNL     1      -2.332  17.694  -7.111  1.00  0.00    -0.203 F 
ATOM     89  F   UNL     1       0.040  19.314  -2.473  1.00  0.00    -0.200 F 
ATOM     90  C   UNL     1      -0.041  19.331  -4.833  1.00  0.00     0.200 A 
ATOM     91  F   UNL     1      -0.167  19.317  -7.192  1.00  0.00    -0.200 F 
ATOM     92  F   UNL     1       1.024  20.143  -4.880  1.00  0.00    -0.200 F 
ENDBRANCH  58  82
BRANCH  70  93
ATOM     93  C   UNL     1      -8.876  18.033  -2.574  1.00  0.00     0.064 A 
ATOM     94  C   UNL     1      -9.394  19.019  -3.426  1.00  0.00     0.173 A 
ATOM     95  C   UNL     1      -9.215  18.089  -1.214  1.00  0.00     0.173 A 
ATOM     96  F   UNL     1      -9.086  19.012  -4.732  1.00  0.00    -0.203 F 
ATOM     97  C   UNL     1     -10.216  20.028  -2.933  1.00  0.00     0.198 A 
ATOM     98  C   UNL     1     -10.054  19.088  -0.728  1.00  0.00     0.198 A 
ATOM     99  F   UNL     1      -8.748  17.164  -0.363  1.00  0.00    -0.203 F 
ATOM    100  F   UNL     1     -10.680  20.976  -3.759  1.00  0.00    -0.200 F 
ATOM    101  C   UNL     1     -10.552  20.057  -1.587  1.00  0.00     0.200 A 
ATOM    102  F   UNL     1     -10.387  19.108   0.570  1.00  0.00    -0.200 F 
ATOM    103  F   UNL     1     -11.354  21.022  -1.116  1.00  0.00    -0.200 F 
ENDBRANCH  70  93
ENDBRANCH  44  45
ENDBRANCH  36  39
ENDBRANCH  34  35
ENDBRANCH  33  34
ENDBRANCH  32  33
ENDBRANCH   1  32
TORSDOF 17
