REMARK SMILES O=C(NCCCCNC(=O)[C@H]1CC[C@@H]2CCCC[C@H]2N1C(=O)N1CCSCC1)c1ccc(-c2c3nc(c(-c4c(F)c(F)c(F)c(F)c4F)c4ccc([nH]4)c(-c4c(F)c(F)c(F)c(F)c4F)c4nc(c(-c5c(F)c(F)c(F)c(F)c5F)c5ccc2[nH]5)C=C4)C=C3)cc1
REMARK SMILES IDX 5 1 4 2 3 3 1 4 2 5 29 7 30 8 91 9 31 10 90 11 32 12 33 13
REMARK SMILES IDX 34 14 84 15 35 16 89 17 83 18 85 19 36 20 88 21 82 22 81 23
REMARK SMILES IDX 37 25 69 26 49 27 68 28 50 29 53 30 67 31 86 32 51 33 52 34
REMARK SMILES IDX 66 36 87 37 54 38 38 39 39 40 47 41 40 42 41 43 45 44 48 45
REMARK SMILES IDX 42 46 43 47 46 48 44 49 70 50 71 51 79 52 72 53 73 54 77 55
REMARK SMILES IDX 80 56 74 57 75 58 78 59 76 60 55 61 56 62 64 63 57 64 58 65
REMARK SMILES IDX 62 66 65 67 59 68 60 69 63 70 61 71 6 72 7 73 8 74 9 75
REMARK SMILES IDX 10 77 11 78 12 79 20 80 13 81 19 82 14 83 18 84 15 85 17 86
REMARK SMILES IDX 16 87 21 88 22 89 23 90 24 91 28 92 25 93 27 94 26 95
REMARK H PARENT 3 6 85 24 53 35 8 76
REMARK Flexibility Score: inf
ROOT
ATOM      1  C   UNL     1       2.299   7.985  -7.404  1.00  0.00     0.023 C 
ENDROOT
BRANCH   1   2
ATOM      2  C   UNL     1       1.525   8.071  -6.095  1.00  0.00     0.116 C 
BRANCH   2   3
ATOM      3  N   UNL     1       1.537   9.389  -5.487  1.00  0.00    -0.352 N 
ATOM      4  O   UNL     1       0.632  11.225  -4.517  1.00  0.00    -0.269 OA
ATOM      5  C   UNL     1       0.485  10.078  -4.925  1.00  0.00     0.251 C 
ATOM      6  H   UNL     1       2.408   9.849  -5.474  1.00  0.00     0.163 HD
BRANCH   5   7
ATOM      7  C   UNL     1      -0.847   9.437  -4.856  1.00  0.00     0.039 A 
ATOM      8  C   UNL     1      -1.000   8.171  -4.286  1.00  0.00     0.014 A 
ATOM      9  C   UNL     1      -1.948  10.098  -5.408  1.00  0.00     0.014 A 
ATOM     10  C   UNL     1      -2.221   7.508  -4.393  1.00  0.00     0.010 A 
ATOM     11  C   UNL     1      -3.189   9.455  -5.459  1.00  0.00     0.010 A 
ATOM     12  C   UNL     1      -3.326   8.139  -4.990  1.00  0.00    -0.014 A 
BRANCH  12  13
ATOM     13  C   UNL     1      -4.622   7.418  -5.095  1.00  0.00     0.031 A 
ATOM     14  C   UNL     1      -5.179   7.010  -6.433  1.00  0.00     0.074 A 
ATOM     15  C   UNL     1      -5.295   7.111  -3.970  1.00  0.00     0.049 A 
ATOM     16  N   UNL     1      -6.294   6.376  -6.706  1.00  0.00    -0.248 NA
ATOM     17  C   UNL     1      -4.388   7.364  -7.620  1.00  0.00     0.031 C 
ATOM     18  C   UNL     1      -4.874   7.467  -2.615  1.00  0.00     0.029 A 
ATOM     19  N   UNL     1      -6.471   6.428  -3.786  1.00  0.00    -0.354 N 
ATOM     20  C   UNL     1      -6.341   6.262  -8.089  1.00  0.00     0.074 A 
ATOM     21  C   UNL     1      -5.158   6.919  -8.605  1.00  0.00     0.031 C 
ATOM     22  C   UNL     1      -5.764   6.979  -1.737  1.00  0.00     0.029 A 
ATOM     23  C   UNL     1      -6.837   6.314  -2.469  1.00  0.00     0.049 A 
ATOM     24  H   UNL     1      -7.000   6.056  -4.528  1.00  0.00     0.167 HD
ATOM     25  C   UNL     1      -7.278   5.656  -8.858  1.00  0.00     0.037 A 
ATOM     26  C   UNL     1      -7.923   5.748  -1.909  1.00  0.00     0.037 A 
ATOM     27  C   UNL     1      -8.452   4.992  -8.348  1.00  0.00     0.049 A 
ATOM     28  C   UNL     1      -8.945   5.084  -2.786  1.00  0.00     0.074 A 
ATOM     29  C   UNL     1      -9.448   4.336  -9.053  1.00  0.00     0.029 A 
ATOM     30  N   UNL     1      -8.787   4.898  -7.006  1.00  0.00    -0.354 N 
ATOM     31  N   UNL     1      -8.965   4.967  -4.090  1.00  0.00    -0.248 NA
ATOM     32  C   UNL     1     -10.096   4.469  -2.109  1.00  0.00     0.031 C 
ATOM     33  C   UNL     1     -10.402   3.873  -8.140  1.00  0.00     0.029 A 
ATOM     34  C   UNL     1      -9.980   4.204  -6.863  1.00  0.00     0.049 A 
ATOM     35  H   UNL     1      -8.257   5.268  -6.264  1.00  0.00     0.167 HD
ATOM     36  C   UNL     1     -10.121   4.262  -4.391  1.00  0.00     0.074 A 
ATOM     37  C   UNL     1     -10.762   3.950  -3.130  1.00  0.00     0.031 C 
ATOM     38  C   UNL     1     -10.612   3.910  -5.604  1.00  0.00     0.037 A 
BRANCH  25  39
ATOM     39  C   UNL     1      -7.081   5.673 -10.346  1.00  0.00     0.064 A 
ATOM     40  C   UNL     1      -6.120   4.860 -10.965  1.00  0.00     0.173 A 
ATOM     41  C   UNL     1      -7.910   6.453 -11.167  1.00  0.00     0.173 A 
ATOM     42  F   UNL     1      -5.296   4.105 -10.224  1.00  0.00    -0.203 F 
ATOM     43  C   UNL     1      -5.990   4.835 -12.352  1.00  0.00     0.198 A 
ATOM     44  C   UNL     1      -7.792   6.408 -12.554  1.00  0.00     0.198 A 
ATOM     45  F   UNL     1      -8.849   7.242 -10.624  1.00  0.00    -0.203 F 
ATOM     46  F   UNL     1      -5.047   4.072 -12.921  1.00  0.00    -0.200 F 
ATOM     47  C   UNL     1      -6.831   5.602 -13.145  1.00  0.00     0.200 A 
ATOM     48  F   UNL     1      -8.613   7.140 -13.319  1.00  0.00    -0.200 F 
ATOM     49  F   UNL     1      -6.713   5.566 -14.479  1.00  0.00    -0.200 F 
ENDBRANCH  25  39
BRANCH  26  50
ATOM     50  C   UNL     1      -8.094   5.792  -0.436  1.00  0.00     0.064 A 
ATOM     51  C   UNL     1      -7.968   4.634   0.342  1.00  0.00     0.173 A 
ATOM     52  C   UNL     1      -8.383   6.996   0.223  1.00  0.00     0.173 A 
ATOM     53  F   UNL     1      -7.715   3.456  -0.247  1.00  0.00    -0.203 F 
ATOM     54  C   UNL     1      -8.139   4.676   1.724  1.00  0.00     0.198 A 
ATOM     55  C   UNL     1      -8.526   7.042   1.607  1.00  0.00     0.198 A 
ATOM     56  F   UNL     1      -8.510   8.132  -0.480  1.00  0.00    -0.203 F 
ATOM     57  F   UNL     1      -8.055   3.547   2.441  1.00  0.00    -0.200 F 
ATOM     58  C   UNL     1      -8.412   5.880   2.355  1.00  0.00     0.200 A 
ATOM     59  F   UNL     1      -8.776   8.210   2.214  1.00  0.00    -0.200 F 
ATOM     60  F   UNL     1      -8.571   5.920   3.685  1.00  0.00    -0.200 F 
ENDBRANCH  26  50
BRANCH  38  61
ATOM     61  C   UNL     1     -11.902   3.144  -5.619  1.00  0.00     0.064 A 
ATOM     62  C   UNL     1     -13.124   3.766  -5.321  1.00  0.00     0.173 A 
ATOM     63  C   UNL     1     -11.917   1.779  -5.937  1.00  0.00     0.173 A 
ATOM     64  F   UNL     1     -13.157   5.066  -4.994  1.00  0.00    -0.203 F 
ATOM     65  C   UNL     1     -14.311   3.039  -5.311  1.00  0.00     0.198 A 
ATOM     66  C   UNL     1     -13.110   1.061  -5.951  1.00  0.00     0.198 A 
ATOM     67  F   UNL     1     -10.776   1.140  -6.234  1.00  0.00    -0.203 F 
ATOM     68  F   UNL     1     -15.460   3.641  -4.972  1.00  0.00    -0.200 F 
ATOM     69  C   UNL     1     -14.304   1.689  -5.629  1.00  0.00     0.200 A 
ATOM     70  F   UNL     1     -13.104  -0.241  -6.266  1.00  0.00    -0.200 F 
ATOM     71  F   UNL     1     -15.448   0.990  -5.614  1.00  0.00    -0.200 F 
ENDBRANCH  38  61
ENDBRANCH  12  13
ENDBRANCH   5   7
ENDBRANCH   2   3
ENDBRANCH   1   2
BRANCH   1  72
ATOM     72  C   UNL     1       3.819   8.140  -7.305  1.00  0.00     0.023 C 
BRANCH  72  73
ATOM     73  C   UNL     1       4.538   7.210  -6.327  1.00  0.00     0.116 C 
BRANCH  73  74
ATOM     74  N   UNL     1       4.252   5.809  -6.546  1.00  0.00    -0.354 N 
ATOM     75  C   UNL     1       4.865   4.713  -6.010  1.00  0.00     0.242 C 
ATOM     76  H   UNL     1       3.512   5.619  -7.167  1.00  0.00     0.163 HD
ATOM     77  O   UNL     1       4.436   3.609  -6.367  1.00  0.00    -0.273 OA
BRANCH  75  78
ATOM     78  C   UNL     1       6.182   4.814  -5.196  1.00  0.00     0.176 C 
ATOM     79  C   UNL     1       7.304   4.742  -6.249  1.00  0.00     0.036 C 
ATOM     80  N   UNL     1       6.250   5.907  -4.189  1.00  0.00    -0.309 N 
ATOM     81  C   UNL     1       8.621   5.331  -5.800  1.00  0.00     0.008 C 
ATOM     82  C   UNL     1       7.500   6.712  -4.041  1.00  0.00     0.091 C 
ATOM     83  C   UNL     1       8.349   6.750  -5.333  1.00  0.00     0.012 C 
ATOM     84  C   UNL     1       7.257   8.173  -3.584  1.00  0.00     0.025 C 
ATOM     85  C   UNL     1       9.658   7.529  -5.164  1.00  0.00     0.006 C 
ATOM     86  C   UNL     1       8.562   8.959  -3.428  1.00  0.00     0.002 C 
ATOM     87  C   UNL     1       9.382   8.955  -4.708  1.00  0.00     0.000 C 
BRANCH  80  88
ATOM     88  C   UNL     1       5.417   5.809  -3.055  1.00  0.00     0.321 C 
ATOM     89  O   UNL     1       5.607   6.394  -1.993  1.00  0.00    -0.248 OA
ATOM     90  N   UNL     1       4.286   5.016  -3.219  1.00  0.00    -0.323 N 
ATOM     91  C   UNL     1       3.009   5.718  -3.108  1.00  0.00     0.132 C 
ATOM     92  C   UNL     1       4.301   3.718  -2.543  1.00  0.00     0.132 C 
ATOM     93  C   UNL     1       1.865   4.974  -3.792  1.00  0.00     0.091 C 
ATOM     94  C   UNL     1       3.286   2.724  -3.111  1.00  0.00     0.091 C 
ATOM     95  S   UNL     1       1.572   3.349  -3.027  1.00  0.00    -0.158 SA
ENDBRANCH  80  88
ENDBRANCH  75  78
ENDBRANCH  73  74
ENDBRANCH  72  73
ENDBRANCH   1  72
TORSDOF 12
