REMARK SMILES O=C(NCCCCNC(=O)c1nnn(-c2cccc(OC(F)(F)F)c2)c1-c1ccncc1)c1ccc(-c2c3nc(c(-c4c(F)c(F)c(F)c(F)c4F)c4ccc([nH]4)c(-c4c(F)c(F)c(F)c(F)c4F)c4nc(c(-c5c(F)c(F)c(F)c(F)c5F)c5ccc2[nH]5)C=C4)C=C3)cc1
REMARK SMILES IDX 6 1 5 2 4 3 3 4 1 5 2 6 33 8 34 9 95 10 35 11 94 12 36 13
REMARK SMILES IDX 37 14 38 15 88 16 39 17 93 18 87 19 89 20 40 21 92 22 86 23
REMARK SMILES IDX 85 24 41 26 73 27 53 28 72 29 54 30 57 31 71 32 90 33 55 34
REMARK SMILES IDX 56 35 70 37 91 38 58 39 42 40 43 41 51 42 44 43 45 44 49 45
REMARK SMILES IDX 52 46 46 47 47 48 50 49 48 50 74 51 75 52 83 53 76 54 77 55
REMARK SMILES IDX 81 56 84 57 78 58 79 59 82 60 80 61 59 62 60 63 68 64 61 65
REMARK SMILES IDX 62 66 66 67 69 68 63 69 64 70 67 71 65 72 7 73 8 74 9 75
REMARK SMILES IDX 10 77 11 78 12 79 26 80 13 81 14 82 27 83 28 84 32 85 29 86
REMARK SMILES IDX 31 87 30 88 15 89 16 90 25 91 17 92 19 93 18 94 20 95 21 96
REMARK SMILES IDX 22 97 23 98 24 99
REMARK H PARENT 3 7 89 25 57 36 8 76
REMARK Flexibility Score: inf
ROOT
ATOM      1  C   UNL     1       4.518   0.349  -3.560  1.00  0.00     0.023 C 
ENDROOT
BRANCH   1   2
ATOM      2  C   UNL     1       5.043  -0.162  -2.219  1.00  0.00     0.023 C 
BRANCH   2   3
ATOM      3  C   UNL     1       4.749   0.715  -0.995  1.00  0.00     0.116 C 
BRANCH   3   4
ATOM      4  N   UNL     1       3.358   1.068  -0.788  1.00  0.00    -0.352 N 
ATOM      5  O   UNL     1       1.251   1.099  -0.106  1.00  0.00    -0.269 OA
ATOM      6  C   UNL     1       2.268   0.421  -0.269  1.00  0.00     0.251 C 
ATOM      7  H   UNL     1       3.149   1.982  -1.090  1.00  0.00     0.163 HD
BRANCH   6   8
ATOM      8  C   UNL     1       2.210  -1.034   0.046  1.00  0.00     0.039 A 
ATOM      9  C   UNL     1       3.300  -1.903   0.055  1.00  0.00     0.014 A 
ATOM     10  C   UNL     1       0.936  -1.566   0.317  1.00  0.00     0.014 A 
ATOM     11  C   UNL     1       3.118  -3.276   0.183  1.00  0.00     0.010 A 
ATOM     12  C   UNL     1       0.752  -2.934   0.503  1.00  0.00     0.010 A 
ATOM     13  C   UNL     1       1.841  -3.797   0.380  1.00  0.00    -0.014 A 
BRANCH  13  14
ATOM     14  C   UNL     1       1.713  -5.246   0.536  1.00  0.00     0.031 A 
ATOM     15  C   UNL     1       2.383  -5.860   1.726  1.00  0.00     0.074 A 
ATOM     16  C   UNL     1       0.904  -5.988  -0.247  1.00  0.00     0.049 A 
ATOM     17  N   UNL     1       3.124  -6.924   1.790  1.00  0.00    -0.248 NA
ATOM     18  C   UNL     1       2.211  -5.178   3.019  1.00  0.00     0.031 C 
ATOM     19  C   UNL     1      -0.047  -5.512  -1.254  1.00  0.00     0.029 A 
ATOM     20  N   UNL     1       0.675  -7.333  -0.208  1.00  0.00    -0.354 N 
ATOM     21  C   UNL     1       3.389  -7.131   3.146  1.00  0.00     0.074 A 
ATOM     22  C   UNL     1       2.869  -5.987   3.847  1.00  0.00     0.031 C 
ATOM     23  C   UNL     1      -0.902  -6.511  -1.559  1.00  0.00     0.029 A 
ATOM     24  C   UNL     1      -0.483  -7.717  -0.863  1.00  0.00     0.049 A 
ATOM     25  H   UNL     1       1.275  -7.970   0.242  1.00  0.00     0.167 HD
ATOM     26  C   UNL     1       3.873  -8.308   3.631  1.00  0.00     0.037 A 
ATOM     27  C   UNL     1      -1.112  -8.912  -0.769  1.00  0.00     0.037 A 
ATOM     28  C   UNL     1       4.570  -9.064   2.629  1.00  0.00     0.049 A 
ATOM     29  C   UNL     1      -0.154  -9.904  -0.230  1.00  0.00     0.074 A 
ATOM     30  C   UNL     1       5.684  -8.844   1.842  1.00  0.00     0.029 A 
ATOM     31  N   UNL     1       3.989 -10.195   2.118  1.00  0.00    -0.354 N 
ATOM     32  N   UNL     1       0.874 -10.373  -0.878  1.00  0.00    -0.248 NA
ATOM     33  C   UNL     1      -0.143 -10.130   1.208  1.00  0.00     0.031 C 
ATOM     34  C   UNL     1       5.429  -9.546   0.627  1.00  0.00     0.029 A 
ATOM     35  C   UNL     1       4.178 -10.146   0.762  1.00  0.00     0.049 A 
ATOM     36  H   UNL     1       3.528 -10.901   2.624  1.00  0.00     0.167 HD
ATOM     37  C   UNL     1       1.836 -10.588   0.096  1.00  0.00     0.074 A 
ATOM     38  C   UNL     1       1.117 -10.539   1.362  1.00  0.00     0.031 C 
ATOM     39  C   UNL     1       3.166 -10.509  -0.198  1.00  0.00     0.037 A 
BRANCH  26  40
ATOM     40  C   UNL     1       3.462  -8.910   4.955  1.00  0.00     0.064 A 
ATOM     41  C   UNL     1       4.133 -10.051   5.443  1.00  0.00     0.173 A 
ATOM     42  C   UNL     1       2.249  -8.596   5.605  1.00  0.00     0.173 A 
ATOM     43  F   UNL     1       5.285 -10.458   4.889  1.00  0.00    -0.203 F 
ATOM     44  C   UNL     1       3.589 -10.857   6.448  1.00  0.00     0.198 A 
ATOM     45  C   UNL     1       1.736  -9.373   6.644  1.00  0.00     0.198 A 
ATOM     46  F   UNL     1       1.463  -7.594   5.192  1.00  0.00    -0.203 F 
ATOM     47  F   UNL     1       4.200 -12.000   6.788  1.00  0.00    -0.200 F 
ATOM     48  C   UNL     1       2.387 -10.521   7.043  1.00  0.00     0.200 A 
ATOM     49  F   UNL     1       0.561  -9.040   7.198  1.00  0.00    -0.200 F 
ATOM     50  F   UNL     1       1.833 -11.324   7.960  1.00  0.00    -0.200 F 
ENDBRANCH  26  40
BRANCH  27  51
ATOM     51  C   UNL     1      -2.567  -9.169  -0.848  1.00  0.00     0.064 A 
ATOM     52  C   UNL     1      -3.066 -10.448  -1.135  1.00  0.00     0.173 A 
ATOM     53  C   UNL     1      -3.502  -8.213  -0.403  1.00  0.00     0.173 A 
ATOM     54  F   UNL     1      -2.233 -11.430  -1.508  1.00  0.00    -0.203 F 
ATOM     55  C   UNL     1      -4.423 -10.752  -0.983  1.00  0.00     0.198 A 
ATOM     56  C   UNL     1      -4.856  -8.513  -0.267  1.00  0.00     0.198 A 
ATOM     57  F   UNL     1      -3.106  -6.995  -0.006  1.00  0.00    -0.203 F 
ATOM     58  F   UNL     1      -4.857 -11.999  -1.214  1.00  0.00    -0.200 F 
ATOM     59  C   UNL     1      -5.315  -9.786  -0.547  1.00  0.00     0.200 A 
ATOM     60  F   UNL     1      -5.701  -7.579   0.191  1.00  0.00    -0.200 F 
ATOM     61  F   UNL     1      -6.606 -10.091  -0.357  1.00  0.00    -0.200 F 
ENDBRANCH  27  51
BRANCH  39  62
ATOM     62  C   UNL     1       3.563 -10.481  -1.643  1.00  0.00     0.064 A 
ATOM     63  C   UNL     1       3.217  -9.437  -2.517  1.00  0.00     0.173 A 
ATOM     64  C   UNL     1       4.443 -11.461  -2.120  1.00  0.00     0.173 A 
ATOM     65  F   UNL     1       2.472  -8.406  -2.096  1.00  0.00    -0.203 F 
ATOM     66  C   UNL     1       3.688  -9.407  -3.827  1.00  0.00     0.198 A 
ATOM     67  C   UNL     1       4.942 -11.409  -3.419  1.00  0.00     0.198 A 
ATOM     68  F   UNL     1       4.861 -12.444  -1.307  1.00  0.00    -0.203 F 
ATOM     69  F   UNL     1       3.334  -8.405  -4.646  1.00  0.00    -0.200 F 
ATOM     70  C   UNL     1       4.555 -10.390  -4.275  1.00  0.00     0.200 A 
ATOM     71  F   UNL     1       5.822 -12.331  -3.833  1.00  0.00    -0.200 F 
ATOM     72  F   UNL     1       5.043 -10.338  -5.522  1.00  0.00    -0.200 F 
ENDBRANCH  39  62
ENDBRANCH  13  14
ENDBRANCH   6   8
ENDBRANCH   3   4
ENDBRANCH   2   3
ENDBRANCH   1   2
BRANCH   1  73
ATOM     73  C   UNL     1       4.885   1.785  -3.885  1.00  0.00     0.116 C 
BRANCH  73  74
ATOM     74  N   UNL     1       6.307   2.008  -4.034  1.00  0.00    -0.351 N 
ATOM     75  C   UNL     1       6.942   2.937  -4.838  1.00  0.00     0.274 C 
ATOM     76  H   UNL     1       6.894   1.428  -3.497  1.00  0.00     0.163 HD
ATOM     77  O   UNL     1       8.159   2.980  -4.843  1.00  0.00    -0.267 OA
BRANCH  75  78
ATOM     78  C   UNL     1       6.122   3.830  -5.649  1.00  0.00     0.178 A 
ATOM     79  N   UNL     1       6.162   3.797  -7.020  1.00  0.00    -0.124 NA
ATOM     80  C   UNL     1       5.163   4.746  -5.238  1.00  0.00     0.108 A 
ATOM     81  N   UNL     1       5.217   4.604  -7.483  1.00  0.00    -0.061 NA
ATOM     82  N   UNL     1       4.699   5.279  -6.436  1.00  0.00    -0.212 N 
BRANCH  80  83
ATOM     83  C   UNL     1       4.567   4.991  -3.922  1.00  0.00     0.006 A 
ATOM     84  C   UNL     1       5.347   5.379  -2.835  1.00  0.00     0.030 A 
ATOM     85  C   UNL     1       3.198   4.761  -3.725  1.00  0.00     0.030 A 
ATOM     86  C   UNL     1       4.727   5.507  -1.603  1.00  0.00     0.111 A 
ATOM     87  C   UNL     1       2.674   4.907  -2.454  1.00  0.00     0.111 A 
ATOM     88  N   UNL     1       3.416   5.262  -1.387  1.00  0.00    -0.265 NA
ENDBRANCH  80  83
BRANCH  82  89
ATOM     89  C   UNL     1       3.752   6.314  -6.606  1.00  0.00     0.071 A 
ATOM     90  C   UNL     1       2.757   6.192  -7.577  1.00  0.00     0.029 A 
ATOM     91  C   UNL     1       3.772   7.411  -5.729  1.00  0.00     0.075 A 
ATOM     92  C   UNL     1       1.724   7.126  -7.599  1.00  0.00     0.006 A 
ATOM     93  C   UNL     1       2.754   8.359  -5.770  1.00  0.00     0.131 A 
ATOM     94  C   UNL     1       1.718   8.194  -6.694  1.00  0.00     0.047 A 
BRANCH  93  95
ATOM     95  O   UNL     1       2.648   9.456  -4.964  1.00  0.00    -0.406 OA
BRANCH  95  96
ATOM     96  C   UNL     1       3.725   9.731  -4.080  1.00  0.00     0.573 C 
ATOM     97  F   UNL     1       3.888   8.733  -3.184  1.00  0.00    -0.132 F 
ATOM     98  F   UNL     1       4.878   9.911  -4.760  1.00  0.00    -0.132 F 
ATOM     99  F   UNL     1       3.456  10.866  -3.400  1.00  0.00    -0.132 F 
ENDBRANCH  95  96
ENDBRANCH  93  95
ENDBRANCH  82  89
ENDBRANCH  75  78
ENDBRANCH  73  74
ENDBRANCH   1  73
TORSDOF 15
