REMARK SMILES CCCCOC(=O)c1ccc(N2C[C@H](C(=O)NCCCCNC(=O)c3ccc(-c4c5nc(c(-c6c(F)c(F)c(F)c(F)c6F)c6ccc([nH]6)c(-c6c(F)c(F)c(F)c(F)c6F)c6nc(c(-c7c(F)c(F)c(F)c(F)c7F)c7ccc4[nH]7)C=C6)C=C5)cc3)CC2=O)cc1
REMARK SMILES IDX 15 1 16 2 17 3 14 5 12 6 13 7 89 8 88 9 90 10 11 11 8 12
REMARK SMILES IDX 9 13 92 14 10 15 91 16 6 17 7 18 5 19 4 20 3 21 2 22 1 23
REMARK SMILES IDX 18 24 19 25 20 26 21 27 22 28 23 29 24 31 25 32 26 33 87 34
REMARK SMILES IDX 27 35 86 36 28 37 29 38 30 39 80 40 31 41 85 42 79 43 81 44
REMARK SMILES IDX 32 45 84 46 78 47 77 48 33 50 65 51 45 52 64 53 46 54 49 55
REMARK SMILES IDX 63 56 82 57 47 58 48 59 62 61 83 62 50 63 34 64 35 65 43 66
REMARK SMILES IDX 36 67 37 68 41 69 44 70 38 71 39 72 42 73 40 74 66 75 67 76
REMARK SMILES IDX 75 77 68 78 69 79 73 80 76 81 70 82 71 83 74 84 72 85 51 86
REMARK SMILES IDX 52 87 60 88 53 89 54 90 58 91 61 92 55 93 56 94 59 95 57 96
REMARK H PARENT 17 4 22 30 81 49 49 60
REMARK Flexibility Score: inf
ROOT
ATOM      1  C   UNL     1      -9.725  -0.646  -0.714  1.00  0.00     0.225 C 
ATOM      2  O   UNL     1      -8.910   0.083  -1.277  1.00  0.00    -0.275 OA
ATOM      3  N   UNL     1     -10.970  -0.744  -1.254  1.00  0.00    -0.356 N 
ATOM      4  H   UNL     1     -11.128  -0.165  -2.035  1.00  0.00     0.163 HD
ENDROOT
BRANCH   1   5
ATOM      5  C   UNL     1      -9.390  -1.405   0.555  1.00  0.00     0.107 C 
ATOM      6  N   UNL     1      -7.243  -0.918   1.412  1.00  0.00    -0.312 N 
ATOM      7  C   UNL     1      -7.936  -1.836   0.546  1.00  0.00     0.139 C 
ATOM      8  C   UNL     1      -8.128  -0.155   2.175  1.00  0.00     0.227 C 
ATOM      9  C   UNL     1      -9.540  -0.507   1.774  1.00  0.00     0.116 C 
ATOM     10  O   UNL     1      -7.877   0.669   3.042  1.00  0.00    -0.274 OA
BRANCH   6  11
ATOM     11  C   UNL     1      -5.830  -0.887   1.507  1.00  0.00     0.044 A 
ATOM     12  C   UNL     1      -3.030  -0.766   1.670  1.00  0.00     0.060 A 
ATOM     13  C   UNL     1      -3.632  -1.167   0.478  1.00  0.00     0.018 A 
ATOM     14  C   UNL     1      -3.805  -0.439   2.781  1.00  0.00     0.018 A 
ATOM     15  C   UNL     1      -5.028  -1.238   0.406  1.00  0.00     0.027 A 
ATOM     16  C   UNL     1      -5.197  -0.494   2.694  1.00  0.00     0.027 A 
BRANCH  12  17
ATOM     17  C   UNL     1      -1.576  -0.606   1.760  1.00  0.00     0.338 C 
ATOM     18  O   UNL     1      -1.028   0.480   1.872  1.00  0.00    -0.246 OA
BRANCH  17  19
ATOM     19  O   UNL     1      -1.007  -1.832   1.775  1.00  0.00    -0.462 OA
BRANCH  19  20
ATOM     20  C   UNL     1       0.411  -1.859   2.001  1.00  0.00     0.233 C 
BRANCH  20  21
ATOM     21  C   UNL     1       1.135  -2.330   0.742  1.00  0.00     0.041 C 
BRANCH  21  22
ATOM     22  C   UNL     1       0.945  -1.421  -0.475  1.00  0.00     0.000 C 
ATOM     23  C   UNL     1       1.637  -0.074  -0.335  1.00  0.00     0.004 C 
ENDBRANCH  21  22
ENDBRANCH  20  21
ENDBRANCH  19  20
ENDBRANCH  17  19
ENDBRANCH  12  17
ENDBRANCH   6  11
ENDBRANCH   1   5
BRANCH   3  24
ATOM     24  C   UNL     1     -12.101  -1.565  -0.865  1.00  0.00     0.116 C 
BRANCH  24  25
ATOM     25  C   UNL     1     -13.401  -0.767  -0.810  1.00  0.00     0.023 C 
BRANCH  25  26
ATOM     26  C   UNL     1     -13.805  -0.071  -2.112  1.00  0.00     0.023 C 
BRANCH  26  27
ATOM     27  C   UNL     1     -13.879  -0.963  -3.348  1.00  0.00     0.116 C 
BRANCH  27  28
ATOM     28  N   UNL     1     -14.847  -2.039  -3.215  1.00  0.00    -0.352 N 
ATOM     29  C   UNL     1     -15.831  -2.442  -4.085  1.00  0.00     0.251 C 
ATOM     30  H   UNL     1     -14.789  -2.556  -2.379  1.00  0.00     0.163 HD
ATOM     31  O   UNL     1     -16.634  -3.304  -3.744  1.00  0.00    -0.269 OA
BRANCH  29  32
ATOM     32  C   UNL     1     -15.949  -1.819  -5.422  1.00  0.00     0.039 A 
ATOM     33  C   UNL     1     -17.215  -1.423  -5.866  1.00  0.00     0.014 A 
ATOM     34  C   UNL     1     -14.831  -1.631  -6.239  1.00  0.00     0.014 A 
ATOM     35  C   UNL     1     -17.350  -0.776  -7.097  1.00  0.00     0.010 A 
ATOM     36  C   UNL     1     -14.958  -0.934  -7.440  1.00  0.00     0.010 A 
ATOM     37  C   UNL     1     -16.217  -0.495  -7.877  1.00  0.00    -0.014 A 
BRANCH  37  38
ATOM     38  C   UNL     1     -16.328   0.266  -9.147  1.00  0.00     0.031 A 
ATOM     39  C   UNL     1     -16.021  -0.400 -10.458  1.00  0.00     0.074 A 
ATOM     40  C   UNL     1     -16.641   1.575  -9.114  1.00  0.00     0.049 A 
ATOM     41  N   UNL     1     -15.976   0.118 -11.660  1.00  0.00    -0.248 NA
ATOM     42  C   UNL     1     -15.700  -1.834 -10.410  1.00  0.00     0.031 C 
ATOM     43  C   UNL     1     -16.925   2.347  -7.903  1.00  0.00     0.029 A 
ATOM     44  N   UNL     1     -16.761   2.492 -10.128  1.00  0.00    -0.354 N 
ATOM     45  C   UNL     1     -15.605  -0.919 -12.505  1.00  0.00     0.074 A 
ATOM     46  C   UNL     1     -15.400  -2.087 -11.676  1.00  0.00     0.031 C 
ATOM     47  C   UNL     1     -17.201   3.615  -8.246  1.00  0.00     0.029 A 
ATOM     48  C   UNL     1     -17.082   3.755  -9.694  1.00  0.00     0.049 A 
ATOM     49  H   UNL     1     -16.628   2.267 -11.078  1.00  0.00     0.167 HD
ATOM     50  C   UNL     1     -15.467  -0.902 -13.852  1.00  0.00     0.037 A 
ATOM     51  C   UNL     1     -17.254   4.897 -10.386  1.00  0.00     0.037 A 
ATOM     52  C   UNL     1     -15.700   0.251 -14.681  1.00  0.00     0.049 A 
ATOM     53  C   UNL     1     -17.097   4.886 -11.881  1.00  0.00     0.074 A 
ATOM     54  C   UNL     1     -15.636   0.350 -16.061  1.00  0.00     0.029 A 
ATOM     55  N   UNL     1     -16.046   1.506 -14.206  1.00  0.00    -0.354 N 
ATOM     56  N   UNL     1     -16.794   3.888 -12.673  1.00  0.00    -0.248 NA
ATOM     57  C   UNL     1     -17.310   6.163 -12.578  1.00  0.00     0.031 C 
ATOM     58  C   UNL     1     -15.916   1.674 -16.418  1.00  0.00     0.029 A 
ATOM     59  C   UNL     1     -16.188   2.390 -15.264  1.00  0.00     0.049 A 
ATOM     60  H   UNL     1     -16.173   1.736 -13.257  1.00  0.00     0.167 HD
ATOM     61  C   UNL     1     -16.805   4.406 -13.960  1.00  0.00     0.074 A 
ATOM     62  C   UNL     1     -17.154   5.807 -13.845  1.00  0.00     0.031 C 
ATOM     63  C   UNL     1     -16.547   3.778 -15.133  1.00  0.00     0.037 A 
BRANCH  50  64
ATOM     64  C   UNL     1     -15.048  -2.179 -14.518  1.00  0.00     0.064 A 
ATOM     65  C   UNL     1     -15.930  -3.261 -14.644  1.00  0.00     0.173 A 
ATOM     66  C   UNL     1     -13.763  -2.309 -15.067  1.00  0.00     0.173 A 
ATOM     67  F   UNL     1     -17.165  -3.189 -14.124  1.00  0.00    -0.203 F 
ATOM     68  C   UNL     1     -15.534  -4.438 -15.275  1.00  0.00     0.198 A 
ATOM     69  C   UNL     1     -13.379  -3.478 -15.718  1.00  0.00     0.198 A 
ATOM     70  F   UNL     1     -12.883  -1.300 -14.976  1.00  0.00    -0.203 F 
ATOM     71  F   UNL     1     -16.380  -5.475 -15.346  1.00  0.00    -0.200 F 
ATOM     72  C   UNL     1     -14.262  -4.543 -15.816  1.00  0.00     0.200 A 
ATOM     73  F   UNL     1     -12.152  -3.575 -16.249  1.00  0.00    -0.200 F 
ATOM     74  F   UNL     1     -13.884  -5.674 -16.426  1.00  0.00    -0.200 F 
ENDBRANCH  50  64
BRANCH  51  75
ATOM     75  C   UNL     1     -17.621   6.146  -9.672  1.00  0.00     0.064 A 
ATOM     76  C   UNL     1     -18.913   6.679  -9.784  1.00  0.00     0.173 A 
ATOM     77  C   UNL     1     -16.696   6.831  -8.874  1.00  0.00     0.173 A 
ATOM     78  F   UNL     1     -19.824   6.068 -10.555  1.00  0.00    -0.203 F 
ATOM     79  C   UNL     1     -19.261   7.861  -9.135  1.00  0.00     0.198 A 
ATOM     80  C   UNL     1     -17.052   8.002  -8.207  1.00  0.00     0.198 A 
ATOM     81  F   UNL     1     -15.449   6.359  -8.734  1.00  0.00    -0.203 F 
ATOM     82  F   UNL     1     -20.490   8.371  -9.289  1.00  0.00    -0.200 F 
ATOM     83  C   UNL     1     -18.331   8.519  -8.343  1.00  0.00     0.200 A 
ATOM     84  F   UNL     1     -16.154   8.630  -7.435  1.00  0.00    -0.200 F 
ATOM     85  F   UNL     1     -18.667   9.656  -7.718  1.00  0.00    -0.200 F 
ENDBRANCH  51  75
BRANCH  63  86
ATOM     86  C   UNL     1     -16.666   4.590 -16.386  1.00  0.00     0.064 A 
ATOM     87  C   UNL     1     -15.689   5.529 -16.746  1.00  0.00     0.173 A 
ATOM     88  C   UNL     1     -17.752   4.401 -17.254  1.00  0.00     0.173 A 
ATOM     89  F   UNL     1     -14.641   5.756 -15.939  1.00  0.00    -0.203 F 
ATOM     90  C   UNL     1     -15.804   6.264 -17.923  1.00  0.00     0.198 A 
ATOM     91  C   UNL     1     -17.852   5.121 -18.441  1.00  0.00     0.198 A 
ATOM     92  F   UNL     1     -18.710   3.512 -16.954  1.00  0.00    -0.203 F 
ATOM     93  F   UNL     1     -14.879   7.184 -18.230  1.00  0.00    -0.200 F 
ATOM     94  C   UNL     1     -16.882   6.055 -18.772  1.00  0.00     0.200 A 
ATOM     95  F   UNL     1     -18.889   4.913 -19.263  1.00  0.00    -0.200 F 
ATOM     96  F   UNL     1     -16.989   6.761 -19.906  1.00  0.00    -0.200 F 
ENDBRANCH  63  86
ENDBRANCH  37  38
ENDBRANCH  29  32
ENDBRANCH  27  28
ENDBRANCH  26  27
ENDBRANCH  25  26
ENDBRANCH  24  25
ENDBRANCH   3  24
TORSDOF 17
