REMARK SMILES COc1ccc(OCCNc2c(Cl)cccc2C(=O)NCCCCNC(=O)c2ccc(-c3c4nc(c(-c5c(F)c(F)c(F)c(F)c5F)c5ccc([nH]5)c(-c5c(F)c(F)c(F)c(F)c5F)c5nc(c(-c6c(F)c(F)c(F)c(F)c6F)c6ccc3[nH]6)C=C5)C=C4)cc2)cc1
REMARK SMILES IDX 18 1 19 2 20 3 17 5 11 6 12 7 13 8 14 9 16 10 15 11 10 12
REMARK SMILES IDX 9 14 8 15 7 16 6 17 3 18 4 19 92 20 5 21 91 22 2 23 1 24
REMARK SMILES IDX 21 25 22 26 23 27 24 28 25 29 26 30 27 32 28 33 29 34 90 35
REMARK SMILES IDX 30 36 89 37 31 38 32 39 33 40 83 41 34 42 88 43 82 44 84 45
REMARK SMILES IDX 35 46 87 47 81 48 80 49 36 51 68 52 48 53 67 54 49 55 52 56
REMARK SMILES IDX 66 57 85 58 50 59 51 60 65 62 86 63 53 64 37 65 38 66 46 67
REMARK SMILES IDX 39 68 40 69 44 70 47 71 41 72 42 73 45 74 43 75 69 76 70 77
REMARK SMILES IDX 78 78 71 79 72 80 76 81 79 82 73 83 74 84 77 85 75 86 54 87
REMARK SMILES IDX 55 88 63 89 56 90 57 91 61 92 64 93 58 94 59 95 62 96 60 97
REMARK H PARENT 20 4 10 13 25 31 84 50 52 61
REMARK Flexibility Score: inf
ROOT
ATOM      1  C   UNL     1       5.050  -1.117   6.332  1.00  0.00     0.253 C 
ATOM      2  O   UNL     1       5.848  -1.537   7.173  1.00  0.00    -0.269 OA
ATOM      3  N   UNL     1       3.728  -1.023   6.698  1.00  0.00    -0.352 N 
ATOM      4  H   UNL     1       3.523  -1.357   7.601  1.00  0.00     0.163 HD
ENDROOT
BRANCH   1   5
ATOM      5  C   UNL     1       5.557  -0.846   4.959  1.00  0.00     0.064 A 
ATOM      6  C   UNL     1       5.386   0.341   4.221  1.00  0.00     0.066 A 
ATOM      7  C   UNL     1       5.958   0.374   2.917  1.00  0.00     0.065 A 
ATOM      8  Cl  UNL     1       5.782   1.765   1.890  1.00  0.00    -0.082 Cl
ATOM      9  C   UNL     1       6.694  -0.689   2.388  1.00  0.00     0.023 A 
ATOM     10  C   UNL     1       6.334  -1.901   4.423  1.00  0.00     0.016 A 
ATOM     11  C   UNL     1       6.889  -1.829   3.146  1.00  0.00     0.003 A 
BRANCH   6  12
ATOM     12  N   UNL     1       4.530   1.369   4.569  1.00  0.00    -0.380 N 
ATOM     13  H   UNL     1       3.747   1.498   3.986  1.00  0.00     0.160 HD
BRANCH  12  14
ATOM     14  C   UNL     1       4.647   2.281   5.693  1.00  0.00     0.154 C 
BRANCH  14  15
ATOM     15  C   UNL     1       3.685   3.492   5.526  1.00  0.00     0.250 C 
BRANCH  15  16
ATOM     16  O   UNL     1       2.287   3.152   5.410  1.00  0.00    -0.492 OA
BRANCH  16  17
ATOM     17  C   UNL     1       1.752   2.888   4.175  1.00  0.00     0.119 A 
ATOM     18  C   UNL     1       0.590   1.805   1.857  1.00  0.00     0.119 A 
ATOM     19  C   UNL     1      -0.186   2.017   2.993  1.00  0.00     0.050 A 
ATOM     20  C   UNL     1       1.902   2.261   1.835  1.00  0.00     0.050 A 
ATOM     21  C   UNL     1       0.397   2.543   4.154  1.00  0.00     0.050 A 
ATOM     22  C   UNL     1       2.463   2.838   2.978  1.00  0.00     0.050 A 
BRANCH  18  23
ATOM     23  O   UNL     1      -0.015   1.228   0.775  1.00  0.00    -0.497 OA
ATOM     24  C   UNL     1       0.715   0.121   0.242  1.00  0.00     0.278 C 
ENDBRANCH  18  23
ENDBRANCH  16  17
ENDBRANCH  15  16
ENDBRANCH  14  15
ENDBRANCH  12  14
ENDBRANCH   6  12
ENDBRANCH   1   5
BRANCH   3  25
ATOM     25  C   UNL     1       2.590  -0.510   5.965  1.00  0.00     0.116 C 
BRANCH  25  26
ATOM     26  C   UNL     1       1.230  -0.832   6.575  1.00  0.00     0.023 C 
BRANCH  26  27
ATOM     27  C   UNL     1       1.025  -0.425   8.040  1.00  0.00     0.023 C 
BRANCH  27  28
ATOM     28  C   UNL     1       1.495   0.968   8.461  1.00  0.00     0.116 C 
BRANCH  28  29
ATOM     29  N   UNL     1       0.742   2.059   7.864  1.00  0.00    -0.352 N 
ATOM     30  C   UNL     1      -0.176   2.932   8.403  1.00  0.00     0.251 C 
ATOM     31  H   UNL     1       0.920   2.197   6.906  1.00  0.00     0.163 HD
ATOM     32  O   UNL     1      -0.802   3.689   7.670  1.00  0.00    -0.269 OA
BRANCH  30  33
ATOM     33  C   UNL     1      -0.440   2.958   9.862  1.00  0.00     0.039 A 
ATOM     34  C   UNL     1      -1.760   3.072  10.310  1.00  0.00     0.014 A 
ATOM     35  C   UNL     1       0.599   2.908  10.792  1.00  0.00     0.014 A 
ATOM     36  C   UNL     1      -2.039   3.034  11.680  1.00  0.00     0.010 A 
ATOM     37  C   UNL     1       0.315   2.779  12.152  1.00  0.00     0.010 A 
ATOM     38  C   UNL     1      -1.009   2.831  12.613  1.00  0.00    -0.014 A 
BRANCH  38  39
ATOM     39  C   UNL     1      -1.302   2.646  14.061  1.00  0.00     0.031 A 
ATOM     40  C   UNL     1      -0.758   3.604  15.087  1.00  0.00     0.074 A 
ATOM     41  C   UNL     1      -2.004   1.567  14.464  1.00  0.00     0.049 A 
ATOM     42  N   UNL     1      -0.865   3.569  16.393  1.00  0.00    -0.248 NA
ATOM     43  C   UNL     1       0.034   4.735  14.582  1.00  0.00     0.031 C 
ATOM     44  C   UNL     1      -2.538   0.529  13.581  1.00  0.00     0.029 A 
ATOM     45  N   UNL     1      -2.381   1.156  15.720  1.00  0.00    -0.354 N 
ATOM     46  C   UNL     1      -0.146   4.661  16.862  1.00  0.00     0.074 A 
ATOM     47  C   UNL     1       0.441   5.305  15.707  1.00  0.00     0.031 C 
ATOM     48  C   UNL     1      -3.193  -0.382  14.316  1.00  0.00     0.029 A 
ATOM     49  C   UNL     1      -3.091  -0.020  15.726  1.00  0.00     0.049 A 
ATOM     50  H   UNL     1      -2.162   1.658  16.539  1.00  0.00     0.167 HD
ATOM     51  C   UNL     1      -0.006   5.101  18.137  1.00  0.00     0.037 A 
ATOM     52  C   UNL     1      -3.596  -0.734  16.751  1.00  0.00     0.037 A 
ATOM     53  C   UNL     1      -0.606   4.469  19.284  1.00  0.00     0.049 A 
ATOM     54  C   UNL     1      -3.422  -0.227  18.158  1.00  0.00     0.074 A 
ATOM     55  C   UNL     1      -0.578   4.877  20.607  1.00  0.00     0.029 A 
ATOM     56  N   UNL     1      -1.333   3.288  19.248  1.00  0.00    -0.354 N 
ATOM     57  N   UNL     1      -2.811   0.853  18.580  1.00  0.00    -0.248 NA
ATOM     58  C   UNL     1      -4.017  -1.036  19.231  1.00  0.00     0.031 C 
ATOM     59  C   UNL     1      -1.235   3.913  21.378  1.00  0.00     0.029 A 
ATOM     60  C   UNL     1      -1.733   2.938  20.529  1.00  0.00     0.049 A 
ATOM     61  H   UNL     1      -1.536   2.774  18.433  1.00  0.00     0.167 HD
ATOM     62  C   UNL     1      -2.974   0.870  19.959  1.00  0.00     0.074 A 
ATOM     63  C   UNL     1      -3.757  -0.299  20.301  1.00  0.00     0.031 C 
ATOM     64  C   UNL     1      -2.516   1.774  20.860  1.00  0.00     0.037 A 
BRANCH  51  65
ATOM     65  C   UNL     1       0.833   6.328  18.362  1.00  0.00     0.064 A 
ATOM     66  C   UNL     1       0.424   7.595  17.919  1.00  0.00     0.173 A 
ATOM     67  C   UNL     1       2.044   6.242  19.067  1.00  0.00     0.173 A 
ATOM     68  F   UNL     1      -0.722   7.734  17.234  1.00  0.00    -0.203 F 
ATOM     69  C   UNL     1       1.211   8.722  18.140  1.00  0.00     0.198 A 
ATOM     70  C   UNL     1       2.811   7.377  19.317  1.00  0.00     0.198 A 
ATOM     71  F   UNL     1       2.480   5.059  19.523  1.00  0.00    -0.203 F 
ATOM     72  F   UNL     1       0.826   9.912  17.657  1.00  0.00    -0.200 F 
ATOM     73  C   UNL     1       2.400   8.614  18.845  1.00  0.00     0.200 A 
ATOM     74  F   UNL     1       3.951   7.273  20.015  1.00  0.00    -0.200 F 
ATOM     75  F   UNL     1       3.152   9.701  19.064  1.00  0.00    -0.200 F 
ENDBRANCH  51  65
BRANCH  52  76
ATOM     76  C   UNL     1      -4.332  -1.999  16.485  1.00  0.00     0.064 A 
ATOM     77  C   UNL     1      -5.711  -2.095  16.721  1.00  0.00     0.173 A 
ATOM     78  C   UNL     1      -3.675  -3.138  15.997  1.00  0.00     0.173 A 
ATOM     79  F   UNL     1      -6.382  -1.041  17.207  1.00  0.00    -0.203 F 
ATOM     80  C   UNL     1      -6.398  -3.288  16.504  1.00  0.00     0.198 A 
ATOM     81  C   UNL     1      -4.369  -4.320  15.749  1.00  0.00     0.198 A 
ATOM     82  F   UNL     1      -2.357  -3.098  15.749  1.00  0.00    -0.203 F 
ATOM     83  F   UNL     1      -7.705  -3.367  16.789  1.00  0.00    -0.200 F 
ATOM     84  C   UNL     1      -5.728  -4.397  16.012  1.00  0.00     0.200 A 
ATOM     85  F   UNL     1      -3.720  -5.385  15.257  1.00  0.00    -0.200 F 
ATOM     86  F   UNL     1      -6.390  -5.543  15.799  1.00  0.00    -0.200 F 
ENDBRANCH  52  76
BRANCH  64  87
ATOM     87  C   UNL     1      -2.883   1.560  22.302  1.00  0.00     0.064 A 
ATOM     88  C   UNL     1      -2.345   0.505  23.055  1.00  0.00     0.173 A 
ATOM     89  C   UNL     1      -3.761   2.444  22.949  1.00  0.00     0.173 A 
ATOM     90  F   UNL     1      -1.512  -0.378  22.482  1.00  0.00    -0.203 F 
ATOM     91  C   UNL     1      -2.699   0.324  24.390  1.00  0.00     0.198 A 
ATOM     92  C   UNL     1      -4.083   2.281  24.293  1.00  0.00     0.198 A 
ATOM     93  F   UNL     1      -4.298   3.475  22.279  1.00  0.00    -0.203 F 
ATOM     94  F   UNL     1      -2.217  -0.724  25.073  1.00  0.00    -0.200 F 
ATOM     95  C   UNL     1      -3.560   1.216  25.010  1.00  0.00     0.200 A 
ATOM     96  F   UNL     1      -4.903   3.155  24.895  1.00  0.00    -0.200 F 
ATOM     97  F   UNL     1      -3.893   1.045  26.297  1.00  0.00    -0.200 F 
ENDBRANCH  64  87
ENDBRANCH  38  39
ENDBRANCH  30  33
ENDBRANCH  28  29
ENDBRANCH  27  28
ENDBRANCH  26  27
ENDBRANCH  25  26
ENDBRANCH   3  25
TORSDOF 17
