REMARK SMILES N#C/C(=C\c1ccc(-c2ccc(C(=O)NCCCCNC(=O)c3ccc(-c4c5nc(c(-c6c(F)c(F)c(F)c(F)c6F)c6ccc([nH]6)c(-c6c(F)c(F)c(F)c(F)c6F)c6nc(c(-c7c(F)c(F)c(F)c(F)c7F)c7ccc4[nH]7)C=C6)C=C5)cc3)cc2)o1)[C@@H]1N=c2cc(Br)cnc2=N1
REMARK SMILES IDX 17 1 16 2 15 3 13 4 14 5 12 7 9 8 10 9 87 10 11 11 86 12
REMARK SMILES IDX 8 13 5 14 6 15 88 16 7 17 4 18 3 19 2 20 1 21 89 22 90 23
REMARK SMILES IDX 98 24 91 25 97 26 92 27 96 28 93 29 95 30 94 31 18 32 19 33
REMARK SMILES IDX 20 34 21 35 22 37 23 38 24 39 85 40 25 41 84 42 26 43 27 44
REMARK SMILES IDX 28 45 78 46 29 47 83 48 77 49 79 50 30 51 82 52 76 53 75 54
REMARK SMILES IDX 31 56 63 57 43 58 62 59 44 60 47 61 61 62 80 63 45 64 46 65
REMARK SMILES IDX 60 67 81 68 48 69 32 70 33 71 41 72 34 73 35 74 39 75 42 76
REMARK SMILES IDX 36 77 37 78 40 79 38 80 64 81 65 82 73 83 66 84 67 85 71 86
REMARK SMILES IDX 74 87 68 88 69 89 72 90 70 91 49 92 50 93 58 94 51 95 52 96
REMARK SMILES IDX 56 97 59 98 53 99 54 100 57 101 55 102
REMARK H PARENT 15 6 20 36 79 55 47 66
REMARK Flexibility Score: inf
ROOT
ATOM      1  C   UNL     1      17.083   1.037   2.182  1.00  0.00     0.023 C 
ENDROOT
BRANCH   1   2
ATOM      2  C   UNL     1      16.591  -0.282   2.785  1.00  0.00     0.116 C 
BRANCH   2   3
ATOM      3  N   UNL     1      16.152  -0.093   4.155  1.00  0.00    -0.352 N 
ATOM      4  C   UNL     1      14.898   0.081   4.690  1.00  0.00     0.251 C 
ATOM      5  O   UNL     1      14.794   0.156   5.913  1.00  0.00    -0.269 OA
ATOM      6  H   UNL     1      16.880  -0.088   4.817  1.00  0.00     0.163 HD
BRANCH   4   7
ATOM      7  C   UNL     1      13.669   0.122   3.851  1.00  0.00     0.039 A 
ATOM      8  C   UNL     1      11.324   0.000   2.312  1.00  0.00     0.017 A 
ATOM      9  C   UNL     1      11.312  -0.448   3.634  1.00  0.00     0.013 A 
ATOM     10  C   UNL     1      12.483   0.572   1.787  1.00  0.00     0.013 A 
ATOM     11  C   UNL     1      12.484  -0.393   4.398  1.00  0.00     0.014 A 
ATOM     12  C   UNL     1      13.634   0.660   2.564  1.00  0.00     0.014 A 
BRANCH   8  13
ATOM     13  C   UNL     1      10.187  -0.158   1.440  1.00  0.00     0.134 A 
ATOM     14  C   UNL     1       8.197   0.426   0.681  1.00  0.00     0.128 A 
ATOM     15  C   UNL     1       8.705  -0.564  -0.156  1.00  0.00     0.051 A 
ATOM     16  O   UNL     1       9.146   0.688   1.641  1.00  0.00    -0.457 OA
ATOM     17  C   UNL     1       9.961  -0.957   0.347  1.00  0.00     0.051 A 
BRANCH  14  18
ATOM     18  C   UNL     1       6.949   1.107   0.634  1.00  0.00     0.066 C 
ATOM     19  C   UNL     1       5.769   0.458   0.520  1.00  0.00     0.080 C 
BRANCH  19  20
ATOM     20  C   UNL     1       5.800  -1.062   0.522  1.00  0.00     0.099 C 
ATOM     21  N   UNL     1       5.825  -2.323   0.523  1.00  0.00    -0.193 NA
ENDBRANCH  19  20
BRANCH  19  22
ATOM     22  C   UNL     1       4.446   1.169   0.439  1.00  0.00     0.265 C 
ATOM     23  N   UNL     1       4.464   2.099  -0.734  1.00  0.00    -0.249 NA
ATOM     24  N   UNL     1       4.208   1.931   1.693  1.00  0.00    -0.232 NA
ATOM     25  C   UNL     1       4.295   3.247  -0.179  1.00  0.00     0.106 A 
ATOM     26  C   UNL     1       4.132   3.151   1.288  1.00  0.00     0.175 A 
ATOM     27  C   UNL     1       4.286   4.581  -0.776  1.00  0.00     0.049 A 
ATOM     28  N   UNL     1       3.962   4.215   2.121  1.00  0.00    -0.234 NA
ATOM     29  C   UNL     1       4.146   5.620   0.058  1.00  0.00     0.038 A 
ATOM     30  C   UNL     1       3.978   5.367   1.526  1.00  0.00     0.129 A 
ATOM     31  Br  UNL     1       4.155   7.387  -0.520  1.00  0.00    -0.049 Br
ENDBRANCH  19  22
ENDBRANCH  14  18
ENDBRANCH   8  13
ENDBRANCH   4   7
ENDBRANCH   2   3
ENDBRANCH   1   2
BRANCH   1  32
ATOM     32  C   UNL     1      18.481   1.456   2.633  1.00  0.00     0.023 C 
BRANCH  32  33
ATOM     33  C   UNL     1      19.597   0.518   2.196  1.00  0.00     0.116 C 
BRANCH  33  34
ATOM     34  N   UNL     1      19.688   0.365   0.752  1.00  0.00    -0.352 N 
ATOM     35  C   UNL     1      20.810   0.162  -0.015  1.00  0.00     0.251 C 
ATOM     36  H   UNL     1      18.836   0.413   0.261  1.00  0.00     0.163 HD
ATOM     37  O   UNL     1      20.740   0.154  -1.236  1.00  0.00    -0.269 OA
BRANCH  35  38
ATOM     38  C   UNL     1      22.115  -0.002   0.657  1.00  0.00     0.039 A 
ATOM     39  C   UNL     1      23.190   0.784   0.234  1.00  0.00     0.014 A 
ATOM     40  C   UNL     1      22.260  -0.888   1.727  1.00  0.00     0.014 A 
ATOM     41  C   UNL     1      24.396   0.732   0.934  1.00  0.00     0.010 A 
ATOM     42  C   UNL     1      23.438  -0.887   2.465  1.00  0.00     0.010 A 
ATOM     43  C   UNL     1      24.515  -0.075   2.077  1.00  0.00    -0.014 A 
BRANCH  43  44
ATOM     44  C   UNL     1      25.753  -0.074   2.892  1.00  0.00     0.031 A 
ATOM     45  C   UNL     1      26.584  -1.319   3.002  1.00  0.00     0.074 A 
ATOM     46  C   UNL     1      26.076   1.022   3.604  1.00  0.00     0.049 A 
ATOM     47  N   UNL     1      27.652  -1.540   3.726  1.00  0.00    -0.248 NA
ATOM     48  C   UNL     1      26.135  -2.481   2.221  1.00  0.00     0.031 C 
ATOM     49  C   UNL     1      25.308   2.268   3.631  1.00  0.00     0.029 A 
ATOM     50  N   UNL     1      27.123   1.258   4.458  1.00  0.00    -0.354 N 
ATOM     51  C   UNL     1      27.987  -2.868   3.506  1.00  0.00     0.074 A 
ATOM     52  C   UNL     1      26.985  -3.417   2.618  1.00  0.00     0.031 C 
ATOM     53  C   UNL     1      25.915   3.140   4.452  1.00  0.00     0.029 A 
ATOM     54  C   UNL     1      27.095   2.505   5.032  1.00  0.00     0.049 A 
ATOM     55  H   UNL     1      27.828   0.596   4.642  1.00  0.00     0.167 HD
ATOM     56  C   UNL     1      29.047  -3.561   3.985  1.00  0.00     0.037 A 
ATOM     57  C   UNL     1      27.922   3.069   5.932  1.00  0.00     0.037 A 
ATOM     58  C   UNL     1      30.060  -2.998   4.840  1.00  0.00     0.049 A 
ATOM     59  C   UNL     1      29.110   2.291   6.426  1.00  0.00     0.074 A 
ATOM     60  C   UNL     1      31.225  -3.585   5.298  1.00  0.00     0.029 A 
ATOM     61  N   UNL     1      30.022  -1.716   5.369  1.00  0.00    -0.354 N 
ATOM     62  N   UNL     1      29.473   1.065   6.136  1.00  0.00    -0.248 NA
ATOM     63  C   UNL     1      30.009   2.978   7.364  1.00  0.00     0.031 C 
ATOM     64  C   UNL     1      31.869  -2.675   6.144  1.00  0.00     0.029 A 
ATOM     65  C   UNL     1      31.129  -1.504   6.174  1.00  0.00     0.049 A 
ATOM     66  H   UNL     1      29.312  -1.055   5.198  1.00  0.00     0.167 HD
ATOM     67  C   UNL     1      30.648   0.838   6.839  1.00  0.00     0.074 A 
ATOM     68  C   UNL     1      30.947   2.061   7.557  1.00  0.00     0.031 C 
ATOM     69  C   UNL     1      31.409  -0.282   6.886  1.00  0.00     0.037 A 
BRANCH  56  70
ATOM     70  C   UNL     1      29.163  -5.006   3.597  1.00  0.00     0.064 A 
ATOM     71  C   UNL     1      29.466  -5.396   2.284  1.00  0.00     0.173 A 
ATOM     72  C   UNL     1      28.986  -6.014   4.557  1.00  0.00     0.173 A 
ATOM     73  F   UNL     1      29.633  -4.471   1.326  1.00  0.00    -0.203 F 
ATOM     74  C   UNL     1      29.554  -6.742   1.938  1.00  0.00     0.198 A 
ATOM     75  C   UNL     1      29.105  -7.359   4.214  1.00  0.00     0.198 A 
ATOM     76  F   UNL     1      28.700  -5.696   5.828  1.00  0.00    -0.203 F 
ATOM     77  F   UNL     1      29.790  -7.091   0.666  1.00  0.00    -0.200 F 
ATOM     78  C   UNL     1      29.379  -7.721   2.904  1.00  0.00     0.200 A 
ATOM     79  F   UNL     1      28.947  -8.304   5.150  1.00  0.00    -0.200 F 
ATOM     80  F   UNL     1      29.465  -9.016   2.570  1.00  0.00    -0.200 F 
ENDBRANCH  56  70
BRANCH  57  81
ATOM     81  C   UNL     1      27.662   4.454   6.400  1.00  0.00     0.064 A 
ATOM     82  C   UNL     1      28.476   5.518   5.989  1.00  0.00     0.173 A 
ATOM     83  C   UNL     1      26.580   4.745   7.244  1.00  0.00     0.173 A 
ATOM     84  F   UNL     1      29.532   5.285   5.196  1.00  0.00    -0.203 F 
ATOM     85  C   UNL     1      28.225   6.821   6.415  1.00  0.00     0.198 A 
ATOM     86  C   UNL     1      26.316   6.052   7.649  1.00  0.00     0.198 A 
ATOM     87  F   UNL     1      25.768   3.762   7.659  1.00  0.00    -0.203 F 
ATOM     88  F   UNL     1      29.038   7.815   6.033  1.00  0.00    -0.200 F 
ATOM     89  C   UNL     1      27.142   7.088   7.238  1.00  0.00     0.200 A 
ATOM     90  F   UNL     1      25.260   6.308   8.432  1.00  0.00    -0.200 F 
ATOM     91  F   UNL     1      26.895   8.342   7.638  1.00  0.00    -0.200 F 
ENDBRANCH  57  81
BRANCH  69  92
ATOM     92  C   UNL     1      32.650  -0.235   7.728  1.00  0.00     0.064 A 
ATOM     93  C   UNL     1      32.586  -0.253   9.129  1.00  0.00     0.173 A 
ATOM     94  C   UNL     1      33.917  -0.218   7.127  1.00  0.00     0.173 A 
ATOM     95  F   UNL     1      31.397  -0.253   9.750  1.00  0.00    -0.203 F 
ATOM     96  C   UNL     1      33.747  -0.237   9.897  1.00  0.00     0.198 A 
ATOM     97  C   UNL     1      35.076  -0.230   7.898  1.00  0.00     0.198 A 
ATOM     98  F   UNL     1      34.032  -0.206   5.790  1.00  0.00    -0.203 F 
ATOM     99  F   UNL     1      33.662  -0.213  11.235  1.00  0.00    -0.200 F 
ATOM    100  C   UNL     1      34.990  -0.234   9.282  1.00  0.00     0.200 A 
ATOM    101  F   UNL     1      36.276  -0.240   7.302  1.00  0.00    -0.200 F 
ATOM    102  F   UNL     1      36.106  -0.228  10.024  1.00  0.00    -0.200 F 
ENDBRANCH  69  92
ENDBRANCH  43  44
ENDBRANCH  35  38
ENDBRANCH  33  34
ENDBRANCH  32  33
ENDBRANCH   1  32
TORSDOF 15
