REMARK SMILES Cc1noc(-c2ccc(CCl)cc2)c1C(=O)NCCCCNC(=O)c1ccc(-c2c3nc(c(-c4c(F)c(F)c(F)c(F)c4F)c4ccc([nH]4)c(-c4c(F)c(F)c(F)c(F)c4F)c4nc(c(-c5c(F)c(F)c(F)c(F)c5F)c5ccc2[nH]5)C=C4)C=C3)cc1
REMARK SMILES IDX 19 1 18 2 17 3 15 4 16 5 14 7 1 8 2 9 3 10 4 11 5 12 6 13
REMARK SMILES IDX 7 14 13 15 8 16 12 17 9 18 10 19 11 20 20 21 21 22 22 23
REMARK SMILES IDX 23 24 24 26 25 27 26 28 87 29 27 30 86 31 28 32 29 33 30 34
REMARK SMILES IDX 80 35 31 36 85 37 79 38 81 39 32 40 84 41 78 42 77 43 33 45
REMARK SMILES IDX 65 46 45 47 64 48 46 49 49 50 63 51 82 52 47 53 48 54 62 56
REMARK SMILES IDX 83 57 50 58 34 59 35 60 43 61 36 62 37 63 41 64 44 65 38 66
REMARK SMILES IDX 39 67 42 68 40 69 66 70 67 71 75 72 68 73 69 74 73 75 76 76
REMARK SMILES IDX 70 77 71 78 74 79 72 80 51 81 52 82 60 83 53 84 54 85 58 86
REMARK SMILES IDX 61 87 55 88 56 89 59 90 57 91
REMARK H PARENT 17 6 22 25 81 44 49 55
REMARK Flexibility Score: inf
ROOT
ATOM      1  C   UNL     1       3.702  -2.304   1.821  1.00  0.00     0.023 C 
ENDROOT
BRANCH   1   2
ATOM      2  C   UNL     1       2.907  -1.748   0.645  1.00  0.00     0.116 C 
BRANCH   2   3
ATOM      3  N   UNL     1       1.823  -2.587   0.192  1.00  0.00    -0.352 N 
ATOM      4  C   UNL     1       0.533  -2.302  -0.188  1.00  0.00     0.257 C 
ATOM      5  O   UNL     1      -0.133  -3.280  -0.536  1.00  0.00    -0.269 OA
ATOM      6  H   UNL     1       2.051  -3.543   0.145  1.00  0.00     0.163 HD
BRANCH   4   7
ATOM      7  C   UNL     1      -0.044  -0.965  -0.151  1.00  0.00     0.110 A 
ATOM      8  C   UNL     1       1.804   0.879  -0.705  1.00  0.00     0.071 C 
ATOM      9  C   UNL     1       0.464   0.365  -0.336  1.00  0.00     0.094 A 
ATOM     10  N   UNL     1      -0.499   1.286  -0.199  1.00  0.00    -0.084 NA
ATOM     11  O   UNL     1      -1.668   0.591  -0.039  1.00  0.00    -0.355 OA
ATOM     12  C   UNL     1      -1.414  -0.743  -0.045  1.00  0.00     0.179 A 
BRANCH  12  13
ATOM     13  C   UNL     1      -2.616  -1.559   0.022  1.00  0.00     0.021 A 
ATOM     14  C   UNL     1      -3.585  -1.438  -0.985  1.00  0.00     0.012 A 
ATOM     15  C   UNL     1      -2.845  -2.447   1.076  1.00  0.00     0.012 A 
ATOM     16  C   UNL     1      -4.755  -2.200  -0.947  1.00  0.00     0.006 A 
ATOM     17  C   UNL     1      -4.024  -3.203   1.122  1.00  0.00     0.006 A 
ATOM     18  C   UNL     1      -4.988  -3.091   0.109  1.00  0.00    -0.033 A 
BRANCH  18  19
ATOM     19  C   UNL     1      -6.246  -3.916   0.145  1.00  0.00     0.145 C 
ATOM     20  Cl  UNL     1      -7.667  -2.901   0.469  1.00  0.00    -0.122 Cl
ENDBRANCH  18  19
ENDBRANCH  12  13
ENDBRANCH   4   7
ENDBRANCH   2   3
ENDBRANCH   1   2
BRANCH   1  21
ATOM     21  C   UNL     1       4.411  -3.640   1.619  1.00  0.00     0.023 C 
BRANCH  21  22
ATOM     22  C   UNL     1       5.277  -3.780   0.373  1.00  0.00     0.116 C 
BRANCH  22  23
ATOM     23  N   UNL     1       6.302  -2.755   0.237  1.00  0.00    -0.352 N 
ATOM     24  C   UNL     1       7.651  -2.885  -0.003  1.00  0.00     0.251 C 
ATOM     25  H   UNL     1       5.982  -1.829   0.331  1.00  0.00     0.163 HD
ATOM     26  O   UNL     1       8.368  -1.888  -0.040  1.00  0.00    -0.269 OA
BRANCH  24  27
ATOM     27  C   UNL     1       8.252  -4.226  -0.164  1.00  0.00     0.039 A 
ATOM     28  C   UNL     1       9.397  -4.542   0.573  1.00  0.00     0.014 A 
ATOM     29  C   UNL     1       7.670  -5.181  -1.000  1.00  0.00     0.014 A 
ATOM     30  C   UNL     1       9.896  -5.847   0.553  1.00  0.00     0.010 A 
ATOM     31  C   UNL     1       8.119  -6.498  -0.958  1.00  0.00     0.010 A 
ATOM     32  C   UNL     1       9.228  -6.848  -0.170  1.00  0.00    -0.014 A 
BRANCH  32  33
ATOM     33  C   UNL     1       9.653  -8.269  -0.102  1.00  0.00     0.031 A 
ATOM     34  C   UNL     1      10.130  -8.974  -1.341  1.00  0.00     0.074 A 
ATOM     35  C   UNL     1       9.525  -8.950   1.054  1.00  0.00     0.049 A 
ATOM     36  N   UNL     1      10.440 -10.235  -1.510  1.00  0.00    -0.248 NA
ATOM     37  C   UNL     1      10.240  -8.160  -2.561  1.00  0.00     0.031 C 
ATOM     38  C   UNL     1       9.021  -8.397   2.312  1.00  0.00     0.029 A 
ATOM     39  N   UNL     1       9.792 -10.264   1.354  1.00  0.00    -0.354 N 
ATOM     40  C   UNL     1      10.756 -10.368  -2.855  1.00  0.00     0.074 A 
ATOM     41  C   UNL     1      10.555  -9.072  -3.468  1.00  0.00     0.031 C 
ATOM     42  C   UNL     1       9.035  -9.356   3.252  1.00  0.00     0.029 A 
ATOM     43  C   UNL     1       9.513 -10.599   2.657  1.00  0.00     0.049 A 
ATOM     44  H   UNL     1      10.150 -10.904   0.698  1.00  0.00     0.167 HD
ATOM     45  C   UNL     1      11.197 -11.465  -3.515  1.00  0.00     0.037 A 
ATOM     46  C   UNL     1       9.625 -11.779   3.297  1.00  0.00     0.037 A 
ATOM     47  C   UNL     1      11.435 -12.742  -2.896  1.00  0.00     0.049 A 
ATOM     48  C   UNL     1      10.140 -12.977   2.546  1.00  0.00     0.074 A 
ATOM     49  C   UNL     1      11.945 -13.896  -3.465  1.00  0.00     0.029 A 
ATOM     50  N   UNL     1      11.181 -13.031  -1.563  1.00  0.00    -0.354 N 
ATOM     51  N   UNL     1      10.499 -13.074   1.290  1.00  0.00    -0.248 NA
ATOM     52  C   UNL     1      10.273 -14.229   3.306  1.00  0.00     0.031 C 
ATOM     53  C   UNL     1      11.970 -14.893  -2.484  1.00  0.00     0.029 A 
ATOM     54  C   UNL     1      11.514 -14.349  -1.295  1.00  0.00     0.049 A 
ATOM     55  H   UNL     1      10.819 -12.394  -0.906  1.00  0.00     0.167 HD
ATOM     56  C   UNL     1      10.926 -14.383   1.115  1.00  0.00     0.074 A 
ATOM     57  C   UNL     1      10.791 -15.042   2.397  1.00  0.00     0.031 C 
ATOM     58  C   UNL     1      11.388 -14.984  -0.008  1.00  0.00     0.037 A 
BRANCH  45  59
ATOM     59  C   UNL     1      11.461 -11.328  -4.985  1.00  0.00     0.064 A 
ATOM     60  C   UNL     1      12.549 -10.586  -5.469  1.00  0.00     0.173 A 
ATOM     61  C   UNL     1      10.636 -11.970  -5.921  1.00  0.00     0.173 A 
ATOM     62  F   UNL     1      13.359  -9.942  -4.615  1.00  0.00    -0.203 F 
ATOM     63  C   UNL     1      12.783 -10.466  -6.836  1.00  0.00     0.198 A 
ATOM     64  C   UNL     1      10.891 -11.873  -7.286  1.00  0.00     0.198 A 
ATOM     65  F   UNL     1       9.586 -12.697  -5.511  1.00  0.00    -0.203 F 
ATOM     66  F   UNL     1      13.799  -9.710  -7.276  1.00  0.00    -0.200 F 
ATOM     67  C   UNL     1      11.959 -11.115  -7.743  1.00  0.00     0.200 A 
ATOM     68  F   UNL     1      10.100 -12.508  -8.161  1.00  0.00    -0.200 F 
ATOM     69  F   UNL     1      12.189 -11.002  -9.058  1.00  0.00    -0.200 F 
ENDBRANCH  45  59
BRANCH  46  70
ATOM     70  C   UNL     1       9.275 -11.879   4.737  1.00  0.00     0.064 A 
ATOM     71  C   UNL     1      10.273 -12.045   5.707  1.00  0.00     0.173 A 
ATOM     72  C   UNL     1       7.944 -11.814   5.173  1.00  0.00     0.173 A 
ATOM     73  F   UNL     1      11.559 -12.134   5.335  1.00  0.00    -0.203 F 
ATOM     74  C   UNL     1       9.952 -12.162   7.058  1.00  0.00     0.198 A 
ATOM     75  C   UNL     1       7.626 -11.905   6.527  1.00  0.00     0.198 A 
ATOM     76  F   UNL     1       6.953 -11.650   4.285  1.00  0.00    -0.203 F 
ATOM     77  F   UNL     1      10.923 -12.363   7.960  1.00  0.00    -0.200 F 
ATOM     78  C   UNL     1       8.630 -12.087   7.467  1.00  0.00     0.200 A 
ATOM     79  F   UNL     1       6.348 -11.820   6.921  1.00  0.00    -0.200 F 
ATOM     80  F   UNL     1       8.322 -12.197   8.767  1.00  0.00    -0.200 F 
ENDBRANCH  46  70
BRANCH  58  81
ATOM     81  C   UNL     1      11.822 -16.415   0.106  1.00  0.00     0.064 A 
ATOM     82  C   UNL     1      10.892 -17.457   0.225  1.00  0.00     0.173 A 
ATOM     83  C   UNL     1      13.183 -16.749   0.047  1.00  0.00     0.173 A 
ATOM     84  F   UNL     1       9.580 -17.187   0.301  1.00  0.00    -0.203 F 
ATOM     85  C   UNL     1      11.312 -18.783   0.301  1.00  0.00     0.198 A 
ATOM     86  C   UNL     1      13.597 -18.076   0.097  1.00  0.00     0.198 A 
ATOM     87  F   UNL     1      14.111 -15.787  -0.072  1.00  0.00    -0.203 F 
ATOM     88  F   UNL     1      10.409 -19.761   0.454  1.00  0.00    -0.200 F 
ATOM     89  C   UNL     1      12.662 -19.091   0.229  1.00  0.00     0.200 A 
ATOM     90  F   UNL     1      14.902 -18.373   0.017  1.00  0.00    -0.200 F 
ATOM     91  F   UNL     1      13.063 -20.369   0.294  1.00  0.00    -0.200 F 
ENDBRANCH  58  81
ENDBRANCH  32  33
ENDBRANCH  24  27
ENDBRANCH  22  23
ENDBRANCH  21  22
ENDBRANCH   1  21
TORSDOF 13
