REMARK SMILES O=C(NCCCCNC(=O)c1cc(S[C@H]2CCOC2=O)cs1)c1ccc(-c2c3nc(c(-c4c(F)c(F)c(F)c(F)c4F)c4ccc([nH]4)c(-c4c(F)c(F)c(F)c(F)c4F)c4nc(c(-c5c(F)c(F)c(F)c(F)c5F)c5ccc2[nH]5)C=C4)C=C3)cc1
REMARK SMILES IDX 5 1 4 2 3 3 1 4 2 5 23 7 24 8 85 9 25 10 84 11 26 12 27 13
REMARK SMILES IDX 28 14 78 15 29 16 83 17 77 18 79 19 30 20 82 21 76 22 75 23
REMARK SMILES IDX 31 25 63 26 43 27 62 28 44 29 47 30 61 31 80 32 45 33 46 34
REMARK SMILES IDX 60 36 81 37 48 38 32 39 33 40 41 41 34 42 35 43 39 44 42 45
REMARK SMILES IDX 36 46 37 47 40 48 38 49 64 50 65 51 73 52 66 53 67 54 71 55
REMARK SMILES IDX 74 56 68 57 69 58 72 59 70 60 49 61 50 62 58 63 51 64 52 65
REMARK SMILES IDX 56 66 59 67 53 68 54 69 57 70 55 71 6 72 7 73 8 74 9 75
REMARK SMILES IDX 10 77 11 78 12 79 22 80 13 81 21 82 14 83 15 84 16 85 19 86
REMARK SMILES IDX 17 87 18 88 20 89
REMARK H PARENT 3 6 79 24 47 35 8 76
REMARK Flexibility Score: inf
ROOT
ATOM      1  C   UNL     1       4.994  -2.328   1.258  1.00  0.00     0.023 C 
ENDROOT
BRANCH   1   2
ATOM      2  C   UNL     1       4.620  -1.351   0.153  1.00  0.00     0.116 C 
BRANCH   2   3
ATOM      3  N   UNL     1       3.181  -1.202  -0.017  1.00  0.00    -0.352 N 
ATOM      4  O   UNL     1       1.189  -0.140   0.003  1.00  0.00    -0.269 OA
ATOM      5  C   UNL     1       2.412  -0.063   0.044  1.00  0.00     0.251 C 
ATOM      6  H   UNL     1       2.689  -2.035  -0.202  1.00  0.00     0.163 HD
BRANCH   5   7
ATOM      7  C   UNL     1       3.070   1.252   0.193  1.00  0.00     0.039 A 
ATOM      8  C   UNL     1       4.184   1.575  -0.582  1.00  0.00     0.014 A 
ATOM      9  C   UNL     1       2.584   2.159   1.139  1.00  0.00     0.014 A 
ATOM     10  C   UNL     1       4.914   2.721  -0.293  1.00  0.00     0.010 A 
ATOM     11  C   UNL     1       3.259   3.363   1.353  1.00  0.00     0.010 A 
ATOM     12  C   UNL     1       4.451   3.638   0.665  1.00  0.00    -0.014 A 
BRANCH  12  13
ATOM     13  C   UNL     1       5.198   4.904   0.873  1.00  0.00     0.031 A 
ATOM     14  C   UNL     1       5.838   5.231   2.192  1.00  0.00     0.074 A 
ATOM     15  C   UNL     1       5.315   5.756  -0.164  1.00  0.00     0.049 A 
ATOM     16  N   UNL     1       6.536   6.287   2.532  1.00  0.00    -0.248 NA
ATOM     17  C   UNL     1       5.666   4.253   3.277  1.00  0.00     0.031 C 
ATOM     18  C   UNL     1       4.731   5.548  -1.491  1.00  0.00     0.029 A 
ATOM     19  N   UNL     1       5.974   6.952  -0.276  1.00  0.00    -0.354 N 
ATOM     20  C   UNL     1       6.872   6.110   3.868  1.00  0.00     0.074 A 
ATOM     21  C   UNL     1       6.272   4.861   4.288  1.00  0.00     0.031 C 
ATOM     22  C   UNL     1       5.098   6.553  -2.296  1.00  0.00     0.029 A 
ATOM     23  C   UNL     1       5.878   7.513  -1.525  1.00  0.00     0.049 A 
ATOM     24  H   UNL     1       6.468   7.369   0.467  1.00  0.00     0.167 HD
ATOM     25  C   UNL     1       7.617   6.915   4.665  1.00  0.00     0.037 A 
ATOM     26  C   UNL     1       6.347   8.682  -1.997  1.00  0.00     0.037 A 
ATOM     27  C   UNL     1       8.211   8.157   4.234  1.00  0.00     0.049 A 
ATOM     28  C   UNL     1       7.127   9.576  -1.078  1.00  0.00     0.074 A 
ATOM     29  C   UNL     1       9.015   9.025   4.954  1.00  0.00     0.029 A 
ATOM     30  N   UNL     1       8.055   8.715   2.973  1.00  0.00    -0.354 N 
ATOM     31  N   UNL     1       7.473   9.380   0.171  1.00  0.00    -0.248 NA
ATOM     32  C   UNL     1       7.580  10.857  -1.635  1.00  0.00     0.031 C 
ATOM     33  C   UNL     1       9.289  10.138   4.150  1.00  0.00     0.029 A 
ATOM     34  C   UNL     1       8.717   9.932   2.905  1.00  0.00     0.049 A 
ATOM     35  H   UNL     1       7.548   8.307   2.234  1.00  0.00     0.167 HD
ATOM     36  C   UNL     1       8.203  10.499   0.544  1.00  0.00     0.074 A 
ATOM     37  C   UNL     1       8.266  11.361  -0.619  1.00  0.00     0.031 C 
ATOM     38  C   UNL     1       8.770  10.784   1.742  1.00  0.00     0.037 A 
BRANCH  25  39
ATOM     39  C   UNL     1       7.808   6.494   6.097  1.00  0.00     0.064 A 
ATOM     40  C   UNL     1       8.573   5.371   6.447  1.00  0.00     0.173 A 
ATOM     41  C   UNL     1       7.237   7.244   7.139  1.00  0.00     0.173 A 
ATOM     42  F   UNL     1       9.136   4.613   5.494  1.00  0.00    -0.203 F 
ATOM     43  C   UNL     1       8.727   4.993   7.780  1.00  0.00     0.198 A 
ATOM     44  C   UNL     1       7.422   6.883   8.471  1.00  0.00     0.198 A 
ATOM     45  F   UNL     1       6.504   8.334   6.865  1.00  0.00    -0.203 F 
ATOM     46  F   UNL     1       9.413   3.882   8.084  1.00  0.00    -0.200 F 
ATOM     47  C   UNL     1       8.157   5.752   8.790  1.00  0.00     0.200 A 
ATOM     48  F   UNL     1       6.884   7.628   9.447  1.00  0.00    -0.200 F 
ATOM     49  F   UNL     1       8.307   5.388  10.071  1.00  0.00    -0.200 F 
ENDBRANCH  25  39
BRANCH  26  50
ATOM     50  C   UNL     1       6.082   9.062  -3.408  1.00  0.00     0.064 A 
ATOM     51  C   UNL     1       7.122   9.123  -4.345  1.00  0.00     0.173 A 
ATOM     52  C   UNL     1       4.782   9.344  -3.855  1.00  0.00     0.173 A 
ATOM     53  F   UNL     1       8.383   8.877  -3.962  1.00  0.00    -0.203 F 
ATOM     54  C   UNL     1       6.873   9.464  -5.672  1.00  0.00     0.198 A 
ATOM     55  C   UNL     1       4.530   9.652  -5.189  1.00  0.00     0.198 A 
ATOM     56  F   UNL     1       3.751   9.291  -2.999  1.00  0.00    -0.203 F 
ATOM     57  F   UNL     1       7.890   9.553  -6.540  1.00  0.00    -0.200 F 
ATOM     58  C   UNL     1       5.577   9.720  -6.095  1.00  0.00     0.200 A 
ATOM     59  F   UNL     1       3.274   9.876  -5.597  1.00  0.00    -0.200 F 
ATOM     60  F   UNL     1       5.337  10.034  -7.375  1.00  0.00    -0.200 F 
ENDBRANCH  26  50
BRANCH  38  61
ATOM     61  C   UNL     1       9.540  12.070   1.845  1.00  0.00     0.064 A 
ATOM     62  C   UNL     1       8.902  13.319   1.824  1.00  0.00     0.173 A 
ATOM     63  C   UNL     1      10.936  12.050   1.990  1.00  0.00     0.173 A 
ATOM     64  F   UNL     1       7.572  13.396   1.668  1.00  0.00    -0.203 F 
ATOM     65  C   UNL     1       9.636  14.500   1.914  1.00  0.00     0.198 A 
ATOM     66  C   UNL     1      11.662  13.230   2.116  1.00  0.00     0.198 A 
ATOM     67  F   UNL     1      11.597  10.882   2.021  1.00  0.00    -0.203 F 
ATOM     68  F   UNL     1       9.011  15.682   1.833  1.00  0.00    -0.200 F 
ATOM     69  C   UNL     1      11.013  14.454   2.068  1.00  0.00     0.200 A 
ATOM     70  F   UNL     1      12.992  13.183   2.280  1.00  0.00    -0.200 F 
ATOM     71  F   UNL     1      11.717  15.591   2.161  1.00  0.00    -0.200 F 
ENDBRANCH  38  61
ENDBRANCH  12  13
ENDBRANCH   5   7
ENDBRANCH   2   3
ENDBRANCH   1   2
BRANCH   1  72
ATOM     72  C   UNL     1       4.555  -3.767   1.017  1.00  0.00     0.023 C 
BRANCH  72  73
ATOM     73  C   UNL     1       5.034  -4.373  -0.297  1.00  0.00     0.116 C 
BRANCH  73  74
ATOM     74  N   UNL     1       6.480  -4.492  -0.372  1.00  0.00    -0.351 N 
ATOM     75  C   UNL     1       7.235  -5.630  -0.572  1.00  0.00     0.261 C 
ATOM     76  H   UNL     1       6.986  -3.654  -0.266  1.00  0.00     0.163 HD
ATOM     77  O   UNL     1       8.454  -5.548  -0.433  1.00  0.00    -0.268 OA
BRANCH  75  78
ATOM     78  C   UNL     1       6.530  -6.841  -0.931  1.00  0.00     0.093 A 
ATOM     79  C   UNL     1       5.622  -7.028  -1.957  1.00  0.00     0.040 A 
ATOM     80  S   UNL     1       6.754  -8.265  -0.022  1.00  0.00    -0.137 S 
ATOM     81  C   UNL     1       4.939  -8.269  -1.856  1.00  0.00     0.020 A 
ATOM     82  C   UNL     1       5.493  -9.059  -0.870  1.00  0.00     0.080 A 
BRANCH  81  83
ATOM     83  S   UNL     1       3.569  -8.815  -2.815  1.00  0.00    -0.110 SA
BRANCH  83  84
ATOM     84  C   UNL     1       2.871  -7.376  -3.663  1.00  0.00     0.165 C 
ATOM     85  C   UNL     1       2.414  -6.238  -2.775  1.00  0.00     0.068 C 
ATOM     86  C   UNL     1       3.823  -6.723  -4.630  1.00  0.00     0.319 C 
ATOM     87  C   UNL     1       2.670  -5.017  -3.626  1.00  0.00     0.234 C 
ATOM     88  O   UNL     1       3.721  -5.362  -4.526  1.00  0.00    -0.465 OA
ATOM     89  O   UNL     1       4.571  -7.278  -5.414  1.00  0.00    -0.251 OA
ENDBRANCH  83  84
ENDBRANCH  81  83
ENDBRANCH  75  78
ENDBRANCH  73  74
ENDBRANCH  72  73
ENDBRANCH   1  72
TORSDOF 13
