REMARK SMILES NC(=O)C[C@@H](NC(=O)c1ccc(CO)cc1)C(=O)NCCCCNC(=O)c1ccc(-c2c3nc(c(-c4c(F)c(F)c(F)c(F)c4F)c4ccc([nH]4)c(-c4c(F)c(F)c(F)c(F)c4F)c4nc(c(-c5c(F)c(F)c(F)c(F)c5F)c5ccc2[nH]5)C=C4)C=C3)cc1
REMARK SMILES IDX 20 1 19 2 17 3 18 4 5 6 4 7 2 8 1 9 3 12 6 13 7 14 8 16 9 17
REMARK SMILES IDX 10 18 16 19 11 20 15 21 12 22 13 23 14 24 21 26 22 27 23 28
REMARK SMILES IDX 24 29 25 30 26 32 27 33 28 34 89 35 29 36 88 37 30 38 31 39
REMARK SMILES IDX 32 40 82 41 33 42 87 43 81 44 83 45 34 46 86 47 80 48 79 49
REMARK SMILES IDX 35 51 67 52 47 53 66 54 48 55 51 56 65 57 84 58 49 59 50 60
REMARK SMILES IDX 64 62 85 63 52 64 36 65 37 66 45 67 38 68 39 69 43 70 46 71
REMARK SMILES IDX 40 72 41 73 44 74 42 75 68 76 69 77 77 78 70 79 71 80 75 81
REMARK SMILES IDX 78 82 72 83 73 84 76 85 74 86 53 87 54 88 62 89 55 90 56 91
REMARK SMILES IDX 60 92 63 93 57 94 58 95 61 96 59 97
REMARK H PARENT 19 5 1 10 1 11 6 15 14 25 24 31 83 50 51 61
REMARK Flexibility Score: inf
ROOT
ATOM      1  C   UNL     1       3.325  -3.079   2.079  1.00  0.00     0.116 C 
ENDROOT
BRANCH   1   2
ATOM      2  N   UNL     1       2.828  -4.186   1.286  1.00  0.00    -0.354 N 
ATOM      3  C   UNL     1       2.139  -4.181   0.112  1.00  0.00     0.243 C 
ATOM      4  O   UNL     1       1.686  -5.257  -0.290  1.00  0.00    -0.273 OA
ATOM      5  H   UNL     1       3.018  -5.079   1.653  1.00  0.00     0.163 HD
BRANCH   3   6
ATOM      6  C   UNL     1       1.804  -2.869  -0.618  1.00  0.00     0.180 C 
BRANCH   6   7
ATOM      7  C   UNL     1       0.610  -2.284   0.161  1.00  0.00     0.134 C 
BRANCH   7   8
ATOM      8  C   UNL     1       0.060  -1.017  -0.429  1.00  0.00     0.220 C 
ATOM      9  N   UNL     1       0.743   0.119  -0.105  1.00  0.00    -0.370 N 
ATOM     10  H   UNL     1       0.443   0.990  -0.453  1.00  0.00     0.159 HD
ATOM     11  H   UNL     1       1.536   0.068   0.477  1.00  0.00     0.159 HD
ATOM     12  O   UNL     1      -0.934  -0.981  -1.141  1.00  0.00    -0.275 OA
ENDBRANCH   7   8
ENDBRANCH   6   7
BRANCH   6  13
ATOM     13  N   UNL     1       2.917  -1.910  -0.774  1.00  0.00    -0.340 N 
ATOM     14  C   UNL     1       4.204  -2.080  -1.236  1.00  0.00     0.251 C 
ATOM     15  H   UNL     1       2.702  -0.989  -0.500  1.00  0.00     0.164 HD
ATOM     16  O   UNL     1       4.851  -1.093  -1.575  1.00  0.00    -0.269 OA
BRANCH  14  17
ATOM     17  C   UNL     1       4.884  -3.389  -1.148  1.00  0.00     0.039 A 
ATOM     18  C   UNL     1       5.997  -3.475  -0.303  1.00  0.00     0.014 A 
ATOM     19  C   UNL     1       4.416  -4.527  -1.803  1.00  0.00     0.014 A 
ATOM     20  C   UNL     1       6.548  -4.720   0.002  1.00  0.00     0.007 A 
ATOM     21  C   UNL     1       4.966  -5.776  -1.488  1.00  0.00     0.007 A 
ATOM     22  C   UNL     1       6.004  -5.887  -0.551  1.00  0.00    -0.023 A 
BRANCH  22  23
ATOM     23  C   UNL     1       6.502  -7.234  -0.100  1.00  0.00     0.191 C 
BRANCH  23  24
ATOM     24  O   UNL     1       7.883  -7.378  -0.388  1.00  0.00    -0.392 OA
ATOM     25  H   UNL     1       8.023  -7.303  -1.345  1.00  0.00     0.211 HD
ENDBRANCH  23  24
ENDBRANCH  22  23
ENDBRANCH  14  17
ENDBRANCH   6  13
ENDBRANCH   3   6
ENDBRANCH   1   2
BRANCH   1  26
ATOM     26  C   UNL     1       3.052  -3.315   3.559  1.00  0.00     0.023 C 
BRANCH  26  27
ATOM     27  C   UNL     1       3.866  -4.460   4.166  1.00  0.00     0.023 C 
BRANCH  27  28
ATOM     28  C   UNL     1       5.378  -4.312   4.031  1.00  0.00     0.116 C 
BRANCH  28  29
ATOM     29  N   UNL     1       5.877  -3.093   4.649  1.00  0.00    -0.352 N 
ATOM     30  C   UNL     1       6.891  -2.942   5.562  1.00  0.00     0.251 C 
ATOM     31  H   UNL     1       5.425  -2.263   4.375  1.00  0.00     0.163 HD
ATOM     32  O   UNL     1       7.072  -1.863   6.116  1.00  0.00    -0.269 OA
BRANCH  30  33
ATOM     33  C   UNL     1       7.743  -4.100   5.894  1.00  0.00     0.039 A 
ATOM     34  C   UNL     1       7.962  -4.411   7.237  1.00  0.00     0.014 A 
ATOM     35  C   UNL     1       8.296  -4.890   4.883  1.00  0.00     0.014 A 
ATOM     36  C   UNL     1       8.683  -5.559   7.567  1.00  0.00     0.010 A 
ATOM     37  C   UNL     1       8.954  -6.071   5.213  1.00  0.00     0.010 A 
ATOM     38  C   UNL     1       9.151  -6.418   6.558  1.00  0.00    -0.014 A 
BRANCH  38  39
ATOM     39  C   UNL     1       9.831  -7.692   6.900  1.00  0.00     0.031 A 
ATOM     40  C   UNL     1      11.272  -7.905   6.537  1.00  0.00     0.074 A 
ATOM     41  C   UNL     1       9.127  -8.679   7.488  1.00  0.00     0.049 A 
ATOM     42  N   UNL     1      12.025  -8.961   6.723  1.00  0.00    -0.248 NA
ATOM     43  C   UNL     1      11.954  -6.796   5.852  1.00  0.00     0.031 C 
ATOM     44  C   UNL     1       7.707  -8.613   7.838  1.00  0.00     0.029 A 
ATOM     45  N   UNL     1       9.509  -9.935   7.889  1.00  0.00    -0.354 N 
ATOM     46  C   UNL     1      13.259  -8.646   6.172  1.00  0.00     0.074 A 
ATOM     47  C   UNL     1      13.142  -7.324   5.597  1.00  0.00     0.031 C 
ATOM     48  C   UNL     1       7.343  -9.766   8.421  1.00  0.00     0.029 A 
ATOM     49  C   UNL     1       8.493 -10.665   8.456  1.00  0.00     0.049 A 
ATOM     50  H   UNL     1      10.425 -10.280   7.782  1.00  0.00     0.167 HD
ATOM     51  C   UNL     1      14.394  -9.386   6.167  1.00  0.00     0.037 A 
ATOM     52  C   UNL     1       8.488 -11.920   8.944  1.00  0.00     0.037 A 
ATOM     53  C   UNL     1      14.512 -10.693   6.758  1.00  0.00     0.049 A 
ATOM     54  C   UNL     1       9.763 -12.718   8.926  1.00  0.00     0.074 A 
ATOM     55  C   UNL     1      15.636 -11.493   6.866  1.00  0.00     0.029 A 
ATOM     56  N   UNL     1      13.465 -11.395   7.337  1.00  0.00    -0.354 N 
ATOM     57  N   UNL     1      10.947 -12.378   8.478  1.00  0.00    -0.248 NA
ATOM     58  C   UNL     1       9.702 -14.073   9.490  1.00  0.00     0.031 C 
ATOM     59  C   UNL     1      15.259 -12.700   7.465  1.00  0.00     0.029 A 
ATOM     60  C   UNL     1      13.911 -12.630   7.779  1.00  0.00     0.049 A 
ATOM     61  H   UNL     1      12.541 -11.065   7.421  1.00  0.00     0.167 HD
ATOM     62  C   UNL     1      11.775 -13.463   8.726  1.00  0.00     0.074 A 
ATOM     63  C   UNL     1      10.964 -14.465   9.385  1.00  0.00     0.031 C 
ATOM     64  C   UNL     1      13.090 -13.617   8.434  1.00  0.00     0.037 A 
BRANCH  51  65
ATOM     65  C   UNL     1      15.605  -8.796   5.504  1.00  0.00     0.064 A 
ATOM     66  C   UNL     1      16.292  -7.707   6.062  1.00  0.00     0.173 A 
ATOM     67  C   UNL     1      16.111  -9.353   4.320  1.00  0.00     0.173 A 
ATOM     68  F   UNL     1      15.844  -7.131   7.188  1.00  0.00    -0.203 F 
ATOM     69  C   UNL     1      17.425  -7.182   5.446  1.00  0.00     0.198 A 
ATOM     70  C   UNL     1      17.262  -8.845   3.723  1.00  0.00     0.198 A 
ATOM     71  F   UNL     1      15.496 -10.399   3.747  1.00  0.00    -0.203 F 
ATOM     72  F   UNL     1      18.038  -6.114   5.974  1.00  0.00    -0.200 F 
ATOM     73  C   UNL     1      17.914  -7.756   4.282  1.00  0.00     0.200 A 
ATOM     74  F   UNL     1      17.741  -9.409   2.606  1.00  0.00    -0.200 F 
ATOM     75  F   UNL     1      19.011  -7.256   3.697  1.00  0.00    -0.200 F 
ENDBRANCH  51  65
BRANCH  52  76
ATOM     76  C   UNL     1       7.239 -12.492   9.511  1.00  0.00     0.064 A 
ATOM     77  C   UNL     1       7.120 -12.743  10.885  1.00  0.00     0.173 A 
ATOM     78  C   UNL     1       6.144 -12.808   8.693  1.00  0.00     0.173 A 
ATOM     79  F   UNL     1       8.147 -12.476  11.705  1.00  0.00    -0.203 F 
ATOM     80  C   UNL     1       5.963 -13.310  11.416  1.00  0.00     0.198 A 
ATOM     81  C   UNL     1       4.977 -13.348   9.229  1.00  0.00     0.198 A 
ATOM     82  F   UNL     1       6.204 -12.582   7.372  1.00  0.00    -0.203 F 
ATOM     83  F   UNL     1       5.896 -13.585  12.726  1.00  0.00    -0.200 F 
ATOM     84  C   UNL     1       4.891 -13.607  10.589  1.00  0.00     0.200 A 
ATOM     85  F   UNL     1       3.937 -13.618   8.429  1.00  0.00    -0.200 F 
ATOM     86  F   UNL     1       3.778 -14.150  11.100  1.00  0.00    -0.200 F 
ENDBRANCH  52  76
BRANCH  64  87
ATOM     87  C   UNL     1      13.738 -14.907   8.848  1.00  0.00     0.064 A 
ATOM     88  C   UNL     1      13.447 -16.117   8.201  1.00  0.00     0.173 A 
ATOM     89  C   UNL     1      14.683 -14.927   9.885  1.00  0.00     0.173 A 
ATOM     90  F   UNL     1      12.539 -16.154   7.214  1.00  0.00    -0.203 F 
ATOM     91  C   UNL     1      14.056 -17.305   8.598  1.00  0.00     0.198 A 
ATOM     92  C   UNL     1      15.314 -16.110  10.257  1.00  0.00     0.198 A 
ATOM     93  F   UNL     1      15.003 -13.796  10.531  1.00  0.00    -0.203 F 
ATOM     94  F   UNL     1      13.723 -18.458   8.001  1.00  0.00    -0.200 F 
ATOM     95  C   UNL     1      14.993 -17.299   9.620  1.00  0.00     0.200 A 
ATOM     96  F   UNL     1      16.230 -16.101  11.235  1.00  0.00    -0.200 F 
ATOM     97  F   UNL     1      15.582 -18.443   9.997  1.00  0.00    -0.200 F 
ENDBRANCH  64  87
ENDBRANCH  38  39
ENDBRANCH  30  33
ENDBRANCH  28  29
ENDBRANCH  27  28
ENDBRANCH  26  27
ENDBRANCH   1  26
TORSDOF 17
