REMARK SMILES COc1cc(C(C)C)cc([C@H]([NH3+])C(=O)NCCCCNC(=O)c2ccc(-c3c4nc(c(-c5c(F)c(F)c(F)c(F)c5F)c5ccc([nH]5)c(-c5c(F)c(F)c(F)c(F)c5F)c5nc(c(-c6c(F)c(F)c(F)c(F)c6F)c6ccc3[nH]6)C=C5)C=C4)cc2)c1O
REMARK SMILES IDX 17 1 16 2 15 3 13 4 14 5 11 7 10 8 3 9 4 10 86 11 5 12 9 13
REMARK SMILES IDX 2 14 1 15 87 16 6 18 7 19 8 20 12 21 18 25 19 26 20 27 21 28
REMARK SMILES IDX 22 30 23 31 24 32 85 33 25 34 84 35 26 36 27 37 28 38 78 39
REMARK SMILES IDX 29 40 83 41 77 42 79 43 30 44 82 45 76 46 75 47 31 49 63 50
REMARK SMILES IDX 43 51 62 52 44 53 47 54 61 55 80 56 45 57 46 58 60 60 81 61
REMARK SMILES IDX 48 62 32 63 33 64 41 65 34 66 35 67 39 68 42 69 36 70 37 71
REMARK SMILES IDX 40 72 38 73 64 74 65 75 73 76 66 77 67 78 71 79 74 80 68 81
REMARK SMILES IDX 69 82 72 83 70 84 49 85 50 86 58 87 51 88 52 89 56 90 59 91
REMARK SMILES IDX 53 92 54 93 57 94 55 95
REMARK H PARENT 15 6 87 17 12 22 12 23 12 24 20 29 79 48 47 59
REMARK Flexibility Score: inf
ROOT
ATOM      1  C   UNL     1      -3.275   0.058   5.802  1.00  0.00     0.023 C 
ENDROOT
BRANCH   1   2
ATOM      2  C   UNL     1      -2.562  -1.276   5.601  1.00  0.00     0.116 C 
BRANCH   2   3
ATOM      3  N   UNL     1      -3.213  -2.133   4.622  1.00  0.00    -0.351 N 
ATOM      4  C   UNL     1      -2.716  -3.153   3.852  1.00  0.00     0.283 C 
ATOM      5  O   UNL     1      -3.553  -3.873   3.293  1.00  0.00    -0.268 OA
ATOM      6  H   UNL     1      -4.172  -1.949   4.490  1.00  0.00     0.163 HD
BRANCH   4   7
ATOM      7  C   UNL     1      -1.192  -3.404   3.650  1.00  0.00     0.306 C 
BRANCH   7   8
ATOM      8  C   UNL     1      -0.461  -4.085   4.805  1.00  0.00     0.065 A 
ATOM      9  C   UNL     1       1.564  -5.087   5.757  1.00  0.00     0.161 A 
ATOM     10  C   UNL     1       1.020  -4.959   7.039  1.00  0.00     0.054 A 
ATOM     11  C   UNL     1       0.832  -4.626   4.653  1.00  0.00     0.167 A 
ATOM     12  C   UNL     1      -0.268  -4.451   7.226  1.00  0.00    -0.041 A 
ATOM     13  C   UNL     1      -1.015  -4.109   6.094  1.00  0.00     0.018 A 
BRANCH   9  14
ATOM     14  O   UNL     1       2.834  -5.601   5.747  1.00  0.00    -0.493 OA
ATOM     15  C   UNL     1       3.193  -6.383   4.615  1.00  0.00     0.278 C 
ENDBRANCH   9  14
BRANCH  11  16
ATOM     16  O   UNL     1       1.396  -4.665   3.408  1.00  0.00    -0.504 OA
ATOM     17  H   UNL     1       2.255  -5.022   3.294  1.00  0.00     0.293 HD
ENDBRANCH  11  16
BRANCH  12  18
ATOM     18  C   UNL     1      -0.860  -4.187   8.599  1.00  0.00     0.013 C 
ATOM     19  C   UNL     1      -1.341  -5.471   9.268  1.00  0.00     0.012 C 
ATOM     20  C   UNL     1       0.102  -3.408   9.501  1.00  0.00     0.012 C 
ENDBRANCH  12  18
ENDBRANCH   7   8
BRANCH   7  21
ATOM     21  N   UNL     1      -0.523  -2.158   3.218  1.00  0.00    -0.343 N 
ATOM     22  H   UNL     1      -0.584  -1.463   3.962  1.00  0.00     0.345 HD
ATOM     23  H   UNL     1      -0.981  -1.800   2.380  1.00  0.00     0.345 HD
ATOM     24  H   UNL     1       0.457  -2.352   3.013  1.00  0.00     0.345 HD
ENDBRANCH   7  21
ENDBRANCH   4   7
ENDBRANCH   2   3
ENDBRANCH   1   2
BRANCH   1  25
ATOM     25  C   UNL     1      -4.699  -0.038   6.357  1.00  0.00     0.023 C 
BRANCH  25  26
ATOM     26  C   UNL     1      -4.869  -0.857   7.636  1.00  0.00     0.116 C 
BRANCH  26  27
ATOM     27  N   UNL     1      -4.100  -0.339   8.757  1.00  0.00    -0.352 N 
ATOM     28  C   UNL     1      -4.524   0.056  10.008  1.00  0.00     0.251 C 
ATOM     29  H   UNL     1      -3.132  -0.260   8.599  1.00  0.00     0.163 HD
ATOM     30  O   UNL     1      -3.746   0.584  10.784  1.00  0.00    -0.269 OA
BRANCH  28  31
ATOM     31  C   UNL     1      -5.940  -0.132  10.396  1.00  0.00     0.039 A 
ATOM     32  C   UNL     1      -6.632   0.941  10.964  1.00  0.00     0.014 A 
ATOM     33  C   UNL     1      -6.587  -1.352  10.186  1.00  0.00     0.014 A 
ATOM     34  C   UNL     1      -7.995   0.817  11.243  1.00  0.00     0.010 A 
ATOM     35  C   UNL     1      -7.960  -1.450  10.393  1.00  0.00     0.010 A 
ATOM     36  C   UNL     1      -8.680  -0.365  10.918  1.00  0.00    -0.014 A 
BRANCH  36  37
ATOM     37  C   UNL     1     -10.150  -0.482  11.102  1.00  0.00     0.031 A 
ATOM     38  C   UNL     1     -10.717  -1.486  12.065  1.00  0.00     0.074 A 
ATOM     39  C   UNL     1     -10.978   0.264  10.345  1.00  0.00     0.049 A 
ATOM     40  N   UNL     1     -11.969  -1.780  12.317  1.00  0.00    -0.248 NA
ATOM     41  C   UNL     1      -9.748  -2.289  12.825  1.00  0.00     0.031 C 
ATOM     42  C   UNL     1     -10.555   1.241   9.340  1.00  0.00     0.029 A 
ATOM     43  N   UNL     1     -12.349   0.311  10.296  1.00  0.00    -0.354 N 
ATOM     44  C   UNL     1     -11.935  -2.813  13.244  1.00  0.00     0.074 A 
ATOM     45  C   UNL     1     -10.542  -3.130  13.471  1.00  0.00     0.031 C 
ATOM     46  C   UNL     1     -11.642   1.814   8.800  1.00  0.00     0.029 A 
ATOM     47  C   UNL     1     -12.837   1.219   9.388  1.00  0.00     0.049 A 
ATOM     48  H   UNL     1     -12.928  -0.253  10.858  1.00  0.00     0.167 HD
ATOM     49  C   UNL     1     -12.971  -3.426  13.865  1.00  0.00     0.037 A 
ATOM     50  C   UNL     1     -14.106   1.535   9.066  1.00  0.00     0.037 A 
ATOM     51  C   UNL     1     -14.355  -3.088  13.658  1.00  0.00     0.049 A 
ATOM     52  C   UNL     1     -15.239   0.830   9.761  1.00  0.00     0.074 A 
ATOM     53  C   UNL     1     -15.473  -3.591  14.300  1.00  0.00     0.029 A 
ATOM     54  N   UNL     1     -14.811  -2.163  12.729  1.00  0.00    -0.354 N 
ATOM     55  N   UNL     1     -15.196  -0.086  10.697  1.00  0.00    -0.248 NA
ATOM     56  C   UNL     1     -16.600   1.207   9.353  1.00  0.00     0.031 C 
ATOM     57  C   UNL     1     -16.608  -3.013  13.722  1.00  0.00     0.029 A 
ATOM     58  C   UNL     1     -16.196  -2.107  12.757  1.00  0.00     0.049 A 
ATOM     59  H   UNL     1     -14.236  -1.627  12.136  1.00  0.00     0.167 HD
ATOM     60  C   UNL     1     -16.517  -0.372  11.014  1.00  0.00     0.074 A 
ATOM     61  C   UNL     1     -17.340   0.476  10.175  1.00  0.00     0.031 C 
ATOM     62  C   UNL     1     -17.004  -1.255  11.921  1.00  0.00     0.037 A 
BRANCH  49  63
ATOM     63  C   UNL     1     -12.642  -4.537  14.822  1.00  0.00     0.064 A 
ATOM     64  C   UNL     1     -11.990  -4.295  16.041  1.00  0.00     0.173 A 
ATOM     65  C   UNL     1     -12.994  -5.862  14.521  1.00  0.00     0.173 A 
ATOM     66  F   UNL     1     -11.622  -3.049  16.375  1.00  0.00    -0.203 F 
ATOM     67  C   UNL     1     -11.663  -5.342  16.900  1.00  0.00     0.198 A 
ATOM     68  C   UNL     1     -12.697  -6.901  15.398  1.00  0.00     0.198 A 
ATOM     69  F   UNL     1     -13.626  -6.149  13.373  1.00  0.00    -0.203 F 
ATOM     70  F   UNL     1     -10.982  -5.093  18.027  1.00  0.00    -0.200 F 
ATOM     71  C   UNL     1     -12.021  -6.642  16.581  1.00  0.00     0.200 A 
ATOM     72  F   UNL     1     -13.055  -8.156  15.094  1.00  0.00    -0.200 F 
ATOM     73  F   UNL     1     -11.705  -7.648  17.408  1.00  0.00    -0.200 F 
ENDBRANCH  49  63
BRANCH  50  74
ATOM     74  C   UNL     1     -14.373   2.603   8.069  1.00  0.00     0.064 A 
ATOM     75  C   UNL     1     -14.906   3.836   8.471  1.00  0.00     0.173 A 
ATOM     76  C   UNL     1     -14.096   2.425   6.706  1.00  0.00     0.173 A 
ATOM     77  F   UNL     1     -15.207   4.045   9.761  1.00  0.00    -0.203 F 
ATOM     78  C   UNL     1     -15.164   4.846   7.547  1.00  0.00     0.198 A 
ATOM     79  C   UNL     1     -14.330   3.445   5.786  1.00  0.00     0.198 A 
ATOM     80  F   UNL     1     -13.582   1.265   6.271  1.00  0.00    -0.203 F 
ATOM     81  F   UNL     1     -15.707   6.000   7.954  1.00  0.00    -0.200 F 
ATOM     82  C   UNL     1     -14.869   4.652   6.206  1.00  0.00     0.200 A 
ATOM     83  F   UNL     1     -14.031   3.259   4.493  1.00  0.00    -0.200 F 
ATOM     84  F   UNL     1     -15.109   5.626   5.318  1.00  0.00    -0.200 F 
ENDBRANCH  50  74
BRANCH  62  85
ATOM     85  C   UNL     1     -18.495  -1.324  12.083  1.00  0.00     0.064 A 
ATOM     86  C   UNL     1     -19.319  -1.891  11.100  1.00  0.00     0.173 A 
ATOM     87  C   UNL     1     -19.103  -0.850  13.256  1.00  0.00     0.173 A 
ATOM     88  F   UNL     1     -18.789  -2.344   9.953  1.00  0.00    -0.203 F 
ATOM     89  C   UNL     1     -20.699  -1.959  11.275  1.00  0.00     0.198 A 
ATOM     90  C   UNL     1     -20.479  -0.948  13.441  1.00  0.00     0.198 A 
ATOM     91  F   UNL     1     -18.360  -0.303  14.230  1.00  0.00    -0.203 F 
ATOM     92  F   UNL     1     -21.472  -2.461  10.302  1.00  0.00    -0.200 F 
ATOM     93  C   UNL     1     -21.277  -1.495  12.447  1.00  0.00     0.200 A 
ATOM     94  F   UNL     1     -21.034  -0.512  14.580  1.00  0.00    -0.200 F 
ATOM     95  F   UNL     1     -22.604  -1.569  12.617  1.00  0.00    -0.200 F 
ENDBRANCH  62  85
ENDBRANCH  36  37
ENDBRANCH  28  31
ENDBRANCH  26  27
ENDBRANCH  25  26
ENDBRANCH   1  25
TORSDOF 16
