REMARK SMILES O=C(CCCN1C(=O)c2ccc3c4c(ccc(c24)C1=O)C(=O)NC3=O)NCCCCNC(=O)c1ccc(-c2c3nc(c(-c4c(F)c(F)c(F)c(F)c4F)c4ccc([nH]4)c(-c4c(F)c(F)c(F)c(F)c4F)c4nc(c(-c5c(F)c(F)c(F)c(F)c5F)c5ccc2[nH]5)C=C4)C=C3)cc1
REMARK SMILES IDX 28 1 27 2 26 3 1 4 2 5 3 7 4 8 5 9 6 10 19 11 7 12 20 13
REMARK SMILES IDX 17 14 9 15 8 16 16 17 18 18 10 19 15 20 13 21 11 22 14 23
REMARK SMILES IDX 12 24 21 25 24 26 23 27 22 28 25 29 29 31 30 32 31 33 32 34
REMARK SMILES IDX 33 36 34 37 35 38 96 39 36 40 95 41 37 42 38 43 39 44 89 45
REMARK SMILES IDX 40 46 94 47 88 48 90 49 41 50 93 51 87 52 86 53 42 55 74 56
REMARK SMILES IDX 54 57 73 58 55 59 58 60 72 61 91 62 56 63 57 64 71 66 92 67
REMARK SMILES IDX 59 68 43 69 44 70 52 71 45 72 46 73 50 74 53 75 47 76 48 77
REMARK SMILES IDX 51 78 49 79 75 80 76 81 84 82 77 83 78 84 82 85 85 86 79 87
REMARK SMILES IDX 80 88 83 89 81 90 60 91 61 92 69 93 62 94 63 95 67 96 70 97
REMARK SMILES IDX 64 98 65 99 68 100 66 101
REMARK H PARENT 26 6 23 30 31 35 90 54 58 65
REMARK Flexibility Score: inf
ROOT
ATOM      1  C   UNL     1       2.226  -3.569  -0.808  1.00  0.00     0.023 C 
ENDROOT
BRANCH   1   2
ATOM      2  C   UNL     1       1.912  -2.545   0.282  1.00  0.00     0.116 C 
BRANCH   2   3
ATOM      3  N   UNL     1       2.637  -1.303   0.100  1.00  0.00    -0.356 N 
ATOM      4  O   UNL     1       0.800   0.058   0.293  1.00  0.00    -0.275 OA
ATOM      5  C   UNL     1       2.007  -0.081   0.126  1.00  0.00     0.220 C 
ATOM      6  H   UNL     1       3.610  -1.335  -0.047  1.00  0.00     0.163 HD
BRANCH   5   7
ATOM      7  C   UNL     1       2.917   1.109  -0.088  1.00  0.00     0.102 C 
BRANCH   7   8
ATOM      8  C   UNL     1       3.736   1.474   1.147  1.00  0.00     0.032 C 
BRANCH   8   9
ATOM      9  C   UNL     1       5.027   0.668   1.357  1.00  0.00     0.130 C 
BRANCH   9  10
ATOM     10  N   UNL     1       5.875   0.526   0.167  1.00  0.00    -0.274 N 
ATOM     11  C   UNL     1       6.406   1.685  -0.399  1.00  0.00     0.261 C 
ATOM     12  C   UNL     1       6.180  -0.762  -0.266  1.00  0.00     0.261 C 
ATOM     13  O   UNL     1       6.235   2.810   0.058  1.00  0.00    -0.269 OA
ATOM     14  C   UNL     1       7.225   1.525  -1.623  1.00  0.00     0.049 A 
ATOM     15  C   UNL     1       7.061  -0.902  -1.448  1.00  0.00     0.049 A 
ATOM     16  O   UNL     1       5.731  -1.776   0.263  1.00  0.00    -0.269 OA
ATOM     17  C   UNL     1       7.691   2.665  -2.291  1.00  0.00     0.015 A 
ATOM     18  C   UNL     1       7.536   0.244  -2.094  1.00  0.00     0.009 A 
ATOM     19  C   UNL     1       7.391  -2.180  -1.923  1.00  0.00     0.015 A 
ATOM     20  C   UNL     1       8.489   2.532  -3.426  1.00  0.00     0.015 A 
ATOM     21  C   UNL     1       8.351   0.105  -3.246  1.00  0.00     0.009 A 
ATOM     22  C   UNL     1       8.194  -2.320  -3.054  1.00  0.00     0.015 A 
ATOM     23  C   UNL     1       8.823   1.258  -3.894  1.00  0.00     0.048 A 
ATOM     24  C   UNL     1       8.669  -1.181  -3.711  1.00  0.00     0.048 A 
ATOM     25  C   UNL     1       9.694   1.117  -5.084  1.00  0.00     0.258 C 
ATOM     26  C   UNL     1       9.520  -1.332  -4.915  1.00  0.00     0.258 C 
ATOM     27  N   UNL     1       9.971  -0.166  -5.488  1.00  0.00    -0.288 N 
ATOM     28  O   UNL     1      10.139   2.097  -5.669  1.00  0.00    -0.269 OA
ATOM     29  O   UNL     1       9.791  -2.435  -5.369  1.00  0.00    -0.269 OA
ATOM     30  H   UNL     1      10.556  -0.262  -6.274  1.00  0.00     0.173 HD
ENDBRANCH   9  10
ENDBRANCH   8   9
ENDBRANCH   7   8
ENDBRANCH   5   7
ENDBRANCH   2   3
ENDBRANCH   1   2
BRANCH   1  31
ATOM     31  C   UNL     1       3.697  -3.973  -0.929  1.00  0.00     0.023 C 
BRANCH  31  32
ATOM     32  C   UNL     1       4.345  -4.478   0.357  1.00  0.00     0.116 C 
BRANCH  32  33
ATOM     33  N   UNL     1       3.790  -5.748   0.794  1.00  0.00    -0.352 N 
ATOM     34  C   UNL     1       4.432  -6.923   1.098  1.00  0.00     0.251 C 
ATOM     35  H   UNL     1       2.810  -5.770   0.884  1.00  0.00     0.163 HD
ATOM     36  O   UNL     1       3.781  -7.947   1.284  1.00  0.00    -0.269 OA
BRANCH  34  37
ATOM     37  C   UNL     1       5.911  -6.974   1.177  1.00  0.00     0.039 A 
ATOM     38  C   UNL     1       6.574  -8.056   0.591  1.00  0.00     0.014 A 
ATOM     39  C   UNL     1       6.642  -5.984   1.840  1.00  0.00     0.014 A 
ATOM     40  C   UNL     1       7.970  -8.117   0.620  1.00  0.00     0.010 A 
ATOM     41  C   UNL     1       8.037  -6.011   1.811  1.00  0.00     0.010 A 
ATOM     42  C   UNL     1       8.716  -7.077   1.200  1.00  0.00    -0.014 A 
BRANCH  42  43
ATOM     43  C   UNL     1      10.203  -7.088   1.161  1.00  0.00     0.031 A 
ATOM     44  C   UNL     1      11.002  -7.174   2.432  1.00  0.00     0.074 A 
ATOM     45  C   UNL     1      10.837  -6.963  -0.022  1.00  0.00     0.049 A 
ATOM     46  N   UNL     1      12.302  -7.145   2.598  1.00  0.00    -0.248 NA
ATOM     47  C   UNL     1      10.241  -7.286   3.685  1.00  0.00     0.031 C 
ATOM     48  C   UNL     1      10.179  -6.834  -1.323  1.00  0.00     0.029 A 
ATOM     49  N   UNL     1      12.176  -6.918  -0.322  1.00  0.00    -0.354 N 
ATOM     50  C   UNL     1      12.511  -7.224   3.969  1.00  0.00     0.074 A 
ATOM     51  C   UNL     1      11.206  -7.249   4.593  1.00  0.00     0.031 C 
ATOM     52  C   UNL     1      11.114  -6.747  -2.282  1.00  0.00     0.029 A 
ATOM     53  C   UNL     1      12.436  -6.772  -1.663  1.00  0.00     0.049 A 
ATOM     54  H   UNL     1      12.884  -6.983   0.360  1.00  0.00     0.167 HD
ATOM     55  C   UNL     1      13.685  -7.292   4.644  1.00  0.00     0.037 A 
ATOM     56  C   UNL     1      13.607  -6.661  -2.320  1.00  0.00     0.037 A 
ATOM     57  C   UNL     1      14.983  -7.279   4.019  1.00  0.00     0.049 A 
ATOM     58  C   UNL     1      14.896  -6.712  -1.544  1.00  0.00     0.074 A 
ATOM     59  C   UNL     1      16.228  -7.398   4.614  1.00  0.00     0.029 A 
ATOM     60  N   UNL     1      15.206  -7.130   2.657  1.00  0.00    -0.354 N 
ATOM     61  N   UNL     1      15.082  -6.856  -0.254  1.00  0.00    -0.248 NA
ATOM     62  C   UNL     1      16.139  -6.589  -2.317  1.00  0.00     0.031 C 
ATOM     63  C   UNL     1      17.203  -7.256   3.622  1.00  0.00     0.029 A 
ATOM     64  C   UNL     1      16.568  -7.120   2.398  1.00  0.00     0.049 A 
ATOM     65  H   UNL     1      14.500  -7.045   1.976  1.00  0.00     0.167 HD
ATOM     66  C   UNL     1      16.458  -6.873  -0.066  1.00  0.00     0.074 A 
ATOM     67  C   UNL     1      17.059  -6.740  -1.376  1.00  0.00     0.031 C 
ATOM     68  C   UNL     1      17.158  -6.990   1.089  1.00  0.00     0.037 A 
BRANCH  55  69
ATOM     69  C   UNL     1      13.622  -7.374   6.144  1.00  0.00     0.064 A 
ATOM     70  C   UNL     1      13.128  -8.511   6.802  1.00  0.00     0.173 A 
ATOM     71  C   UNL     1      14.100  -6.318   6.935  1.00  0.00     0.173 A 
ATOM     72  F   UNL     1      12.651  -9.547   6.096  1.00  0.00    -0.203 F 
ATOM     73  C   UNL     1      13.082  -8.572   8.193  1.00  0.00     0.198 A 
ATOM     74  C   UNL     1      14.086  -6.397   8.325  1.00  0.00     0.198 A 
ATOM     75  F   UNL     1      14.593  -5.210   6.360  1.00  0.00    -0.203 F 
ATOM     76  F   UNL     1      12.554  -9.646   8.798  1.00  0.00    -0.200 F 
ATOM     77  C   UNL     1      13.568  -7.519   8.953  1.00  0.00     0.200 A 
ATOM     78  F   UNL     1      14.572  -5.385   9.058  1.00  0.00    -0.200 F 
ATOM     79  F   UNL     1      13.531  -7.583  10.291  1.00  0.00    -0.200 F 
ENDBRANCH  55  69
BRANCH  56  80
ATOM     80  C   UNL     1      13.616  -6.508  -3.799  1.00  0.00     0.064 A 
ATOM     81  C   UNL     1      14.109  -7.529  -4.625  1.00  0.00     0.173 A 
ATOM     82  C   UNL     1      13.149  -5.338  -4.416  1.00  0.00     0.173 A 
ATOM     83  F   UNL     1      14.591  -8.656  -4.081  1.00  0.00    -0.203 F 
ATOM     84  C   UNL     1      14.154  -7.376  -6.009  1.00  0.00     0.198 A 
ATOM     85  C   UNL     1      13.167  -5.199  -5.802  1.00  0.00     0.198 A 
ATOM     86  F   UNL     1      12.669  -4.332  -3.669  1.00  0.00    -0.203 F 
ATOM     87  F   UNL     1      14.680  -8.345  -6.770  1.00  0.00    -0.200 F 
ATOM     88  C   UNL     1      13.677  -6.214  -6.597  1.00  0.00     0.200 A 
ATOM     89  F   UNL     1      12.706  -4.075  -6.368  1.00  0.00    -0.200 F 
ATOM     90  F   UNL     1      13.723  -6.068  -7.928  1.00  0.00    -0.200 F 
ENDBRANCH  56  80
BRANCH  68  91
ATOM     91  C   UNL     1      18.658  -7.019   0.990  1.00  0.00     0.064 A 
ATOM     92  C   UNL     1      19.399  -5.882   0.634  1.00  0.00     0.173 A 
ATOM     93  C   UNL     1      19.366  -8.193   1.292  1.00  0.00     0.173 A 
ATOM     94  F   UNL     1      18.772  -4.738   0.322  1.00  0.00    -0.203 F 
ATOM     95  C   UNL     1      20.789  -5.927   0.556  1.00  0.00     0.198 A 
ATOM     96  C   UNL     1      20.758  -8.225   1.248  1.00  0.00     0.198 A 
ATOM     97  F   UNL     1      18.709  -9.307   1.646  1.00  0.00    -0.203 F 
ATOM     98  F   UNL     1      21.472  -4.843   0.162  1.00  0.00    -0.200 F 
ATOM     99  C   UNL     1      21.467  -7.095   0.872  1.00  0.00     0.200 A 
ATOM    100  F   UNL     1      21.411  -9.350   1.571  1.00  0.00    -0.200 F 
ATOM    101  F   UNL     1      22.805  -7.134   0.805  1.00  0.00    -0.200 F 
ENDBRANCH  68  91
ENDBRANCH  42  43
ENDBRANCH  34  37
ENDBRANCH  32  33
ENDBRANCH  31  32
ENDBRANCH   1  31
TORSDOF 14
