REMARK SMILES Cc1nc(-c2ccco2)nc(S)c1C(=O)NCCCCNC(=O)c1ccc(-c2c3nc(c(-c4c(F)c(F)c(F)c(F)c4F)c4ccc([nH]4)c(-c4c(F)c(F)c(F)c(F)c4F)c4nc(c(-c5c(F)c(F)c(F)c(F)c5F)c5ccc2[nH]5)C=C4)C=C3)cc1
REMARK SMILES IDX 19 1 18 2 17 3 16 4 14 5 15 6 13 8 1 9 2 10 3 11 4 12 11 13
REMARK SMILES IDX 10 14 5 15 6 16 9 17 7 18 8 19 12 20 20 22 21 23 22 24 23 26
REMARK SMILES IDX 24 27 25 28 86 29 26 30 85 31 27 32 28 33 29 34 79 35 30 36
REMARK SMILES IDX 84 37 78 38 80 39 31 40 83 41 77 42 76 43 32 45 64 46 44 47
REMARK SMILES IDX 63 48 45 49 48 50 62 51 81 52 46 53 47 54 61 56 82 57 49 58
REMARK SMILES IDX 33 59 34 60 42 61 35 62 36 63 40 64 43 65 37 66 38 67 41 68
REMARK SMILES IDX 39 69 65 70 66 71 74 72 67 73 68 74 72 75 75 76 69 77 70 78
REMARK SMILES IDX 73 79 71 80 50 81 51 82 59 83 52 84 53 85 57 86 60 87 54 88
REMARK SMILES IDX 55 89 58 90 56 91
REMARK H PARENT 16 7 12 21 21 25 80 44 48 55
REMARK Flexibility Score: inf
ROOT
ATOM      1  C   UNL     1       2.232   3.930   0.967  1.00  0.00     0.023 C 
ENDROOT
BRANCH   1   2
ATOM      2  C   UNL     1       2.725   2.639   0.310  1.00  0.00     0.023 C 
BRANCH   2   3
ATOM      3  C   UNL     1       1.663   1.599  -0.031  1.00  0.00     0.116 C 
BRANCH   3   4
ATOM      4  N   UNL     1       0.572   2.089  -0.852  1.00  0.00    -0.352 N 
ATOM      5  C   UNL     1      -0.270   1.401  -1.693  1.00  0.00     0.255 C 
ATOM      6  O   UNL     1      -1.224   1.991  -2.196  1.00  0.00    -0.269 OA
ATOM      7  H   UNL     1       0.410   3.059  -0.798  1.00  0.00     0.163 HD
BRANCH   5   8
ATOM      8  C   UNL     1      -0.038  -0.008  -2.052  1.00  0.00     0.093 A 
ATOM      9  C   UNL     1      -0.304  -0.892   0.329  1.00  0.00     0.068 C 
ATOM     10  C   UNL     1      -0.070  -1.052  -1.140  1.00  0.00     0.055 A 
ATOM     11  N   UNL     1       0.128  -2.336  -1.516  1.00  0.00    -0.230 NA
ATOM     12  C   UNL     1       0.314  -2.583  -2.821  1.00  0.00     0.196 A 
ATOM     13  C   UNL     1       0.113  -0.379  -3.388  1.00  0.00     0.110 A 
ATOM     14  N   UNL     1       0.326  -1.655  -3.784  1.00  0.00    -0.218 NA
BRANCH  12  15
ATOM     15  C   UNL     1       0.557  -3.961  -3.212  1.00  0.00     0.171 A 
ATOM     16  C   UNL     1       1.191  -4.560  -4.284  1.00  0.00     0.054 A 
ATOM     17  O   UNL     1       0.074  -4.930  -2.372  1.00  0.00    -0.461 OA
ATOM     18  C   UNL     1       1.107  -5.960  -4.077  1.00  0.00     0.043 A 
ATOM     19  C   UNL     1       0.405  -6.132  -2.908  1.00  0.00     0.196 A 
ENDBRANCH  12  15
BRANCH  13  20
ATOM     20  S   UNL     1       0.080   0.779  -4.751  1.00  0.00    -0.123 SA
ATOM     21  H   UNL     1       0.255   0.108  -5.921  1.00  0.00     0.110 HD
ENDBRANCH  13  20
ENDBRANCH   5   8
ENDBRANCH   3   4
ENDBRANCH   2   3
ENDBRANCH   1   2
BRANCH   1  22
ATOM     22  C   UNL     1       1.172   3.791   2.056  1.00  0.00     0.116 C 
BRANCH  22  23
ATOM     23  N   UNL     1       1.620   3.084   3.248  1.00  0.00    -0.352 N 
ATOM     24  C   UNL     1       1.832   3.529   4.534  1.00  0.00     0.251 C 
ATOM     25  H   UNL     1       1.802   2.127   3.111  1.00  0.00     0.163 HD
ATOM     26  O   UNL     1       2.267   2.755   5.383  1.00  0.00    -0.269 OA
BRANCH  24  27
ATOM     27  C   UNL     1       1.605   4.947   4.888  1.00  0.00     0.039 A 
ATOM     28  C   UNL     1       0.455   5.620   4.481  1.00  0.00     0.014 A 
ATOM     29  C   UNL     1       2.592   5.630   5.606  1.00  0.00     0.014 A 
ATOM     30  C   UNL     1       0.406   7.008   4.568  1.00  0.00     0.010 A 
ATOM     31  C   UNL     1       2.492   7.013   5.787  1.00  0.00     0.010 A 
ATOM     32  C   UNL     1       1.438   7.726   5.196  1.00  0.00    -0.014 A 
BRANCH  32  33
ATOM     33  C   UNL     1       1.421   9.214   5.165  1.00  0.00     0.031 A 
ATOM     34  C   UNL     1       2.501   9.977   4.439  1.00  0.00     0.074 A 
ATOM     35  C   UNL     1       0.387   9.882   5.713  1.00  0.00     0.049 A 
ATOM     36  N   UNL     1       2.639  11.272   4.286  1.00  0.00    -0.248 NA
ATOM     37  C   UNL     1       3.568   9.188   3.801  1.00  0.00     0.031 C 
ATOM     38  C   UNL     1      -0.733   9.262   6.421  1.00  0.00     0.029 A 
ATOM     39  N   UNL     1       0.090  11.222   5.728  1.00  0.00    -0.354 N 
ATOM     40  C   UNL     1       3.813  11.450   3.563  1.00  0.00     0.074 A 
ATOM     41  C   UNL     1       4.365  10.134   3.326  1.00  0.00     0.031 C 
ATOM     42  C   UNL     1      -1.627  10.208   6.741  1.00  0.00     0.029 A 
ATOM     43  C   UNL     1      -1.114  11.509   6.322  1.00  0.00     0.049 A 
ATOM     44  H   UNL     1       0.683  11.910   5.349  1.00  0.00     0.167 HD
ATOM     45  C   UNL     1       4.373  12.603   3.125  1.00  0.00     0.037 A 
ATOM     46  C   UNL     1      -1.735  12.687   6.518  1.00  0.00     0.037 A 
ATOM     47  C   UNL     1       3.805  13.911   3.324  1.00  0.00     0.049 A 
ATOM     48  C   UNL     1      -1.077  13.954   6.051  1.00  0.00     0.074 A 
ATOM     49  C   UNL     1       4.294  15.136   2.902  1.00  0.00     0.029 A 
ATOM     50  N   UNL     1       2.617  14.163   3.993  1.00  0.00    -0.354 N 
ATOM     51  N   UNL     1       0.045  14.106   5.391  1.00  0.00    -0.248 NA
ATOM     52  C   UNL     1      -1.762  15.213   6.372  1.00  0.00     0.031 C 
ATOM     53  C   UNL     1       3.418  16.132   3.345  1.00  0.00     0.029 A 
ATOM     54  C   UNL     1       2.365  15.525   4.008  1.00  0.00     0.049 A 
ATOM     55  H   UNL     1       2.039  13.476   4.396  1.00  0.00     0.167 HD
ATOM     56  C   UNL     1       0.200  15.473   5.214  1.00  0.00     0.074 A 
ATOM     57  C   UNL     1      -0.955  16.107   5.815  1.00  0.00     0.031 C 
ATOM     58  C   UNL     1       1.214  16.142   4.615  1.00  0.00     0.037 A 
BRANCH  45  59
ATOM     59  C   UNL     1       5.675  12.515   2.385  1.00  0.00     0.064 A 
ATOM     60  C   UNL     1       5.739  12.055   1.062  1.00  0.00     0.173 A 
ATOM     61  C   UNL     1       6.863  12.964   2.983  1.00  0.00     0.173 A 
ATOM     62  F   UNL     1       4.634  11.603   0.451  1.00  0.00    -0.203 F 
ATOM     63  C   UNL     1       6.947  12.039   0.367  1.00  0.00     0.198 A 
ATOM     64  C   UNL     1       8.064  12.969   2.278  1.00  0.00     0.198 A 
ATOM     65  F   UNL     1       6.854  13.419   4.245  1.00  0.00    -0.203 F 
ATOM     66  F   UNL     1       6.990  11.569  -0.887  1.00  0.00    -0.200 F 
ATOM     67  C   UNL     1       8.105  12.504   0.972  1.00  0.00     0.200 A 
ATOM     68  F   UNL     1       9.180  13.430   2.860  1.00  0.00    -0.200 F 
ATOM     69  F   UNL     1       9.263  12.501   0.297  1.00  0.00    -0.200 F 
ENDBRANCH  45  59
BRANCH  46  70
ATOM     70  C   UNL     1      -3.058  12.713   7.190  1.00  0.00     0.064 A 
ATOM     71  C   UNL     1      -4.222  13.023   6.474  1.00  0.00     0.173 A 
ATOM     72  C   UNL     1      -3.191  12.394   8.550  1.00  0.00     0.173 A 
ATOM     73  F   UNL     1      -4.142  13.356   5.178  1.00  0.00    -0.203 F 
ATOM     74  C   UNL     1      -5.470  13.011   7.093  1.00  0.00     0.198 A 
ATOM     75  C   UNL     1      -4.441  12.356   9.160  1.00  0.00     0.198 A 
ATOM     76  F   UNL     1      -2.106  12.089   9.276  1.00  0.00    -0.203 F 
ATOM     77  F   UNL     1      -6.566  13.334   6.393  1.00  0.00    -0.200 F 
ATOM     78  C   UNL     1      -5.580  12.667   8.433  1.00  0.00     0.200 A 
ATOM     79  F   UNL     1      -4.544  12.008  10.450  1.00  0.00    -0.200 F 
ATOM     80  F   UNL     1      -6.782  12.638   9.023  1.00  0.00    -0.200 F 
ENDBRANCH  46  70
BRANCH  58  81
ATOM     81  C   UNL     1       1.125  17.637   4.575  1.00  0.00     0.064 A 
ATOM     82  C   UNL     1       1.370  18.411   5.719  1.00  0.00     0.173 A 
ATOM     83  C   UNL     1       0.849  18.305   3.373  1.00  0.00     0.173 A 
ATOM     84  F   UNL     1       1.624  17.816   6.894  1.00  0.00    -0.203 F 
ATOM     85  C   UNL     1       1.329  19.801   5.662  1.00  0.00     0.198 A 
ATOM     86  C   UNL     1       0.832  19.695   3.315  1.00  0.00     0.198 A 
ATOM     87  F   UNL     1       0.615  17.607   2.251  1.00  0.00    -0.203 F 
ATOM     88  F   UNL     1       1.534  20.521   6.774  1.00  0.00    -0.200 F 
ATOM     89  C   UNL     1       1.068  20.442   4.460  1.00  0.00     0.200 A 
ATOM     90  F   UNL     1       0.590  20.313   2.151  1.00  0.00    -0.200 F 
ATOM     91  F   UNL     1       1.039  21.780   4.406  1.00  0.00    -0.200 F 
ENDBRANCH  58  81
ENDBRANCH  32  33
ENDBRANCH  24  27
ENDBRANCH  22  23
ENDBRANCH   1  22
TORSDOF 13
