REMARK SMILES O=C(COc1ccccc1Br)Nc1ccc(C(=O)NCCCCNC(=O)c2ccc(-c3c4nc(c(-c5c(F)c(F)c(F)c(F)c5F)c5ccc([nH]5)c(-c5c(F)c(F)c(F)c(F)c5F)c5nc(c(-c6c(F)c(F)c(F)c(F)c6F)c6ccc3[nH]6)C=C5)C=C4)cc2)c(O)c1
REMARK SMILES IDX 20 1 19 2 17 3 18 4 16 6 13 7 14 8 92 9 15 10 90 11 12 12
REMARK SMILES IDX 1 13 2 14 3 16 4 17 5 18 6 19 10 20 7 21 9 22 11 23 8 24
REMARK SMILES IDX 91 25 21 27 22 28 23 29 24 30 25 31 26 33 27 34 28 35 89 36
REMARK SMILES IDX 29 37 88 38 30 39 31 40 32 41 82 42 33 43 87 44 81 45 83 46
REMARK SMILES IDX 34 47 86 48 80 49 79 50 35 52 67 53 47 54 66 55 48 56 51 57
REMARK SMILES IDX 65 58 84 59 49 60 50 61 64 63 85 64 52 65 36 66 37 67 45 68
REMARK SMILES IDX 38 69 39 70 43 71 46 72 40 73 41 74 44 75 42 76 68 77 69 78
REMARK SMILES IDX 77 79 70 80 71 81 75 82 78 83 72 84 73 85 76 86 74 87 53 88
REMARK SMILES IDX 54 89 62 90 55 91 56 92 60 93 63 94 57 95 58 96 61 97 59 98
REMARK H PARENT 19 5 12 15 91 26 24 32 83 51 51 62
REMARK Flexibility Score: inf
ROOT
ATOM      1  C   UNL     1       1.421   2.964  -6.697  1.00  0.00     0.116 C 
ENDROOT
BRANCH   1   2
ATOM      2  N   UNL     1       0.695   4.029  -6.022  1.00  0.00    -0.352 N 
ATOM      3  C   UNL     1       0.588   4.340  -4.686  1.00  0.00     0.255 C 
ATOM      4  O   UNL     1      -0.126   5.288  -4.365  1.00  0.00    -0.269 OA
ATOM      5  H   UNL     1       0.197   4.630  -6.623  1.00  0.00     0.163 HD
BRANCH   3   6
ATOM      6  C   UNL     1       1.264   3.552  -3.626  1.00  0.00     0.081 A 
ATOM      7  C   UNL     1       2.308   1.913  -1.584  1.00  0.00     0.045 A 
ATOM      8  C   UNL     1       1.039   2.472  -1.450  1.00  0.00     0.027 A 
ATOM      9  C   UNL     1       3.087   2.253  -2.696  1.00  0.00     0.073 A 
ATOM     10  C   UNL     1       0.516   3.276  -2.471  1.00  0.00     0.020 A 
ATOM     11  C   UNL     1       2.583   3.100  -3.686  1.00  0.00     0.130 A 
BRANCH   7  12
ATOM     12  N   UNL     1       2.821   0.926  -0.726  1.00  0.00    -0.323 N 
ATOM     13  O   UNL     1       1.261   0.795   1.006  1.00  0.00    -0.271 OA
ATOM     14  C   UNL     1       2.188   0.328   0.353  1.00  0.00     0.262 C 
ATOM     15  H   UNL     1       3.739   0.622  -0.913  1.00  0.00     0.170 HD
BRANCH  14  16
ATOM     16  C   UNL     1       2.778  -1.052   0.671  1.00  0.00     0.329 C 
BRANCH  16  17
ATOM     17  O   UNL     1       3.521  -1.547  -0.452  1.00  0.00    -0.483 OA
BRANCH  17  18
ATOM     18  C   UNL     1       3.044  -2.732  -0.947  1.00  0.00     0.134 A 
ATOM     19  C   UNL     1       3.808  -3.867  -0.661  1.00  0.00     0.047 A 
ATOM     20  C   UNL     1       1.958  -2.835  -1.827  1.00  0.00     0.060 A 
ATOM     21  C   UNL     1       3.483  -5.098  -1.234  1.00  0.00     0.004 A 
ATOM     22  C   UNL     1       1.637  -4.071  -2.396  1.00  0.00     0.019 A 
ATOM     23  Br  UNL     1       0.891  -1.366  -2.360  1.00  0.00    -0.047 Br
ATOM     24  C   UNL     1       2.400  -5.199  -2.104  1.00  0.00     0.001 A 
ENDBRANCH  17  18
ENDBRANCH  16  17
ENDBRANCH  14  16
ENDBRANCH   7  12
BRANCH  11  25
ATOM     25  O   UNL     1       3.470   3.461  -4.662  1.00  0.00    -0.507 OA
ATOM     26  H   UNL     1       3.196   4.028  -5.356  1.00  0.00     0.293 HD
ENDBRANCH  11  25
ENDBRANCH   3   6
ENDBRANCH   1   2
BRANCH   1  27
ATOM     27  C   UNL     1       0.767   2.481  -7.992  1.00  0.00     0.023 C 
BRANCH  27  28
ATOM     28  C   UNL     1       0.461   3.547  -9.049  1.00  0.00     0.023 C 
BRANCH  28  29
ATOM     29  C   UNL     1       1.576   4.541  -9.360  1.00  0.00     0.116 C 
BRANCH  29  30
ATOM     30  N   UNL     1       2.769   3.928  -9.924  1.00  0.00    -0.352 N 
ATOM     31  C   UNL     1       3.325   4.026 -11.178  1.00  0.00     0.251 C 
ATOM     32  H   UNL     1       3.263   3.345  -9.302  1.00  0.00     0.163 HD
ATOM     33  O   UNL     1       4.300   3.337 -11.469  1.00  0.00    -0.269 OA
BRANCH  31  34
ATOM     34  C   UNL     1       2.730   4.911 -12.205  1.00  0.00     0.039 A 
ATOM     35  C   UNL     1       2.523   4.399 -13.490  1.00  0.00     0.014 A 
ATOM     36  C   UNL     1       2.363   6.226 -11.914  1.00  0.00     0.014 A 
ATOM     37  C   UNL     1       1.839   5.161 -14.441  1.00  0.00     0.010 A 
ATOM     38  C   UNL     1       1.613   6.955 -12.836  1.00  0.00     0.010 A 
ATOM     39  C   UNL     1       1.318   6.418 -14.099  1.00  0.00    -0.014 A 
BRANCH  39  40
ATOM     40  C   UNL     1       0.403   7.152 -15.013  1.00  0.00     0.031 A 
ATOM     41  C   UNL     1       0.775   8.503 -15.554  1.00  0.00     0.074 A 
ATOM     42  C   UNL     1      -0.815   6.636 -15.277  1.00  0.00     0.049 A 
ATOM     43  N   UNL     1       0.059   9.333 -16.271  1.00  0.00    -0.248 NA
ATOM     44  C   UNL     1       2.120   8.998 -15.226  1.00  0.00     0.031 C 
ATOM     45  C   UNL     1      -1.318   5.356 -14.773  1.00  0.00     0.029 A 
ATOM     46  N   UNL     1      -1.860   7.131 -16.018  1.00  0.00    -0.354 N 
ATOM     47  C   UNL     1       0.859  10.451 -16.467  1.00  0.00     0.074 A 
ATOM     48  C   UNL     1       2.097  10.213 -15.755  1.00  0.00     0.031 C 
ATOM     49  C   UNL     1      -2.564   5.160 -15.231  1.00  0.00     0.029 A 
ATOM     50  C   UNL     1      -2.968   6.319 -16.021  1.00  0.00     0.049 A 
ATOM     51  H   UNL     1      -1.819   7.988 -16.501  1.00  0.00     0.167 HD
ATOM     52  C   UNL     1       0.591  11.565 -17.189  1.00  0.00     0.037 A 
ATOM     53  C   UNL     1      -4.181   6.492 -16.580  1.00  0.00     0.037 A 
ATOM     54  C   UNL     1      -0.634  11.790 -17.913  1.00  0.00     0.049 A 
ATOM     55  C   UNL     1      -4.460   7.750 -17.356  1.00  0.00     0.074 A 
ATOM     56  C   UNL     1      -0.967  12.854 -18.734  1.00  0.00     0.029 A 
ATOM     57  N   UNL     1      -1.730  10.941 -17.896  1.00  0.00    -0.354 N 
ATOM     58  N   UNL     1      -3.668   8.766 -17.596  1.00  0.00    -0.248 NA
ATOM     59  C   UNL     1      -5.803   7.886 -17.937  1.00  0.00     0.031 C 
ATOM     60  C   UNL     1      -2.283  12.674 -19.173  1.00  0.00     0.029 A 
ATOM     61  C   UNL     1      -2.753  11.474 -18.666  1.00  0.00     0.049 A 
ATOM     62  H   UNL     1      -1.776  10.087 -17.409  1.00  0.00     0.167 HD
ATOM     63  C   UNL     1      -4.407   9.651 -18.369  1.00  0.00     0.074 A 
ATOM     64  C   UNL     1      -5.705   9.043 -18.576  1.00  0.00     0.031 C 
ATOM     65  C   UNL     1      -4.042  10.860 -18.861  1.00  0.00     0.037 A 
BRANCH  52  66
ATOM     66  C   UNL     1       1.646  12.632 -17.238  1.00  0.00     0.064 A 
ATOM     67  C   UNL     1       2.845  12.448 -17.942  1.00  0.00     0.173 A 
ATOM     68  C   UNL     1       1.435  13.871 -16.614  1.00  0.00     0.173 A 
ATOM     69  F   UNL     1       3.099  11.279 -18.549  1.00  0.00    -0.203 F 
ATOM     70  C   UNL     1       3.807  13.454 -17.995  1.00  0.00     0.198 A 
ATOM     71  C   UNL     1       2.386  14.885 -16.695  1.00  0.00     0.198 A 
ATOM     72  F   UNL     1       0.302  14.103 -15.935  1.00  0.00    -0.203 F 
ATOM     73  F   UNL     1       4.965  13.238 -18.635  1.00  0.00    -0.200 F 
ATOM     74  C   UNL     1       3.574  14.673 -17.378  1.00  0.00     0.200 A 
ATOM     75  F   UNL     1       2.153  16.068 -16.110  1.00  0.00    -0.200 F 
ATOM     76  F   UNL     1       4.497  15.643 -17.438  1.00  0.00    -0.200 F 
ENDBRANCH  52  66
BRANCH  53  77
ATOM     77  C   UNL     1      -5.224   5.444 -16.432  1.00  0.00     0.064 A 
ATOM     78  C   UNL     1      -5.632   4.677 -17.532  1.00  0.00     0.173 A 
ATOM     79  C   UNL     1      -5.835   5.189 -15.196  1.00  0.00     0.173 A 
ATOM     80  F   UNL     1      -5.092   4.899 -18.740  1.00  0.00    -0.203 F 
ATOM     81  C   UNL     1      -6.623   3.706 -17.405  1.00  0.00     0.198 A 
ATOM     82  C   UNL     1      -6.807   4.198 -15.064  1.00  0.00     0.198 A 
ATOM     83  F   UNL     1      -5.478   5.893 -14.112  1.00  0.00    -0.203 F 
ATOM     84  F   UNL     1      -7.025   3.018 -18.483  1.00  0.00    -0.200 F 
ATOM     85  C   UNL     1      -7.206   3.463 -16.171  1.00  0.00     0.200 A 
ATOM     86  F   UNL     1      -7.356   3.957 -13.866  1.00  0.00    -0.200 F 
ATOM     87  F   UNL     1      -8.156   2.527 -16.048  1.00  0.00    -0.200 F 
ENDBRANCH  53  77
BRANCH  65  88
ATOM     88  C   UNL     1      -5.054  11.601 -19.686  1.00  0.00     0.064 A 
ATOM     89  C   UNL     1      -6.179  12.200 -19.101  1.00  0.00     0.173 A 
ATOM     90  C   UNL     1      -4.874  11.750 -21.070  1.00  0.00     0.173 A 
ATOM     91  F   UNL     1      -6.405  12.070 -17.785  1.00  0.00    -0.203 F 
ATOM     92  C   UNL     1      -7.098  12.905 -19.875  1.00  0.00     0.198 A 
ATOM     93  C   UNL     1      -5.778  12.480 -21.835  1.00  0.00     0.198 A 
ATOM     94  F   UNL     1      -3.811  11.200 -21.677  1.00  0.00    -0.203 F 
ATOM     95  F   UNL     1      -8.188  13.432 -19.302  1.00  0.00    -0.200 F 
ATOM     96  C   UNL     1      -6.892  13.051 -21.239  1.00  0.00     0.200 A 
ATOM     97  F   UNL     1      -5.572  12.631 -23.151  1.00  0.00    -0.200 F 
ATOM     98  F   UNL     1      -7.772  13.738 -21.980  1.00  0.00    -0.200 F 
ENDBRANCH  65  88
ENDBRANCH  39  40
ENDBRANCH  31  34
ENDBRANCH  29  30
ENDBRANCH  28  29
ENDBRANCH  27  28
ENDBRANCH   1  27
TORSDOF 16
