REMARK SMILES N#C/C(=C/c1cccc(OC2CCCC2)c1)C(=O)NCCCCNC(=O)c1ccc(-c2c3nc(c(-c4c(F)c(F)c(F)c(F)c4F)c4ccc([nH]4)c(-c4c(F)c(F)c(F)c(F)c4F)c4nc(c(-c5c(F)c(F)c(F)c(F)c5F)c5ccc2[nH]5)C=C4)C=C3)cc1
REMARK SMILES IDX 21 1 20 2 19 3 17 4 18 5 3 7 4 8 2 9 1 10 5 11 6 12 16 13
REMARK SMILES IDX 7 14 9 15 8 16 10 17 11 18 12 19 15 20 13 21 14 22 22 23
REMARK SMILES IDX 23 24 24 25 25 26 26 28 27 29 28 30 89 31 29 32 88 33 30 34
REMARK SMILES IDX 31 35 32 36 82 37 33 38 87 39 81 40 83 41 34 42 86 43 80 44
REMARK SMILES IDX 79 45 35 47 67 48 47 49 66 50 48 51 51 52 65 53 84 54 49 55
REMARK SMILES IDX 50 56 64 58 85 59 52 60 36 61 37 62 45 63 38 64 39 65 43 66
REMARK SMILES IDX 46 67 40 68 41 69 44 70 42 71 68 72 69 73 77 74 70 75 71 76
REMARK SMILES IDX 75 77 78 78 72 79 73 80 76 81 74 82 53 83 54 84 62 85 55 86
REMARK SMILES IDX 56 87 60 88 63 89 57 90 58 91 61 92 59 93
REMARK H PARENT 19 6 24 27 83 46 51 57
REMARK Flexibility Score: inf
ROOT
ATOM      1  C   UNL     1       7.595   0.605  -2.557  1.00  0.00     0.023 C 
ENDROOT
BRANCH   1   2
ATOM      2  C   UNL     1       6.590   0.256  -1.463  1.00  0.00     0.116 C 
BRANCH   2   3
ATOM      3  N   UNL     1       5.711   1.327  -1.034  1.00  0.00    -0.351 N 
ATOM      4  C   UNL     1       4.542   1.290  -0.318  1.00  0.00     0.261 C 
ATOM      5  O   UNL     1       4.024   2.369  -0.024  1.00  0.00    -0.268 OA
ATOM      6  H   UNL     1       6.001   2.229  -1.302  1.00  0.00     0.163 HD
BRANCH   4   7
ATOM      7  C   UNL     1       3.852   0.021   0.067  1.00  0.00     0.117 C 
ATOM      8  C   UNL     1       4.360  -1.133   0.565  1.00  0.00     0.033 C 
BRANCH   7   9
ATOM      9  C   UNL     1       2.332   0.021   0.067  1.00  0.00     0.105 C 
ATOM     10  N   UNL     1       1.071   0.021   0.067  1.00  0.00    -0.192 NA
ENDBRANCH   7   9
BRANCH   8  11
ATOM     11  C   UNL     1       5.731  -1.453   0.956  1.00  0.00    -0.020 A 
ATOM     12  C   UNL     1       6.409  -2.534   0.384  1.00  0.00     0.008 A 
ATOM     13  C   UNL     1       6.377  -0.644   1.894  1.00  0.00     0.054 A 
ATOM     14  C   UNL     1       7.755  -2.737   0.685  1.00  0.00     0.004 A 
ATOM     15  C   UNL     1       7.734  -0.797   2.151  1.00  0.00     0.120 A 
ATOM     16  C   UNL     1       8.416  -1.860   1.551  1.00  0.00     0.046 A 
BRANCH  15  17
ATOM     17  O   UNL     1       8.502   0.033   2.912  1.00  0.00    -0.490 OA
BRANCH  17  18
ATOM     18  C   UNL     1       8.008   1.263   3.439  1.00  0.00     0.173 C 
ATOM     19  C   UNL     1       7.461   2.291   2.443  1.00  0.00     0.045 C 
ATOM     20  C   UNL     1       6.978   1.126   4.566  1.00  0.00     0.045 C 
ATOM     21  C   UNL     1       6.523   3.143   3.283  1.00  0.00     0.004 C 
ATOM     22  C   UNL     1       5.899   2.167   4.272  1.00  0.00     0.004 C 
ENDBRANCH  17  18
ENDBRANCH  15  17
ENDBRANCH   8  11
ENDBRANCH   4   7
ENDBRANCH   2   3
ENDBRANCH   1   2
BRANCH   1  23
ATOM     23  C   UNL     1       8.659   1.651  -2.209  1.00  0.00     0.023 C 
BRANCH  23  24
ATOM     24  C   UNL     1       9.419   1.498  -0.889  1.00  0.00     0.116 C 
BRANCH  24  25
ATOM     25  N   UNL     1      10.159   0.255  -0.738  1.00  0.00    -0.352 N 
ATOM     26  C   UNL     1      11.461   0.030  -0.348  1.00  0.00     0.251 C 
ATOM     27  H   UNL     1       9.645  -0.558  -0.949  1.00  0.00     0.163 HD
ATOM     28  O   UNL     1      11.876  -1.123  -0.253  1.00  0.00    -0.269 OA
BRANCH  26  29
ATOM     29  C   UNL     1      12.396   1.159  -0.114  1.00  0.00     0.039 A 
ATOM     30  C   UNL     1      13.657   1.111  -0.721  1.00  0.00     0.014 A 
ATOM     31  C   UNL     1      12.046   2.266   0.661  1.00  0.00     0.014 A 
ATOM     32  C   UNL     1      14.504   2.222  -0.664  1.00  0.00     0.010 A 
ATOM     33  C   UNL     1      12.863   3.400   0.663  1.00  0.00     0.010 A 
ATOM     34  C   UNL     1      14.083   3.402  -0.031  1.00  0.00    -0.014 A 
BRANCH  34  35
ATOM     35  C   UNL     1      14.859   4.665  -0.171  1.00  0.00     0.031 A 
ATOM     36  C   UNL     1      15.485   5.330   1.022  1.00  0.00     0.074 A 
ATOM     37  C   UNL     1      14.928   5.263  -1.378  1.00  0.00     0.049 A 
ATOM     38  N   UNL     1      16.127   6.470   1.090  1.00  0.00    -0.248 NA
ATOM     39  C   UNL     1      15.355   4.635   2.309  1.00  0.00     0.031 C 
ATOM     40  C   UNL     1      14.320   4.754  -2.609  1.00  0.00     0.029 A 
ATOM     41  N   UNL     1      15.528   6.436  -1.768  1.00  0.00    -0.354 N 
ATOM     42  C   UNL     1      16.465   6.636   2.426  1.00  0.00     0.074 A 
ATOM     43  C   UNL     1      15.924   5.498   3.140  1.00  0.00     0.031 C 
ATOM     44  C   UNL     1      14.592   5.597  -3.617  1.00  0.00     0.029 A 
ATOM     45  C   UNL     1      15.362   6.724  -3.102  1.00  0.00     0.049 A 
ATOM     46  H   UNL     1      16.029   7.016  -1.150  1.00  0.00     0.167 HD
ATOM     47  C   UNL     1      17.174   7.637   3.002  1.00  0.00     0.037 A 
ATOM     48  C   UNL     1      15.775   7.779  -3.829  1.00  0.00     0.037 A 
ATOM     49  C   UNL     1      17.734   8.759   2.293  1.00  0.00     0.049 A 
ATOM     50  C   UNL     1      16.565   8.872  -3.166  1.00  0.00     0.074 A 
ATOM     51  C   UNL     1      18.519   9.787   2.786  1.00  0.00     0.029 A 
ATOM     52  N   UNL     1      17.565   9.001   0.938  1.00  0.00    -0.354 N 
ATOM     53  N   UNL     1      16.934   8.982  -1.913  1.00  0.00    -0.248 NA
ATOM     54  C   UNL     1      17.000   9.988  -4.019  1.00  0.00     0.031 C 
ATOM     55  C   UNL     1      18.797  10.671   1.736  1.00  0.00     0.029 A 
ATOM     56  C   UNL     1      18.217  10.172   0.582  1.00  0.00     0.049 A 
ATOM     57  H   UNL     1      17.058   8.427   0.320  1.00  0.00     0.167 HD
ATOM     58  C   UNL     1      17.662  10.160  -1.833  1.00  0.00     0.074 A 
ATOM     59  C   UNL     1      17.695  10.726  -3.165  1.00  0.00     0.031 C 
ATOM     60  C   UNL     1      18.250  10.722  -0.749  1.00  0.00     0.037 A 
BRANCH  47  61
ATOM     61  C   UNL     1      17.392   7.564   4.485  1.00  0.00     0.064 A 
ATOM     62  C   UNL     1      18.277   6.633   5.049  1.00  0.00     0.173 A 
ATOM     63  C   UNL     1      16.743   8.460   5.347  1.00  0.00     0.173 A 
ATOM     64  F   UNL     1      18.915   5.749   4.268  1.00  0.00    -0.203 F 
ATOM     65  C   UNL     1      18.482   6.583   6.426  1.00  0.00     0.198 A 
ATOM     66  C   UNL     1      16.971   8.425   6.720  1.00  0.00     0.198 A 
ATOM     67  F   UNL     1      15.893   9.375   4.857  1.00  0.00    -0.203 F 
ATOM     68  F   UNL     1      19.299   5.657   6.947  1.00  0.00    -0.200 F 
ATOM     69  C   UNL     1      17.834   7.483   7.259  1.00  0.00     0.200 A 
ATOM     70  F   UNL     1      16.352   9.302   7.524  1.00  0.00    -0.200 F 
ATOM     71  F   UNL     1      18.036   7.437   8.583  1.00  0.00    -0.200 F 
ENDBRANCH  47  61
BRANCH  48  72
ATOM     72  C   UNL     1      15.469   7.843  -5.281  1.00  0.00     0.064 A 
ATOM     73  C   UNL     1      16.480   7.662  -6.235  1.00  0.00     0.173 A 
ATOM     74  C   UNL     1      14.168   8.087  -5.744  1.00  0.00     0.173 A 
ATOM     75  F   UNL     1      17.743   7.449  -5.838  1.00  0.00    -0.203 F 
ATOM     76  C   UNL     1      16.204   7.740  -7.598  1.00  0.00     0.198 A 
ATOM     77  C   UNL     1      13.889   8.140  -7.108  1.00  0.00     0.198 A 
ATOM     78  F   UNL     1      13.166   8.262  -4.870  1.00  0.00    -0.203 F 
ATOM     79  F   UNL     1      17.196   7.604  -8.488  1.00  0.00    -0.200 F 
ATOM     80  C   UNL     1      14.909   7.974  -8.034  1.00  0.00     0.200 A 
ATOM     81  F   UNL     1      12.634   8.354  -7.525  1.00  0.00    -0.200 F 
ATOM     82  F   UNL     1      14.643   8.045  -9.345  1.00  0.00    -0.200 F 
ENDBRANCH  48  72
BRANCH  60  83
ATOM     83  C   UNL     1      19.005  12.000  -0.962  1.00  0.00     0.064 A 
ATOM     84  C   UNL     1      18.342  13.217  -1.176  1.00  0.00     0.173 A 
ATOM     85  C   UNL     1      20.407  12.013  -0.918  1.00  0.00     0.173 A 
ATOM     86  F   UNL     1      17.003  13.253  -1.244  1.00  0.00    -0.203 F 
ATOM     87  C   UNL     1      19.057  14.398  -1.357  1.00  0.00     0.198 A 
ATOM     88  C   UNL     1      21.118  13.199  -1.076  1.00  0.00     0.198 A 
ATOM     89  F   UNL     1      21.087  10.874  -0.714  1.00  0.00    -0.203 F 
ATOM     90  F   UNL     1      18.404  15.544  -1.600  1.00  0.00    -0.200 F 
ATOM     91  C   UNL     1      20.443  14.390  -1.300  1.00  0.00     0.200 A 
ATOM     92  F   UNL     1      22.456  13.191  -1.012  1.00  0.00    -0.200 F 
ATOM     93  F   UNL     1      21.128  15.528  -1.470  1.00  0.00    -0.200 F 
ENDBRANCH  60  83
ENDBRANCH  34  35
ENDBRANCH  26  29
ENDBRANCH  24  25
ENDBRANCH  23  24
ENDBRANCH   1  23
TORSDOF 15
