REMARK SMILES COc1cccc([C@H]2CC(c3ccc(S(C)(=O)=O)cc3)=NN2c2ccc(C(=O)NCCCCNC(=O)c3ccc(-c4c5nc(c(-c6c(F)c(F)c(F)c(F)c6F)c6ccc([nH]6)c(-c6c(F)c(F)c(F)c(F)c6F)c6nc(c(-c7c(F)c(F)c(F)c(F)c7F)c7ccc4[nH]7)C=C6)C=C5)cc3)cc2)c1
REMARK SMILES IDX 31 1 30 2 29 3 27 4 28 5 26 7 23 8 24 9 101 10 25 11 100 12
REMARK SMILES IDX 22 13 8 14 9 15 10 16 21 17 7 18 3 19 4 20 102 21 5 22 6 23
REMARK SMILES IDX 2 24 1 25 11 26 12 27 20 28 13 29 19 30 14 31 15 32 16 33
REMARK SMILES IDX 17 34 18 35 32 36 33 37 34 38 35 39 36 41 37 42 38 43 99 44
REMARK SMILES IDX 39 45 98 46 40 47 41 48 42 49 92 50 43 51 97 52 91 53 93 54
REMARK SMILES IDX 44 55 96 56 90 57 89 58 45 60 77 61 57 62 76 63 58 64 61 65
REMARK SMILES IDX 75 66 94 67 59 68 60 69 74 71 95 72 62 73 46 74 47 75 55 76
REMARK SMILES IDX 48 77 49 78 53 79 56 80 50 81 51 82 54 83 52 84 78 85 79 86
REMARK SMILES IDX 87 87 80 88 81 89 85 90 88 91 82 92 83 93 86 94 84 95 63 96
REMARK SMILES IDX 64 97 72 98 65 99 66 100 70 101 73 102 67 103 68 104 71 105
REMARK SMILES IDX 69 106
REMARK H PARENT 29 6 34 40 93 59 61 70
REMARK Flexibility Score: inf
ROOT
ATOM      1  C   UNL     1       5.674  -9.005   5.489  1.00  0.00     0.023 C 
ENDROOT
BRANCH   1   2
ATOM      2  C   UNL     1       4.398  -8.190   5.711  1.00  0.00     0.116 C 
BRANCH   2   3
ATOM      3  N   UNL     1       4.687  -6.989   6.466  1.00  0.00    -0.352 N 
ATOM      4  C   UNL     1       4.955  -5.700   6.080  1.00  0.00     0.251 C 
ATOM      5  O   UNL     1       5.151  -4.880   6.978  1.00  0.00    -0.269 OA
ATOM      6  H   UNL     1       4.693  -7.123   7.442  1.00  0.00     0.163 HD
BRANCH   4   7
ATOM      7  C   UNL     1       4.973  -5.244   4.659  1.00  0.00     0.039 A 
ATOM      8  C   UNL     1       4.923  -4.194   2.023  1.00  0.00     0.060 A 
ATOM      9  C   UNL     1       4.739  -3.363   3.131  1.00  0.00     0.029 A 
ATOM     10  C   UNL     1       5.181  -5.546   2.253  1.00  0.00     0.029 A 
ATOM     11  C   UNL     1       4.741  -3.881   4.430  1.00  0.00     0.016 A 
ATOM     12  C   UNL     1       5.243  -6.057   3.555  1.00  0.00     0.016 A 
BRANCH   8  13
ATOM     13  N   UNL     1       4.874  -3.672   0.744  1.00  0.00    -0.257 N 
ATOM     14  C   UNL     1       4.005  -4.167  -0.323  1.00  0.00     0.144 C 
ATOM     15  C   UNL     1       4.537  -3.433  -1.559  1.00  0.00     0.091 C 
ATOM     16  C   UNL     1       5.645  -2.635  -0.933  1.00  0.00     0.071 C 
ATOM     17  N   UNL     1       5.818  -2.786   0.341  1.00  0.00    -0.176 NA
BRANCH  14  18
ATOM     18  C   UNL     1       2.546  -3.852  -0.029  1.00  0.00    -0.019 A 
ATOM     19  C   UNL     1       0.782  -2.251   0.499  1.00  0.00     0.119 A 
ATOM     20  C   UNL     1      -0.134  -3.298   0.588  1.00  0.00     0.046 A 
ATOM     21  C   UNL     1       2.119  -2.531   0.211  1.00  0.00     0.052 A 
ATOM     22  C   UNL     1       0.271  -4.612   0.354  1.00  0.00     0.004 A 
ATOM     23  C   UNL     1       1.603  -4.888   0.043  1.00  0.00     0.006 A 
BRANCH  19  24
ATOM     24  O   UNL     1       0.276  -1.006   0.754  1.00  0.00    -0.497 OA
ATOM     25  C   UNL     1       0.952   0.072   0.118  1.00  0.00     0.278 C 
ENDBRANCH  19  24
ENDBRANCH  14  18
BRANCH  16  26
ATOM     26  C   UNL     1       6.507  -1.780  -1.748  1.00  0.00    -0.002 A 
ATOM     27  C   UNL     1       7.865  -2.100  -1.848  1.00  0.00     0.011 A 
ATOM     28  C   UNL     1       5.976  -0.660  -2.389  1.00  0.00     0.011 A 
ATOM     29  C   UNL     1       8.704  -1.297  -2.618  1.00  0.00     0.021 A 
ATOM     30  C   UNL     1       6.820   0.159  -3.140  1.00  0.00     0.021 A 
ATOM     31  C   UNL     1       8.178  -0.163  -3.248  1.00  0.00     0.067 A 
BRANCH  31  32
ATOM     32  S   UNL     1       9.258   0.861  -4.221  1.00  0.00     0.175 S 
ATOM     33  C   UNL     1      10.434   1.486  -3.050  1.00  0.00     0.163 C 
ATOM     34  O   UNL     1       9.948  -0.020  -5.143  1.00  0.00    -0.224 OA
ATOM     35  O   UNL     1       8.478   1.986  -4.703  1.00  0.00    -0.224 OA
ENDBRANCH  31  32
ENDBRANCH  16  26
ENDBRANCH   8  13
ENDBRANCH   4   7
ENDBRANCH   2   3
ENDBRANCH   1   2
BRANCH   1  36
ATOM     36  C   UNL     1       6.130  -9.806   6.713  1.00  0.00     0.023 C 
BRANCH  36  37
ATOM     37  C   UNL     1       5.156 -10.884   7.174  1.00  0.00     0.116 C 
BRANCH  37  38
ATOM     38  N   UNL     1       4.841 -11.854   6.137  1.00  0.00    -0.352 N 
ATOM     39  C   UNL     1       4.508 -13.178   6.273  1.00  0.00     0.251 C 
ATOM     40  H   UNL     1       4.871 -11.515   5.213  1.00  0.00     0.163 HD
ATOM     41  O   UNL     1       4.370 -13.887   5.282  1.00  0.00    -0.269 OA
BRANCH  39  42
ATOM     42  C   UNL     1       4.359 -13.756   7.624  1.00  0.00     0.039 A 
ATOM     43  C   UNL     1       5.004 -14.962   7.908  1.00  0.00     0.014 A 
ATOM     44  C   UNL     1       3.604 -13.110   8.606  1.00  0.00     0.014 A 
ATOM     45  C   UNL     1       4.941 -15.491   9.197  1.00  0.00     0.010 A 
ATOM     46  C   UNL     1       3.595 -13.604   9.907  1.00  0.00     0.010 A 
ATOM     47  C   UNL     1       4.262 -14.799  10.213  1.00  0.00    -0.014 A 
BRANCH  47  48
ATOM     48  C   UNL     1       4.244 -15.315  11.603  1.00  0.00     0.031 A 
ATOM     49  C   UNL     1       2.957 -15.780  12.220  1.00  0.00     0.074 A 
ATOM     50  C   UNL     1       5.380 -15.309  12.326  1.00  0.00     0.049 A 
ATOM     51  N   UNL     1       2.732 -16.228  13.429  1.00  0.00    -0.248 NA
ATOM     52  C   UNL     1       1.755 -15.709  11.373  1.00  0.00     0.031 C 
ATOM     53  C   UNL     1       6.679 -14.827  11.855  1.00  0.00     0.029 A 
ATOM     54  N   UNL     1       5.622 -15.714  13.614  1.00  0.00    -0.354 N 
ATOM     55  C   UNL     1       1.369 -16.478  13.492  1.00  0.00     0.074 A 
ATOM     56  C   UNL     1       0.806 -16.084  12.218  1.00  0.00     0.031 C 
ATOM     57  C   UNL     1       7.586 -14.985  12.833  1.00  0.00     0.029 A 
ATOM     58  C   UNL     1       6.928 -15.553  14.005  1.00  0.00     0.049 A 
ATOM     59  H   UNL     1       4.925 -16.085  14.203  1.00  0.00     0.167 HD
ATOM     60  C   UNL     1       0.654 -17.009  14.512  1.00  0.00     0.037 A 
ATOM     61  C   UNL     1       7.526 -15.834  15.178  1.00  0.00     0.037 A 
ATOM     62  C   UNL     1       1.222 -17.426  15.767  1.00  0.00     0.049 A 
ATOM     63  C   UNL     1       6.713 -16.440  16.289  1.00  0.00     0.074 A 
ATOM     64  C   UNL     1       0.595 -18.038  16.838  1.00  0.00     0.029 A 
ATOM     65  N   UNL     1       2.555 -17.271  16.119  1.00  0.00    -0.354 N 
ATOM     66  N   UNL     1       5.438 -16.744  16.311  1.00  0.00    -0.248 NA
ATOM     67  C   UNL     1       7.425 -16.751  17.536  1.00  0.00     0.031 C 
ATOM     68  C   UNL     1       1.542 -18.220  17.853  1.00  0.00     0.029 A 
ATOM     69  C   UNL     1       2.767 -17.759  17.398  1.00  0.00     0.049 A 
ATOM     70  H   UNL     1       3.248 -16.872  15.544  1.00  0.00     0.167 HD
ATOM     71  C   UNL     1       5.200 -17.301  17.559  1.00  0.00     0.074 A 
ATOM     72  C   UNL     1       6.467 -17.309  18.261  1.00  0.00     0.031 C 
ATOM     73  C   UNL     1       4.036 -17.762  18.079  1.00  0.00     0.037 A 
BRANCH  60  74
ATOM     74  C   UNL     1      -0.822 -17.179  14.307  1.00  0.00     0.064 A 
ATOM     75  C   UNL     1      -1.334 -18.147  13.429  1.00  0.00     0.173 A 
ATOM     76  C   UNL     1      -1.737 -16.388  15.018  1.00  0.00     0.173 A 
ATOM     77  F   UNL     1      -0.501 -18.920  12.717  1.00  0.00    -0.203 F 
ATOM     78  C   UNL     1      -2.707 -18.296  13.248  1.00  0.00     0.198 A 
ATOM     79  C   UNL     1      -3.109 -16.558  14.855  1.00  0.00     0.198 A 
ATOM     80  F   UNL     1      -1.300 -15.451  15.873  1.00  0.00    -0.203 F 
ATOM     81  F   UNL     1      -3.171 -19.193  12.368  1.00  0.00    -0.200 F 
ATOM     82  C   UNL     1      -3.593 -17.506  13.966  1.00  0.00     0.200 A 
ATOM     83  F   UNL     1      -3.965 -15.802  15.557  1.00  0.00    -0.200 F 
ATOM     84  F   UNL     1      -4.913 -17.654  13.794  1.00  0.00    -0.200 F 
ENDBRANCH  60  74
BRANCH  61  85
ATOM     85  C   UNL     1       8.978 -15.579  15.349  1.00  0.00     0.064 A 
ATOM     86  C   UNL     1       9.889 -16.641  15.424  1.00  0.00     0.173 A 
ATOM     87  C   UNL     1       9.486 -14.275  15.443  1.00  0.00     0.173 A 
ATOM     88  F   UNL     1       9.448 -17.906  15.359  1.00  0.00    -0.203 F 
ATOM     89  C   UNL     1      11.251 -16.411  15.605  1.00  0.00     0.198 A 
ATOM     90  C   UNL     1      10.851 -14.044  15.598  1.00  0.00     0.198 A 
ATOM     91  F   UNL     1       8.655 -13.224  15.371  1.00  0.00    -0.203 F 
ATOM     92  F   UNL     1      12.095 -17.446  15.715  1.00  0.00    -0.200 F 
ATOM     93  C   UNL     1      11.731 -15.112  15.687  1.00  0.00     0.200 A 
ATOM     94  F   UNL     1      11.313 -12.789  15.664  1.00  0.00    -0.200 F 
ATOM     95  F   UNL     1      13.042 -14.891  15.858  1.00  0.00    -0.200 F 
ENDBRANCH  61  85
BRANCH  73  96
ATOM     96  C   UNL     1       4.086 -18.336  19.463  1.00  0.00     0.064 A 
ATOM     97  C   UNL     1       4.237 -17.517  20.592  1.00  0.00     0.173 A 
ATOM     98  C   UNL     1       3.948 -19.718  19.665  1.00  0.00     0.173 A 
ATOM     99  F   UNL     1       4.389 -16.192  20.448  1.00  0.00    -0.203 F 
ATOM    100  C   UNL     1       4.274 -18.064  21.872  1.00  0.00     0.198 A 
ATOM    101  C   UNL     1       3.958 -20.258  20.948  1.00  0.00     0.198 A 
ATOM    102  F   UNL     1       3.795 -20.542  18.619  1.00  0.00    -0.203 F 
ATOM    103  F   UNL     1       4.466 -17.268  22.932  1.00  0.00    -0.200 F 
ATOM    104  C   UNL     1       4.128 -19.432  22.049  1.00  0.00     0.200 A 
ATOM    105  F   UNL     1       3.806 -21.578  21.119  1.00  0.00    -0.200 F 
ATOM    106  F   UNL     1       4.160 -19.956  23.282  1.00  0.00    -0.200 F 
ENDBRANCH  73  96
ENDBRANCH  47  48
ENDBRANCH  39  42
ENDBRANCH  37  38
ENDBRANCH  36  37
ENDBRANCH   1  36
TORSDOF 16
