REMARK SMILES CO[C@@H]1C[C@@H](C(=O)NCCCCNC(=O)c2ccc(-c3c4nc(c(-c5c(F)c(F)c(F)c(F)c5F)c5ccc([nH]5)c(-c5c(F)c(F)c(F)c(F)c5F)c5nc(c(-c6c(F)c(F)c(F)c(F)c6F)c6ccc3[nH]6)C=C5)C=C4)cc2)N(C(=O)c2nc(C(C)C)n[nH]2)C1
REMARK SMILES IDX 10 1 9 2 8 3 6 4 7 5 5 7 3 8 4 9 90 10 79 11 2 12 1 13 80 14
REMARK SMILES IDX 81 15 82 16 83 17 89 18 84 19 88 20 85 22 86 23 87 24 11 25
REMARK SMILES IDX 12 26 13 27 14 28 15 30 16 31 17 32 78 33 18 34 77 35 19 36
REMARK SMILES IDX 20 37 21 38 71 39 22 40 76 41 70 42 72 43 23 44 75 45 69 46
REMARK SMILES IDX 68 47 24 49 56 50 36 51 55 52 37 53 40 54 54 55 73 56 38 57
REMARK SMILES IDX 39 58 53 60 74 61 41 62 25 63 26 64 34 65 27 66 28 67 32 68
REMARK SMILES IDX 35 69 29 70 30 71 33 72 31 73 57 74 58 75 66 76 59 77 60 78
REMARK SMILES IDX 64 79 67 80 61 81 62 82 65 83 63 84 42 85 43 86 51 87 44 88
REMARK SMILES IDX 45 89 49 90 52 91 46 92 47 93 50 94 48 95
REMARK H PARENT 8 6 89 21 13 29 72 48 40 59
REMARK Flexibility Score: inf
ROOT
ATOM      1  C   UNL     1       4.720  -5.301  -0.264  1.00  0.00     0.023 C 
ENDROOT
BRANCH   1   2
ATOM      2  C   UNL     1       4.451  -3.803  -0.380  1.00  0.00     0.116 C 
BRANCH   2   3
ATOM      3  N   UNL     1       4.061  -3.376  -1.720  1.00  0.00    -0.354 N 
ATOM      4  C   UNL     1       2.881  -2.859  -2.179  1.00  0.00     0.242 C 
ATOM      5  O   UNL     1       2.890  -2.326  -3.288  1.00  0.00    -0.273 OA
ATOM      6  H   UNL     1       4.761  -3.476  -2.405  1.00  0.00     0.163 HD
BRANCH   4   7
ATOM      7  C   UNL     1       1.627  -2.865  -1.314  1.00  0.00     0.177 C 
ATOM      8  C   UNL     1       0.973  -1.939   0.831  1.00  0.00     0.139 C 
ATOM      9  C   UNL     1       1.824  -1.656  -0.390  1.00  0.00     0.069 C 
ATOM     10  C   UNL     1       0.875  -3.474   0.878  1.00  0.00     0.153 C 
ATOM     11  N   UNL     1       1.339  -3.989  -0.418  1.00  0.00    -0.321 N 
BRANCH   8  12
ATOM     12  O   UNL     1      -0.313  -1.331   0.712  1.00  0.00    -0.380 OA
ATOM     13  C   UNL     1      -0.250   0.095   0.650  1.00  0.00     0.195 C 
ENDBRANCH   8  12
BRANCH  11  14
ATOM     14  C   UNL     1       1.057  -5.341  -0.722  1.00  0.00     0.291 C 
ATOM     15  O   UNL     1       0.525  -6.025   0.158  1.00  0.00    -0.265 OA
BRANCH  14  16
ATOM     16  C   UNL     1       1.460  -5.953  -1.992  1.00  0.00     0.214 A 
ATOM     17  N   UNL     1       0.962  -7.080  -2.494  1.00  0.00    -0.207 NA
ATOM     18  N   UNL     1       2.539  -5.636  -2.757  1.00  0.00    -0.255 N 
ATOM     19  C   UNL     1       1.779  -7.369  -3.565  1.00  0.00     0.153 A 
ATOM     20  N   UNL     1       2.765  -6.491  -3.751  1.00  0.00    -0.158 NA
ATOM     21  H   UNL     1       3.103  -4.846  -2.590  1.00  0.00     0.192 HD
BRANCH  19  22
ATOM     22  C   UNL     1       1.637  -8.547  -4.469  1.00  0.00     0.053 C 
ATOM     23  C   UNL     1       2.054  -9.849  -3.789  1.00  0.00     0.016 C 
ATOM     24  C   UNL     1       0.235  -8.640  -5.057  1.00  0.00     0.016 C 
ENDBRANCH  19  22
ENDBRANCH  14  16
ENDBRANCH  11  14
ENDBRANCH   4   7
ENDBRANCH   2   3
ENDBRANCH   1   2
BRANCH   1  25
ATOM     25  C   UNL     1       5.695  -5.862  -1.296  1.00  0.00     0.023 C 
BRANCH  25  26
ATOM     26  C   UNL     1       7.011  -5.112  -1.379  1.00  0.00     0.116 C 
BRANCH  26  27
ATOM     27  N   UNL     1       7.714  -5.093  -0.109  1.00  0.00    -0.352 N 
ATOM     28  C   UNL     1       9.027  -5.409   0.141  1.00  0.00     0.251 C 
ATOM     29  H   UNL     1       7.183  -4.818   0.673  1.00  0.00     0.163 HD
ATOM     30  O   UNL     1       9.435  -5.524   1.287  1.00  0.00    -0.269 OA
BRANCH  28  31
ATOM     31  C   UNL     1       9.927  -5.632  -1.006  1.00  0.00     0.039 A 
ATOM     32  C   UNL     1      10.736  -6.768  -1.020  1.00  0.00     0.014 A 
ATOM     33  C   UNL     1       9.925  -4.742  -2.084  1.00  0.00     0.014 A 
ATOM     34  C   UNL     1      11.515  -7.036  -2.144  1.00  0.00     0.010 A 
ATOM     35  C   UNL     1      10.622  -5.063  -3.239  1.00  0.00     0.010 A 
ATOM     36  C   UNL     1      11.441  -6.202  -3.272  1.00  0.00    -0.014 A 
BRANCH  36  37
ATOM     37  C   UNL     1      12.238  -6.482  -4.488  1.00  0.00     0.031 A 
ATOM     38  C   UNL     1      13.274  -5.492  -4.942  1.00  0.00     0.074 A 
ATOM     39  C   UNL     1      11.981  -7.584  -5.216  1.00  0.00     0.049 A 
ATOM     40  N   UNL     1      14.028  -5.512  -6.011  1.00  0.00    -0.248 NA
ATOM     41  C   UNL     1      13.459  -4.298  -4.101  1.00  0.00     0.031 C 
ATOM     42  C   UNL     1      10.953  -8.579  -4.910  1.00  0.00     0.029 A 
ATOM     43  N   UNL     1      12.556  -8.044  -6.373  1.00  0.00    -0.354 N 
ATOM     44  C   UNL     1      14.757  -4.331  -5.977  1.00  0.00     0.074 A 
ATOM     45  C   UNL     1      14.306  -3.585  -4.824  1.00  0.00     0.031 C 
ATOM     46  C   UNL     1      10.982  -9.543  -5.844  1.00  0.00     0.029 A 
ATOM     47  C   UNL     1      12.005  -9.215  -6.833  1.00  0.00     0.049 A 
ATOM     48  H   UNL     1      13.294  -7.580  -6.830  1.00  0.00     0.167 HD
ATOM     49  C   UNL     1      15.737  -3.920  -6.816  1.00  0.00     0.037 A 
ATOM     50  C   UNL     1      12.289  -9.935  -7.934  1.00  0.00     0.037 A 
ATOM     51  C   UNL     1      16.196  -4.684  -7.945  1.00  0.00     0.049 A 
ATOM     52  C   UNL     1      13.393  -9.470  -8.844  1.00  0.00     0.074 A 
ATOM     53  C   UNL     1      17.231  -4.400  -8.817  1.00  0.00     0.029 A 
ATOM     54  N   UNL     1      15.640  -5.887  -8.361  1.00  0.00    -0.354 N 
ATOM     55  N   UNL     1      14.139  -8.394  -8.756  1.00  0.00    -0.248 NA
ATOM     56  C   UNL     1      13.704 -10.322  -9.998  1.00  0.00     0.031 C 
ATOM     57  C   UNL     1      17.266  -5.402  -9.793  1.00  0.00     0.029 A 
ATOM     58  C   UNL     1      16.293  -6.343  -9.494  1.00  0.00     0.049 A 
ATOM     59  H   UNL     1      14.892  -6.347  -7.915  1.00  0.00     0.167 HD
ATOM     60  C   UNL     1      15.020  -8.451  -9.828  1.00  0.00     0.074 A 
ATOM     61  C   UNL     1      14.727  -9.678 -10.541  1.00  0.00     0.031 C 
ATOM     62  C   UNL     1      15.983  -7.567 -10.190  1.00  0.00     0.037 A 
BRANCH  49  63
ATOM     63  C   UNL     1      16.369  -2.586  -6.539  1.00  0.00     0.064 A 
ATOM     64  C   UNL     1      17.154  -2.361  -5.396  1.00  0.00     0.173 A 
ATOM     65  C   UNL     1      16.191  -1.515  -7.428  1.00  0.00     0.173 A 
ATOM     66  F   UNL     1      17.346  -3.346  -4.505  1.00  0.00    -0.203 F 
ATOM     67  C   UNL     1      17.696  -1.106  -5.132  1.00  0.00     0.198 A 
ATOM     68  C   UNL     1      16.766  -0.272  -7.180  1.00  0.00     0.198 A 
ATOM     69  F   UNL     1      15.455  -1.673  -8.539  1.00  0.00    -0.203 F 
ATOM     70  F   UNL     1      18.382  -0.900  -3.999  1.00  0.00    -0.200 F 
ATOM     71  C   UNL     1      17.507  -0.065  -6.027  1.00  0.00     0.200 A 
ATOM     72  F   UNL     1      16.593   0.731  -8.052  1.00  0.00    -0.200 F 
ATOM     73  F   UNL     1      18.030   1.143  -5.771  1.00  0.00    -0.200 F 
ENDBRANCH  49  63
BRANCH  50  74
ATOM     74  C   UNL     1      11.528 -11.180  -8.215  1.00  0.00     0.064 A 
ATOM     75  C   UNL     1      12.133 -12.439  -8.101  1.00  0.00     0.173 A 
ATOM     76  C   UNL     1      10.175 -11.138  -8.582  1.00  0.00     0.173 A 
ATOM     77  F   UNL     1      13.430 -12.531  -7.770  1.00  0.00    -0.203 F 
ATOM     78  C   UNL     1      11.419 -13.607  -8.360  1.00  0.00     0.198 A 
ATOM     79  C   UNL     1       9.454 -12.307  -8.812  1.00  0.00     0.198 A 
ATOM     80  F   UNL     1       9.547  -9.958  -8.696  1.00  0.00    -0.203 F 
ATOM     81  F   UNL     1      12.033 -14.796  -8.282  1.00  0.00    -0.200 F 
ATOM     82  C   UNL     1      10.078 -13.541  -8.708  1.00  0.00     0.200 A 
ATOM     83  F   UNL     1       8.154 -12.239  -9.130  1.00  0.00    -0.200 F 
ATOM     84  F   UNL     1       9.389 -14.665  -8.946  1.00  0.00    -0.200 F 
ENDBRANCH  50  74
BRANCH  62  85
ATOM     85  C   UNL     1      16.808  -7.908 -11.397  1.00  0.00     0.064 A 
ATOM     86  C   UNL     1      16.274  -7.859 -12.693  1.00  0.00     0.173 A 
ATOM     87  C   UNL     1      18.163  -8.245 -11.257  1.00  0.00     0.173 A 
ATOM     88  F   UNL     1      14.980  -7.556 -12.878  1.00  0.00    -0.203 F 
ATOM     89  C   UNL     1      17.059  -8.160 -13.802  1.00  0.00     0.198 A 
ATOM     90  C   UNL     1      18.954  -8.512 -12.370  1.00  0.00     0.198 A 
ATOM     91  F   UNL     1      18.725  -8.298 -10.040  1.00  0.00    -0.203 F 
ATOM     92  F   UNL     1      16.515  -8.154 -15.027  1.00  0.00    -0.200 F 
ATOM     93  C   UNL     1      18.400  -8.477 -13.641  1.00  0.00     0.200 A 
ATOM     94  F   UNL     1      20.253  -8.803 -12.214  1.00  0.00    -0.200 F 
ATOM     95  F   UNL     1      19.157  -8.757 -14.711  1.00  0.00    -0.200 F 
ENDBRANCH  62  85
ENDBRANCH  36  37
ENDBRANCH  28  31
ENDBRANCH  26  27
ENDBRANCH  25  26
ENDBRANCH   1  25
TORSDOF 15
