REMARK SMILES O=C(NCCCCNC(=O)c1cc(-c2ccccn2)nc2ccc(F)cc12)c1ccc(-c2c3nc(c(-c4c(F)c(F)c(F)c(F)c4F)c4ccc([nH]4)c(-c4c(F)c(F)c(F)c(F)c4F)c4nc(c(-c5c(F)c(F)c(F)c(F)c5F)c5ccc2[nH]5)C=C4)C=C3)cc1
REMARK SMILES IDX 5 1 4 2 3 3 1 4 2 5 28 7 29 8 90 9 30 10 89 11 31 12 32 13
REMARK SMILES IDX 33 14 83 15 34 16 88 17 82 18 84 19 35 20 87 21 81 22 80 23
REMARK SMILES IDX 36 25 68 26 48 27 67 28 49 29 52 30 66 31 85 32 50 33 51 34
REMARK SMILES IDX 65 36 86 37 53 38 37 39 38 40 46 41 39 42 40 43 44 44 47 45
REMARK SMILES IDX 41 46 42 47 45 48 43 49 69 50 70 51 78 52 71 53 72 54 76 55
REMARK SMILES IDX 79 56 73 57 74 58 77 59 75 60 54 61 55 62 63 63 56 64 57 65
REMARK SMILES IDX 61 66 64 67 58 68 59 69 62 70 60 71 6 72 7 73 8 74 9 75
REMARK SMILES IDX 10 77 11 78 12 79 27 80 13 81 21 82 26 83 20 84 22 85 24 86
REMARK SMILES IDX 23 87 25 88 14 89 15 90 19 91 16 92 18 93 17 94
REMARK H PARENT 3 6 84 24 52 35 8 76
REMARK Flexibility Score: inf
ROOT
ATOM      1  C   UNL     1       5.048   2.139  -1.389  1.00  0.00     0.023 C 
ENDROOT
BRANCH   1   2
ATOM      2  C   UNL     1       4.699   1.177  -0.259  1.00  0.00     0.116 C 
BRANCH   2   3
ATOM      3  N   UNL     1       3.268   1.047  -0.045  1.00  0.00    -0.352 N 
ATOM      4  O   UNL     1       1.259   0.042   0.057  1.00  0.00    -0.269 OA
ATOM      5  C   UNL     1       2.480  -0.076  -0.008  1.00  0.00     0.251 C 
ATOM      6  H   UNL     1       2.790   1.896   0.095  1.00  0.00     0.163 HD
BRANCH   5   7
ATOM      7  C   UNL     1       3.078  -1.429  -0.062  1.00  0.00     0.039 A 
ATOM      8  C   UNL     1       2.442  -2.410  -0.830  1.00  0.00     0.014 A 
ATOM      9  C   UNL     1       4.218  -1.758   0.677  1.00  0.00     0.014 A 
ATOM     10  C   UNL     1       2.965  -3.705  -0.884  1.00  0.00     0.010 A 
ATOM     11  C   UNL     1       4.780  -3.028   0.567  1.00  0.00     0.010 A 
ATOM     12  C   UNL     1       4.146  -4.021  -0.196  1.00  0.00    -0.014 A 
BRANCH  12  13
ATOM     13  C   UNL     1       4.690  -5.403  -0.198  1.00  0.00     0.031 A 
ATOM     14  C   UNL     1       4.704  -6.197   1.081  1.00  0.00     0.074 A 
ATOM     15  C   UNL     1       5.192  -5.937  -1.327  1.00  0.00     0.049 A 
ATOM     16  N   UNL     1       5.202  -7.385   1.315  1.00  0.00    -0.248 NA
ATOM     17  C   UNL     1       4.096  -5.559   2.260  1.00  0.00     0.031 C 
ATOM     18  C   UNL     1       5.250  -5.267  -2.626  1.00  0.00     0.029 A 
ATOM     19  N   UNL     1       5.751  -7.169  -1.562  1.00  0.00    -0.354 N 
ATOM     20  C   UNL     1       4.984  -7.625   2.665  1.00  0.00     0.074 A 
ATOM     21  C   UNL     1       4.355  -6.443   3.212  1.00  0.00     0.031 C 
ATOM     22  C   UNL     1       5.785  -6.106  -3.528  1.00  0.00     0.029 A 
ATOM     23  C   UNL     1       6.141  -7.358  -2.865  1.00  0.00     0.049 A 
ATOM     24  H   UNL     1       5.862  -7.852  -0.862  1.00  0.00     0.167 HD
ATOM     25  C   UNL     1       5.258  -8.741   3.380  1.00  0.00     0.037 A 
ATOM     26  C   UNL     1       6.721  -8.421  -3.455  1.00  0.00     0.037 A 
ATOM     27  C   UNL     1       5.843  -9.934   2.829  1.00  0.00     0.049 A 
ATOM     28  C   UNL     1       7.028  -9.645  -2.635  1.00  0.00     0.074 A 
ATOM     29  C   UNL     1       6.119 -11.131   3.464  1.00  0.00     0.029 A 
ATOM     30  N   UNL     1       6.230 -10.081   1.506  1.00  0.00    -0.354 N 
ATOM     31  N   UNL     1       6.797  -9.869  -1.365  1.00  0.00    -0.248 NA
ATOM     32  C   UNL     1       7.680 -10.764  -3.332  1.00  0.00     0.031 C 
ATOM     33  C   UNL     1       6.702 -11.995   2.532  1.00  0.00     0.029 A 
ATOM     34  C   UNL     1       6.755 -11.348   1.308  1.00  0.00     0.049 A 
ATOM     35  H   UNL     1       6.145  -9.389   0.810  1.00  0.00     0.167 HD
ATOM     36  C   UNL     1       7.253 -11.156  -1.114  1.00  0.00     0.074 A 
ATOM     37  C   UNL     1       7.763 -11.671  -2.367  1.00  0.00     0.031 C 
ATOM     38  C   UNL     1       7.251 -11.847   0.051  1.00  0.00     0.037 A 
BRANCH  25  39
ATOM     39  C   UNL     1       4.910  -8.735   4.839  1.00  0.00     0.064 A 
ATOM     40  C   UNL     1       3.577  -8.799   5.272  1.00  0.00     0.173 A 
ATOM     41  C   UNL     1       5.918  -8.715   5.813  1.00  0.00     0.173 A 
ATOM     42  F   UNL     1       2.576  -8.805   4.378  1.00  0.00    -0.203 F 
ATOM     43  C   UNL     1       3.265  -8.821   6.628  1.00  0.00     0.198 A 
ATOM     44  C   UNL     1       5.604  -8.766   7.169  1.00  0.00     0.198 A 
ATOM     45  F   UNL     1       7.208  -8.659   5.451  1.00  0.00    -0.203 F 
ATOM     46  F   UNL     1       1.984  -8.841   7.019  1.00  0.00    -0.200 F 
ATOM     47  C   UNL     1       4.279  -8.813   7.575  1.00  0.00     0.200 A 
ATOM     48  F   UNL     1       6.584  -8.769   8.083  1.00  0.00    -0.200 F 
ATOM     49  F   UNL     1       3.978  -8.846   8.880  1.00  0.00    -0.200 F 
ENDBRANCH  25  39
BRANCH  26  50
ATOM     50  C   UNL     1       7.017  -8.386  -4.910  1.00  0.00     0.064 A 
ATOM     51  C   UNL     1       6.267  -9.156  -5.809  1.00  0.00     0.173 A 
ATOM     52  C   UNL     1       8.038  -7.579  -5.432  1.00  0.00     0.173 A 
ATOM     53  F   UNL     1       5.296  -9.960  -5.353  1.00  0.00    -0.203 F 
ATOM     54  C   UNL     1       6.532  -9.126  -7.177  1.00  0.00     0.198 A 
ATOM     55  C   UNL     1       8.287  -7.533  -6.802  1.00  0.00     0.198 A 
ATOM     56  F   UNL     1       8.783  -6.823  -4.612  1.00  0.00    -0.203 F 
ATOM     57  F   UNL     1       5.821  -9.896  -8.011  1.00  0.00    -0.200 F 
ATOM     58  C   UNL     1       7.537  -8.310  -7.673  1.00  0.00     0.200 A 
ATOM     59  F   UNL     1       9.251  -6.734  -7.279  1.00  0.00    -0.200 F 
ATOM     60  F   UNL     1       7.786  -8.275  -8.989  1.00  0.00    -0.200 F 
ENDBRANCH  26  50
BRANCH  38  61
ATOM     61  C   UNL     1       7.798 -13.242   0.033  1.00  0.00     0.064 A 
ATOM     62  C   UNL     1       9.178 -13.484  -0.028  1.00  0.00     0.173 A 
ATOM     63  C   UNL     1       6.940 -14.345   0.161  1.00  0.00     0.173 A 
ATOM     64  F   UNL     1      10.036 -12.462  -0.163  1.00  0.00    -0.203 F 
ATOM     65  C   UNL     1       9.678 -14.781   0.030  1.00  0.00     0.198 A 
ATOM     66  C   UNL     1       7.445 -15.639   0.244  1.00  0.00     0.198 A 
ATOM     67  F   UNL     1       5.613 -14.163   0.232  1.00  0.00    -0.203 F 
ATOM     68  F   UNL     1      10.999 -14.992  -0.056  1.00  0.00    -0.200 F 
ATOM     69  C   UNL     1       8.813 -15.856   0.176  1.00  0.00     0.200 A 
ATOM     70  F   UNL     1       6.610 -16.675   0.398  1.00  0.00    -0.200 F 
ATOM     71  F   UNL     1       9.299 -17.103   0.249  1.00  0.00    -0.200 F 
ENDBRANCH  38  61
ENDBRANCH  12  13
ENDBRANCH   5   7
ENDBRANCH   2   3
ENDBRANCH   1   2
BRANCH   1  72
ATOM     72  C   UNL     1       4.566   3.577  -1.209  1.00  0.00     0.023 C 
BRANCH  72  73
ATOM     73  C   UNL     1       4.941   4.239   0.113  1.00  0.00     0.116 C 
BRANCH  73  74
ATOM     74  N   UNL     1       6.379   4.277   0.343  1.00  0.00    -0.352 N 
ATOM     75  C   UNL     1       7.180   5.342   0.676  1.00  0.00     0.252 C 
ATOM     76  H   UNL     1       6.844   3.415   0.246  1.00  0.00     0.163 HD
ATOM     77  O   UNL     1       8.393   5.189   0.797  1.00  0.00    -0.269 OA
BRANCH  75  78
ATOM     78  C   UNL     1       6.572   6.667   0.908  1.00  0.00     0.051 A 
ATOM     79  C   UNL     1       5.579   6.748   1.880  1.00  0.00     0.045 A 
ATOM     80  C   UNL     1       6.955   7.801   0.164  1.00  0.00     0.016 A 
ATOM     81  C   UNL     1       4.891   7.938   2.023  1.00  0.00     0.090 A 
ATOM     82  C   UNL     1       6.226   8.982   0.417  1.00  0.00     0.072 A 
ATOM     83  C   UNL     1       7.990   7.822  -0.804  1.00  0.00     0.050 A 
ATOM     84  N   UNL     1       5.218   9.042   1.305  1.00  0.00    -0.246 NA
ATOM     85  C   UNL     1       6.550  10.133  -0.293  1.00  0.00     0.032 A 
ATOM     86  C   UNL     1       8.290   8.993  -1.486  1.00  0.00     0.123 A 
ATOM     87  C   UNL     1       7.577  10.152  -1.240  1.00  0.00     0.041 A 
ATOM     88  F   UNL     1       9.277   9.000  -2.390  1.00  0.00    -0.207 F 
BRANCH  81  89
ATOM     89  C   UNL     1       3.715   8.010   2.904  1.00  0.00     0.089 A 
ATOM     90  C   UNL     1       3.791   7.671   4.256  1.00  0.00     0.030 A 
ATOM     91  N   UNL     1       2.530   8.284   2.297  1.00  0.00    -0.255 NA
ATOM     92  C   UNL     1       2.619   7.611   5.007  1.00  0.00     0.004 A 
ATOM     93  C   UNL     1       1.412   8.233   3.054  1.00  0.00     0.112 A 
ATOM     94  C   UNL     1       1.405   7.895   4.395  1.00  0.00     0.020 A 
ENDBRANCH  81  89
ENDBRANCH  75  78
ENDBRANCH  73  74
ENDBRANCH  72  73
ENDBRANCH   1  72
TORSDOF 12
