REMARK SMILES CCC(CC)COc1cc2c(cc1Cl)C=C(C(=O)NCCCCNC(=O)c1ccc(-c3c4nc(c(-c5c(F)c(F)c(F)c(F)c5F)c5ccc([nH]5)c(-c5c(F)c(F)c(F)c(F)c5F)c5nc(c(-c6c(F)c(F)c(F)c(F)c6F)c6ccc3[nH]6)C=C5)C=C4)cc1)[C@@H](C(F)(F)F)O2
REMARK SMILES IDX 20 1 19 2 17 3 18 4 16 6 8 7 9 8 13 9 10 10 12 11 14 12
REMARK SMILES IDX 11 13 95 14 15 15 90 16 7 17 6 18 3 19 2 20 1 21 4 22 5 23
REMARK SMILES IDX 91 24 92 25 93 26 94 27 21 28 22 29 23 30 24 31 25 32 26 34
REMARK SMILES IDX 27 35 28 36 89 37 29 38 88 39 30 40 31 41 32 42 82 43 33 44
REMARK SMILES IDX 87 45 81 46 83 47 34 48 86 49 80 50 79 51 35 53 67 54 47 55
REMARK SMILES IDX 66 56 48 57 51 58 65 59 84 60 49 61 50 62 64 64 85 65 52 66
REMARK SMILES IDX 36 67 37 68 45 69 38 70 39 71 43 72 46 73 40 74 41 75 44 76
REMARK SMILES IDX 42 77 68 78 69 79 77 80 70 81 71 82 75 83 78 84 72 85 73 86
REMARK SMILES IDX 76 87 74 88 53 89 54 90 62 91 55 92 56 93 60 94 63 95 57 96
REMARK SMILES IDX 58 97 61 98 59 99
REMARK H PARENT 19 5 24 33 83 52 51 63
REMARK Flexibility Score: inf
ROOT
ATOM      1  C   UNL     1      -0.831   0.126  -9.905  1.00  0.00     0.116 C 
ENDROOT
BRANCH   1   2
ATOM      2  N   UNL     1      -0.763   1.232  -8.971  1.00  0.00    -0.352 N 
ATOM      3  C   UNL     1      -0.392   1.391  -7.679  1.00  0.00     0.251 C 
ATOM      4  O   UNL     1      -0.442   2.548  -7.252  1.00  0.00    -0.270 OA
ATOM      5  H   UNL     1      -1.060   2.078  -9.377  1.00  0.00     0.163 HD
BRANCH   3   6
ATOM      6  C   UNL     1       0.042   0.291  -6.777  1.00  0.00     0.067 C 
ATOM      7  C   UNL     1       1.417  -2.372  -2.769  1.00  0.00     0.141 A 
ATOM      8  C   UNL     1       0.521  -2.614  -3.810  1.00  0.00     0.095 A 
ATOM      9  C   UNL     1       2.184  -1.196  -2.759  1.00  0.00     0.083 A 
ATOM     10  C   UNL     1       0.336  -1.632  -4.776  1.00  0.00     0.131 A 
ATOM     11  C   UNL     1       1.913  -0.176  -3.672  1.00  0.00     0.036 A 
ATOM     12  Cl  UNL     1       3.454  -0.944  -1.618  1.00  0.00    -0.080 Cl
ATOM     13  C   UNL     1       0.966  -0.385  -4.670  1.00  0.00     0.019 A 
ATOM     14  O   UNL     1      -0.474  -1.929  -5.843  1.00  0.00    -0.475 OA
ATOM     15  C   UNL     1       0.596   0.667  -5.610  1.00  0.00     0.025 C 
ATOM     16  C   UNL     1      -0.125  -1.179  -7.049  1.00  0.00     0.314 C 
BRANCH   7  17
ATOM     17  O   UNL     1       1.561  -3.303  -1.776  1.00  0.00    -0.492 OA
BRANCH  17  18
ATOM     18  C   UNL     1       0.448  -3.304  -0.851  1.00  0.00     0.233 C 
BRANCH  18  19
ATOM     19  C   UNL     1       0.606  -2.207   0.230  1.00  0.00     0.026 C 
BRANCH  19  20
ATOM     20  C   UNL     1      -0.121  -0.905  -0.180  1.00  0.00     0.003 C 
ATOM     21  C   UNL     1       0.385   0.316   0.575  1.00  0.00     0.004 C 
ENDBRANCH  19  20
BRANCH  19  22
ATOM     22  C   UNL     1       0.177  -2.706   1.626  1.00  0.00     0.003 C 
ATOM     23  C   UNL     1      -1.312  -2.959   1.806  1.00  0.00     0.004 C 
ENDBRANCH  19  22
ENDBRANCH  18  19
ENDBRANCH  17  18
ENDBRANCH   7  17
BRANCH  16  24
ATOM     24  C   UNL     1       1.121  -1.788  -7.742  1.00  0.00     0.429 C 
ATOM     25  F   UNL     1       0.798  -2.949  -8.363  1.00  0.00    -0.167 F 
ATOM     26  F   UNL     1       1.624  -0.967  -8.698  1.00  0.00    -0.167 F 
ATOM     27  F   UNL     1       2.138  -2.052  -6.894  1.00  0.00    -0.167 F 
ENDBRANCH  16  24
ENDBRANCH   3   6
ENDBRANCH   1   2
BRANCH   1  28
ATOM     28  C   UNL     1      -2.271  -0.204 -10.281  1.00  0.00     0.023 C 
BRANCH  28  29
ATOM     29  C   UNL     1      -2.861   0.711 -11.352  1.00  0.00     0.023 C 
BRANCH  29  30
ATOM     30  C   UNL     1      -2.071   0.770 -12.654  1.00  0.00     0.116 C 
BRANCH  30  31
ATOM     31  N   UNL     1      -1.811  -0.531 -13.258  1.00  0.00    -0.352 N 
ATOM     32  C   UNL     1      -1.643  -0.808 -14.596  1.00  0.00     0.251 C 
ATOM     33  H   UNL     1      -1.749  -1.295 -12.641  1.00  0.00     0.163 HD
ATOM     34  O   UNL     1      -1.483  -1.952 -15.002  1.00  0.00    -0.269 OA
BRANCH  32  35
ATOM     35  C   UNL     1      -1.721   0.323 -15.538  1.00  0.00     0.039 A 
ATOM     36  C   UNL     1      -0.872   1.418 -15.364  1.00  0.00     0.014 A 
ATOM     37  C   UNL     1      -2.755   0.350 -16.475  1.00  0.00     0.014 A 
ATOM     38  C   UNL     1      -1.165   2.608 -16.014  1.00  0.00     0.010 A 
ATOM     39  C   UNL     1      -2.999   1.527 -17.183  1.00  0.00     0.010 A 
ATOM     40  C   UNL     1      -2.241   2.678 -16.917  1.00  0.00    -0.014 A 
BRANCH  40  41
ATOM     41  C   UNL     1      -2.567   3.973 -17.560  1.00  0.00     0.031 A 
ATOM     42  C   UNL     1      -3.851   4.688 -17.244  1.00  0.00     0.074 A 
ATOM     43  C   UNL     1      -1.666   4.530 -18.389  1.00  0.00     0.049 A 
ATOM     44  N   UNL     1      -4.312   5.812 -17.733  1.00  0.00    -0.248 NA
ATOM     45  C   UNL     1      -4.737   4.063 -16.248  1.00  0.00     0.031 C 
ATOM     46  C   UNL     1      -0.373   3.941 -18.741  1.00  0.00     0.029 A 
ATOM     47  N   UNL     1      -1.685   5.723 -19.063  1.00  0.00    -0.354 N 
ATOM     48  C   UNL     1      -5.545   6.015 -17.128  1.00  0.00     0.074 A 
ATOM     49  C   UNL     1      -5.771   4.894 -16.242  1.00  0.00     0.031 C 
ATOM     50  C   UNL     1       0.300   4.797 -19.522  1.00  0.00     0.029 A 
ATOM     51  C   UNL     1      -0.541   5.961 -19.781  1.00  0.00     0.049 A 
ATOM     52  H   UNL     1      -2.446   6.347 -19.035  1.00  0.00     0.167 HD
ATOM     53  C   UNL     1      -6.405   7.048 -17.297  1.00  0.00     0.037 A 
ATOM     54  C   UNL     1      -0.211   6.996 -20.575  1.00  0.00     0.037 A 
ATOM     55  C   UNL     1      -6.162   8.172 -18.165  1.00  0.00     0.049 A 
ATOM     56  C   UNL     1      -1.194   8.112 -20.765  1.00  0.00     0.074 A 
ATOM     57  C   UNL     1      -6.979   9.261 -18.418  1.00  0.00     0.029 A 
ATOM     58  N   UNL     1      -5.009   8.356 -18.914  1.00  0.00    -0.354 N 
ATOM     59  N   UNL     1      -2.378   8.269 -20.225  1.00  0.00    -0.248 NA
ATOM     60  C   UNL     1      -0.803   9.187 -21.686  1.00  0.00     0.031 C 
ATOM     61  C   UNL     1      -6.332  10.090 -19.340  1.00  0.00     0.029 A 
ATOM     62  C   UNL     1      -5.095   9.539 -19.631  1.00  0.00     0.049 A 
ATOM     63  H   UNL     1      -4.243   7.739 -18.932  1.00  0.00     0.167 HD
ATOM     64  C   UNL     1      -2.871   9.461 -20.732  1.00  0.00     0.074 A 
ATOM     65  C   UNL     1      -1.849   9.998 -21.607  1.00  0.00     0.031 C 
ATOM     66  C   UNL     1      -4.067  10.054 -20.498  1.00  0.00     0.037 A 
BRANCH  53  67
ATOM     67  C   UNL     1      -7.701   7.014 -16.542  1.00  0.00     0.064 A 
ATOM     68  C   UNL     1      -7.758   7.289 -15.168  1.00  0.00     0.173 A 
ATOM     69  C   UNL     1      -8.909   6.776 -17.215  1.00  0.00     0.173 A 
ATOM     70  F   UNL     1      -6.630   7.508 -14.476  1.00  0.00    -0.203 F 
ATOM     71  C   UNL     1      -8.977   7.319 -14.495  1.00  0.00     0.198 A 
ATOM     72  C   UNL     1     -10.127   6.829 -16.544  1.00  0.00     0.198 A 
ATOM     73  F   UNL     1      -8.909   6.512 -18.531  1.00  0.00    -0.203 F 
ATOM     74  F   UNL     1      -9.006   7.558 -13.176  1.00  0.00    -0.200 F 
ATOM     75  C   UNL     1     -10.161   7.099 -15.184  1.00  0.00     0.200 A 
ATOM     76  F   UNL     1     -11.271   6.626 -17.213  1.00  0.00    -0.200 F 
ATOM     77  F   UNL     1     -11.333   7.143 -14.537  1.00  0.00    -0.200 F 
ENDBRANCH  53  67
BRANCH  54  78
ATOM     78  C   UNL     1       1.116   7.008 -21.238  1.00  0.00     0.064 A 
ATOM     79  C   UNL     1       2.116   7.895 -20.823  1.00  0.00     0.173 A 
ATOM     80  C   UNL     1       1.427   6.099 -22.260  1.00  0.00     0.173 A 
ATOM     81  F   UNL     1       1.858   8.793 -19.860  1.00  0.00    -0.203 F 
ATOM     82  C   UNL     1       3.381   7.873 -21.405  1.00  0.00     0.198 A 
ATOM     83  C   UNL     1       2.699   6.060 -22.823  1.00  0.00     0.198 A 
ATOM     84  F   UNL     1       0.502   5.226 -22.686  1.00  0.00    -0.203 F 
ATOM     85  F   UNL     1       4.316   8.745 -21.005  1.00  0.00    -0.200 F 
ATOM     86  C   UNL     1       3.675   6.948 -22.397  1.00  0.00     0.200 A 
ATOM     87  F   UNL     1       2.983   5.153 -23.768  1.00  0.00    -0.200 F 
ATOM     88  F   UNL     1       4.898   6.913 -22.942  1.00  0.00    -0.200 F 
ENDBRANCH  54  78
BRANCH  66  89
ATOM     89  C   UNL     1      -4.325  11.359 -21.187  1.00  0.00     0.064 A 
ATOM     90  C   UNL     1      -4.626  11.415 -22.555  1.00  0.00     0.173 A 
ATOM     91  C   UNL     1      -4.306  12.560 -20.464  1.00  0.00     0.173 A 
ATOM     92  F   UNL     1      -4.641  10.293 -23.290  1.00  0.00    -0.203 F 
ATOM     93  C   UNL     1      -4.878  12.633 -23.181  1.00  0.00     0.198 A 
ATOM     94  C   UNL     1      -4.581  13.774 -21.087  1.00  0.00     0.198 A 
ATOM     95  F   UNL     1      -4.029  12.555 -19.151  1.00  0.00    -0.203 F 
ATOM     96  F   UNL     1      -5.123  12.670 -24.497  1.00  0.00    -0.200 F 
ATOM     97  C   UNL     1      -4.861  13.810 -22.446  1.00  0.00     0.200 A 
ATOM     98  F   UNL     1      -4.573  14.908 -20.375  1.00  0.00    -0.200 F 
ATOM     99  F   UNL     1      -5.106  14.981 -23.049  1.00  0.00    -0.200 F 
ENDBRANCH  66  89
ENDBRANCH  40  41
ENDBRANCH  32  35
ENDBRANCH  30  31
ENDBRANCH  29  30
ENDBRANCH  28  29
ENDBRANCH   1  28
TORSDOF 17
