REMARK SMILES O=C(NCCCCNC(=O)[C@@H]1CN(c2nc(-c3ccccc3)no2)CC[NH2+]1)c1ccc(-c2c3nc(c(-c4c(F)c(F)c(F)c(F)c4F)c4ccc([nH]4)c(-c4c(F)c(F)c(F)c(F)c4F)c4nc(c(-c5c(F)c(F)c(F)c(F)c5F)c5ccc2[nH]5)C=C4)C=C3)cc1
REMARK SMILES IDX 5 1 4 2 3 3 1 4 2 5 28 7 29 8 90 9 30 10 89 11 31 12 32 13
REMARK SMILES IDX 33 14 83 15 34 16 88 17 82 18 84 19 35 20 87 21 81 22 80 23
REMARK SMILES IDX 36 25 68 26 48 27 67 28 49 29 52 30 66 31 85 32 50 33 51 34
REMARK SMILES IDX 65 36 86 37 53 38 37 39 38 40 46 41 39 42 40 43 44 44 47 45
REMARK SMILES IDX 41 46 42 47 45 48 43 49 69 50 70 51 78 52 71 53 72 54 76 55
REMARK SMILES IDX 79 56 73 57 74 58 77 59 75 60 54 61 55 62 63 63 56 64 57 65
REMARK SMILES IDX 61 66 64 67 58 68 59 69 62 70 60 71 6 72 7 73 8 74 9 75
REMARK SMILES IDX 10 77 11 78 12 79 27 80 13 81 26 82 25 85 14 86 15 87 24 88
REMARK SMILES IDX 16 89 23 90 17 91 18 92 22 93 19 94 21 95 20 96
REMARK H PARENT 3 6 84 24 52 35 8 76 27 83 27 84
REMARK Flexibility Score: inf
ROOT
ATOM      1  C   UNL     1       4.873   2.578   0.863  1.00  0.00     0.023 C 
ENDROOT
BRANCH   1   2
ATOM      2  C   UNL     1       4.484   1.179   0.395  1.00  0.00     0.116 C 
BRANCH   2   3
ATOM      3  N   UNL     1       3.066   0.891   0.536  1.00  0.00    -0.352 N 
ATOM      4  O   UNL     1       1.101  -0.065  -0.049  1.00  0.00    -0.269 OA
ATOM      5  C   UNL     1       2.311   0.012  -0.203  1.00  0.00     0.251 C 
ATOM      6  H   UNL     1       2.592   1.383   1.245  1.00  0.00     0.163 HD
BRANCH   5   7
ATOM      7  C   UNL     1       2.989  -0.819  -1.217  1.00  0.00     0.039 A 
ATOM      8  C   UNL     1       4.097  -1.594  -0.866  1.00  0.00     0.014 A 
ATOM      9  C   UNL     1       2.516  -0.800  -2.531  1.00  0.00     0.014 A 
ATOM     10  C   UNL     1       4.793  -2.283  -1.852  1.00  0.00     0.010 A 
ATOM     11  C   UNL     1       3.180  -1.542  -3.509  1.00  0.00     0.010 A 
ATOM     12  C   UNL     1       4.327  -2.279  -3.176  1.00  0.00    -0.014 A 
BRANCH  12  13
ATOM     13  C   UNL     1       4.983  -3.144  -4.183  1.00  0.00     0.031 A 
ATOM     14  C   UNL     1       5.743  -2.559  -5.336  1.00  0.00     0.074 A 
ATOM     15  C   UNL     1       4.855  -4.478  -4.048  1.00  0.00     0.049 A 
ATOM     16  N   UNL     1       6.325  -3.176  -6.332  1.00  0.00    -0.248 NA
ATOM     17  C   UNL     1       5.860  -1.094  -5.386  1.00  0.00     0.031 C 
ATOM     18  C   UNL     1       4.118  -5.145  -2.971  1.00  0.00     0.029 A 
ATOM     19  N   UNL     1       5.326  -5.509  -4.817  1.00  0.00    -0.354 N 
ATOM     20  C   UNL     1       6.857  -2.180  -7.138  1.00  0.00     0.074 A 
ATOM     21  C   UNL     1       6.523  -0.913  -6.522  1.00  0.00     0.031 C 
ATOM     22  C   UNL     1       4.195  -6.472  -3.142  1.00  0.00     0.029 A 
ATOM     23  C   UNL     1       4.933  -6.746  -4.369  1.00  0.00     0.049 A 
ATOM     24  H   UNL     1       5.892  -5.377  -5.612  1.00  0.00     0.167 HD
ATOM     25  C   UNL     1       7.560  -2.321  -8.287  1.00  0.00     0.037 A 
ATOM     26  C   UNL     1       5.112  -7.965  -4.908  1.00  0.00     0.037 A 
ATOM     27  C   UNL     1       7.910  -3.591  -8.870  1.00  0.00     0.049 A 
ATOM     28  C   UNL     1       5.871  -8.083  -6.196  1.00  0.00     0.074 A 
ATOM     29  C   UNL     1       8.707  -3.842  -9.973  1.00  0.00     0.029 A 
ATOM     30  N   UNL     1       7.474  -4.822  -8.403  1.00  0.00    -0.354 N 
ATOM     31  N   UNL     1       6.431  -7.138  -6.912  1.00  0.00    -0.248 NA
ATOM     32  C   UNL     1       6.016  -9.431  -6.759  1.00  0.00     0.031 C 
ATOM     33  C   UNL     1       8.709  -5.221 -10.207  1.00  0.00     0.029 A 
ATOM     34  C   UNL     1       7.948  -5.833  -9.224  1.00  0.00     0.049 A 
ATOM     35  H   UNL     1       6.912  -4.958  -7.606  1.00  0.00     0.167 HD
ATOM     36  C   UNL     1       6.994  -7.774  -8.007  1.00  0.00     0.074 A 
ATOM     37  C   UNL     1       6.733  -9.190  -7.848  1.00  0.00     0.031 C 
ATOM     38  C   UNL     1       7.660  -7.234  -9.055  1.00  0.00     0.037 A 
BRANCH  25  39
ATOM     39  C   UNL     1       7.994  -1.083  -9.012  1.00  0.00     0.064 A 
ATOM     40  C   UNL     1       9.063  -0.298  -8.559  1.00  0.00     0.173 A 
ATOM     41  C   UNL     1       7.392  -0.734 -10.231  1.00  0.00     0.173 A 
ATOM     42  F   UNL     1       9.668  -0.587  -7.397  1.00  0.00    -0.203 F 
ATOM     43  C   UNL     1       9.512   0.794  -9.299  1.00  0.00     0.198 A 
ATOM     44  C   UNL     1       7.855   0.346 -10.977  1.00  0.00     0.198 A 
ATOM     45  F   UNL     1       6.368  -1.457 -10.710  1.00  0.00    -0.203 F 
ATOM     46  F   UNL     1      10.526   1.541  -8.840  1.00  0.00    -0.200 F 
ATOM     47  C   UNL     1       8.914   1.110 -10.510  1.00  0.00     0.200 A 
ATOM     48  F   UNL     1       7.284   0.642 -12.153  1.00  0.00    -0.200 F 
ATOM     49  F   UNL     1       9.360   2.150 -11.229  1.00  0.00    -0.200 F 
ENDBRANCH  25  39
BRANCH  26  50
ATOM     50  C   UNL     1       4.521  -9.156  -4.247  1.00  0.00     0.064 A 
ATOM     51  C   UNL     1       5.330 -10.124  -3.640  1.00  0.00     0.173 A 
ATOM     52  C   UNL     1       3.130  -9.341  -4.199  1.00  0.00     0.173 A 
ATOM     53  F   UNL     1       6.665  -9.999  -3.677  1.00  0.00    -0.203 F 
ATOM     54  C   UNL     1       4.771 -11.240  -3.021  1.00  0.00     0.198 A 
ATOM     55  C   UNL     1       2.572 -10.441  -3.555  1.00  0.00     0.198 A 
ATOM     56  F   UNL     1       2.313  -8.438  -4.762  1.00  0.00    -0.203 F 
ATOM     57  F   UNL     1       5.568 -12.172  -2.482  1.00  0.00    -0.200 F 
ATOM     58  C   UNL     1       3.393 -11.394  -2.973  1.00  0.00     0.200 A 
ATOM     59  F   UNL     1       1.240 -10.576  -3.496  1.00  0.00    -0.200 F 
ATOM     60  F   UNL     1       2.857 -12.464  -2.371  1.00  0.00    -0.200 F 
ENDBRANCH  26  50
BRANCH  38  61
ATOM     61  C   UNL     1       8.143  -8.180 -10.111  1.00  0.00     0.064 A 
ATOM     62  C   UNL     1       7.253  -8.758 -11.028  1.00  0.00     0.173 A 
ATOM     63  C   UNL     1       9.507  -8.484 -10.230  1.00  0.00     0.173 A 
ATOM     64  F   UNL     1       5.938  -8.511 -10.939  1.00  0.00    -0.203 F 
ATOM     65  C   UNL     1       7.711  -9.622 -12.018  1.00  0.00     0.198 A 
ATOM     66  C   UNL     1       9.963  -9.329 -11.237  1.00  0.00     0.198 A 
ATOM     67  F   UNL     1      10.396  -7.953  -9.378  1.00  0.00    -0.203 F 
ATOM     68  F   UNL     1       6.839 -10.196 -12.858  1.00  0.00    -0.200 F 
ATOM     69  C   UNL     1       9.065  -9.901 -12.126  1.00  0.00     0.200 A 
ATOM     70  F   UNL     1      11.273  -9.590 -11.347  1.00  0.00    -0.200 F 
ATOM     71  F   UNL     1       9.505 -10.729 -13.084  1.00  0.00    -0.200 F 
ENDBRANCH  38  61
ENDBRANCH  12  13
ENDBRANCH   5   7
ENDBRANCH   2   3
ENDBRANCH   1   2
BRANCH   1  72
ATOM     72  C   UNL     1       4.493   2.906   2.312  1.00  0.00     0.023 C 
BRANCH  72  73
ATOM     73  C   UNL     1       5.102   1.952   3.335  1.00  0.00     0.116 C 
BRANCH  73  74
ATOM     74  N   UNL     1       6.473   2.296   3.647  1.00  0.00    -0.351 N 
ATOM     75  C   UNL     1       7.068   3.057   4.603  1.00  0.00     0.280 C 
ATOM     76  H   UNL     1       7.120   1.887   3.028  1.00  0.00     0.163 HD
ATOM     77  O   UNL     1       8.306   3.088   4.543  1.00  0.00    -0.268 OA
BRANCH  75  78
ATOM     78  C   UNL     1       6.332   3.893   5.674  1.00  0.00     0.292 C 
ATOM     79  C   UNL     1       5.008   3.327   6.194  1.00  0.00     0.197 C 
ATOM     80  N   UNL     1       6.183   5.312   5.218  1.00  0.00    -0.333 N 
ATOM     81  N   UNL     1       4.466   4.162   7.262  1.00  0.00    -0.312 N 
ATOM     82  C   UNL     1       5.659   6.114   6.350  1.00  0.00     0.283 C 
ATOM     83  H   UNL     1       5.532   5.356   4.434  1.00  0.00     0.347 HD
ATOM     84  H   UNL     1       7.085   5.680   4.916  1.00  0.00     0.347 HD
ATOM     85  C   UNL     1       4.335   5.583   6.967  1.00  0.00     0.183 C 
BRANCH  81  86
ATOM     86  C   UNL     1       3.791   3.560   8.257  1.00  0.00     0.324 A 
ATOM     87  N   UNL     1       4.117   2.468   8.900  1.00  0.00    -0.171 NA
ATOM     88  O   UNL     1       2.598   4.087   8.668  1.00  0.00    -0.315 OA
ATOM     89  C   UNL     1       3.103   2.347   9.815  1.00  0.00     0.204 A 
ATOM     90  N   UNL     1       2.123   3.252   9.686  1.00  0.00    -0.055 NA
BRANCH  89  91
ATOM     91  C   UNL     1       3.198   1.419  10.922  1.00  0.00     0.023 A 
ATOM     92  C   UNL     1       2.369   0.298  11.013  1.00  0.00     0.012 A 
ATOM     93  C   UNL     1       4.147   1.666  11.925  1.00  0.00     0.012 A 
ATOM     94  C   UNL     1       2.488  -0.566  12.106  1.00  0.00     0.001 A 
ATOM     95  C   UNL     1       4.254   0.809  13.020  1.00  0.00     0.001 A 
ATOM     96  C   UNL     1       3.424  -0.306  13.109  1.00  0.00     0.000 A 
ENDBRANCH  89  91
ENDBRANCH  81  86
ENDBRANCH  75  78
ENDBRANCH  73  74
ENDBRANCH  72  73
ENDBRANCH   1  72
TORSDOF 13
