REMARK SMILES CC(C)C[C@H](C(=O)NCCCCNC(=O)c1ccc(-c2c3nc(c(-c4c(F)c(F)c(F)c(F)c4F)c4ccc([nH]4)c(-c4c(F)c(F)c(F)c(F)c4F)c4nc(c(-c5c(F)c(F)c(F)c(F)c5F)c5ccc2[nH]5)C=C4)C=C3)cc1)[C@@H]1CCO[C@]2(CCOC2)C1
REMARK SMILES IDX 10 1 9 2 8 3 6 4 7 5 5 7 4 8 2 9 1 10 3 11 79 12 80 13 88 14
REMARK SMILES IDX 81 15 83 16 82 17 84 18 87 19 85 20 86 21 11 22 12 23 13 24
REMARK SMILES IDX 14 25 15 27 16 28 17 29 78 30 18 31 77 32 19 33 20 34 21 35
REMARK SMILES IDX 71 36 22 37 76 38 70 39 72 40 23 41 75 42 69 43 68 44 24 46
REMARK SMILES IDX 56 47 36 48 55 49 37 50 40 51 54 52 73 53 38 54 39 55 53 57
REMARK SMILES IDX 74 58 41 59 25 60 26 61 34 62 27 63 28 64 32 65 35 66 29 67
REMARK SMILES IDX 30 68 33 69 31 70 57 71 58 72 66 73 59 74 60 75 64 76 67 77
REMARK SMILES IDX 61 78 62 79 65 80 63 81 42 82 43 83 51 84 44 85 45 86 49 87
REMARK SMILES IDX 52 88 46 89 47 90 50 91 48 92
REMARK H PARENT 8 6 13 26 72 45 40 56
REMARK Flexibility Score: inf
ROOT
ATOM      1  C   UNL     1      -1.566   2.484   1.183  1.00  0.00     0.023 C 
ENDROOT
BRANCH   1   2
ATOM      2  C   UNL     1      -0.616   1.764   0.216  1.00  0.00     0.116 C 
BRANCH   2   3
ATOM      3  N   UNL     1      -0.231   0.423   0.623  1.00  0.00    -0.356 N 
ATOM      4  C   UNL     1      -0.473  -0.839   0.170  1.00  0.00     0.223 C 
ATOM      5  O   UNL     1       0.237  -1.701   0.706  1.00  0.00    -0.275 OA
ATOM      6  H   UNL     1       0.345   0.427   1.421  1.00  0.00     0.163 HD
BRANCH   4   7
ATOM      7  C   UNL     1      -1.495  -1.236  -0.929  1.00  0.00     0.082 C 
BRANCH   7   8
ATOM      8  C   UNL     1      -0.956  -2.561  -1.609  1.00  0.00     0.016 C 
BRANCH   8   9
ATOM      9  C   UNL     1      -1.176  -3.921  -0.873  1.00  0.00    -0.017 C 
ATOM     10  C   UNL     1      -2.527  -4.596  -1.159  1.00  0.00     0.007 C 
ATOM     11  C   UNL     1      -0.089  -4.917  -1.304  1.00  0.00     0.007 C 
ENDBRANCH   8   9
ENDBRANCH   7   8
BRANCH   7  12
ATOM     12  C   UNL     1      -3.039  -1.399  -0.689  1.00  0.00     0.007 C 
ATOM     13  C   UNL     1      -3.898  -0.255  -1.199  1.00  0.00     0.033 C 
ATOM     14  C   UNL     1      -3.621  -1.851   0.662  1.00  0.00     0.042 C 
ATOM     15  C   UNL     1      -4.091   0.843  -0.194  1.00  0.00     0.161 C 
ATOM     16  C   UNL     1      -3.709  -0.747   1.714  1.00  0.00     0.094 C 
ATOM     17  O   UNL     1      -4.154   0.504   1.185  1.00  0.00    -0.372 OA
ATOM     18  C   UNL     1      -2.404  -0.731   2.511  1.00  0.00     0.066 C 
ATOM     19  C   UNL     1      -4.688  -1.052   2.863  1.00  0.00     0.195 C 
ATOM     20  C   UNL     1      -2.676  -1.310   3.881  1.00  0.00     0.163 C 
ATOM     21  O   UNL     1      -3.995  -1.841   3.831  1.00  0.00    -0.378 OA
ENDBRANCH   7  12
ENDBRANCH   4   7
ENDBRANCH   2   3
ENDBRANCH   1   2
BRANCH   1  22
ATOM     22  C   UNL     1      -1.159   2.720   2.629  1.00  0.00     0.023 C 
BRANCH  22  23
ATOM     23  C   UNL     1      -0.097   3.765   2.834  1.00  0.00     0.116 C 
BRANCH  23  24
ATOM     24  N   UNL     1      -0.506   5.072   2.345  1.00  0.00    -0.352 N 
ATOM     25  C   UNL     1      -0.784   6.230   3.033  1.00  0.00     0.251 C 
ATOM     26  H   UNL     1      -0.600   5.139   1.367  1.00  0.00     0.163 HD
ATOM     27  O   UNL     1      -1.330   7.165   2.462  1.00  0.00    -0.269 OA
BRANCH  25  28
ATOM     28  C   UNL     1      -0.446   6.332   4.470  1.00  0.00     0.039 A 
ATOM     29  C   UNL     1      -1.321   6.993   5.334  1.00  0.00     0.014 A 
ATOM     30  C   UNL     1       0.724   5.757   4.968  1.00  0.00     0.014 A 
ATOM     31  C   UNL     1      -1.062   6.997   6.706  1.00  0.00     0.010 A 
ATOM     32  C   UNL     1       0.910   5.644   6.337  1.00  0.00     0.010 A 
ATOM     33  C   UNL     1       0.026   6.275   7.222  1.00  0.00    -0.014 A 
BRANCH  33  34
ATOM     34  C   UNL     1       0.272   6.167   8.681  1.00  0.00     0.031 A 
ATOM     35  C   UNL     1       1.574   6.655   9.258  1.00  0.00     0.074 A 
ATOM     36  C   UNL     1      -0.636   5.551   9.464  1.00  0.00     0.049 A 
ATOM     37  N   UNL     1       2.024   6.559  10.483  1.00  0.00    -0.248 NA
ATOM     38  C   UNL     1       2.514   7.306   8.328  1.00  0.00     0.031 C 
ATOM     39  C   UNL     1      -1.902   4.976   9.004  1.00  0.00     0.029 A 
ATOM     40  N   UNL     1      -0.627   5.290  10.812  1.00  0.00    -0.354 N 
ATOM     41  C   UNL     1       3.297   7.114  10.461  1.00  0.00     0.074 A 
ATOM     42  C   UNL     1       3.577   7.490   9.095  1.00  0.00     0.031 C 
ATOM     43  C   UNL     1      -2.559   4.457  10.053  1.00  0.00     0.029 A 
ATOM     44  C   UNL     1      -1.741   4.615  11.250  1.00  0.00     0.049 A 
ATOM     45  H   UNL     1       0.107   5.562  11.408  1.00  0.00     0.167 HD
ATOM     46  C   UNL     1       4.144   7.315  11.497  1.00  0.00     0.037 A 
ATOM     47  C   UNL     1      -2.056   4.160  12.478  1.00  0.00     0.037 A 
ATOM     48  C   UNL     1       3.838   6.977  12.861  1.00  0.00     0.049 A 
ATOM     49  C   UNL     1      -1.092   4.402  13.609  1.00  0.00     0.074 A 
ATOM     50  C   UNL     1       4.587   7.223  13.997  1.00  0.00     0.029 A 
ATOM     51  N   UNL     1       2.689   6.317  13.270  1.00  0.00    -0.354 N 
ATOM     52  N   UNL     1       0.067   5.015  13.593  1.00  0.00    -0.248 NA
ATOM     53  C   UNL     1      -1.480   3.890  14.931  1.00  0.00     0.031 C 
ATOM     54  C   UNL     1       3.920   6.659  15.087  1.00  0.00     0.029 A 
ATOM     55  C   UNL     1       2.727   6.114  14.639  1.00  0.00     0.049 A 
ATOM     56  H   UNL     1       1.956   6.036  12.676  1.00  0.00     0.167 HD
ATOM     57  C   UNL     1       0.535   4.981  14.899  1.00  0.00     0.074 A 
ATOM     58  C   UNL     1      -0.479   4.314  15.688  1.00  0.00     0.031 C 
ATOM     59  C   UNL     1       1.703   5.450  15.403  1.00  0.00     0.037 A 
BRANCH  46  60
ATOM     60  C   UNL     1       5.478   7.941  11.208  1.00  0.00     0.064 A 
ATOM     61  C   UNL     1       5.595   9.289  10.838  1.00  0.00     0.173 A 
ATOM     62  C   UNL     1       6.659   7.202  11.376  1.00  0.00     0.173 A 
ATOM     63  F   UNL     1       4.497  10.037  10.651  1.00  0.00    -0.203 F 
ATOM     64  C   UNL     1       6.844   9.870  10.633  1.00  0.00     0.198 A 
ATOM     65  C   UNL     1       7.906   7.794  11.200  1.00  0.00     0.198 A 
ATOM     66  F   UNL     1       6.603   5.909  11.730  1.00  0.00    -0.203 F 
ATOM     67  F   UNL     1       6.930  11.150  10.245  1.00  0.00    -0.200 F 
ATOM     68  C   UNL     1       7.998   9.126  10.825  1.00  0.00     0.200 A 
ATOM     69  F   UNL     1       9.021   7.077  11.399  1.00  0.00    -0.200 F 
ATOM     70  F   UNL     1       9.199   9.693  10.648  1.00  0.00    -0.200 F 
ENDBRANCH  46  60
BRANCH  47  71
ATOM     71  C   UNL     1      -3.332   3.429  12.708  1.00  0.00     0.064 A 
ATOM     72  C   UNL     1      -4.338   3.969  13.523  1.00  0.00     0.173 A 
ATOM     73  C   UNL     1      -3.558   2.161  12.151  1.00  0.00     0.173 A 
ATOM     74  F   UNL     1      -4.163   5.169  14.095  1.00  0.00    -0.203 F 
ATOM     75  C   UNL     1      -5.502   3.254  13.801  1.00  0.00     0.198 A 
ATOM     76  C   UNL     1      -4.738   1.463  12.402  1.00  0.00     0.198 A 
ATOM     77  F   UNL     1      -2.632   1.600  11.360  1.00  0.00    -0.203 F 
ATOM     78  F   UNL     1      -6.415   3.767  14.637  1.00  0.00    -0.200 F 
ATOM     79  C   UNL     1      -5.702   2.003  13.238  1.00  0.00     0.200 A 
ATOM     80  F   UNL     1      -4.934   0.262  11.841  1.00  0.00    -0.200 F 
ATOM     81  F   UNL     1      -6.819   1.315  13.511  1.00  0.00    -0.200 F 
ENDBRANCH  47  71
BRANCH  59  82
ATOM     82  C   UNL     1       1.935   5.275  16.875  1.00  0.00     0.064 A 
ATOM     83  C   UNL     1       2.187   4.012  17.432  1.00  0.00     0.173 A 
ATOM     84  C   UNL     1       1.949   6.386  17.731  1.00  0.00     0.173 A 
ATOM     85  F   UNL     1       2.169   2.917  16.657  1.00  0.00    -0.203 F 
ATOM     86  C   UNL     1       2.416   3.866  18.797  1.00  0.00     0.198 A 
ATOM     87  C   UNL     1       2.215   6.241  19.089  1.00  0.00     0.198 A 
ATOM     88  F   UNL     1       1.724   7.617  17.246  1.00  0.00    -0.203 F 
ATOM     89  F   UNL     1       2.602   2.644  19.315  1.00  0.00    -0.200 F 
ATOM     90  C   UNL     1       2.439   4.981  19.622  1.00  0.00     0.200 A 
ATOM     91  F   UNL     1       2.254   7.321  19.881  1.00  0.00    -0.200 F 
ATOM     92  F   UNL     1       2.671   4.839  20.934  1.00  0.00    -0.200 F 
ENDBRANCH  59  82
ENDBRANCH  33  34
ENDBRANCH  25  28
ENDBRANCH  23  24
ENDBRANCH  22  23
ENDBRANCH   1  22
TORSDOF 14
