REMARK SMILES O=C(NCCCCNC(=O)[C@@H]1[C@@H](C(=O)N2CC[NH+](C/C=C/c3ccccc3)CC2)[C@@H]2C=C[C@H]1C2)c1ccc(-c2c3nc(c(-c4c(F)c(F)c(F)c(F)c4F)c4ccc([nH]4)c(-c4c(F)c(F)c(F)c(F)c4F)c4nc(c(-c5c(F)c(F)c(F)c(F)c5F)c5ccc2[nH]5)C=C4)C=C3)cc1
REMARK SMILES IDX 6 1 5 2 4 3 3 4 1 5 2 6 35 8 36 9 97 10 37 11 96 12 38 13
REMARK SMILES IDX 39 14 40 15 90 16 41 17 95 18 89 19 91 20 42 21 94 22 88 23
REMARK SMILES IDX 87 24 43 26 75 27 55 28 74 29 56 30 59 31 73 32 92 33 57 34
REMARK SMILES IDX 58 35 72 37 93 38 60 39 44 40 45 41 53 42 46 43 47 44 51 45
REMARK SMILES IDX 54 46 48 47 49 48 52 49 50 50 76 51 77 52 85 53 78 54 79 55
REMARK SMILES IDX 83 56 86 57 80 58 81 59 84 60 82 61 61 62 62 63 70 64 63 65
REMARK SMILES IDX 64 66 68 67 71 68 65 69 66 70 69 71 67 72 7 73 8 74 9 75
REMARK SMILES IDX 10 77 11 78 12 79 33 80 30 81 32 82 34 83 31 84 13 85 14 86
REMARK SMILES IDX 15 87 16 88 29 89 17 90 28 91 18 92 19 94 20 95 21 96 22 97
REMARK SMILES IDX 23 98 27 99 24 100 26 101 25 102
REMARK H PARENT 3 7 91 25 59 36 8 76 18 93
REMARK Flexibility Score: inf
ROOT
ATOM      1  C   UNL     1       4.465  -3.590   1.028  1.00  0.00     0.023 C 
ENDROOT
BRANCH   1   2
ATOM      2  C   UNL     1       4.940  -2.187   1.382  1.00  0.00     0.023 C 
BRANCH   2   3
ATOM      3  C   UNL     1       4.580  -1.117   0.359  1.00  0.00     0.116 C 
BRANCH   3   4
ATOM      4  N   UNL     1       3.151  -1.038   0.084  1.00  0.00    -0.352 N 
ATOM      5  O   UNL     1       1.131  -0.031  -0.073  1.00  0.00    -0.269 OA
ATOM      6  C   UNL     1       2.339   0.074   0.063  1.00  0.00     0.251 C 
ATOM      7  H   UNL     1       2.707  -1.894  -0.115  1.00  0.00     0.163 HD
BRANCH   6   8
ATOM      8  C   UNL     1       2.960   1.400   0.247  1.00  0.00     0.039 A 
ATOM      9  C   UNL     1       4.089   1.750  -0.495  1.00  0.00     0.014 A 
ATOM     10  C   UNL     1       2.447   2.264   1.217  1.00  0.00     0.014 A 
ATOM     11  C   UNL     1       4.804   2.887  -0.152  1.00  0.00     0.010 A 
ATOM     12  C   UNL     1       3.116   3.457   1.494  1.00  0.00     0.010 A 
ATOM     13  C   UNL     1       4.321   3.757   0.840  1.00  0.00    -0.014 A 
BRANCH  13  14
ATOM     14  C   UNL     1       5.074   5.000   1.136  1.00  0.00     0.031 A 
ATOM     15  C   UNL     1       5.711   5.225   2.477  1.00  0.00     0.074 A 
ATOM     16  C   UNL     1       5.203   5.916   0.158  1.00  0.00     0.049 A 
ATOM     17  N   UNL     1       6.416   6.248   2.892  1.00  0.00    -0.248 NA
ATOM     18  C   UNL     1       5.529   4.173   3.488  1.00  0.00     0.031 C 
ATOM     19  C   UNL     1       4.621   5.800  -1.181  1.00  0.00     0.029 A 
ATOM     20  N   UNL     1       5.878   7.107   0.127  1.00  0.00    -0.354 N 
ATOM     21  C   UNL     1       6.740   5.976   4.215  1.00  0.00     0.074 A 
ATOM     22  C   UNL     1       6.136   4.702   4.542  1.00  0.00     0.031 C 
ATOM     23  C   UNL     1       5.008   6.849  -1.919  1.00  0.00     0.029 A 
ATOM     24  C   UNL     1       5.807   7.742  -1.088  1.00  0.00     0.049 A 
ATOM     25  H   UNL     1       6.367   7.472   0.900  1.00  0.00     0.167 HD
ATOM     26  C   UNL     1       7.479   6.723   5.072  1.00  0.00     0.037 A 
ATOM     27  C   UNL     1       6.315   8.921  -1.485  1.00  0.00     0.037 A 
ATOM     28  C   UNL     1       8.091   7.982   4.729  1.00  0.00     0.049 A 
ATOM     29  C   UNL     1       7.108   9.737  -0.509  1.00  0.00     0.074 A 
ATOM     30  C   UNL     1       8.894   8.794   5.511  1.00  0.00     0.029 A 
ATOM     31  N   UNL     1       7.963   8.614   3.499  1.00  0.00    -0.354 N 
ATOM     32  N   UNL     1       7.432   9.457   0.730  1.00  0.00    -0.248 NA
ATOM     33  C   UNL     1       7.602  11.035  -0.984  1.00  0.00     0.031 C 
ATOM     34  C   UNL     1       9.211   9.940   4.772  1.00  0.00     0.029 A 
ATOM     35  C   UNL     1       8.650   9.819   3.511  1.00  0.00     0.049 A 
ATOM     36  H   UNL     1       7.460   8.259   2.732  1.00  0.00     0.167 HD
ATOM     37  C   UNL     1       8.179  10.534   1.181  1.00  0.00     0.074 A 
ATOM     38  C   UNL     1       8.276  11.465   0.073  1.00  0.00     0.031 C 
ATOM     39  C   UNL     1       8.732  10.735   2.401  1.00  0.00     0.037 A 
BRANCH  26  40
ATOM     40  C   UNL     1       7.645   6.211   6.474  1.00  0.00     0.064 A 
ATOM     41  C   UNL     1       8.441   5.093   6.766  1.00  0.00     0.173 A 
ATOM     42  C   UNL     1       7.022   6.869   7.547  1.00  0.00     0.173 A 
ATOM     43  F   UNL     1       9.050   4.421   5.778  1.00  0.00    -0.203 F 
ATOM     44  C   UNL     1       8.583   4.636   8.075  1.00  0.00     0.198 A 
ATOM     45  C   UNL     1       7.189   6.425   8.857  1.00  0.00     0.198 A 
ATOM     46  F   UNL     1       6.256   7.947   7.325  1.00  0.00    -0.203 F 
ATOM     47  F   UNL     1       9.309   3.537   8.324  1.00  0.00    -0.200 F 
ATOM     48  C   UNL     1       7.962   5.305   9.119  1.00  0.00     0.200 A 
ATOM     49  F   UNL     1       6.598   7.081   9.865  1.00  0.00    -0.200 F 
ATOM     50  F   UNL     1       8.101   4.865  10.377  1.00  0.00    -0.200 F 
ENDBRANCH  26  40
BRANCH  27  51
ATOM     51  C   UNL     1       6.085   9.381  -2.877  1.00  0.00     0.064 A 
ATOM     52  C   UNL     1       7.134   9.415  -3.804  1.00  0.00     0.173 A 
ATOM     53  C   UNL     1       4.806   9.751  -3.320  1.00  0.00     0.173 A 
ATOM     54  F   UNL     1       8.377   9.084  -3.422  1.00  0.00    -0.203 F 
ATOM     55  C   UNL     1       6.914   9.808  -5.122  1.00  0.00     0.198 A 
ATOM     56  C   UNL     1       4.582  10.116  -4.644  1.00  0.00     0.198 A 
ATOM     57  F   UNL     1       3.768   9.726  -2.470  1.00  0.00    -0.203 F 
ATOM     58  F   UNL     1       7.939   9.858  -5.984  1.00  0.00    -0.200 F 
ATOM     59  C   UNL     1       5.637  10.149  -5.543  1.00  0.00     0.200 A 
ATOM     60  F   UNL     1       3.344  10.425  -5.051  1.00  0.00    -0.200 F 
ATOM     61  F   UNL     1       5.423  10.510  -6.816  1.00  0.00    -0.200 F 
ENDBRANCH  27  51
BRANCH  39  62
ATOM     62  C   UNL     1       9.513  12.002   2.592  1.00  0.00     0.064 A 
ATOM     63  C   UNL     1       8.878  13.248   2.691  1.00  0.00     0.173 A 
ATOM     64  C   UNL     1      10.911  11.964   2.696  1.00  0.00     0.173 A 
ATOM     65  F   UNL     1       7.544  13.337   2.579  1.00  0.00    -0.203 F 
ATOM     66  C   UNL     1       9.617  14.415   2.862  1.00  0.00     0.198 A 
ATOM     67  C   UNL     1      11.645  13.130   2.895  1.00  0.00     0.198 A 
ATOM     68  F   UNL     1      11.565  10.796   2.610  1.00  0.00    -0.203 F 
ATOM     69  F   UNL     1       8.994  15.601   2.904  1.00  0.00    -0.200 F 
ATOM     70  C   UNL     1      10.999  14.355   2.970  1.00  0.00     0.200 A 
ATOM     71  F   UNL     1      12.979  13.069   3.009  1.00  0.00    -0.200 F 
ATOM     72  F   UNL     1      11.709  15.479   3.136  1.00  0.00    -0.200 F 
ENDBRANCH  39  62
ENDBRANCH  13  14
ENDBRANCH   6   8
ENDBRANCH   3   4
ENDBRANCH   2   3
ENDBRANCH   1   2
BRANCH   1  73
ATOM     73  C   UNL     1       4.901  -4.063  -0.352  1.00  0.00     0.116 C 
BRANCH  73  74
ATOM     74  N   UNL     1       6.305  -4.431  -0.390  1.00  0.00    -0.356 N 
ATOM     75  C   UNL     1       6.856  -5.588  -0.880  1.00  0.00     0.224 C 
ATOM     76  H   UNL     1       6.937  -3.772  -0.021  1.00  0.00     0.163 HD
ATOM     77  O   UNL     1       8.071  -5.753  -0.817  1.00  0.00    -0.275 OA
BRANCH  75  78
ATOM     78  C   UNL     1       5.903  -6.587  -1.496  1.00  0.00     0.098 C 
ATOM     79  C   UNL     1       6.455  -8.036  -1.721  1.00  0.00     0.098 C 
ATOM     80  C   UNL     1       5.420  -6.157  -2.902  1.00  0.00     0.025 C 
ATOM     81  C   UNL     1       6.073  -8.267  -3.212  1.00  0.00     0.025 C 
ATOM     82  C   UNL     1       6.584  -6.125  -3.863  1.00  0.00    -0.027 C 
ATOM     83  C   UNL     1       4.773  -7.463  -3.359  1.00  0.00     0.017 C 
ATOM     84  C   UNL     1       6.976  -7.393  -4.051  1.00  0.00    -0.027 C 
BRANCH  79  85
ATOM     85  C   UNL     1       5.731  -8.908  -0.699  1.00  0.00     0.227 C 
ATOM     86  O   UNL     1       5.649  -8.578   0.485  1.00  0.00    -0.275 OA
ATOM     87  N   UNL     1       5.043  -9.992  -1.194  1.00  0.00    -0.331 N 
ATOM     88  C   UNL     1       3.728 -10.268  -0.630  1.00  0.00     0.181 C 
ATOM     89  C   UNL     1       5.779 -11.151  -1.686  1.00  0.00     0.181 C 
ATOM     90  C   UNL     1       2.887 -11.165  -1.553  1.00  0.00     0.284 C 
ATOM     91  C   UNL     1       4.908 -12.056  -2.578  1.00  0.00     0.284 C 
ATOM     92  N   UNL     1       3.565 -12.371  -2.062  1.00  0.00    -0.329 N 
ATOM     93  H   UNL     1       3.032 -12.693  -2.870  1.00  0.00     0.348 HD
BRANCH  92  94
ATOM     94  C   UNL     1       3.486 -13.530  -1.168  1.00  0.00     0.291 C 
BRANCH  94  95
ATOM     95  C   UNL     1       4.219 -13.409   0.133  1.00  0.00     0.034 C 
ATOM     96  C   UNL     1       3.623 -13.234   1.323  1.00  0.00     0.009 C 
BRANCH  96  97
ATOM     97  C   UNL     1       4.362 -12.906   2.549  1.00  0.00    -0.026 A 
ATOM     98  C   UNL     1       4.000 -13.503   3.760  1.00  0.00     0.008 A 
ATOM     99  C   UNL     1       5.343 -11.902   2.557  1.00  0.00     0.008 A 
ATOM    100  C   UNL     1       4.614 -13.109   4.953  1.00  0.00     0.001 A 
ATOM    101  C   UNL     1       5.946 -11.499   3.749  1.00  0.00     0.001 A 
ATOM    102  C   UNL     1       5.580 -12.103   4.948  1.00  0.00     0.000 A 
ENDBRANCH  96  97
ENDBRANCH  94  95
ENDBRANCH  92  94
ENDBRANCH  79  85
ENDBRANCH  75  78
ENDBRANCH  73  74
ENDBRANCH   1  73
TORSDOF 15
