REMARK SMILES COc1cc(C(=O)NCCCCNC(=O)c2ccc(-c3c4nc(c(-c5c(F)c(F)c(F)c(F)c5F)c5ccc([nH]5)c(-c5c(F)c(F)c(F)c(F)c5F)c5nc(c(-c6c(F)c(F)c(F)c(F)c6F)c6ccc3[nH]6)C=C5)C=C4)cc2)c([N+](=O)[O-])cc1O[C@H](C)[C@@H](C)O
REMARK SMILES IDX 9 1 8 2 6 3 7 4 5 6 3 7 4 8 84 9 83 10 79 11 2 12 1 13 85 14
REMARK SMILES IDX 86 15 87 16 88 17 89 18 90 19 80 21 81 22 82 23 10 24 11 25
REMARK SMILES IDX 12 26 13 27 14 28 15 30 16 31 17 32 78 33 18 34 77 35 19 36
REMARK SMILES IDX 20 37 21 38 71 39 22 40 76 41 70 42 72 43 23 44 75 45 69 46
REMARK SMILES IDX 68 47 24 49 56 50 36 51 55 52 37 53 40 54 54 55 73 56 38 57
REMARK SMILES IDX 39 58 53 60 74 61 41 62 25 63 26 64 34 65 27 66 28 67 32 68
REMARK SMILES IDX 35 69 29 70 30 71 33 72 31 73 57 74 58 75 66 76 59 77 60 78
REMARK SMILES IDX 64 79 67 80 61 81 62 82 65 83 63 84 42 85 43 86 51 87 44 88
REMARK SMILES IDX 45 89 49 90 52 91 46 92 47 93 50 94 48 95
REMARK H PARENT 8 5 90 20 13 29 72 48 40 59
REMARK Flexibility Score: inf
ROOT
ATOM      1  C   UNL     1      -0.671   5.869   0.631  1.00  0.00     0.116 C 
ENDROOT
BRANCH   1   2
ATOM      2  N   UNL     1      -1.344   5.576   1.886  1.00  0.00    -0.352 N 
ATOM      3  C   UNL     1      -1.199   4.499   2.735  1.00  0.00     0.258 C 
ATOM      4  O   UNL     1      -1.865   4.440   3.764  1.00  0.00    -0.269 OA
ATOM      5  H   UNL     1      -2.004   6.248   2.172  1.00  0.00     0.163 HD
BRANCH   3   6
ATOM      6  C   UNL     1      -0.317   3.362   2.378  1.00  0.00     0.121 A 
ATOM      7  C   UNL     1      -0.087   0.949   2.066  1.00  0.00     0.162 A 
ATOM      8  C   UNL     1      -0.833   2.066   2.492  1.00  0.00     0.071 A 
ATOM      9  C   UNL     1       1.149   1.123   1.410  1.00  0.00     0.168 A 
ATOM     10  C   UNL     1       1.674   2.409   1.351  1.00  0.00     0.136 A 
ATOM     11  C   UNL     1       0.984   3.492   1.914  1.00  0.00     0.286 A 
BRANCH   7  12
ATOM     12  O   UNL     1      -0.714  -0.245   2.323  1.00  0.00    -0.493 OA
ATOM     13  C   UNL     1       0.129  -1.361   2.593  1.00  0.00     0.278 C 
ENDBRANCH   7  12
BRANCH   9  14
ATOM     14  O   UNL     1       1.810   0.017   0.971  1.00  0.00    -0.484 OA
BRANCH  14  15
ATOM     15  C   UNL     1       2.796  -0.011  -0.083  1.00  0.00     0.198 C 
ATOM     16  C   UNL     1       4.046   0.830   0.167  1.00  0.00     0.056 C 
BRANCH  15  17
ATOM     17  C   UNL     1       2.158   0.136  -1.488  1.00  0.00     0.151 C 
ATOM     18  C   UNL     1       3.177   0.228  -2.621  1.00  0.00     0.042 C 
BRANCH  17  19
ATOM     19  O   UNL     1       1.317  -0.995  -1.758  1.00  0.00    -0.390 OA
ATOM     20  H   UNL     1       1.856  -1.802  -1.772  1.00  0.00     0.211 HD
ENDBRANCH  17  19
ENDBRANCH  15  17
ENDBRANCH  14  15
ENDBRANCH   9  14
BRANCH  11  21
ATOM     21  N   UNL     1       1.734   4.719   2.107  1.00  0.00     0.063 N 
ATOM     22  O   UNL     1       1.636   5.290   3.199  1.00  0.00    -0.258 OA
ATOM     23  O   UNL     1       2.444   5.096   1.163  1.00  0.00    -0.258 OA
ENDBRANCH  11  21
ENDBRANCH   3   6
ENDBRANCH   1   2
BRANCH   1  24
ATOM     24  C   UNL     1      -1.444   6.742  -0.346  1.00  0.00     0.023 C 
BRANCH  24  25
ATOM     25  C   UNL     1      -1.815   8.137   0.152  1.00  0.00     0.023 C 
BRANCH  25  26
ATOM     26  C   UNL     1      -0.725   8.917   0.885  1.00  0.00     0.116 C 
BRANCH  26  27
ATOM     27  N   UNL     1       0.447   9.213   0.072  1.00  0.00    -0.352 N 
ATOM     28  C   UNL     1       0.938  10.412  -0.398  1.00  0.00     0.251 C 
ATOM     29  H   UNL     1       0.978   8.424  -0.184  1.00  0.00     0.163 HD
ATOM     30  O   UNL     1       1.908  10.429  -1.143  1.00  0.00    -0.269 OA
BRANCH  28  31
ATOM     31  C   UNL     1       0.261  11.683  -0.052  1.00  0.00     0.039 A 
ATOM     32  C   UNL     1      -0.011  12.596  -1.074  1.00  0.00     0.014 A 
ATOM     33  C   UNL     1      -0.132  11.965   1.257  1.00  0.00     0.014 A 
ATOM     34  C   UNL     1      -0.787  13.726  -0.806  1.00  0.00     0.010 A 
ATOM     35  C   UNL     1      -0.981  13.040   1.505  1.00  0.00     0.010 A 
ATOM     36  C   UNL     1      -1.338  13.919   0.471  1.00  0.00    -0.014 A 
BRANCH  36  37
ATOM     37  C   UNL     1      -2.334  14.991   0.730  1.00  0.00     0.031 A 
ATOM     38  C   UNL     1      -2.052  16.074   1.731  1.00  0.00     0.074 A 
ATOM     39  C   UNL     1      -3.538  14.931   0.128  1.00  0.00     0.049 A 
ATOM     40  N   UNL     1      -2.832  17.041   2.147  1.00  0.00    -0.248 NA
ATOM     41  C   UNL     1      -0.730  16.051   2.373  1.00  0.00     0.031 C 
ATOM     42  C   UNL     1      -3.961  13.898  -0.819  1.00  0.00     0.029 A 
ATOM     43  N   UNL     1      -4.636  15.751   0.232  1.00  0.00    -0.354 N 
ATOM     44  C   UNL     1      -2.104  17.725   3.111  1.00  0.00     0.074 A 
ATOM     45  C   UNL     1      -0.841  17.033   3.255  1.00  0.00     0.031 C 
ATOM     46  C   UNL     1      -5.209  14.162  -1.233  1.00  0.00     0.029 A 
ATOM     47  C   UNL     1      -5.694  15.357  -0.549  1.00  0.00     0.049 A 
ATOM     48  H   UNL     1      -4.661  16.546   0.812  1.00  0.00     0.167 HD
ATOM     49  C   UNL     1      -2.450  18.841   3.797  1.00  0.00     0.037 A 
ATOM     50  C   UNL     1      -6.921  15.891  -0.694  1.00  0.00     0.037 A 
ATOM     51  C   UNL     1      -3.696  19.542   3.633  1.00  0.00     0.049 A 
ATOM     52  C   UNL     1      -7.286  17.122   0.089  1.00  0.00     0.074 A 
ATOM     53  C   UNL     1      -4.101  20.732   4.211  1.00  0.00     0.029 A 
ATOM     54  N   UNL     1      -4.747  19.109   2.836  1.00  0.00    -0.354 N 
ATOM     55  N   UNL     1      -6.558  17.809   0.933  1.00  0.00    -0.248 NA
ATOM     56  C   UNL     1      -8.645  17.646  -0.099  1.00  0.00     0.031 C 
ATOM     57  C   UNL     1      -5.414  20.993   3.805  1.00  0.00     0.029 A 
ATOM     58  C   UNL     1      -5.812  19.990   2.936  1.00  0.00     0.049 A 
ATOM     59  H   UNL     1      -4.737  18.296   2.281  1.00  0.00     0.167 HD
ATOM     60  C   UNL     1      -7.361  18.857   1.364  1.00  0.00     0.074 A 
ATOM     61  C   UNL     1      -8.627  18.723   0.674  1.00  0.00     0.031 C 
ATOM     62  C   UNL     1      -7.072  19.839   2.253  1.00  0.00     0.037 A 
BRANCH  49  63
ATOM     63  C   UNL     1      -1.459  19.370   4.794  1.00  0.00     0.064 A 
ATOM     64  C   UNL     1      -0.245  19.947   4.391  1.00  0.00     0.173 A 
ATOM     65  C   UNL     1      -1.733  19.313   6.169  1.00  0.00     0.173 A 
ATOM     66  F   UNL     1       0.070  20.018   3.089  1.00  0.00    -0.203 F 
ATOM     67  C   UNL     1       0.676  20.409   5.328  1.00  0.00     0.198 A 
ATOM     68  C   UNL     1      -0.824  19.804   7.102  1.00  0.00     0.198 A 
ATOM     69  F   UNL     1      -2.882  18.779   6.608  1.00  0.00    -0.203 F 
ATOM     70  F   UNL     1       1.854  20.901   4.921  1.00  0.00    -0.200 F 
ATOM     71  C   UNL     1       0.384  20.341   6.682  1.00  0.00     0.200 A 
ATOM     72  F   UNL     1      -1.113  19.750   8.410  1.00  0.00    -0.200 F 
ATOM     73  F   UNL     1       1.271  20.786   7.583  1.00  0.00    -0.200 F 
ENDBRANCH  49  63
BRANCH  50  74
ATOM     74  C   UNL     1      -7.883  15.280  -1.647  1.00  0.00     0.064 A 
ATOM     75  C   UNL     1      -8.200  15.924  -2.850  1.00  0.00     0.173 A 
ATOM     76  C   UNL     1      -8.484  14.039  -1.390  1.00  0.00     0.173 A 
ATOM     77  F   UNL     1      -7.667  17.123  -3.128  1.00  0.00    -0.203 F 
ATOM     78  C   UNL     1      -9.089  15.353  -3.759  1.00  0.00     0.198 A 
ATOM     79  C   UNL     1      -9.353  13.458  -2.310  1.00  0.00     0.198 A 
ATOM     80  F   UNL     1      -8.209  13.382  -0.254  1.00  0.00    -0.203 F 
ATOM     81  F   UNL     1      -9.399  16.005  -4.888  1.00  0.00    -0.200 F 
ATOM     82  C   UNL     1      -9.659  14.118  -3.492  1.00  0.00     0.200 A 
ATOM     83  F   UNL     1      -9.891  12.258  -2.056  1.00  0.00    -0.200 F 
ATOM     84  F   UNL     1     -10.504  13.564  -4.371  1.00  0.00    -0.200 F 
ENDBRANCH  50  74
BRANCH  62  85
ATOM     85  C   UNL     1      -8.145  20.853   2.524  1.00  0.00     0.064 A 
ATOM     86  C   UNL     1      -9.283  20.532   3.278  1.00  0.00     0.173 A 
ATOM     87  C   UNL     1      -8.016  22.170   2.056  1.00  0.00     0.173 A 
ATOM     88  F   UNL     1      -9.461  19.282   3.732  1.00  0.00    -0.203 F 
ATOM     89  C   UNL     1     -10.263  21.486   3.537  1.00  0.00     0.198 A 
ATOM     90  C   UNL     1      -8.984  23.129   2.340  1.00  0.00     0.198 A 
ATOM     91  F   UNL     1      -6.945  22.529   1.333  1.00  0.00    -0.203 F 
ATOM     92  F   UNL     1     -11.363  21.146   4.223  1.00  0.00    -0.200 F 
ATOM     93  C   UNL     1     -10.109  22.785   3.075  1.00  0.00     0.200 A 
ATOM     94  F   UNL     1      -8.829  24.386   1.903  1.00  0.00    -0.200 F 
ATOM     95  F   UNL     1     -11.050  23.704   3.331  1.00  0.00    -0.200 F 
ENDBRANCH  62  85
ENDBRANCH  36  37
ENDBRANCH  28  31
ENDBRANCH  26  27
ENDBRANCH  25  26
ENDBRANCH  24  25
ENDBRANCH   1  24
TORSDOF 17
