REMARK SMILES CC[C@@H]1CCCC[C@@]1(O)[C@H](F)C(=O)NCCCCNC(=O)c1ccc(-c2c3nc(c(-c4c(F)c(F)c(F)c(F)c4F)c4ccc([nH]4)c(-c4c(F)c(F)c(F)c(F)c4F)c4nc(c(-c5c(F)c(F)c(F)c(F)c5F)c5ccc2[nH]5)C=C4)C=C3)cc1
REMARK SMILES IDX 16 1 15 2 14 3 12 4 13 5 10 7 11 8 8 9 3 10 4 11 5 12 7 13
REMARK SMILES IDX 6 14 2 15 1 16 9 17 17 19 18 20 19 21 20 22 21 24 22 25
REMARK SMILES IDX 23 26 84 27 24 28 83 29 25 30 26 31 27 32 77 33 28 34 82 35
REMARK SMILES IDX 76 36 78 37 29 38 81 39 75 40 74 41 30 43 62 44 42 45 61 46
REMARK SMILES IDX 43 47 46 48 60 49 79 50 44 51 45 52 59 54 80 55 47 56 31 57
REMARK SMILES IDX 32 58 40 59 33 60 34 61 38 62 41 63 35 64 36 65 39 66 37 67
REMARK SMILES IDX 63 68 64 69 72 70 65 71 66 72 70 73 73 74 67 75 68 76 71 77
REMARK SMILES IDX 69 78 48 79 49 80 57 81 50 82 51 83 55 84 58 85 52 86 53 87
REMARK SMILES IDX 56 88 54 89
REMARK H PARENT 14 6 9 18 19 23 78 42 46 53
REMARK Flexibility Score: inf
ROOT
ATOM      1  C   UNL     1       0.348   0.174   0.556  1.00  0.00     0.023 C 
ENDROOT
BRANCH   1   2
ATOM      2  C   UNL     1       0.605  -0.931  -0.472  1.00  0.00     0.116 C 
BRANCH   2   3
ATOM      3  N   UNL     1       0.820  -0.453  -1.830  1.00  0.00    -0.353 N 
ATOM      4  C   UNL     1       1.031  -1.186  -2.975  1.00  0.00     0.257 C 
ATOM      5  O   UNL     1       1.212  -0.556  -4.021  1.00  0.00    -0.272 OA
ATOM      6  H   UNL     1       0.813   0.524  -1.944  1.00  0.00     0.163 HD
BRANCH   4   7
ATOM      7  C   UNL     1       1.046  -2.724  -2.961  1.00  0.00     0.287 C 
ATOM      8  F   UNL     1       1.432  -3.198  -1.728  1.00  0.00    -0.234 F 
BRANCH   7   9
ATOM      9  C   UNL     1      -0.228  -3.524  -3.407  1.00  0.00     0.108 C 
ATOM     10  C   UNL     1      -1.375  -3.461  -2.351  1.00  0.00     0.024 C 
ATOM     11  C   UNL     1      -2.094  -2.109  -2.437  1.00  0.00     0.007 C 
ATOM     12  C   UNL     1      -2.670  -1.800  -3.806  1.00  0.00     0.001 C 
ATOM     13  C   UNL     1      -0.765  -3.168  -4.814  1.00  0.00     0.039 C 
ATOM     14  C   UNL     1      -1.621  -1.907  -4.904  1.00  0.00     0.003 C 
BRANCH  10  15
ATOM     15  C   UNL     1      -2.377  -4.644  -2.434  1.00  0.00     0.003 C 
ATOM     16  C   UNL     1      -3.581  -4.495  -1.509  1.00  0.00     0.004 C 
ENDBRANCH  10  15
BRANCH   9  17
ATOM     17  O   UNL     1       0.237  -4.898  -3.504  1.00  0.00    -0.386 OA
ATOM     18  H   UNL     1      -0.498  -5.470  -3.779  1.00  0.00     0.211 HD
ENDBRANCH   9  17
ENDBRANCH   7   9
ENDBRANCH   4   7
ENDBRANCH   2   3
ENDBRANCH   1   2
BRANCH   1  19
ATOM     19  C   UNL     1      -0.859   1.101   0.354  1.00  0.00     0.023 C 
BRANCH  19  20
ATOM     20  C   UNL     1      -2.248   0.481   0.219  1.00  0.00     0.116 C 
BRANCH  20  21
ATOM     21  N   UNL     1      -2.652  -0.372   1.324  1.00  0.00    -0.352 N 
ATOM     22  C   UNL     1      -3.705  -0.256   2.203  1.00  0.00     0.251 C 
ATOM     23  H   UNL     1      -2.080  -1.161   1.468  1.00  0.00     0.163 HD
ATOM     24  O   UNL     1      -3.838  -1.076   3.109  1.00  0.00    -0.269 OA
BRANCH  22  25
ATOM     25  C   UNL     1      -4.659   0.873   2.107  1.00  0.00     0.039 A 
ATOM     26  C   UNL     1      -4.931   1.616   3.260  1.00  0.00     0.014 A 
ATOM     27  C   UNL     1      -5.289   1.202   0.905  1.00  0.00     0.014 A 
ATOM     28  C   UNL     1      -5.749   2.749   3.185  1.00  0.00     0.010 A 
ATOM     29  C   UNL     1      -6.053   2.369   0.818  1.00  0.00     0.010 A 
ATOM     30  C   UNL     1      -6.272   3.170   1.951  1.00  0.00    -0.014 A 
BRANCH  30  31
ATOM     31  C   UNL     1      -6.990   4.470   1.824  1.00  0.00     0.031 A 
ATOM     32  C   UNL     1      -8.433   4.521   1.404  1.00  0.00     0.074 A 
ATOM     33  C   UNL     1      -6.314   5.621   2.020  1.00  0.00     0.049 A 
ATOM     34  N   UNL     1      -9.194   5.564   1.178  1.00  0.00    -0.248 NA
ATOM     35  C   UNL     1      -9.104   3.232   1.185  1.00  0.00     0.031 C 
ATOM     36  C   UNL     1      -4.899   5.717   2.383  1.00  0.00     0.029 A 
ATOM     37  N   UNL     1      -6.720   6.931   1.929  1.00  0.00    -0.354 N 
ATOM     38  C   UNL     1     -10.425   5.058   0.782  1.00  0.00     0.074 A 
ATOM     39  C   UNL     1     -10.295   3.617   0.750  1.00  0.00     0.031 C 
ATOM     40  C   UNL     1      -4.561   7.010   2.504  1.00  0.00     0.029 A 
ATOM     41  C   UNL     1      -5.720   7.838   2.185  1.00  0.00     0.049 A 
ATOM     42  H   UNL     1      -7.641   7.194   1.702  1.00  0.00     0.167 HD
ATOM     43  C   UNL     1     -11.565   5.732   0.491  1.00  0.00     0.037 A 
ATOM     44  C   UNL     1      -5.727   9.185   2.154  1.00  0.00     0.037 A 
ATOM     45  C   UNL     1     -11.699   7.167   0.538  1.00  0.00     0.049 A 
ATOM     46  C   UNL     1      -7.002   9.909   1.811  1.00  0.00     0.074 A 
ATOM     47  C   UNL     1     -12.831   7.935   0.320  1.00  0.00     0.029 A 
ATOM     48  N   UNL     1     -10.666   8.051   0.814  1.00  0.00    -0.354 N 
ATOM     49  N   UNL     1      -8.179   9.416   1.513  1.00  0.00    -0.248 NA
ATOM     50  C   UNL     1      -6.950  11.378   1.808  1.00  0.00     0.031 C 
ATOM     51  C   UNL     1     -12.470   9.283   0.407  1.00  0.00     0.029 A 
ATOM     52  C   UNL     1     -11.128   9.357   0.743  1.00  0.00     0.049 A 
ATOM     53  H   UNL     1      -9.742   7.790   1.029  1.00  0.00     0.167 HD
ATOM     54  C   UNL     1      -9.013  10.510   1.318  1.00  0.00     0.074 A 
ATOM     55  C   UNL     1      -8.211  11.693   1.547  1.00  0.00     0.031 C 
ATOM     56  C   UNL     1     -10.325  10.530   0.980  1.00  0.00     0.037 A 
BRANCH  43  57
ATOM     57  C   UNL     1     -12.769   4.926   0.091  1.00  0.00     0.064 A 
ATOM     58  C   UNL     1     -13.448   4.110   1.009  1.00  0.00     0.173 A 
ATOM     59  C   UNL     1     -13.280   5.009  -1.214  1.00  0.00     0.173 A 
ATOM     60  F   UNL     1     -12.999   3.990   2.267  1.00  0.00    -0.203 F 
ATOM     61  C   UNL     1     -14.573   3.383   0.627  1.00  0.00     0.198 A 
ATOM     62  C   UNL     1     -14.425   4.307  -1.582  1.00  0.00     0.198 A 
ATOM     63  F   UNL     1     -12.678   5.782  -2.129  1.00  0.00    -0.203 F 
ATOM     64  F   UNL     1     -15.175   2.572   1.508  1.00  0.00    -0.200 F 
ATOM     65  C   UNL     1     -15.065   3.488  -0.665  1.00  0.00     0.200 A 
ATOM     66  F   UNL     1     -14.909   4.423  -2.827  1.00  0.00    -0.200 F 
ATOM     67  F   UNL     1     -16.154   2.795  -1.027  1.00  0.00    -0.200 F 
ENDBRANCH  43  57
BRANCH  44  68
ATOM     68  C   UNL     1      -4.487   9.945   2.470  1.00  0.00     0.064 A 
ATOM     69  C   UNL     1      -4.395  10.723   3.634  1.00  0.00     0.173 A 
ATOM     70  C   UNL     1      -3.377   9.921   1.613  1.00  0.00     0.173 A 
ATOM     71  F   UNL     1      -5.437  10.796   4.474  1.00  0.00    -0.203 F 
ATOM     72  C   UNL     1      -3.250  11.466   3.914  1.00  0.00     0.198 A 
ATOM     73  C   UNL     1      -2.221  10.640   1.911  1.00  0.00     0.198 A 
ATOM     74  F   UNL     1      -3.412   9.190   0.489  1.00  0.00    -0.203 F 
ATOM     75  F   UNL     1      -3.210  12.243   5.005  1.00  0.00    -0.200 F 
ATOM     76  C   UNL     1      -2.162  11.420   3.056  1.00  0.00     0.200 A 
ATOM     77  F   UNL     1      -1.166  10.579   1.087  1.00  0.00    -0.200 F 
ATOM     78  F   UNL     1      -1.061  12.132   3.328  1.00  0.00    -0.200 F 
ENDBRANCH  44  68
BRANCH  56  79
ATOM     79  C   UNL     1     -10.993  11.872   0.875  1.00  0.00     0.064 A 
ATOM     80  C   UNL     1     -10.702  12.765  -0.167  1.00  0.00     0.173 A 
ATOM     81  C   UNL     1     -11.966  12.254   1.812  1.00  0.00     0.173 A 
ATOM     82  F   UNL     1      -9.769  12.455  -1.081  1.00  0.00    -0.203 F 
ATOM     83  C   UNL     1     -11.340  14.000  -0.252  1.00  0.00     0.198 A 
ATOM     84  C   UNL     1     -12.626  13.476   1.705  1.00  0.00     0.198 A 
ATOM     85  F   UNL     1     -12.288  11.436   2.826  1.00  0.00    -0.203 F 
ATOM     86  F   UNL     1     -11.008  14.858  -1.226  1.00  0.00    -0.200 F 
ATOM     87  C   UNL     1     -12.306  14.351   0.679  1.00  0.00     0.200 A 
ATOM     88  F   UNL     1     -13.570  13.806   2.597  1.00  0.00    -0.200 F 
ATOM     89  F   UNL     1     -12.925  15.537   0.591  1.00  0.00    -0.200 F 
ENDBRANCH  56  79
ENDBRANCH  30  31
ENDBRANCH  22  25
ENDBRANCH  20  21
ENDBRANCH  19  20
ENDBRANCH   1  19
TORSDOF 14
