REMARK SMILES CC(C)[C@H](NC(=O)[C@H](C)NC(=O)C[NH3+])C(=O)NCCCCNC(=O)c1ccc(-c2c3nc(c(-c4c(F)c(F)c(F)c(F)c4F)c4ccc([nH]4)c(-c4c(F)c(F)c(F)c(F)c4F)c4nc(c(-c5c(F)c(F)c(F)c(F)c5F)c5ccc2[nH]5)C=C4)C=C3)cc1
REMARK SMILES IDX 18 1 17 2 15 3 16 4 4 6 2 7 1 8 3 9 5 10 6 11 7 13 8 14 9 15
REMARK SMILES IDX 10 16 11 17 12 19 13 20 14 21 19 25 20 26 21 27 22 28 23 29
REMARK SMILES IDX 24 31 25 32 26 33 87 34 27 35 86 36 28 37 29 38 30 39 80 40
REMARK SMILES IDX 31 41 85 42 79 43 81 44 32 45 84 46 78 47 77 48 33 50 65 51
REMARK SMILES IDX 45 52 64 53 46 54 49 55 63 56 82 57 47 58 48 59 62 61 83 62
REMARK SMILES IDX 50 63 34 64 35 65 43 66 36 67 37 68 41 69 44 70 38 71 39 72
REMARK SMILES IDX 42 73 40 74 66 75 67 76 75 77 68 78 69 79 73 80 76 81 70 82
REMARK SMILES IDX 71 83 74 84 72 85 51 86 52 87 60 88 53 89 54 90 58 91 61 92
REMARK SMILES IDX 55 93 56 94 59 95 57 96
REMARK H PARENT 17 5 5 12 10 18 14 22 14 23 14 24 22 30 81 49 49 60
REMARK Flexibility Score: inf
ROOT
ATOM      1  C   UNL     1      -0.325   3.147  -4.976  1.00  0.00     0.116 C 
ENDROOT
BRANCH   1   2
ATOM      2  N   UNL     1      -1.231   4.035  -4.260  1.00  0.00    -0.354 N 
ATOM      3  C   UNL     1      -1.219   4.424  -2.943  1.00  0.00     0.242 C 
ATOM      4  O   UNL     1      -1.865   5.427  -2.633  1.00  0.00    -0.273 OA
ATOM      5  H   UNL     1      -1.961   4.414  -4.801  1.00  0.00     0.163 HD
BRANCH   3   6
ATOM      6  C   UNL     1      -0.339   3.686  -1.907  1.00  0.00     0.173 C 
BRANCH   6   7
ATOM      7  C   UNL     1       1.168   4.104  -1.954  1.00  0.00     0.015 C 
ATOM      8  C   UNL     1       1.587   5.115  -3.033  1.00  0.00     0.010 C 
ATOM      9  C   UNL     1       1.571   4.763  -0.628  1.00  0.00     0.010 C 
ENDBRANCH   6   7
BRANCH   6  10
ATOM     10  N   UNL     1      -0.631   2.251  -2.096  1.00  0.00    -0.342 N 
ATOM     11  C   UNL     1      -0.429   1.143  -1.340  1.00  0.00     0.242 C 
ATOM     12  H   UNL     1      -1.068   2.056  -2.957  1.00  0.00     0.164 HD
ATOM     13  O   UNL     1      -1.018   0.115  -1.692  1.00  0.00    -0.273 OA
BRANCH  11  14
ATOM     14  C   UNL     1       0.388   1.197  -0.049  1.00  0.00     0.168 C 
ATOM     15  C   UNL     1       1.233  -0.074   0.048  1.00  0.00     0.041 C 
BRANCH  14  16
ATOM     16  N   UNL     1      -0.562   1.248   1.062  1.00  0.00    -0.340 N 
ATOM     17  C   UNL     1      -0.512   1.915   2.246  1.00  0.00     0.275 C 
ATOM     18  H   UNL     1      -1.375   0.708   0.930  1.00  0.00     0.164 HD
ATOM     19  O   UNL     1      -1.415   1.715   3.063  1.00  0.00    -0.268 OA
BRANCH  17  20
ATOM     20  C   UNL     1       0.562   2.965   2.528  1.00  0.00     0.360 C 
BRANCH  20  21
ATOM     21  N   UNL     1       1.926   2.488   2.257  1.00  0.00    -0.350 N 
ATOM     22  H   UNL     1       2.137   1.698   2.865  1.00  0.00     0.344 HD
ATOM     23  H   UNL     1       2.591   3.241   2.434  1.00  0.00     0.344 HD
ATOM     24  H   UNL     1       1.996   2.195   1.282  1.00  0.00     0.344 HD
ENDBRANCH  20  21
ENDBRANCH  17  20
ENDBRANCH  14  16
ENDBRANCH  11  14
ENDBRANCH   6  10
ENDBRANCH   3   6
ENDBRANCH   1   2
BRANCH   1  25
ATOM     25  C   UNL     1      -0.948   2.527  -6.217  1.00  0.00     0.023 C 
BRANCH  25  26
ATOM     26  C   UNL     1      -1.255   3.526  -7.333  1.00  0.00     0.023 C 
BRANCH  26  27
ATOM     27  C   UNL     1      -0.128   4.494  -7.685  1.00  0.00     0.116 C 
BRANCH  27  28
ATOM     28  N   UNL     1       1.116   3.828  -8.049  1.00  0.00    -0.352 N 
ATOM     29  C   UNL     1       1.901   4.012  -9.161  1.00  0.00     0.251 C 
ATOM     30  H   UNL     1       1.437   3.152  -7.409  1.00  0.00     0.163 HD
ATOM     31  O   UNL     1       2.873   3.292  -9.368  1.00  0.00    -0.269 OA
BRANCH  29  32
ATOM     32  C   UNL     1       1.538   5.064 -10.129  1.00  0.00     0.039 A 
ATOM     33  C   UNL     1       1.388   4.719 -11.473  1.00  0.00     0.014 A 
ATOM     34  C   UNL     1       1.284   6.367  -9.694  1.00  0.00     0.014 A 
ATOM     35  C   UNL     1       0.901   5.668 -12.373  1.00  0.00     0.010 A 
ATOM     36  C   UNL     1       0.728   7.287 -10.577  1.00  0.00     0.010 A 
ATOM     37  C   UNL     1       0.525   6.944 -11.923  1.00  0.00    -0.014 A 
BRANCH  37  38
ATOM     38  C   UNL     1      -0.092   7.932 -12.843  1.00  0.00     0.031 A 
ATOM     39  C   UNL     1       0.613   9.224 -13.142  1.00  0.00     0.074 A 
ATOM     40  C   UNL     1      -1.317   7.696 -13.352  1.00  0.00     0.049 A 
ATOM     41  N   UNL     1       0.208  10.243 -13.857  1.00  0.00    -0.248 NA
ATOM     42  C   UNL     1       1.939   9.409 -12.531  1.00  0.00     0.031 C 
ATOM     43  C   UNL     1      -2.126   6.503 -13.094  1.00  0.00     0.029 A 
ATOM     44  N   UNL     1      -2.103   8.454 -14.184  1.00  0.00    -0.354 N 
ATOM     45  C   UNL     1       1.219  11.190 -13.770  1.00  0.00     0.074 A 
ATOM     46  C   UNL     1       2.231  10.650 -12.889  1.00  0.00     0.031 C 
ATOM     47  C   UNL     1      -3.281   6.599 -13.771  1.00  0.00     0.029 A 
ATOM     48  C   UNL     1      -3.312   7.875 -14.480  1.00  0.00     0.049 A 
ATOM     49  H   UNL     1      -1.825   9.331 -14.535  1.00  0.00     0.167 HD
ATOM     50  C   UNL     1       1.308  12.390 -14.391  1.00  0.00     0.037 A 
ATOM     51  C   UNL     1      -4.333   8.326 -15.233  1.00  0.00     0.037 A 
ATOM     52  C   UNL     1       0.312  12.911 -15.289  1.00  0.00     0.049 A 
ATOM     53  C   UNL     1      -4.211   9.665 -15.909  1.00  0.00     0.074 A 
ATOM     54  C   UNL     1       0.337  14.088 -16.017  1.00  0.00     0.029 A 
ATOM     55  N   UNL     1      -0.892  12.286 -15.581  1.00  0.00    -0.354 N 
ATOM     56  N   UNL     1      -3.218  10.520 -15.878  1.00  0.00    -0.248 NA
ATOM     57  C   UNL     1      -5.350  10.100 -16.730  1.00  0.00     0.031 C 
ATOM     58  C   UNL     1      -0.870  14.197 -16.715  1.00  0.00     0.029 A 
ATOM     59  C   UNL     1      -1.627  13.064 -16.462  1.00  0.00     0.049 A 
ATOM     60  H   UNL     1      -1.181  11.418 -15.217  1.00  0.00     0.167 HD
ATOM     61  C   UNL     1      -3.598  11.577 -16.694  1.00  0.00     0.074 A 
ATOM     62  C   UNL     1      -4.907  11.249 -17.219  1.00  0.00     0.031 C 
ATOM     63  C   UNL     1      -2.924  12.718 -16.982  1.00  0.00     0.037 A 
BRANCH  50  64
ATOM     64  C   UNL     1       2.530  13.219 -14.125  1.00  0.00     0.064 A 
ATOM     65  C   UNL     1       3.792  12.845 -14.613  1.00  0.00     0.173 A 
ATOM     66  C   UNL     1       2.434  14.420 -13.406  1.00  0.00     0.173 A 
ATOM     67  F   UNL     1       3.939  11.700 -15.295  1.00  0.00    -0.203 F 
ATOM     68  C   UNL     1       4.916  13.628 -14.365  1.00  0.00     0.198 A 
ATOM     69  C   UNL     1       3.555  15.216 -13.187  1.00  0.00     0.198 A 
ATOM     70  F   UNL     1       1.251  14.826 -12.922  1.00  0.00    -0.203 F 
ATOM     71  F   UNL     1       6.119  13.225 -14.797  1.00  0.00    -0.200 F 
ATOM     72  C   UNL     1       4.796  14.816 -13.660  1.00  0.00     0.200 A 
ATOM     73  F   UNL     1       3.436  16.370 -12.516  1.00  0.00    -0.200 F 
ATOM     74  F   UNL     1       5.878  15.571 -13.429  1.00  0.00    -0.200 F 
ENDBRANCH  50  64
BRANCH  51  75
ATOM     75  C   UNL     1      -5.553   7.495 -15.411  1.00  0.00     0.064 A 
ATOM     76  C   UNL     1      -5.855   6.917 -16.652  1.00  0.00     0.173 A 
ATOM     77  C   UNL     1      -6.447   7.273 -14.354  1.00  0.00     0.173 A 
ATOM     78  F   UNL     1      -5.042   7.119 -17.699  1.00  0.00    -0.203 F 
ATOM     79  C   UNL     1      -7.016   6.168 -16.835  1.00  0.00     0.198 A 
ATOM     80  C   UNL     1      -7.593   6.500 -14.530  1.00  0.00     0.198 A 
ATOM     81  F   UNL     1      -6.202   7.799 -13.145  1.00  0.00    -0.203 F 
ATOM     82  F   UNL     1      -7.304   5.669 -18.045  1.00  0.00    -0.200 F 
ATOM     83  C   UNL     1      -7.881   5.956 -15.773  1.00  0.00     0.200 A 
ATOM     84  F   UNL     1      -8.420   6.285 -13.498  1.00  0.00    -0.200 F 
ATOM     85  F   UNL     1      -8.997   5.235 -15.949  1.00  0.00    -0.200 F 
ENDBRANCH  51  75
BRANCH  63  86
ATOM     86  C   UNL     1      -3.574  13.680 -17.934  1.00  0.00     0.064 A 
ATOM     87  C   UNL     1      -4.687  14.447 -17.559  1.00  0.00     0.173 A 
ATOM     88  C   UNL     1      -3.050  13.865 -19.222  1.00  0.00     0.173 A 
ATOM     89  F   UNL     1      -5.234  14.294 -16.344  1.00  0.00    -0.203 F 
ATOM     90  C   UNL     1      -5.266  15.348 -18.449  1.00  0.00     0.198 A 
ATOM     91  C   UNL     1      -3.613  14.789 -20.098  1.00  0.00     0.198 A 
ATOM     92  F   UNL     1      -1.982  13.160 -19.626  1.00  0.00    -0.203 F 
ATOM     93  F   UNL     1      -6.357  16.036 -18.087  1.00  0.00    -0.200 F 
ATOM     94  C   UNL     1      -4.724  15.524 -19.714  1.00  0.00     0.200 A 
ATOM     95  F   UNL     1      -3.079  14.967 -21.315  1.00  0.00    -0.200 F 
ATOM     96  F   UNL     1      -5.278  16.397 -20.566  1.00  0.00    -0.200 F 
ENDBRANCH  63  86
ENDBRANCH  37  38
ENDBRANCH  29  32
ENDBRANCH  27  28
ENDBRANCH  26  27
ENDBRANCH  25  26
ENDBRANCH   1  25
TORSDOF 17
