REMARK SMILES COc1cccc([C@H](CC(=O)NCCCCNC(=O)c2ccc(-c3c4nc(c(-c5c(F)c(F)c(F)c(F)c5F)c5ccc([nH]5)c(-c5c(F)c(F)c(F)c(F)c5F)c5nc(c(-c6c(F)c(F)c(F)c(F)c6F)c6ccc3[nH]6)C=C5)C=C4)cc2)NS(=O)(=O)c2ccc3c(c2)C[C@@H](C)N3C(C)=O)c1
REMARK SMILES IDX 13 1 12 2 10 3 11 4 9 6 8 7 7 8 3 9 4 10 100 11 5 12 6 13
REMARK SMILES IDX 2 14 1 15 83 16 84 18 85 19 86 20 87 21 88 22 92 23 89 24
REMARK SMILES IDX 91 25 90 26 93 27 96 28 94 29 95 30 97 31 98 32 99 33 14 34
REMARK SMILES IDX 15 35 16 36 17 37 18 38 19 40 20 41 21 42 82 43 22 44 81 45
REMARK SMILES IDX 23 46 24 47 25 48 75 49 26 50 80 51 74 52 76 53 27 54 79 55
REMARK SMILES IDX 73 56 72 57 28 59 60 60 40 61 59 62 41 63 44 64 58 65 77 66
REMARK SMILES IDX 42 67 43 68 57 70 78 71 45 72 29 73 30 74 38 75 31 76 32 77
REMARK SMILES IDX 36 78 39 79 33 80 34 81 37 82 35 83 61 84 62 85 70 86 63 87
REMARK SMILES IDX 64 88 68 89 71 90 65 91 66 92 69 93 67 94 46 95 47 96 55 97
REMARK SMILES IDX 48 98 49 99 53 100 56 101 50 102 51 103 54 104 52 105
REMARK H PARENT 12 5 83 17 17 39 76 58 44 69
REMARK Flexibility Score: inf
ROOT
ATOM      1  C   UNL     1       2.742  -0.476   2.699  1.00  0.00     0.116 C 
ENDROOT
BRANCH   1   2
ATOM      2  N   UNL     1       1.842   0.171   3.629  1.00  0.00    -0.356 N 
ATOM      3  C   UNL     1       1.859   1.442   4.108  1.00  0.00     0.221 C 
ATOM      4  O   UNL     1       1.121   1.703   5.060  1.00  0.00    -0.275 OA
ATOM      5  H   UNL     1       1.109  -0.394   3.965  1.00  0.00     0.163 HD
BRANCH   3   6
ATOM      6  C   UNL     1       2.751   2.508   3.510  1.00  0.00     0.124 C 
BRANCH   6   7
ATOM      7  C   UNL     1       4.249   2.470   3.887  1.00  0.00     0.109 C 
BRANCH   7   8
ATOM      8  C   UNL     1       4.837   3.854   3.625  1.00  0.00    -0.026 A 
ATOM      9  C   UNL     1       5.597   5.553   2.050  1.00  0.00     0.119 A 
ATOM     10  C   UNL     1       5.943   6.394   3.103  1.00  0.00     0.046 A 
ATOM     11  C   UNL     1       5.074   4.281   2.304  1.00  0.00     0.051 A 
ATOM     12  C   UNL     1       5.689   5.998   4.412  1.00  0.00     0.004 A 
ATOM     13  C   UNL     1       5.112   4.753   4.667  1.00  0.00     0.005 A 
BRANCH   9  14
ATOM     14  O   UNL     1       5.859   6.002   0.784  1.00  0.00    -0.497 OA
ATOM     15  C   UNL     1       4.688   6.028  -0.032  1.00  0.00     0.278 C 
ENDBRANCH   9  14
ENDBRANCH   7   8
BRANCH   7  16
ATOM     16  N   UNL     1       4.454   1.942   5.243  1.00  0.00    -0.203 NA
ATOM     17  H   UNL     1       3.876   1.102   5.292  1.00  0.00     0.142 HD
BRANCH  16  18
ATOM     18  S   UNL     1       5.921   1.505   5.916  1.00  0.00     0.241 S 
ATOM     19  O   UNL     1       6.616   2.705   6.341  1.00  0.00    -0.207 OA
ATOM     20  O   UNL     1       5.599   0.473   6.870  1.00  0.00    -0.207 OA
BRANCH  18  21
ATOM     21  C   UNL     1       6.902   0.756   4.633  1.00  0.00     0.082 A 
ATOM     22  C   UNL     1       6.960  -0.650   4.493  1.00  0.00     0.024 A 
ATOM     23  C   UNL     1       7.766   1.583   3.913  1.00  0.00     0.027 A 
ATOM     24  C   UNL     1       7.821  -1.247   3.561  1.00  0.00     0.028 A 
ATOM     25  C   UNL     1       8.692   0.974   3.096  1.00  0.00    -0.021 A 
ATOM     26  C   UNL     1       8.703  -0.417   2.905  1.00  0.00     0.047 A 
ATOM     27  C   UNL     1       9.800   1.619   2.315  1.00  0.00     0.063 C 
ATOM     28  N   UNL     1       9.753  -0.732   2.020  1.00  0.00    -0.309 N 
ATOM     29  C   UNL     1      10.713   0.399   2.118  1.00  0.00     0.092 C 
ATOM     30  C   UNL     1      11.630   0.192   3.346  1.00  0.00     0.032 C 
BRANCH  28  31
ATOM     31  C   UNL     1       9.583  -1.632   0.986  1.00  0.00     0.224 C 
ATOM     32  C   UNL     1      10.086  -1.143  -0.354  1.00  0.00     0.115 C 
ATOM     33  O   UNL     1       8.926  -2.668   1.065  1.00  0.00    -0.275 OA
ENDBRANCH  28  31
ENDBRANCH  18  21
ENDBRANCH  16  18
ENDBRANCH   7  16
ENDBRANCH   6   7
ENDBRANCH   3   6
ENDBRANCH   1   2
BRANCH   1  34
ATOM     34  C   UNL     1       3.904  -1.120   3.443  1.00  0.00     0.023 C 
BRANCH  34  35
ATOM     35  C   UNL     1       3.554  -2.305   4.343  1.00  0.00     0.023 C 
BRANCH  35  36
ATOM     36  C   UNL     1       3.090  -3.551   3.608  1.00  0.00     0.116 C 
BRANCH  36  37
ATOM     37  N   UNL     1       4.070  -4.057   2.662  1.00  0.00    -0.352 N 
ATOM     38  C   UNL     1       4.412  -5.350   2.356  1.00  0.00     0.251 C 
ATOM     39  H   UNL     1       4.564  -3.366   2.164  1.00  0.00     0.163 HD
ATOM     40  O   UNL     1       5.326  -5.567   1.566  1.00  0.00    -0.269 OA
BRANCH  38  41
ATOM     41  C   UNL     1       3.719  -6.489   2.996  1.00  0.00     0.039 A 
ATOM     42  C   UNL     1       4.481  -7.594   3.384  1.00  0.00     0.014 A 
ATOM     43  C   UNL     1       2.338  -6.486   3.209  1.00  0.00     0.014 A 
ATOM     44  C   UNL     1       3.871  -8.664   4.039  1.00  0.00     0.010 A 
ATOM     45  C   UNL     1       1.745  -7.511   3.940  1.00  0.00     0.010 A 
ATOM     46  C   UNL     1       2.504  -8.614   4.356  1.00  0.00    -0.014 A 
BRANCH  46  47
ATOM     47  C   UNL     1       1.864  -9.707   5.128  1.00  0.00     0.031 A 
ATOM     48  C   UNL     1       0.779 -10.544   4.510  1.00  0.00     0.074 A 
ATOM     49  C   UNL     1       2.234  -9.912   6.407  1.00  0.00     0.049 A 
ATOM     50  N   UNL     1       0.108 -11.542   5.029  1.00  0.00    -0.248 NA
ATOM     51  C   UNL     1       0.373 -10.201   3.138  1.00  0.00     0.031 C 
ATOM     52  C   UNL     1       3.226  -9.121   7.138  1.00  0.00     0.029 A 
ATOM     53  N   UNL     1       1.821 -10.850   7.320  1.00  0.00    -0.354 N 
ATOM     54  C   UNL     1      -0.806 -11.930   4.058  1.00  0.00     0.074 A 
ATOM     55  C   UNL     1      -0.642 -11.030   2.938  1.00  0.00     0.031 C 
ATOM     56  C   UNL     1       3.375  -9.631   8.370  1.00  0.00     0.029 A 
ATOM     57  C   UNL     1       2.469 -10.764   8.528  1.00  0.00     0.049 A 
ATOM     58  H   UNL     1       1.126 -11.520   7.127  1.00  0.00     0.167 HD
ATOM     59  C   UNL     1      -1.683 -12.960   4.089  1.00  0.00     0.037 A 
ATOM     60  C   UNL     1       2.350 -11.521   9.634  1.00  0.00     0.037 A 
ATOM     61  C   UNL     1      -1.813 -13.878   5.190  1.00  0.00     0.049 A 
ATOM     62  C   UNL     1       1.383 -12.674   9.629  1.00  0.00     0.074 A 
ATOM     63  C   UNL     1      -2.608 -15.007   5.284  1.00  0.00     0.029 A 
ATOM     64  N   UNL     1      -1.131 -13.769   6.393  1.00  0.00    -0.354 N 
ATOM     65  N   UNL     1       0.595 -13.091   8.669  1.00  0.00    -0.248 NA
ATOM     66  C   UNL     1       1.299 -13.467  10.863  1.00  0.00     0.031 C 
ATOM     67  C   UNL     1      -2.442 -15.555   6.560  1.00  0.00     0.029 A 
ATOM     68  C   UNL     1      -1.506 -14.796   7.244  1.00  0.00     0.049 A 
ATOM     69  H   UNL     1      -0.476 -13.067   6.609  1.00  0.00     0.167 HD
ATOM     70  C   UNL     1      -0.058 -14.208   9.170  1.00  0.00     0.074 A 
ATOM     71  C   UNL     1       0.444 -14.417  10.512  1.00  0.00     0.031 C 
ATOM     72  C   UNL     1      -0.993 -14.989   8.576  1.00  0.00     0.037 A 
BRANCH  59  73
ATOM     73  C   UNL     1      -2.569 -13.161   2.894  1.00  0.00     0.064 A 
ATOM     74  C   UNL     1      -2.061 -13.618   1.668  1.00  0.00     0.173 A 
ATOM     75  C   UNL     1      -3.951 -12.941   2.989  1.00  0.00     0.173 A 
ATOM     76  F   UNL     1      -0.745 -13.833   1.520  1.00  0.00    -0.203 F 
ATOM     77  C   UNL     1      -2.901 -13.826   0.577  1.00  0.00     0.198 A 
ATOM     78  C   UNL     1      -4.792 -13.177   1.904  1.00  0.00     0.198 A 
ATOM     79  F   UNL     1      -4.490 -12.507   4.138  1.00  0.00    -0.203 F 
ATOM     80  F   UNL     1      -2.387 -14.222  -0.596  1.00  0.00    -0.200 F 
ATOM     81  C   UNL     1      -4.266 -13.614   0.698  1.00  0.00     0.200 A 
ATOM     82  F   UNL     1      -6.112 -12.983   2.026  1.00  0.00    -0.200 F 
ATOM     83  F   UNL     1      -5.074 -13.825  -0.350  1.00  0.00    -0.200 F 
ENDBRANCH  59  73
BRANCH  60  84
ATOM     84  C   UNL     1       3.195 -11.245  10.825  1.00  0.00     0.064 A 
ATOM     85  C   UNL     1       4.203 -12.140  11.212  1.00  0.00     0.173 A 
ATOM     86  C   UNL     1       3.004 -10.099  11.610  1.00  0.00     0.173 A 
ATOM     87  F   UNL     1       4.410 -13.261  10.505  1.00  0.00    -0.203 F 
ATOM     88  C   UNL     1       4.967 -11.914  12.354  1.00  0.00     0.198 A 
ATOM     89  C   UNL     1       3.789  -9.860  12.736  1.00  0.00     0.198 A 
ATOM     90  F   UNL     1       2.057  -9.209  11.280  1.00  0.00    -0.203 F 
ATOM     91  F   UNL     1       5.886 -12.814  12.731  1.00  0.00    -0.200 F 
ATOM     92  C   UNL     1       4.763 -10.772  13.113  1.00  0.00     0.200 A 
ATOM     93  F   UNL     1       3.597  -8.749  13.460  1.00  0.00    -0.200 F 
ATOM     94  F   UNL     1       5.496 -10.557  14.214  1.00  0.00    -0.200 F 
ENDBRANCH  60  84
BRANCH  72  95
ATOM     95  C   UNL     1      -1.509 -16.156   9.367  1.00  0.00     0.064 A 
ATOM     96  C   UNL     1      -2.345 -15.978  10.479  1.00  0.00     0.173 A 
ATOM     97  C   UNL     1      -1.173 -17.468   8.999  1.00  0.00     0.173 A 
ATOM     98  F   UNL     1      -2.682 -14.742  10.879  1.00  0.00    -0.203 F 
ATOM     99  C   UNL     1      -2.797 -17.069  11.216  1.00  0.00     0.198 A 
ATOM    100  C   UNL     1      -1.654 -18.558   9.719  1.00  0.00     0.198 A 
ATOM    101  F   UNL     1      -0.383 -17.693   7.939  1.00  0.00    -0.203 F 
ATOM    102  F   UNL     1      -3.546 -16.872  12.309  1.00  0.00    -0.200 F 
ATOM    103  C   UNL     1      -2.456 -18.357  10.832  1.00  0.00     0.200 A 
ATOM    104  F   UNL     1      -1.335 -19.803   9.339  1.00  0.00    -0.200 F 
ATOM    105  F   UNL     1      -2.893 -19.406  11.543  1.00  0.00    -0.200 F 
ENDBRANCH  72  95
ENDBRANCH  46  47
ENDBRANCH  38  41
ENDBRANCH  36  37
ENDBRANCH  35  36
ENDBRANCH  34  35
ENDBRANCH   1  34
TORSDOF 18
