REMARK SMILES Cc1cc(C)c2c(C(=O)NCCCCNC(=O)c3ccc(-c4c5nc(c(-c6c(F)c(F)c(F)c(F)c6F)c6ccc([nH]6)c(-c6c(F)c(F)c(F)c(F)c6F)c6nc(c(-c7c(F)c(F)c(F)c(F)c7F)c7ccc4[nH]7)C=C6)C=C5)cc3)cc(-c3ccco3)nc2c1
REMARK SMILES IDX 13 1 12 2 11 3 10 4 8 5 9 6 7 8 1 9 2 10 3 11 90 12 4 13
REMARK SMILES IDX 89 14 5 15 6 16 88 17 82 18 81 19 83 20 84 21 87 22 85 23
REMARK SMILES IDX 86 24 14 25 15 26 16 27 17 29 18 30 19 31 80 32 20 33 79 34
REMARK SMILES IDX 21 35 22 36 23 37 73 38 24 39 78 40 72 41 74 42 25 43 77 44
REMARK SMILES IDX 71 45 70 46 26 48 58 49 38 50 57 51 39 52 42 53 56 54 75 55
REMARK SMILES IDX 40 56 41 57 55 59 76 60 43 61 27 62 28 63 36 64 29 65 30 66
REMARK SMILES IDX 34 67 37 68 31 69 32 70 35 71 33 72 59 73 60 74 68 75 61 76
REMARK SMILES IDX 62 77 66 78 69 79 63 80 64 81 67 82 65 83 44 84 45 85 53 86
REMARK SMILES IDX 46 87 47 88 51 89 54 90 48 91 49 92 52 93 50 94
REMARK H PARENT 10 7 15 28 74 47 42 58
REMARK Flexibility Score: inf
ROOT
ATOM      1  C   UNL     1       0.059   3.560  -6.101  1.00  0.00     0.023 C 
ENDROOT
BRANCH   1   2
ATOM      2  C   UNL     1       0.965   2.454  -5.550  1.00  0.00     0.023 C 
BRANCH   2   3
ATOM      3  C   UNL     1       0.269   1.184  -5.064  1.00  0.00     0.116 C 
BRANCH   3   4
ATOM      4  N   UNL     1      -0.591   0.540  -6.044  1.00  0.00    -0.352 N 
ATOM      5  C   UNL     1      -1.134  -0.730  -6.053  1.00  0.00     0.252 C 
ATOM      6  O   UNL     1      -1.867  -1.049  -6.988  1.00  0.00    -0.269 OA
ATOM      7  H   UNL     1      -0.821   1.096  -6.824  1.00  0.00     0.163 HD
BRANCH   5   8
ATOM      8  C   UNL     1      -0.781  -1.752  -5.031  1.00  0.00     0.051 A 
ATOM      9  C   UNL     1       0.832  -0.511   0.271  1.00  0.00     0.044 C 
ATOM     10  C   UNL     1       0.212  -0.897  -1.037  1.00  0.00    -0.049 A 
ATOM     11  C   UNL     1      -0.806  -0.139  -1.606  1.00  0.00     0.007 A 
ATOM     12  C   UNL     1       0.593  -2.079  -1.678  1.00  0.00     0.032 A 
ATOM     13  C   UNL     1      -1.293  -0.452  -2.884  1.00  0.00    -0.041 A 
ATOM     14  C   UNL     1       0.127  -2.418  -2.939  1.00  0.00     0.072 A 
ATOM     15  C   UNL     1      -2.558   0.243  -3.326  1.00  0.00     0.045 C 
ATOM     16  C   UNL     1      -0.680  -1.502  -3.637  1.00  0.00     0.016 A 
ATOM     17  N   UNL     1       0.485  -3.611  -3.437  1.00  0.00    -0.244 NA
ATOM     18  C   UNL     1       0.110  -3.929  -4.693  1.00  0.00     0.107 A 
ATOM     19  C   UNL     1      -0.436  -3.004  -5.553  1.00  0.00     0.046 A 
BRANCH  18  20
ATOM     20  C   UNL     1       0.289  -5.320  -5.068  1.00  0.00     0.152 A 
ATOM     21  C   UNL     1       0.930  -5.984  -6.095  1.00  0.00     0.052 A 
ATOM     22  O   UNL     1      -0.376  -6.225  -4.285  1.00  0.00    -0.463 OA
ATOM     23  C   UNL     1       0.647  -7.364  -5.924  1.00  0.00     0.043 A 
ATOM     24  C   UNL     1      -0.158  -7.455  -4.814  1.00  0.00     0.196 A 
ENDBRANCH  18  20
ENDBRANCH   5   8
ENDBRANCH   3   4
ENDBRANCH   2   3
ENDBRANCH   1   2
BRANCH   1  25
ATOM     25  C   UNL     1      -1.192   3.901  -5.292  1.00  0.00     0.116 C 
BRANCH  25  26
ATOM     26  N   UNL     1      -0.907   4.448  -3.974  1.00  0.00    -0.352 N 
ATOM     27  C   UNL     1      -1.160   5.702  -3.462  1.00  0.00     0.251 C 
ATOM     28  H   UNL     1      -0.465   3.826  -3.352  1.00  0.00     0.163 HD
ATOM     29  O   UNL     1      -0.777   6.003  -2.342  1.00  0.00    -0.269 OA
BRANCH  27  30
ATOM     30  C   UNL     1      -1.866   6.707  -4.288  1.00  0.00     0.039 A 
ATOM     31  C   UNL     1      -1.266   7.955  -4.484  1.00  0.00     0.014 A 
ATOM     32  C   UNL     1      -3.099   6.419  -4.876  1.00  0.00     0.014 A 
ATOM     33  C   UNL     1      -1.852   8.877  -5.355  1.00  0.00     0.010 A 
ATOM     34  C   UNL     1      -3.658   7.319  -5.783  1.00  0.00     0.010 A 
ATOM     35  C   UNL     1      -3.028   8.546  -6.047  1.00  0.00    -0.014 A 
BRANCH  35  36
ATOM     36  C   UNL     1      -3.602   9.447  -7.077  1.00  0.00     0.031 A 
ATOM     37  C   UNL     1      -4.920  10.123  -6.838  1.00  0.00     0.074 A 
ATOM     38  C   UNL     1      -2.974   9.589  -8.260  1.00  0.00     0.049 A 
ATOM     39  N   UNL     1      -5.645  10.837  -7.662  1.00  0.00    -0.248 NA
ATOM     40  C   UNL     1      -5.508   9.962  -5.500  1.00  0.00     0.031 C 
ATOM     41  C   UNL     1      -1.696   8.973  -8.619  1.00  0.00     0.029 A 
ATOM     42  N   UNL     1      -3.336  10.284  -9.388  1.00  0.00    -0.354 N 
ATOM     43  C   UNL     1      -6.776  11.204  -6.946  1.00  0.00     0.074 A 
ATOM     44  C   UNL     1      -6.661  10.602  -5.634  1.00  0.00     0.031 C 
ATOM     45  C   UNL     1      -1.378   9.322  -9.876  1.00  0.00     0.029 A 
ATOM     46  C   UNL     1      -2.445  10.153 -10.425  1.00  0.00     0.049 A 
ATOM     47  H   UNL     1      -4.157  10.825  -9.448  1.00  0.00     0.167 HD
ATOM     48  C   UNL     1      -7.807  11.986  -7.343  1.00  0.00     0.037 A 
ATOM     49  C   UNL     1      -2.491  10.638 -11.681  1.00  0.00     0.037 A 
ATOM     50  C   UNL     1      -7.918  12.589  -8.646  1.00  0.00     0.049 A 
ATOM     51  C   UNL     1      -3.665  11.476 -12.107  1.00  0.00     0.074 A 
ATOM     52  C   UNL     1      -8.923  13.404  -9.137  1.00  0.00     0.029 A 
ATOM     53  N   UNL     1      -6.988  12.444  -9.665  1.00  0.00    -0.354 N 
ATOM     54  N   UNL     1      -4.721  11.831 -11.417  1.00  0.00    -0.248 NA
ATOM     55  C   UNL     1      -3.652  11.984 -13.487  1.00  0.00     0.031 C 
ATOM     56  C   UNL     1      -8.617  13.727 -10.463  1.00  0.00     0.029 A 
ATOM     57  C   UNL     1      -7.399  13.151 -10.784  1.00  0.00     0.049 A 
ATOM     58  H   UNL     1      -6.158  11.918  -9.602  1.00  0.00     0.167 HD
ATOM     59  C   UNL     1      -5.479  12.629 -12.263  1.00  0.00     0.074 A 
ATOM     60  C   UNL     1      -4.760  12.711 -13.517  1.00  0.00     0.031 C 
ATOM     61  C   UNL     1      -6.664  13.239 -12.020  1.00  0.00     0.037 A 
BRANCH  48  62
ATOM     62  C   UNL     1      -8.903  12.243  -6.352  1.00  0.00     0.064 A 
ATOM     63  C   UNL     1      -8.705  13.091  -5.252  1.00  0.00     0.173 A 
ATOM     64  C   UNL     1     -10.176  11.684  -6.532  1.00  0.00     0.173 A 
ATOM     65  F   UNL     1      -7.502  13.639  -5.030  1.00  0.00    -0.203 F 
ATOM     66  C   UNL     1      -9.739  13.354  -4.357  1.00  0.00     0.198 A 
ATOM     67  C   UNL     1     -11.215  11.971  -5.649  1.00  0.00     0.198 A 
ATOM     68  F   UNL     1     -10.418  10.871  -7.571  1.00  0.00    -0.203 F 
ATOM     69  F   UNL     1      -9.517  14.138  -3.293  1.00  0.00    -0.200 F 
ATOM     70  C   UNL     1     -10.994  12.801  -4.561  1.00  0.00     0.200 A 
ATOM     71  F   UNL     1     -12.431  11.445  -5.854  1.00  0.00    -0.200 F 
ATOM     72  F   UNL     1     -11.991  13.066  -3.706  1.00  0.00    -0.200 F 
ENDBRANCH  48  62
BRANCH  49  73
ATOM     73  C   UNL     1      -1.372  10.364 -12.620  1.00  0.00     0.064 A 
ATOM     74  C   UNL     1      -0.489  11.386 -12.995  1.00  0.00     0.173 A 
ATOM     75  C   UNL     1      -1.159   9.086 -13.156  1.00  0.00     0.173 A 
ATOM     76  F   UNL     1      -0.667  12.630 -12.525  1.00  0.00    -0.203 F 
ATOM     77  C   UNL     1       0.560  11.143 -13.879  1.00  0.00     0.198 A 
ATOM     78  C   UNL     1      -0.096   8.838 -14.021  1.00  0.00     0.198 A 
ATOM     79  F   UNL     1      -1.976   8.075 -12.827  1.00  0.00    -0.203 F 
ATOM     80  F   UNL     1       1.368  12.145 -14.248  1.00  0.00    -0.200 F 
ATOM     81  C   UNL     1       0.759   9.868 -14.387  1.00  0.00     0.200 A 
ATOM     82  F   UNL     1       0.102   7.603 -14.501  1.00  0.00    -0.200 F 
ATOM     83  F   UNL     1       1.772   9.632 -15.232  1.00  0.00    -0.200 F 
ENDBRANCH  49  73
BRANCH  61  84
ATOM     84  C   UNL     1      -7.242  14.091 -13.111  1.00  0.00     0.064 A 
ATOM     85  C   UNL     1      -7.819  13.529 -14.258  1.00  0.00     0.173 A 
ATOM     86  C   UNL     1      -7.266  15.488 -12.978  1.00  0.00     0.173 A 
ATOM     87  F   UNL     1      -7.808  12.200 -14.437  1.00  0.00    -0.203 F 
ATOM     88  C   UNL     1      -8.385  14.336 -15.242  1.00  0.00     0.198 A 
ATOM     89  C   UNL     1      -7.855  16.290 -13.951  1.00  0.00     0.198 A 
ATOM     90  F   UNL     1      -6.732  16.074 -11.896  1.00  0.00    -0.203 F 
ATOM     91  F   UNL     1      -8.898  13.781 -16.348  1.00  0.00    -0.200 F 
ATOM     92  C   UNL     1      -8.409  15.715 -15.084  1.00  0.00     0.200 A 
ATOM     93  F   UNL     1      -7.889  17.620 -13.790  1.00  0.00    -0.200 F 
ATOM     94  F   UNL     1      -8.963  16.489 -16.027  1.00  0.00    -0.200 F 
ENDBRANCH  61  84
ENDBRANCH  35  36
ENDBRANCH  27  30
ENDBRANCH  25  26
ENDBRANCH   1  25
TORSDOF 12
