REMARK SMILES Cc1cc(OC(F)F)ccc1NC(=O)[C@@H]1CCCC[C@@H]1C(=O)NCCCCNC(=O)c1ccc(-c2c3nc(c(-c4c(F)c(F)c(F)c(F)c4F)c4ccc([nH]4)c(-c4c(F)c(F)c(F)c(F)c4F)c4nc(c(-c5c(F)c(F)c(F)c(F)c5F)c5ccc2[nH]5)C=C4)C=C3)cc1
REMARK SMILES IDX 24 1 23 2 21 3 22 4 20 6 15 7 16 8 17 9 19 10 18 11 13 12
REMARK SMILES IDX 12 13 14 15 11 16 1 17 2 18 3 19 4 20 10 21 9 22 5 23 6 24
REMARK SMILES IDX 7 25 8 26 25 27 26 28 27 29 28 30 29 31 30 33 31 34 32 35
REMARK SMILES IDX 93 36 33 37 92 38 34 39 35 40 36 41 86 42 37 43 91 44 85 45
REMARK SMILES IDX 87 46 38 47 90 48 84 49 83 50 39 52 71 53 51 54 70 55 52 56
REMARK SMILES IDX 55 57 69 58 88 59 53 60 54 61 68 63 89 64 56 65 40 66 41 67
REMARK SMILES IDX 49 68 42 69 43 70 47 71 50 72 44 73 45 74 48 75 46 76 72 77
REMARK SMILES IDX 73 78 81 79 74 80 75 81 79 82 82 83 76 84 77 85 80 86 78 87
REMARK SMILES IDX 57 88 58 89 66 90 59 91 60 92 64 93 67 94 61 95 62 96 65 97
REMARK SMILES IDX 63 98
REMARK H PARENT 23 5 12 14 28 32 87 51 55 62
REMARK Flexibility Score: inf
ROOT
ATOM      1  C   UNL     1       1.138   2.026   2.099  1.00  0.00     0.116 C 
ENDROOT
BRANCH   1   2
ATOM      2  N   UNL     1       0.172   2.767   2.876  1.00  0.00    -0.356 N 
ATOM      3  C   UNL     1      -1.126   3.078   2.623  1.00  0.00     0.223 C 
ATOM      4  O   UNL     1      -1.730   3.625   3.548  1.00  0.00    -0.275 OA
ATOM      5  H   UNL     1       0.512   3.104   3.736  1.00  0.00     0.163 HD
BRANCH   3   6
ATOM      6  C   UNL     1      -1.807   2.724   1.285  1.00  0.00     0.091 C 
ATOM      7  C   UNL     1      -1.505   3.657   0.088  1.00  0.00     0.091 C 
ATOM      8  C   UNL     1      -1.849   5.103   0.484  1.00  0.00     0.014 C 
ATOM      9  C   UNL     1      -3.356   5.226   0.716  1.00  0.00     0.001 C 
ATOM     10  C   UNL     1      -3.349   2.751   1.462  1.00  0.00     0.014 C 
ATOM     11  C   UNL     1      -3.933   4.161   1.652  1.00  0.00     0.001 C 
BRANCH   7  12
ATOM     12  C   UNL     1      -0.169   3.529  -0.647  1.00  0.00     0.228 C 
ATOM     13  N   UNL     1       0.285   2.346  -1.173  1.00  0.00    -0.326 N 
ATOM     14  H   UNL     1       1.168   2.409  -1.605  1.00  0.00     0.169 HD
ATOM     15  O   UNL     1       0.563   4.513  -0.801  1.00  0.00    -0.274 OA
BRANCH  13  16
ATOM     16  C   UNL     1      -0.282   1.060  -1.204  1.00  0.00     0.044 A 
ATOM     17  C   UNL     1       2.030  -0.038  -0.865  1.00  0.00     0.047 C 
ATOM     18  C   UNL     1       0.529  -0.069  -0.980  1.00  0.00    -0.024 A 
ATOM     19  C   UNL     1      -0.099  -1.306  -0.729  1.00  0.00     0.052 A 
ATOM     20  C   UNL     1      -1.489  -1.441  -0.757  1.00  0.00     0.126 A 
ATOM     21  C   UNL     1      -1.653   0.879  -1.396  1.00  0.00     0.030 A 
ATOM     22  C   UNL     1      -2.257  -0.357  -1.160  1.00  0.00     0.049 A 
BRANCH  20  23
ATOM     23  O   UNL     1      -1.963  -2.665  -0.385  1.00  0.00    -0.435 OA
BRANCH  23  24
ATOM     24  C   UNL     1      -3.346  -2.759  -0.056  1.00  0.00     0.542 C 
ATOM     25  F   UNL     1      -3.696  -1.775   0.809  1.00  0.00    -0.167 F 
ATOM     26  F   UNL     1      -4.089  -2.620  -1.180  1.00  0.00    -0.167 F 
ENDBRANCH  23  24
ENDBRANCH  20  23
ENDBRANCH  13  16
ENDBRANCH   7  12
ENDBRANCH   3   6
ENDBRANCH   1   2
BRANCH   1  27
ATOM     27  C   UNL     1       2.239   2.930   1.534  1.00  0.00     0.023 C 
BRANCH  27  28
ATOM     28  C   UNL     1       3.321   3.335   2.533  1.00  0.00     0.023 C 
BRANCH  28  29
ATOM     29  C   UNL     1       4.217   2.185   2.967  1.00  0.00     0.116 C 
BRANCH  29  30
ATOM     30  N   UNL     1       5.439   2.004   2.198  1.00  0.00    -0.352 N 
ATOM     31  C   UNL     1       6.397   1.002   2.293  1.00  0.00     0.251 C 
ATOM     32  H   UNL     1       5.611   2.689   1.512  1.00  0.00     0.163 HD
ATOM     33  O   UNL     1       7.415   1.071   1.623  1.00  0.00    -0.269 OA
BRANCH  31  34
ATOM     34  C   UNL     1       6.119  -0.228   3.088  1.00  0.00     0.039 A 
ATOM     35  C   UNL     1       6.511  -1.462   2.551  1.00  0.00     0.014 A 
ATOM     36  C   UNL     1       5.304  -0.201   4.214  1.00  0.00     0.014 A 
ATOM     37  C   UNL     1       5.860  -2.625   2.958  1.00  0.00     0.010 A 
ATOM     38  C   UNL     1       4.561  -1.318   4.522  1.00  0.00     0.010 A 
ATOM     39  C   UNL     1       4.787  -2.512   3.836  1.00  0.00    -0.014 A 
BRANCH  39  40
ATOM     40  C   UNL     1       3.763  -3.531   4.014  1.00  0.00     0.031 A 
ATOM     41  C   UNL     1       3.654  -4.255   5.295  1.00  0.00     0.074 A 
ATOM     42  C   UNL     1       2.818  -3.659   3.055  1.00  0.00     0.049 A 
ATOM     43  N   UNL     1       2.912  -5.291   5.480  1.00  0.00    -0.248 NA
ATOM     44  C   UNL     1       4.446  -3.905   6.469  1.00  0.00     0.031 C 
ATOM     45  C   UNL     1       1.520  -4.323   3.154  1.00  0.00     0.029 A 
ATOM     46  N   UNL     1       2.948  -3.358   1.686  1.00  0.00    -0.354 N 
ATOM     47  C   UNL     1       2.909  -5.576   6.826  1.00  0.00     0.074 A 
ATOM     48  C   UNL     1       3.965  -4.765   7.371  1.00  0.00     0.031 C 
ATOM     49  C   UNL     1       1.110  -4.655   1.919  1.00  0.00     0.029 A 
ATOM     50  C   UNL     1       2.212  -4.365   1.019  1.00  0.00     0.049 A 
ATOM     51  H   UNL     1       3.444  -2.611   1.281  1.00  0.00     0.167 HD
ATOM     52  C   UNL     1       1.918  -6.379   7.312  1.00  0.00     0.037 A 
ATOM     53  C   UNL     1       2.839  -5.297   0.244  1.00  0.00     0.037 A 
ATOM     54  C   UNL     1       1.249  -7.072   6.205  1.00  0.00     0.049 A 
ATOM     55  C   UNL     1       2.629  -6.721   0.706  1.00  0.00     0.074 A 
ATOM     56  C   UNL     1       0.030  -6.911   5.569  1.00  0.00     0.029 A 
ATOM     57  N   UNL     1       2.003  -7.922   5.397  1.00  0.00    -0.354 N 
ATOM     58  N   UNL     1       2.263  -7.054   1.913  1.00  0.00    -0.248 NA
ATOM     59  C   UNL     1       2.844  -7.880  -0.155  1.00  0.00     0.031 C 
ATOM     60  C   UNL     1       0.095  -7.595   4.323  1.00  0.00     0.029 A 
ATOM     61  C   UNL     1       1.335  -8.205   4.222  1.00  0.00     0.049 A 
ATOM     62  H   UNL     1       2.893  -8.273   5.632  1.00  0.00     0.167 HD
ATOM     63  C   UNL     1       2.227  -8.421   2.019  1.00  0.00     0.074 A 
ATOM     64  C   UNL     1       2.567  -8.890   0.688  1.00  0.00     0.031 C 
ATOM     65  C   UNL     1       1.946  -9.049   3.201  1.00  0.00     0.037 A 
BRANCH  52  66
ATOM     66  C   UNL     1       1.401  -6.394   8.746  1.00  0.00     0.064 A 
ATOM     67  C   UNL     1       0.213  -7.096   9.063  1.00  0.00     0.173 A 
ATOM     68  C   UNL     1       1.930  -5.655   9.826  1.00  0.00     0.173 A 
ATOM     69  F   UNL     1      -0.406  -7.864   8.157  1.00  0.00    -0.203 F 
ATOM     70  C   UNL     1      -0.403  -7.022  10.321  1.00  0.00     0.198 A 
ATOM     71  C   UNL     1       1.327  -5.599  11.088  1.00  0.00     0.198 A 
ATOM     72  F   UNL     1       3.040  -4.925   9.726  1.00  0.00    -0.203 F 
ATOM     73  F   UNL     1      -1.554  -7.674  10.538  1.00  0.00    -0.200 F 
ATOM     74  C   UNL     1       0.153  -6.270  11.333  1.00  0.00     0.200 A 
ATOM     75  F   UNL     1       1.894  -4.864  12.057  1.00  0.00    -0.200 F 
ATOM     76  F   UNL     1      -0.439  -6.185  12.532  1.00  0.00    -0.200 F 
ENDBRANCH  52  66
BRANCH  53  77
ATOM     77  C   UNL     1       4.077  -4.787  -0.406  1.00  0.00     0.064 A 
ATOM     78  C   UNL     1       3.963  -3.720  -1.319  1.00  0.00     0.173 A 
ATOM     79  C   UNL     1       5.348  -5.058   0.113  1.00  0.00     0.173 A 
ATOM     80  F   UNL     1       2.764  -3.413  -1.840  1.00  0.00    -0.203 F 
ATOM     81  C   UNL     1       5.044  -2.890  -1.606  1.00  0.00     0.198 A 
ATOM     82  C   UNL     1       6.435  -4.232  -0.191  1.00  0.00     0.198 A 
ATOM     83  F   UNL     1       5.521  -6.040   1.008  1.00  0.00    -0.203 F 
ATOM     84  F   UNL     1       4.870  -1.812  -2.384  1.00  0.00    -0.200 F 
ATOM     85  C   UNL     1       6.274  -3.131  -1.020  1.00  0.00     0.200 A 
ATOM     86  F   UNL     1       7.617  -4.442   0.407  1.00  0.00    -0.200 F 
ATOM     87  F   UNL     1       7.290  -2.278  -1.213  1.00  0.00    -0.200 F 
ENDBRANCH  53  77
BRANCH  65  88
ATOM     88  C   UNL     1       2.155 -10.521   3.493  1.00  0.00     0.064 A 
ATOM     89  C   UNL     1       3.089 -11.335   2.830  1.00  0.00     0.173 A 
ATOM     90  C   UNL     1       1.498 -11.131   4.591  1.00  0.00     0.173 A 
ATOM     91  F   UNL     1       3.878 -10.851   1.863  1.00  0.00    -0.203 F 
ATOM     92  C   UNL     1       3.295 -12.672   3.185  1.00  0.00     0.198 A 
ATOM     93  C   UNL     1       1.755 -12.444   4.985  1.00  0.00     0.198 A 
ATOM     94  F   UNL     1       0.607 -10.461   5.336  1.00  0.00    -0.203 F 
ATOM     95  F   UNL     1       4.163 -13.417   2.486  1.00  0.00    -0.200 F 
ATOM     96  C   UNL     1       2.640 -13.222   4.269  1.00  0.00     0.200 A 
ATOM     97  F   UNL     1       1.156 -12.941   6.076  1.00  0.00    -0.200 F 
ATOM     98  F   UNL     1       2.880 -14.488   4.638  1.00  0.00    -0.200 F 
ENDBRANCH  65  88
ENDBRANCH  39  40
ENDBRANCH  31  34
ENDBRANCH  29  30
ENDBRANCH  28  29
ENDBRANCH  27  28
ENDBRANCH   1  27
TORSDOF 15
