REMARK SMILES CC[NH2+][C@@]1(C(=O)NCCCCNC(=O)c2ccc(-c3c4nc(c(-c5c(F)c(F)c(F)c(F)c5F)c5ccc([nH]5)c(-c5c(F)c(F)c(F)c(F)c5F)c5nc(c(-c6c(F)c(F)c(F)c(F)c6F)c6ccc3[nH]6)C=C5)C=C4)cc2)CC[C@H](Sc2nccc(=O)[nH]2)C1
REMARK SMILES IDX 9 1 8 2 7 3 5 4 6 5 4 7 78 8 89 9 79 10 80 11 3 12 2 15 1 16
REMARK SMILES IDX 81 17 82 18 83 19 88 20 84 21 86 22 85 24 87 25 10 26 11 27
REMARK SMILES IDX 12 28 13 29 14 31 15 32 16 33 77 34 17 35 76 36 18 37 19 38
REMARK SMILES IDX 20 39 70 40 21 41 75 42 69 43 71 44 22 45 74 46 68 47 67 48
REMARK SMILES IDX 23 50 55 51 35 52 54 53 36 54 39 55 53 56 72 57 37 58 38 59
REMARK SMILES IDX 52 61 73 62 40 63 24 64 25 65 33 66 26 67 27 68 31 69 34 70
REMARK SMILES IDX 28 71 29 72 32 73 30 74 56 75 57 76 65 77 58 78 59 79 63 80
REMARK SMILES IDX 66 81 60 82 61 83 64 84 62 85 41 86 42 87 50 88 43 89 44 90
REMARK SMILES IDX 48 91 51 92 45 93 46 94 49 95 47 96
REMARK H PARENT 7 6 3 13 3 14 88 23 12 30 71 49 39 60
REMARK Flexibility Score: inf
ROOT
ATOM      1  C   UNL     1       0.937  -5.550   5.621  1.00  0.00     0.023 C 
ENDROOT
BRANCH   1   2
ATOM      2  C   UNL     1      -0.065  -4.695   4.863  1.00  0.00     0.116 C 
BRANCH   2   3
ATOM      3  N   UNL     1       0.274  -3.303   4.854  1.00  0.00    -0.351 N 
ATOM      4  C   UNL     1       0.517  -2.455   3.820  1.00  0.00     0.281 C 
ATOM      5  O   UNL     1       0.928  -1.338   4.170  1.00  0.00    -0.268 OA
ATOM      6  H   UNL     1       0.344  -2.892   5.745  1.00  0.00     0.163 HD
BRANCH   4   7
ATOM      7  C   UNL     1       0.359  -2.835   2.271  1.00  0.00     0.176 C 
ATOM      8  C   UNL     1      -1.056  -3.329   1.913  1.00  0.00     0.080 C 
ATOM      9  C   UNL     1       1.322  -3.977   1.887  1.00  0.00     0.094 C 
ATOM     10  C   UNL     1      -0.979  -4.835   1.653  1.00  0.00     0.022 C 
ATOM     11  C   UNL     1       0.479  -5.140   1.312  1.00  0.00     0.062 C 
BRANCH   7  12
ATOM     12  N   UNL     1       0.693  -1.565   1.586  1.00  0.00    -0.334 N 
ATOM     13  H   UNL     1       0.094  -0.850   1.999  1.00  0.00     0.347 HD
ATOM     14  H   UNL     1       1.701  -1.500   1.725  1.00  0.00     0.347 HD
BRANCH  12  15
ATOM     15  C   UNL     1       0.568  -1.421   0.152  1.00  0.00     0.257 C 
ATOM     16  C   UNL     1       1.193  -0.089  -0.256  1.00  0.00     0.071 C 
ENDBRANCH  12  15
ENDBRANCH   7  12
BRANCH  11  17
ATOM     17  S   UNL     1       1.264  -6.723   1.794  1.00  0.00    -0.084 SA
BRANCH  17  18
ATOM     18  C   UNL     1       0.039  -7.770   2.431  1.00  0.00     0.168 A 
ATOM     19  N   UNL     1      -1.180  -7.812   2.014  1.00  0.00    -0.233 NA
ATOM     20  N   UNL     1       0.535  -8.577   3.412  1.00  0.00    -0.301 N 
ATOM     21  C   UNL     1      -1.996  -8.736   2.624  1.00  0.00     0.120 A 
ATOM     22  C   UNL     1      -0.225  -9.516   4.044  1.00  0.00     0.251 A 
ATOM     23  H   UNL     1       1.479  -8.476   3.675  1.00  0.00     0.172 HD
ATOM     24  C   UNL     1      -1.620  -9.581   3.590  1.00  0.00     0.091 A 
ATOM     25  O   UNL     1       0.218 -10.250   4.918  1.00  0.00    -0.269 OA
ENDBRANCH  17  18
ENDBRANCH  11  17
ENDBRANCH   4   7
ENDBRANCH   2   3
ENDBRANCH   1   2
BRANCH   1  26
ATOM     26  C   UNL     1       0.694  -5.651   7.117  1.00  0.00     0.023 C 
BRANCH  26  27
ATOM     27  C   UNL     1      -0.732  -5.994   7.526  1.00  0.00     0.116 C 
BRANCH  27  28
ATOM     28  N   UNL     1      -1.336  -7.106   6.793  1.00  0.00    -0.352 N 
ATOM     29  C   UNL     1      -2.118  -8.126   7.286  1.00  0.00     0.251 C 
ATOM     30  H   UNL     1      -1.162  -7.128   5.825  1.00  0.00     0.163 HD
ATOM     31  O   UNL     1      -2.607  -8.972   6.553  1.00  0.00    -0.269 OA
BRANCH  29  32
ATOM     32  C   UNL     1      -2.334  -8.184   8.741  1.00  0.00     0.039 A 
ATOM     33  C   UNL     1      -1.882  -9.296   9.455  1.00  0.00     0.014 A 
ATOM     34  C   UNL     1      -2.852  -7.066   9.396  1.00  0.00     0.014 A 
ATOM     35  C   UNL     1      -1.869  -9.248  10.849  1.00  0.00     0.010 A 
ATOM     36  C   UNL     1      -2.744  -6.985  10.776  1.00  0.00     0.010 A 
ATOM     37  C   UNL     1      -2.252  -8.073  11.516  1.00  0.00    -0.014 A 
BRANCH  37  38
ATOM     38  C   UNL     1      -2.172  -7.941  12.992  1.00  0.00     0.031 A 
ATOM     39  C   UNL     1      -3.427  -7.661  13.768  1.00  0.00     0.074 A 
ATOM     40  C   UNL     1      -0.976  -7.955  13.612  1.00  0.00     0.049 A 
ATOM     41  N   UNL     1      -3.570  -7.322  15.023  1.00  0.00    -0.248 NA
ATOM     42  C   UNL     1      -4.690  -7.720  13.014  1.00  0.00     0.031 C 
ATOM     43  C   UNL     1       0.319  -8.163  12.961  1.00  0.00     0.029 A 
ATOM     44  N   UNL     1      -0.655  -7.767  14.933  1.00  0.00    -0.354 N 
ATOM     45  C   UNL     1      -4.928  -7.084  15.193  1.00  0.00     0.074 A 
ATOM     46  C   UNL     1      -5.558  -7.266  13.904  1.00  0.00     0.031 C 
ATOM     47  C   UNL     1       1.291  -8.110  13.887  1.00  0.00     0.029 A 
ATOM     48  C   UNL     1       0.693  -7.824  15.188  1.00  0.00     0.049 A 
ATOM     49  H   UNL     1      -1.329  -7.606  15.633  1.00  0.00     0.167 HD
ATOM     50  C   UNL     1      -5.593  -6.769  16.329  1.00  0.00     0.037 A 
ATOM     51  C   UNL     1       1.368  -7.655  16.341  1.00  0.00     0.037 A 
ATOM     52  C   UNL     1      -4.969  -6.652  17.618  1.00  0.00     0.049 A 
ATOM     53  C   UNL     1       0.601  -7.351  17.599  1.00  0.00     0.074 A 
ATOM     54  C   UNL     1      -5.560  -6.412  18.845  1.00  0.00     0.029 A 
ATOM     55  N   UNL     1      -3.606  -6.781  17.846  1.00  0.00    -0.354 N 
ATOM     56  N   UNL     1      -0.689  -7.180  17.761  1.00  0.00    -0.248 NA
ATOM     57  C   UNL     1       1.382  -7.222  18.837  1.00  0.00     0.031 C 
ATOM     58  C   UNL     1      -4.551  -6.369  19.814  1.00  0.00     0.029 A 
ATOM     59  C   UNL     1      -3.337  -6.621  19.195  1.00  0.00     0.049 A 
ATOM     60  H   UNL     1      -2.932  -6.960  17.152  1.00  0.00     0.167 HD
ATOM     61  C   UNL     1      -0.877  -6.952  19.117  1.00  0.00     0.074 A 
ATOM     62  C   UNL     1       0.430  -7.018  19.737  1.00  0.00     0.031 C 
ATOM     63  C   UNL     1      -2.029  -6.708  19.790  1.00  0.00     0.037 A 
BRANCH  50  64
ATOM     64  C   UNL     1      -7.072  -6.542  16.222  1.00  0.00     0.064 A 
ATOM     65  C   UNL     1      -7.960  -7.595  15.951  1.00  0.00     0.173 A 
ATOM     66  C   UNL     1      -7.611  -5.260  16.406  1.00  0.00     0.173 A 
ATOM     67  F   UNL     1      -7.494  -8.837  15.751  1.00  0.00    -0.203 F 
ATOM     68  C   UNL     1      -9.328  -7.365  15.831  1.00  0.00     0.198 A 
ATOM     69  C   UNL     1      -8.983  -5.040  16.318  1.00  0.00     0.198 A 
ATOM     70  F   UNL     1      -6.807  -4.219  16.670  1.00  0.00    -0.203 F 
ATOM     71  F   UNL     1     -10.149  -8.375  15.512  1.00  0.00    -0.200 F 
ATOM     72  C   UNL     1      -9.839  -6.090  16.021  1.00  0.00     0.200 A 
ATOM     73  F   UNL     1      -9.477  -3.810  16.512  1.00  0.00    -0.200 F 
ATOM     74  F   UNL     1     -11.156  -5.872  15.909  1.00  0.00    -0.200 F 
ENDBRANCH  50  64
BRANCH  51  75
ATOM     75  C   UNL     1       2.847  -7.803  16.368  1.00  0.00     0.064 A 
ATOM     76  C   UNL     1       3.443  -8.909  16.989  1.00  0.00     0.173 A 
ATOM     77  C   UNL     1       3.692  -6.849  15.782  1.00  0.00     0.173 A 
ATOM     78  F   UNL     1       2.676  -9.837  17.581  1.00  0.00    -0.203 F 
ATOM     79  C   UNL     1       4.829  -9.047  17.041  1.00  0.00     0.198 A 
ATOM     80  C   UNL     1       5.077  -7.001  15.813  1.00  0.00     0.198 A 
ATOM     81  F   UNL     1       3.171  -5.775  15.171  1.00  0.00    -0.203 F 
ATOM     82  F   UNL     1       5.372 -10.092  17.679  1.00  0.00    -0.200 F 
ATOM     83  C   UNL     1       5.644  -8.095  16.449  1.00  0.00     0.200 A 
ATOM     84  F   UNL     1       5.862  -6.085  15.229  1.00  0.00    -0.200 F 
ATOM     85  F   UNL     1       6.977  -8.229  16.497  1.00  0.00    -0.200 F 
ENDBRANCH  51  75
BRANCH  63  86
ATOM     86  C   UNL     1      -1.932  -6.538  21.276  1.00  0.00     0.064 A 
ATOM     87  C   UNL     1      -1.404  -5.372  21.849  1.00  0.00     0.173 A 
ATOM     88  C   UNL     1      -2.422  -7.533  22.135  1.00  0.00     0.173 A 
ATOM     89  F   UNL     1      -0.911  -4.400  21.068  1.00  0.00    -0.203 F 
ATOM     90  C   UNL     1      -1.351  -5.218  23.232  1.00  0.00     0.198 A 
ATOM     91  C   UNL     1      -2.391  -7.364  23.516  1.00  0.00     0.198 A 
ATOM     92  F   UNL     1      -2.942  -8.663  21.634  1.00  0.00    -0.203 F 
ATOM     93  F   UNL     1      -0.806  -4.114  23.760  1.00  0.00    -0.200 F 
ATOM     94  C   UNL     1      -1.851  -6.210  24.063  1.00  0.00     0.200 A 
ATOM     95  F   UNL     1      -2.886  -8.318  24.317  1.00  0.00    -0.200 F 
ATOM     96  F   UNL     1      -1.807  -6.056  25.393  1.00  0.00    -0.200 F 
ENDBRANCH  63  86
ENDBRANCH  37  38
ENDBRANCH  29  32
ENDBRANCH  27  28
ENDBRANCH  26  27
ENDBRANCH   1  26
TORSDOF 15
