REMARK SMILES Cc1ccc(-c2cc(OCC(=O)NCCCCNC(=O)c3ccc(-c4c5nc(c(-c6c(F)c(F)c(F)c(F)c6F)c6ccc([nH]6)c(-c6c(F)c(F)c(F)c(F)c6F)c6nc(c(-c7c(F)c(F)c(F)c(F)c7F)c7ccc4[nH]7)C=C6)C=C5)cc3)nc(NCc3ccc4c(c3)OCO4)n2)cc1
REMARK SMILES IDX 14 1 13 2 11 3 12 4 10 6 9 7 8 8 6 9 7 10 97 11 85 12 84 13
REMARK SMILES IDX 5 14 1 15 2 16 3 17 99 18 4 19 98 20 86 21 87 23 88 24 89 25
REMARK SMILES IDX 93 26 90 27 92 28 91 29 94 30 96 31 95 32 15 33 16 34 17 35
REMARK SMILES IDX 18 36 19 37 20 39 21 40 22 41 83 42 23 43 82 44 24 45 25 46
REMARK SMILES IDX 26 47 76 48 27 49 81 50 75 51 77 52 28 53 80 54 74 55 73 56
REMARK SMILES IDX 29 58 61 59 41 60 60 61 42 62 45 63 59 64 78 65 43 66 44 67
REMARK SMILES IDX 58 69 79 70 46 71 30 72 31 73 39 74 32 75 33 76 37 77 40 78
REMARK SMILES IDX 34 79 35 80 38 81 36 82 62 83 63 84 71 85 64 86 65 87 69 88
REMARK SMILES IDX 72 89 66 90 67 91 70 92 68 93 47 94 48 95 56 96 49 97 50 98
REMARK SMILES IDX 54 99 57 100 51 101 52 102 55 103 53 104
REMARK H PARENT 13 5 86 22 18 38 77 57 45 68
REMARK Flexibility Score: inf
ROOT
ATOM      1  C   UNL     1      -6.822   3.951  -1.612  1.00  0.00     0.116 C 
ENDROOT
BRANCH   1   2
ATOM      2  N   UNL     1      -5.411   3.945  -1.958  1.00  0.00    -0.353 N 
ATOM      3  C   UNL     1      -4.693   2.990  -2.617  1.00  0.00     0.258 C 
ATOM      4  O   UNL     1      -3.497   3.195  -2.837  1.00  0.00    -0.271 OA
ATOM      5  H   UNL     1      -4.902   4.740  -1.678  1.00  0.00     0.163 HD
BRANCH   3   6
ATOM      6  C   UNL     1      -5.376   1.699  -3.082  1.00  0.00     0.331 C 
BRANCH   6   7
ATOM      7  O   UNL     1      -5.968   0.903  -2.071  1.00  0.00    -0.467 OA
BRANCH   7   8
ATOM      8  C   UNL     1      -5.155   0.450  -1.071  1.00  0.00     0.219 A 
ATOM      9  C   UNL     1      -3.155  -0.077   0.001  1.00  0.00     0.080 A 
ATOM     10  C   UNL     1      -3.791   0.354  -1.144  1.00  0.00     0.097 A 
ATOM     11  N   UNL     1      -3.821  -0.442   1.114  1.00  0.00    -0.213 NA
ATOM     12  C   UNL     1      -5.151  -0.319   1.089  1.00  0.00     0.226 A 
ATOM     13  N   UNL     1      -5.841   0.121   0.033  1.00  0.00    -0.177 NA
BRANCH   9  14
ATOM     14  C   UNL     1      -1.691  -0.087   0.075  1.00  0.00     0.000 A 
ATOM     15  C   UNL     1       2.635  -0.075   0.037  1.00  0.00     0.044 C 
ATOM     16  C   UNL     1       1.136  -0.071   0.074  1.00  0.00    -0.051 A 
ATOM     17  C   UNL     1       0.429  -1.278   0.148  1.00  0.00     0.004 A 
ATOM     18  C   UNL     1       0.423   1.129   0.013  1.00  0.00     0.004 A 
ATOM     19  C   UNL     1      -0.970  -1.285   0.158  1.00  0.00     0.010 A 
ATOM     20  C   UNL     1      -0.973   1.120   0.013  1.00  0.00     0.010 A 
ENDBRANCH   9  14
BRANCH  12  21
ATOM     21  N   UNL     1      -5.910  -0.606   2.192  1.00  0.00    -0.350 N 
ATOM     22  H   UNL     1      -6.765  -0.136   2.323  1.00  0.00     0.164 HD
BRANCH  21  23
ATOM     23  C   UNL     1      -5.486  -1.579   3.165  1.00  0.00     0.152 C 
BRANCH  23  24
ATOM     24  C   UNL     1      -5.832  -3.005   2.773  1.00  0.00    -0.025 A 
ATOM     25  C   UNL     1      -5.243  -4.067   3.504  1.00  0.00     0.009 A 
ATOM     26  C   UNL     1      -6.724  -3.315   1.729  1.00  0.00     0.056 A 
ATOM     27  C   UNL     1      -5.493  -5.405   3.176  1.00  0.00     0.051 A 
ATOM     28  C   UNL     1      -6.931  -4.640   1.413  1.00  0.00     0.166 A 
ATOM     29  C   UNL     1      -6.327  -5.657   2.111  1.00  0.00     0.165 A 
ATOM     30  O   UNL     1      -7.707  -5.100   0.394  1.00  0.00    -0.454 OA
ATOM     31  O   UNL     1      -6.641  -6.883   1.612  1.00  0.00    -0.454 OA
ATOM     32  C   UNL     1      -7.391  -6.505   0.439  1.00  0.00     0.468 C 
ENDBRANCH  23  24
ENDBRANCH  21  23
ENDBRANCH  12  21
ENDBRANCH   7   8
ENDBRANCH   6   7
ENDBRANCH   3   6
ENDBRANCH   1   2
BRANCH   1  33
ATOM     33  C   UNL     1      -7.109   3.579  -0.152  1.00  0.00     0.023 C 
BRANCH  33  34
ATOM     34  C   UNL     1      -6.296   4.326   0.909  1.00  0.00     0.023 C 
BRANCH  34  35
ATOM     35  C   UNL     1      -6.528   5.829   0.940  1.00  0.00     0.116 C 
BRANCH  35  36
ATOM     36  N   UNL     1      -7.634   6.272   1.777  1.00  0.00    -0.352 N 
ATOM     37  C   UNL     1      -8.197   7.534   1.912  1.00  0.00     0.251 C 
ATOM     38  H   UNL     1      -8.045   5.570   2.331  1.00  0.00     0.163 HD
ATOM     39  O   UNL     1      -9.050   7.733   2.759  1.00  0.00    -0.269 OA
BRANCH  37  40
ATOM     40  C   UNL     1      -7.863   8.606   0.933  1.00  0.00     0.039 A 
ATOM     41  C   UNL     1      -8.907   9.412   0.456  1.00  0.00     0.014 A 
ATOM     42  C   UNL     1      -6.606   8.689   0.347  1.00  0.00     0.014 A 
ATOM     43  C   UNL     1      -8.758  10.084  -0.757  1.00  0.00     0.010 A 
ATOM     44  C   UNL     1      -6.493   9.246  -0.908  1.00  0.00     0.010 A 
ATOM     45  C   UNL     1      -7.589   9.888  -1.488  1.00  0.00    -0.014 A 
BRANCH  45  46
ATOM     46  C   UNL     1      -7.455  10.196  -2.905  1.00  0.00     0.031 A 
ATOM     47  C   UNL     1      -6.598  11.308  -3.360  1.00  0.00     0.074 A 
ATOM     48  C   UNL     1      -7.983   9.339  -3.807  1.00  0.00     0.049 A 
ATOM     49  N   UNL     1      -6.714  11.879  -4.511  1.00  0.00    -0.248 NA
ATOM     50  C   UNL     1      -5.535  11.878  -2.540  1.00  0.00     0.031 C 
ATOM     51  C   UNL     1      -7.684   9.256  -5.234  1.00  0.00     0.029 A 
ATOM     52  N   UNL     1      -9.060   8.455  -3.628  1.00  0.00    -0.354 N 
ATOM     53  C   UNL     1      -5.597  12.659  -4.702  1.00  0.00     0.074 A 
ATOM     54  C   UNL     1      -4.927  12.677  -3.422  1.00  0.00     0.031 C 
ATOM     55  C   UNL     1      -8.698   8.635  -5.856  1.00  0.00     0.029 A 
ATOM     56  C   UNL     1      -9.742   8.437  -4.867  1.00  0.00     0.049 A 
ATOM     57  H   UNL     1      -9.291   7.954  -2.812  1.00  0.00     0.167 HD
ATOM     58  C   UNL     1      -5.286  13.081  -5.962  1.00  0.00     0.037 A 
ATOM     59  C   UNL     1     -11.022   8.897  -4.981  1.00  0.00     0.037 A 
ATOM     60  C   UNL     1      -6.275  12.625  -6.934  1.00  0.00     0.049 A 
ATOM     61  C   UNL     1     -11.176  10.026  -5.972  1.00  0.00     0.074 A 
ATOM     62  C   UNL     1      -6.292  11.557  -7.817  1.00  0.00     0.029 A 
ATOM     63  N   UNL     1      -7.581  13.097  -6.864  1.00  0.00    -0.354 N 
ATOM     64  N   UNL     1     -10.194  10.793  -6.355  1.00  0.00    -0.248 NA
ATOM     65  C   UNL     1     -12.443  10.388  -6.597  1.00  0.00     0.031 C 
ATOM     66  C   UNL     1      -7.620  11.377  -8.269  1.00  0.00     0.029 A 
ATOM     67  C   UNL     1      -8.410  12.341  -7.668  1.00  0.00     0.049 A 
ATOM     68  H   UNL     1      -7.873  13.863  -6.318  1.00  0.00     0.167 HD
ATOM     69  C   UNL     1     -10.658  11.724  -7.250  1.00  0.00     0.074 A 
ATOM     70  C   UNL     1     -12.071  11.420  -7.376  1.00  0.00     0.031 C 
ATOM     71  C   UNL     1      -9.824  12.656  -7.804  1.00  0.00     0.037 A 
BRANCH  58  72
ATOM     72  C   UNL     1      -3.931  13.635  -6.339  1.00  0.00     0.064 A 
ATOM     73  C   UNL     1      -3.362  13.379  -7.607  1.00  0.00     0.173 A 
ATOM     74  C   UNL     1      -3.120  14.389  -5.471  1.00  0.00     0.173 A 
ATOM     75  F   UNL     1      -4.055  12.776  -8.580  1.00  0.00    -0.203 F 
ATOM     76  C   UNL     1      -2.048  13.731  -7.926  1.00  0.00     0.198 A 
ATOM     77  C   UNL     1      -1.787  14.693  -5.768  1.00  0.00     0.198 A 
ATOM     78  F   UNL     1      -3.610  14.888  -4.328  1.00  0.00    -0.203 F 
ATOM     79  F   UNL     1      -1.561  13.446  -9.141  1.00  0.00    -0.200 F 
ATOM     80  C   UNL     1      -1.247  14.351  -6.991  1.00  0.00     0.200 A 
ATOM     81  F   UNL     1      -1.029  15.319  -4.856  1.00  0.00    -0.200 F 
ATOM     82  F   UNL     1       0.030  14.640  -7.277  1.00  0.00    -0.200 F 
ENDBRANCH  58  72
BRANCH  59  83
ATOM     83  C   UNL     1     -11.808   8.731  -3.730  1.00  0.00     0.064 A 
ATOM     84  C   UNL     1     -12.024   7.422  -3.253  1.00  0.00     0.173 A 
ATOM     85  C   UNL     1     -11.973   9.785  -2.824  1.00  0.00     0.173 A 
ATOM     86  F   UNL     1     -11.873   6.376  -4.082  1.00  0.00    -0.203 F 
ATOM     87  C   UNL     1     -12.260   7.172  -1.904  1.00  0.00     0.198 A 
ATOM     88  C   UNL     1     -12.229   9.530  -1.474  1.00  0.00     0.198 A 
ATOM     89  F   UNL     1     -11.766  11.051  -3.211  1.00  0.00    -0.203 F 
ATOM     90  F   UNL     1     -12.329   5.908  -1.462  1.00  0.00    -0.200 F 
ATOM     91  C   UNL     1     -12.333   8.226  -1.010  1.00  0.00     0.200 A 
ATOM     92  F   UNL     1     -12.273  10.547  -0.601  1.00  0.00    -0.200 F 
ATOM     93  F   UNL     1     -12.458   7.985   0.302  1.00  0.00    -0.200 F 
ENDBRANCH  59  83
BRANCH  71  94
ATOM     94  C   UNL     1     -10.207  13.881  -8.613  1.00  0.00     0.064 A 
ATOM     95  C   UNL     1     -11.470  14.491  -8.586  1.00  0.00     0.173 A 
ATOM     96  C   UNL     1      -9.221  14.581  -9.360  1.00  0.00     0.173 A 
ATOM     97  F   UNL     1     -12.465  14.013  -7.829  1.00  0.00    -0.203 F 
ATOM     98  C   UNL     1     -11.744  15.668  -9.295  1.00  0.00     0.198 A 
ATOM     99  C   UNL     1      -9.480  15.786 -10.012  1.00  0.00     0.198 A 
ATOM    100  F   UNL     1      -7.960  14.137  -9.461  1.00  0.00    -0.203 F 
ATOM    101  F   UNL     1     -12.981  16.183  -9.268  1.00  0.00    -0.200 F 
ATOM    102  C   UNL     1     -10.748  16.322  -9.994  1.00  0.00     0.200 A 
ATOM    103  F   UNL     1      -8.485  16.431 -10.638  1.00  0.00    -0.200 F 
ATOM    104  F   UNL     1     -11.003  17.474 -10.626  1.00  0.00    -0.200 F 
ENDBRANCH  71  94
ENDBRANCH  45  46
ENDBRANCH  37  40
ENDBRANCH  35  36
ENDBRANCH  34  35
ENDBRANCH  33  34
ENDBRANCH   1  33
TORSDOF 17
