REMARK SMILES C[NH+]1CCC2(CC1)OC[C@H](C(=O)NCCCCNC(=O)c1ccc(-c3c4nc(c(-c5c(F)c(F)c(F)c(F)c5F)c5ccc([nH]5)c(-c5c(F)c(F)c(F)c(F)c5F)c5nc(c(-c6c(F)c(F)c(F)c(F)c6F)c6ccc3[nH]6)C=C5)C=C4)cc1)N2C(=O)c1cc(C(F)(F)F)cc(C(F)(F)F)c1
REMARK SMILES IDX 15 1 14 2 13 3 11 4 12 5 10 7 1 8 2 9 3 10 7 11 4 13 6 14
REMARK SMILES IDX 5 15 8 16 84 17 9 18 85 19 86 20 87 21 88 22 100 23 89 24
REMARK SMILES IDX 95 25 94 26 90 27 91 28 92 29 93 30 96 31 97 32 98 33 99 34
REMARK SMILES IDX 16 35 17 36 18 37 19 38 20 40 21 41 22 42 83 43 23 44 82 45
REMARK SMILES IDX 24 46 25 47 26 48 76 49 27 50 81 51 75 52 77 53 28 54 80 55
REMARK SMILES IDX 74 56 73 57 29 59 61 60 41 61 60 62 42 63 45 64 59 65 78 66
REMARK SMILES IDX 43 67 44 68 58 70 79 71 46 72 30 73 31 74 39 75 32 76 33 77
REMARK SMILES IDX 37 78 40 79 34 80 35 81 38 82 36 83 62 84 63 85 71 86 64 87
REMARK SMILES IDX 65 88 69 89 72 90 66 91 67 92 70 93 68 94 47 95 48 96 56 97
REMARK SMILES IDX 49 98 50 99 54 100 57 101 51 102 52 103 55 104 53 105
REMARK H PARENT 13 6 2 12 18 39 77 58 45 69
REMARK Flexibility Score: inf
ROOT
ATOM      1  C   UNL     1      -2.141   8.279  -0.923  1.00  0.00     0.023 C 
ENDROOT
BRANCH   1   2
ATOM      2  C   UNL     1      -2.213   7.542  -2.259  1.00  0.00     0.116 C 
BRANCH   2   3
ATOM      3  N   UNL     1      -0.956   6.893  -2.571  1.00  0.00    -0.354 N 
ATOM      4  C   UNL     1      -0.602   5.580  -2.500  1.00  0.00     0.245 C 
ATOM      5  O   UNL     1       0.598   5.335  -2.644  1.00  0.00    -0.273 OA
ATOM      6  H   UNL     1      -0.245   7.497  -2.884  1.00  0.00     0.163 HD
BRANCH   4   7
ATOM      7  C   UNL     1      -1.664   4.479  -2.304  1.00  0.00     0.203 C 
ATOM      8  C   UNL     1       1.569  -0.614  -0.210  1.00  0.00     0.332 C 
ATOM      9  N   UNL     1       0.771   0.558   0.127  1.00  0.00    -0.337 N 
ATOM     10  C   UNL     1       1.389   1.790  -0.356  1.00  0.00     0.267 C 
ATOM     11  C   UNL     1      -0.651   0.368  -0.160  1.00  0.00     0.267 C 
ATOM     12  H   UNL     1       0.772   0.679   1.140  1.00  0.00     0.347 HD
ATOM     13  C   UNL     1       0.870   2.321  -1.667  1.00  0.00     0.120 C 
ATOM     14  C   UNL     1      -1.222   0.996  -1.423  1.00  0.00     0.120 C 
ATOM     15  C   UNL     1      -0.656   2.371  -1.770  1.00  0.00     0.155 C 
ATOM     16  O   UNL     1      -0.869   2.471  -3.221  1.00  0.00    -0.352 OA
ATOM     17  N   UNL     1      -1.353   3.563  -1.216  1.00  0.00    -0.295 N 
ATOM     18  C   UNL     1      -1.699   3.592  -3.518  1.00  0.00     0.198 C 
BRANCH  17  19
ATOM     19  C   UNL     1      -1.836   3.966   0.029  1.00  0.00     0.256 C 
ATOM     20  O   UNL     1      -2.457   5.022   0.176  1.00  0.00    -0.269 OA
BRANCH  19  21
ATOM     21  C   UNL     1      -1.715   3.166   1.254  1.00  0.00     0.041 A 
ATOM     22  C   UNL     1      -2.849   2.554   1.809  1.00  0.00     0.027 A 
ATOM     23  C   UNL     1      -0.509   3.132   1.947  1.00  0.00     0.027 A 
ATOM     24  C   UNL     1      -2.737   1.782   2.982  1.00  0.00     0.057 A 
ATOM     25  C   UNL     1      -0.339   2.254   3.028  1.00  0.00     0.057 A 
ATOM     26  C   UNL     1      -1.464   1.597   3.550  1.00  0.00     0.026 A 
BRANCH  24  27
ATOM     27  C   UNL     1      -3.959   1.154   3.611  1.00  0.00     0.416 C 
ATOM     28  F   UNL     1      -4.843   2.084   4.064  1.00  0.00    -0.166 F 
ATOM     29  F   UNL     1      -4.649   0.368   2.741  1.00  0.00    -0.166 F 
ATOM     30  F   UNL     1      -3.670   0.363   4.682  1.00  0.00    -0.166 F 
ENDBRANCH  24  27
BRANCH  25  31
ATOM     31  C   UNL     1       1.040   1.950   3.569  1.00  0.00     0.416 C 
ATOM     32  F   UNL     1       1.177   2.309   4.874  1.00  0.00    -0.166 F 
ATOM     33  F   UNL     1       1.334   0.621   3.518  1.00  0.00    -0.166 F 
ATOM     34  F   UNL     1       2.042   2.582   2.898  1.00  0.00    -0.166 F 
ENDBRANCH  25  31
ENDBRANCH  19  21
ENDBRANCH  17  19
ENDBRANCH   4   7
ENDBRANCH   2   3
ENDBRANCH   1   2
BRANCH   1  35
ATOM     35  C   UNL     1      -1.096   9.396  -0.861  1.00  0.00     0.023 C 
BRANCH  35  36
ATOM     36  C   UNL     1      -1.168  10.421  -1.987  1.00  0.00     0.116 C 
BRANCH  36  37
ATOM     37  N   UNL     1      -2.462  11.079  -2.071  1.00  0.00    -0.352 N 
ATOM     38  C   UNL     1      -2.758  12.419  -2.157  1.00  0.00     0.251 C 
ATOM     39  H   UNL     1      -3.241  10.477  -2.065  1.00  0.00     0.163 HD
ATOM     40  O   UNL     1      -3.917  12.800  -2.080  1.00  0.00    -0.269 OA
BRANCH  38  41
ATOM     41  C   UNL     1      -1.664  13.403  -2.311  1.00  0.00     0.039 A 
ATOM     42  C   UNL     1      -1.676  14.547  -1.510  1.00  0.00     0.014 A 
ATOM     43  C   UNL     1      -0.631  13.197  -3.228  1.00  0.00     0.014 A 
ATOM     44  C   UNL     1      -0.615  15.451  -1.580  1.00  0.00     0.010 A 
ATOM     45  C   UNL     1       0.463  14.058  -3.242  1.00  0.00     0.010 A 
ATOM     46  C   UNL     1       0.483  15.194  -2.417  1.00  0.00    -0.014 A 
BRANCH  46  47
ATOM     47  C   UNL     1       1.663  16.097  -2.436  1.00  0.00     0.031 A 
ATOM     48  C   UNL     1       2.033  16.835  -3.693  1.00  0.00     0.074 A 
ATOM     49  C   UNL     1       2.437  16.205  -1.338  1.00  0.00     0.049 A 
ATOM     50  N   UNL     1       3.061  17.613  -3.925  1.00  0.00    -0.248 NA
ATOM     51  C   UNL     1       1.144  16.658  -4.852  1.00  0.00     0.031 C 
ATOM     52  C   UNL     1       2.211  15.506  -0.071  1.00  0.00     0.029 A 
ATOM     53  N   UNL     1       3.579  16.935  -1.113  1.00  0.00    -0.354 N 
ATOM     54  C   UNL     1       2.948  18.004  -5.253  1.00  0.00     0.074 A 
ATOM     55  C   UNL     1       1.783  17.338  -5.792  1.00  0.00     0.031 C 
ATOM     56  C   UNL     1       3.167  15.857   0.803  1.00  0.00     0.029 A 
ATOM     57  C   UNL     1       4.099  16.769   0.148  1.00  0.00     0.049 A 
ATOM     58  H   UNL     1       3.986  17.521  -1.790  1.00  0.00     0.167 HD
ATOM     59  C   UNL     1       3.732  18.860  -5.951  1.00  0.00     0.037 A 
ATOM     60  C   UNL     1       5.211  17.285   0.709  1.00  0.00     0.037 A 
ATOM     61  C   UNL     1       4.877  19.539  -5.403  1.00  0.00     0.049 A 
ATOM     62  C   UNL     1       6.074  18.218  -0.099  1.00  0.00     0.074 A 
ATOM     63  C   UNL     1       5.700  20.470  -6.014  1.00  0.00     0.029 A 
ATOM     64  N   UNL     1       5.366  19.356  -4.118  1.00  0.00    -0.354 N 
ATOM     65  N   UNL     1       5.914  18.639  -1.330  1.00  0.00    -0.248 NA
ATOM     66  C   UNL     1       7.269  18.756   0.566  1.00  0.00     0.031 C 
ATOM     67  C   UNL     1       6.719  20.807  -5.118  1.00  0.00     0.029 A 
ATOM     68  C   UNL     1       6.495  20.137  -3.927  1.00  0.00     0.049 A 
ATOM     69  H   UNL     1       4.970  18.760  -3.442  1.00  0.00     0.167 HD
ATOM     70  C   UNL     1       6.965  19.514  -1.574  1.00  0.00     0.074 A 
ATOM     71  C   UNL     1       7.746  19.577  -0.358  1.00  0.00     0.031 C 
ATOM     72  C   UNL     1       7.256  20.202  -2.705  1.00  0.00     0.037 A 
BRANCH  59  73
ATOM     73  C   UNL     1       3.380  19.119  -7.388  1.00  0.00     0.064 A 
ATOM     74  C   UNL     1       2.232  19.841  -7.747  1.00  0.00     0.173 A 
ATOM     75  C   UNL     1       4.233  18.691  -8.417  1.00  0.00     0.173 A 
ATOM     76  F   UNL     1       1.377  20.264  -6.803  1.00  0.00    -0.203 F 
ATOM     77  C   UNL     1       1.939  20.106  -9.082  1.00  0.00     0.198 A 
ATOM     78  C   UNL     1       3.954  18.986  -9.749  1.00  0.00     0.198 A 
ATOM     79  F   UNL     1       5.347  18.002  -8.130  1.00  0.00    -0.203 F 
ATOM     80  F   UNL     1       0.814  20.760  -9.403  1.00  0.00    -0.200 F 
ATOM     81  C   UNL     1       2.805  19.687 -10.081  1.00  0.00     0.200 A 
ATOM     82  F   UNL     1       4.801  18.595 -10.711  1.00  0.00    -0.200 F 
ATOM     83  F   UNL     1       2.530  19.956 -11.365  1.00  0.00    -0.200 F 
ENDBRANCH  59  73
BRANCH  60  84
ATOM     84  C   UNL     1       5.573  16.941   2.110  1.00  0.00     0.064 A 
ATOM     85  C   UNL     1       5.553  17.913   3.120  1.00  0.00     0.173 A 
ATOM     86  C   UNL     1       5.974  15.644   2.464  1.00  0.00     0.173 A 
ATOM     87  F   UNL     1       5.197  19.173   2.830  1.00  0.00    -0.203 F 
ATOM     88  C   UNL     1       5.953  17.611   4.421  1.00  0.00     0.198 A 
ATOM     89  C   UNL     1       6.340  15.334   3.772  1.00  0.00     0.198 A 
ATOM     90  F   UNL     1       6.006  14.674   1.539  1.00  0.00    -0.203 F 
ATOM     91  F   UNL     1       5.985  18.575   5.351  1.00  0.00    -0.200 F 
ATOM     92  C   UNL     1       6.342  16.321   4.747  1.00  0.00     0.200 A 
ATOM     93  F   UNL     1       6.700  14.082   4.086  1.00  0.00    -0.200 F 
ATOM     94  F   UNL     1       6.729  16.031   5.996  1.00  0.00    -0.200 F 
ENDBRANCH  60  84
BRANCH  72  95
ATOM     95  C   UNL     1       8.442  21.123  -2.668  1.00  0.00     0.064 A 
ATOM     96  C   UNL     1       9.756  20.637  -2.613  1.00  0.00     0.173 A 
ATOM     97  C   UNL     1       8.259  22.514  -2.730  1.00  0.00     0.173 A 
ATOM     98  F   UNL     1       9.986  19.318  -2.538  1.00  0.00    -0.203 F 
ATOM     99  C   UNL     1      10.841  21.510  -2.592  1.00  0.00     0.198 A 
ATOM    100  C   UNL     1       9.347  23.381  -2.745  1.00  0.00     0.198 A 
ATOM    101  F   UNL     1       7.022  23.032  -2.793  1.00  0.00    -0.203 F 
ATOM    102  F   UNL     1      12.086  21.024  -2.484  1.00  0.00    -0.200 F 
ATOM    103  C   UNL     1      10.637  22.879  -2.666  1.00  0.00     0.200 A 
ATOM    104  F   UNL     1       9.147  24.703  -2.834  1.00  0.00    -0.200 F 
ATOM    105  F   UNL     1      11.683  23.716  -2.655  1.00  0.00    -0.200 F 
ENDBRANCH  72  95
ENDBRANCH  46  47
ENDBRANCH  38  41
ENDBRANCH  36  37
ENDBRANCH  35  36
ENDBRANCH   1  35
TORSDOF 15
