REMARK SMILES COc1ccc2c(c1)OC[C@@]1(C(=O)NCCCCNC(=O)c3ccc(-c4c5nc(c(-c6c(F)c(F)c(F)c(F)c6F)c6ccc([nH]6)c(-c6c(F)c(F)c(F)c(F)c6F)c6nc(c(-c7c(F)c(F)c(F)c(F)c7F)c7ccc4[nH]7)C=C6)C=C5)cc3)C[N@@H+](Cc3cc(C(C)(C)C)n[nH]3)C[C@H]21
REMARK SMILES IDX 16 1 15 2 14 3 12 4 13 5 11 7 3 8 4 9 8 10 5 11 7 12 6 13
REMARK SMILES IDX 9 14 98 15 10 16 97 17 85 18 86 19 2 21 1 22 87 23 88 24
REMARK SMILES IDX 89 25 96 26 90 27 95 28 91 30 92 31 93 32 94 33 17 34 18 35
REMARK SMILES IDX 19 36 20 37 21 39 22 40 23 41 84 42 24 43 83 44 25 45 26 46
REMARK SMILES IDX 27 47 77 48 28 49 82 50 76 51 78 52 29 53 81 54 75 55 74 56
REMARK SMILES IDX 30 58 62 59 42 60 61 61 43 62 46 63 60 64 79 65 44 66 45 67
REMARK SMILES IDX 59 69 80 70 47 71 31 72 32 73 40 74 33 75 34 76 38 77 41 78
REMARK SMILES IDX 35 79 36 80 39 81 37 82 63 83 64 84 72 85 65 86 66 87 70 88
REMARK SMILES IDX 73 89 67 90 68 91 71 92 69 93 48 94 49 95 57 96 50 97 51 98
REMARK SMILES IDX 55 99 58 100 52 101 53 102 56 103 54 104
REMARK H PARENT 14 6 86 20 96 29 19 38 78 57 46 68
REMARK Flexibility Score: inf
ROOT
ATOM      1  C   UNL     1       4.446   6.873  -6.125  1.00  0.00     0.023 C 
ENDROOT
BRANCH   1   2
ATOM      2  C   UNL     1       3.958   5.574  -6.746  1.00  0.00     0.116 C 
BRANCH   2   3
ATOM      3  N   UNL     1       4.852   4.446  -6.563  1.00  0.00    -0.355 N 
ATOM      4  C   UNL     1       4.469   3.132  -6.671  1.00  0.00     0.236 C 
ATOM      5  O   UNL     1       5.273   2.353  -7.195  1.00  0.00    -0.274 OA
ATOM      6  H   UNL     1       5.793   4.635  -6.347  1.00  0.00     0.163 HD
BRANCH   4   7
ATOM      7  C   UNL     1       3.071   2.738  -6.129  1.00  0.00     0.144 C 
ATOM      8  C   UNL     1       0.573   0.338  -2.152  1.00  0.00     0.122 A 
ATOM      9  C   UNL     1      -0.310   0.246  -3.230  1.00  0.00     0.047 A 
ATOM     10  C   UNL     1       1.810   0.957  -2.335  1.00  0.00     0.093 A 
ATOM     11  C   UNL     1       0.019   0.798  -4.469  1.00  0.00     0.012 A 
ATOM     12  C   UNL     1       2.147   1.460  -3.593  1.00  0.00     0.126 A 
ATOM     13  C   UNL     1       1.251   1.438  -4.650  1.00  0.00     0.005 A 
ATOM     14  O   UNL     1       3.409   1.936  -3.787  1.00  0.00    -0.492 OA
ATOM     15  C   UNL     1       1.697   1.956  -5.998  1.00  0.00     0.103 C 
ATOM     16  C   UNL     1       3.839   1.722  -5.159  1.00  0.00     0.253 C 
ATOM     17  C   UNL     1       0.659   2.913  -6.585  1.00  0.00     0.272 C 
ATOM     18  C   UNL     1       2.684   2.820  -7.721  1.00  0.00     0.284 C 
ATOM     19  N   UNL     1       1.375   3.509  -7.696  1.00  0.00    -0.328 N 
ATOM     20  H   UNL     1       1.508   4.511  -7.559  1.00  0.00     0.348 HD
BRANCH   8  21
ATOM     21  O   UNL     1       0.126  -0.252  -1.003  1.00  0.00    -0.497 OA
ATOM     22  C   UNL     1       0.860   0.022   0.183  1.00  0.00     0.278 C 
ENDBRANCH   8  21
BRANCH  19  23
ATOM     23  C   UNL     1       0.641   3.572  -8.960  1.00  0.00     0.319 C 
BRANCH  23  24
ATOM     24  C   UNL     1       0.565   2.263  -9.645  1.00  0.00     0.090 A 
ATOM     25  C   UNL     1      -0.103   1.100  -9.338  1.00  0.00     0.055 A 
ATOM     26  N   UNL     1       1.333   1.966 -10.735  1.00  0.00    -0.277 N 
ATOM     27  C   UNL     1       0.514   0.108 -10.134  1.00  0.00     0.068 A 
ATOM     28  N   UNL     1       1.341   0.660 -11.035  1.00  0.00    -0.180 NA
ATOM     29  H   UNL     1       1.831   2.643 -11.247  1.00  0.00     0.190 HD
BRANCH  27  30
ATOM     30  C   UNL     1       0.404  -1.399 -10.011  1.00  0.00     0.006 C 
ATOM     31  C   UNL     1      -0.267  -1.985 -11.262  1.00  0.00     0.017 C 
ATOM     32  C   UNL     1       1.812  -2.011  -9.843  1.00  0.00     0.017 C 
ATOM     33  C   UNL     1      -0.424  -1.805  -8.771  1.00  0.00     0.017 C 
ENDBRANCH  27  30
ENDBRANCH  23  24
ENDBRANCH  19  23
ENDBRANCH   4   7
ENDBRANCH   2   3
ENDBRANCH   1   2
BRANCH   1  34
ATOM     34  C   UNL     1       5.910   7.234  -6.366  1.00  0.00     0.023 C 
BRANCH  34  35
ATOM     35  C   UNL     1       6.423   7.104  -7.795  1.00  0.00     0.116 C 
BRANCH  35  36
ATOM     36  N   UNL     1       5.814   8.027  -8.739  1.00  0.00    -0.352 N 
ATOM     37  C   UNL     1       6.401   9.008  -9.508  1.00  0.00     0.251 C 
ATOM     38  H   UNL     1       4.839   7.939  -8.845  1.00  0.00     0.163 HD
ATOM     39  O   UNL     1       5.716   9.728 -10.228  1.00  0.00    -0.269 OA
BRANCH  37  40
ATOM     40  C   UNL     1       7.859   9.236  -9.411  1.00  0.00     0.039 A 
ATOM     41  C   UNL     1       8.757   8.173  -9.508  1.00  0.00     0.014 A 
ATOM     42  C   UNL     1       8.322  10.524  -9.129  1.00  0.00     0.014 A 
ATOM     43  C   UNL     1      10.074   8.354  -9.100  1.00  0.00     0.010 A 
ATOM     44  C   UNL     1       9.669  10.722  -8.816  1.00  0.00     0.010 A 
ATOM     45  C   UNL     1      10.541   9.625  -8.727  1.00  0.00    -0.014 A 
BRANCH  45  46
ATOM     46  C   UNL     1      11.928   9.776  -8.208  1.00  0.00     0.031 A 
ATOM     47  C   UNL     1      12.173  10.226  -6.789  1.00  0.00     0.074 A 
ATOM     48  C   UNL     1      12.969   9.441  -8.994  1.00  0.00     0.049 A 
ATOM     49  N   UNL     1      13.312  10.418  -6.170  1.00  0.00    -0.248 NA
ATOM     50  C   UNL     1      10.991  10.500  -5.956  1.00  0.00     0.031 C 
ATOM     51  C   UNL     1      12.862   8.976 -10.377  1.00  0.00     0.029 A 
ATOM     52  N   UNL     1      14.316   9.415  -8.737  1.00  0.00    -0.354 N 
ATOM     53  C   UNL     1      12.985  10.859  -4.893  1.00  0.00     0.074 A 
ATOM     54  C   UNL     1      11.542  10.925  -4.826  1.00  0.00     0.031 C 
ATOM     55  C   UNL     1      14.084   8.657 -10.829  1.00  0.00     0.029 A 
ATOM     56  C   UNL     1      15.066   8.958  -9.793  1.00  0.00     0.049 A 
ATOM     57  H   UNL     1      14.708   9.697  -7.879  1.00  0.00     0.167 HD
ATOM     58  C   UNL     1      13.813  11.168  -3.867  1.00  0.00     0.037 A 
ATOM     59  C   UNL     1      16.398   8.813  -9.922  1.00  0.00     0.037 A 
ATOM     60  C   UNL     1      15.248  11.058  -3.917  1.00  0.00     0.049 A 
ATOM     61  C   UNL     1      17.293   9.185  -8.775  1.00  0.00     0.074 A 
ATOM     62  C   UNL     1      16.168  11.324  -2.917  1.00  0.00     0.029 A 
ATOM     63  N   UNL     1      15.970  10.637  -5.023  1.00  0.00    -0.354 N 
ATOM     64  N   UNL     1      16.968   9.612  -7.579  1.00  0.00    -0.248 NA
ATOM     65  C   UNL     1      18.741   9.071  -8.999  1.00  0.00     0.031 C 
ATOM     66  C   UNL     1      17.449  11.097  -3.427  1.00  0.00     0.029 A 
ATOM     67  C   UNL     1      17.325  10.652  -4.733  1.00  0.00     0.049 A 
ATOM     68  H   UNL     1      15.579  10.368  -5.886  1.00  0.00     0.167 HD
ATOM     69  C   UNL     1      18.165   9.812  -6.908  1.00  0.00     0.074 A 
ATOM     70  C   UNL     1      19.225   9.435  -7.820  1.00  0.00     0.031 C 
ATOM     71  C   UNL     1      18.367  10.275  -5.652  1.00  0.00     0.037 A 
BRANCH  58  72
ATOM     72  C   UNL     1      13.204  11.657  -2.586  1.00  0.00     0.064 A 
ATOM     73  C   UNL     1      12.576  10.780  -1.691  1.00  0.00     0.173 A 
ATOM     74  C   UNL     1      13.344  13.000  -2.204  1.00  0.00     0.173 A 
ATOM     75  F   UNL     1      12.411   9.489  -2.015  1.00  0.00    -0.203 F 
ATOM     76  C   UNL     1      12.107  11.231  -0.460  1.00  0.00     0.198 A 
ATOM     77  C   UNL     1      12.892  13.443  -0.963  1.00  0.00     0.198 A 
ATOM     78  F   UNL     1      13.944  13.877  -3.022  1.00  0.00    -0.203 F 
ATOM     79  F   UNL     1      11.495  10.379   0.374  1.00  0.00    -0.200 F 
ATOM     80  C   UNL     1      12.275  12.558  -0.092  1.00  0.00     0.200 A 
ATOM     81  F   UNL     1      13.067  14.722  -0.604  1.00  0.00    -0.200 F 
ATOM     82  F   UNL     1      11.842  12.984   1.103  1.00  0.00    -0.200 F 
ENDBRANCH  58  72
BRANCH  59  83
ATOM     83  C   UNL     1      16.961   8.298 -11.196  1.00  0.00     0.064 A 
ATOM     84  C   UNL     1      17.550   7.029 -11.262  1.00  0.00     0.173 A 
ATOM     85  C   UNL     1      16.904   9.056 -12.375  1.00  0.00     0.173 A 
ATOM     86  F   UNL     1      17.647   6.277 -10.156  1.00  0.00    -0.203 F 
ATOM     87  C   UNL     1      18.068   6.539 -12.460  1.00  0.00     0.198 A 
ATOM     88  C   UNL     1      17.396   8.554 -13.577  1.00  0.00     0.198 A 
ATOM     89  F   UNL     1      16.348  10.276 -12.363  1.00  0.00    -0.203 F 
ATOM     90  F   UNL     1      18.657   5.336 -12.490  1.00  0.00    -0.200 F 
ATOM     91  C   UNL     1      17.982   7.298 -13.617  1.00  0.00     0.200 A 
ATOM     92  F   UNL     1      17.297   9.285 -14.696  1.00  0.00    -0.200 F 
ATOM     93  F   UNL     1      18.470   6.822 -14.771  1.00  0.00    -0.200 F 
ENDBRANCH  59  83
BRANCH  71  94
ATOM     94  C   UNL     1      19.784  10.399  -5.183  1.00  0.00     0.064 A 
ATOM     95  C   UNL     1      20.610  11.438  -5.633  1.00  0.00     0.173 A 
ATOM     96  C   UNL     1      20.301   9.509  -4.229  1.00  0.00     0.173 A 
ATOM     97  F   UNL     1      20.163  12.304  -6.555  1.00  0.00    -0.203 F 
ATOM     98  C   UNL     1      21.910  11.575  -5.154  1.00  0.00     0.198 A 
ATOM     99  C   UNL     1      21.593   9.663  -3.735  1.00  0.00     0.198 A 
ATOM    100  F   UNL     1      19.545   8.504  -3.764  1.00  0.00    -0.203 F 
ATOM    101  F   UNL     1      22.694  12.557  -5.620  1.00  0.00    -0.200 F 
ATOM    102  C   UNL     1      22.397  10.693  -4.200  1.00  0.00     0.200 A 
ATOM    103  F   UNL     1      22.058   8.818  -2.805  1.00  0.00    -0.200 F 
ATOM    104  F   UNL     1      23.645  10.834  -3.732  1.00  0.00    -0.200 F 
ENDBRANCH  71  94
ENDBRANCH  45  46
ENDBRANCH  37  40
ENDBRANCH  35  36
ENDBRANCH  34  35
ENDBRANCH   1  34
TORSDOF 15
