REMARK SMILES O=C(NCCCCNC(=O)c1ccc(C[N@H+]2CC[N@H+]3CCCC[C@@H]3C2)c(F)c1)c1ccc(-c2c3nc(c(-c4c(F)c(F)c(F)c(F)c4F)c4ccc([nH]4)c(-c4c(F)c(F)c(F)c(F)c4F)c4nc(c(-c5c(F)c(F)c(F)c(F)c5F)c5ccc2[nH]5)C=C4)C=C3)cc1
REMARK SMILES IDX 5 1 4 2 3 3 1 4 2 5 29 7 30 8 91 9 31 10 90 11 32 12 33 13
REMARK SMILES IDX 34 14 84 15 35 16 89 17 83 18 85 19 36 20 88 21 82 22 81 23
REMARK SMILES IDX 37 25 69 26 49 27 68 28 50 29 53 30 67 31 86 32 51 33 52 34
REMARK SMILES IDX 66 36 87 37 54 38 38 39 39 40 47 41 40 42 41 43 45 44 48 45
REMARK SMILES IDX 42 46 43 47 46 48 44 49 70 50 71 51 79 52 72 53 73 54 77 55
REMARK SMILES IDX 80 56 74 57 75 58 78 59 76 60 55 61 56 62 64 63 57 64 58 65
REMARK SMILES IDX 62 66 65 67 59 68 60 69 63 70 61 71 6 72 7 73 8 74 9 75
REMARK SMILES IDX 10 77 11 78 12 79 28 80 13 81 26 82 14 83 27 84 15 85 16 86
REMARK SMILES IDX 17 87 25 88 18 90 24 91 19 92 23 93 20 94 22 96 21 97
REMARK H PARENT 3 6 85 24 53 35 8 76 16 89 19 95
REMARK Flexibility Score: inf
ROOT
ATOM      1  C   UNL     1       5.026  -0.125   2.444  1.00  0.00     0.023 C 
ENDROOT
BRANCH   1   2
ATOM      2  C   UNL     1       4.599  -0.675   1.088  1.00  0.00     0.116 C 
BRANCH   2   3
ATOM      3  N   UNL     1       3.154  -0.746   0.931  1.00  0.00    -0.352 N 
ATOM      4  O   UNL     1       1.121  -0.207   0.120  1.00  0.00    -0.269 OA
ATOM      5  C   UNL     1       2.341  -0.135   0.007  1.00  0.00     0.251 C 
ATOM      6  H   UNL     1       2.690  -1.317   1.585  1.00  0.00     0.163 HD
BRANCH   5   7
ATOM      7  C   UNL     1       2.930   0.636  -1.109  1.00  0.00     0.039 A 
ATOM      8  C   UNL     1       3.999   0.129  -1.852  1.00  0.00     0.014 A 
ATOM      9  C   UNL     1       2.390   1.887  -1.423  1.00  0.00     0.014 A 
ATOM     10  C   UNL     1       4.619   0.926  -2.810  1.00  0.00     0.010 A 
ATOM     11  C   UNL     1       2.962   2.653  -2.441  1.00  0.00     0.010 A 
ATOM     12  C   UNL     1       4.099   2.191  -3.123  1.00  0.00    -0.014 A 
BRANCH  12  13
ATOM     13  C   UNL     1       4.709   3.005  -4.204  1.00  0.00     0.031 A 
ATOM     14  C   UNL     1       5.347   4.330  -3.905  1.00  0.00     0.074 A 
ATOM     15  C   UNL     1       4.653   2.553  -5.471  1.00  0.00     0.049 A 
ATOM     16  N   UNL     1       5.846   5.211  -4.735  1.00  0.00    -0.248 NA
ATOM     17  C   UNL     1       5.431   4.722  -2.491  1.00  0.00     0.031 C 
ATOM     18  C   UNL     1       4.063   1.278  -5.880  1.00  0.00     0.029 A 
ATOM     19  N   UNL     1       5.085   3.114  -6.646  1.00  0.00    -0.354 N 
ATOM     20  C   UNL     1       6.275   6.272  -3.949  1.00  0.00     0.074 A 
ATOM     21  C   UNL     1       5.963   5.934  -2.577  1.00  0.00     0.031 C 
ATOM     22  C   UNL     1       4.182   1.146  -7.207  1.00  0.00     0.029 A 
ATOM     23  C   UNL     1       4.792   2.355  -7.752  1.00  0.00     0.049 A 
ATOM     24  H   UNL     1       5.558   3.976  -6.691  1.00  0.00     0.167 HD
ATOM     25  C   UNL     1       6.876   7.420  -4.344  1.00  0.00     0.037 A 
ATOM     26  C   UNL     1       4.958   2.614  -9.062  1.00  0.00     0.037 A 
ATOM     27  C   UNL     1       7.197   7.734  -5.713  1.00  0.00     0.049 A 
ATOM     28  C   UNL     1       5.580   3.913  -9.482  1.00  0.00     0.074 A 
ATOM     29  C   UNL     1       7.865   8.841  -6.206  1.00  0.00     0.029 A 
ATOM     30  N   UNL     1       6.860   6.950  -6.808  1.00  0.00    -0.354 N 
ATOM     31  N   UNL     1       6.018   4.894  -8.731  1.00  0.00    -0.248 NA
ATOM     32  C   UNL     1       5.727   4.150 -10.925  1.00  0.00     0.031 C 
ATOM     33  C   UNL     1       7.867   8.764  -7.601  1.00  0.00     0.029 A 
ATOM     34  C   UNL     1       7.267   7.572  -7.977  1.00  0.00     0.049 A 
ATOM     35  H   UNL     1       6.400   6.081  -6.761  1.00  0.00     0.167 HD
ATOM     36  C   UNL     1       6.510   5.854  -9.602  1.00  0.00     0.074 A 
ATOM     37  C   UNL     1       6.318   5.339 -10.943  1.00  0.00     0.031 C 
ATOM     38  C   UNL     1       7.075   7.050  -9.309  1.00  0.00     0.037 A 
BRANCH  25  39
ATOM     39  C   UNL     1       7.204   8.443  -3.294  1.00  0.00     0.064 A 
ATOM     40  C   UNL     1       6.538   9.680  -3.283  1.00  0.00     0.173 A 
ATOM     41  C   UNL     1       8.210   8.235  -2.340  1.00  0.00     0.173 A 
ATOM     42  F   UNL     1       5.574   9.938  -4.180  1.00  0.00    -0.203 F 
ATOM     43  C   UNL     1       6.872  10.669  -2.361  1.00  0.00     0.198 A 
ATOM     44  C   UNL     1       8.518   9.214  -1.397  1.00  0.00     0.198 A 
ATOM     45  F   UNL     1       8.874   7.070  -2.301  1.00  0.00    -0.203 F 
ATOM     46  F   UNL     1       6.242  11.852  -2.392  1.00  0.00    -0.200 F 
ATOM     47  C   UNL     1       7.855  10.432  -1.414  1.00  0.00     0.200 A 
ATOM     48  F   UNL     1       9.452   8.975  -0.466  1.00  0.00    -0.200 F 
ATOM     49  F   UNL     1       8.162  11.377  -0.514  1.00  0.00    -0.200 F 
ENDBRANCH  25  39
BRANCH  26  50
ATOM     50  C   UNL     1       4.516   1.596 -10.048  1.00  0.00     0.064 A 
ATOM     51  C   UNL     1       3.154   1.314 -10.236  1.00  0.00     0.173 A 
ATOM     52  C   UNL     1       5.448   0.808 -10.732  1.00  0.00     0.173 A 
ATOM     53  F   UNL     1       2.224   2.034  -9.592  1.00  0.00    -0.203 F 
ATOM     54  C   UNL     1       2.744   0.252 -11.039  1.00  0.00     0.198 A 
ATOM     55  C   UNL     1       5.036  -0.237 -11.556  1.00  0.00     0.198 A 
ATOM     56  F   UNL     1       6.760   1.050 -10.593  1.00  0.00    -0.203 F 
ATOM     57  F   UNL     1       1.440  -0.036 -11.151  1.00  0.00    -0.200 F 
ATOM     58  C   UNL     1       3.685  -0.524 -11.696  1.00  0.00     0.200 A 
ATOM     59  F   UNL     1       5.947  -0.978 -12.201  1.00  0.00    -0.200 F 
ATOM     60  F   UNL     1       3.292  -1.554 -12.458  1.00  0.00    -0.200 F 
ENDBRANCH  26  50
BRANCH  38  61
ATOM     61  C   UNL     1       7.561   7.901 -10.445  1.00  0.00     0.064 A 
ATOM     62  C   UNL     1       8.937   8.103 -10.635  1.00  0.00     0.173 A 
ATOM     63  C   UNL     1       6.671   8.626 -11.250  1.00  0.00     0.173 A 
ATOM     64  F   UNL     1       9.828   7.437  -9.884  1.00  0.00    -0.203 F 
ATOM     65  C   UNL     1       9.403   9.030 -11.562  1.00  0.00     0.198 A 
ATOM     66  C   UNL     1       7.142   9.533 -12.195  1.00  0.00     0.198 A 
ATOM     67  F   UNL     1       5.347   8.456 -11.115  1.00  0.00    -0.203 F 
ATOM     68  F   UNL     1      10.720   9.249 -11.684  1.00  0.00    -0.200 F 
ATOM     69  C   UNL     1       8.506   9.747 -12.338  1.00  0.00     0.200 A 
ATOM     70  F   UNL     1       6.276  10.212 -12.960  1.00  0.00    -0.200 F 
ATOM     71  F   UNL     1       8.955  10.650 -13.221  1.00  0.00    -0.200 F 
ENDBRANCH  38  61
ENDBRANCH  12  13
ENDBRANCH   5   7
ENDBRANCH   2   3
ENDBRANCH   1   2
BRANCH   1  72
ATOM     72  C   UNL     1       4.631  -0.980   3.646  1.00  0.00     0.023 C 
BRANCH  72  73
ATOM     73  C   UNL     1       5.113  -2.429   3.606  1.00  0.00     0.116 C 
BRANCH  73  74
ATOM     74  N   UNL     1       6.561  -2.537   3.633  1.00  0.00    -0.352 N 
ATOM     75  C   UNL     1       7.347  -3.276   4.486  1.00  0.00     0.251 C 
ATOM     76  H   UNL     1       7.042  -2.014   2.952  1.00  0.00     0.163 HD
ATOM     77  O   UNL     1       8.565  -3.184   4.463  1.00  0.00    -0.269 OA
BRANCH  75  78
ATOM     78  C   UNL     1       6.693  -4.176   5.452  1.00  0.00     0.042 A 
ATOM     79  C   UNL     1       5.978  -5.289   5.002  1.00  0.00     0.014 A 
ATOM     80  C   UNL     1       6.769  -3.876   6.811  1.00  0.00     0.053 A 
ATOM     81  C   UNL     1       5.267  -6.064   5.920  1.00  0.00     0.013 A 
ATOM     82  C   UNL     1       6.028  -4.638   7.709  1.00  0.00     0.132 A 
ATOM     83  C   UNL     1       5.230  -5.705   7.280  1.00  0.00     0.042 A 
ATOM     84  F   UNL     1       6.060  -4.308   9.008  1.00  0.00    -0.206 F 
BRANCH  83  85
ATOM     85  C   UNL     1       4.332  -6.439   8.248  1.00  0.00     0.302 C 
BRANCH  85  86
ATOM     86  N   UNL     1       2.926  -6.027   8.333  1.00  0.00    -0.322 N 
ATOM     87  C   UNL     1       2.651  -4.782   9.062  1.00  0.00     0.324 C 
ATOM     88  C   UNL     1       2.135  -6.104   7.101  1.00  0.00     0.328 C 
ATOM     89  H   UNL     1       2.585  -6.785   8.925  1.00  0.00     0.348 HD
ATOM     90  C   UNL     1       2.532  -3.488   8.216  1.00  0.00     0.324 C 
ATOM     91  C   UNL     1       2.178  -4.821   6.228  1.00  0.00     0.239 C 
ATOM     92  N   UNL     1       1.737  -3.625   6.975  1.00  0.00    -0.323 N 
ATOM     93  C   UNL     1       1.342  -5.012   4.956  1.00  0.00     0.071 C 
ATOM     94  C   UNL     1       1.866  -2.413   6.152  1.00  0.00     0.262 C 
ATOM     95  H   UNL     1       0.752  -3.740   7.215  1.00  0.00     0.348 HD
ATOM     96  C   UNL     1       1.462  -3.787   4.057  1.00  0.00     0.012 C 
ATOM     97  C   UNL     1       1.101  -2.523   4.830  1.00  0.00     0.062 C 
ENDBRANCH  85  86
ENDBRANCH  83  85
ENDBRANCH  75  78
ENDBRANCH  73  74
ENDBRANCH  72  73
ENDBRANCH   1  72
TORSDOF 13
