REMARK SMILES CC(=O)N1CCC[C@H]1COCC(=O)NCCCCNC(=O)c1ccc(-c2c3nc(c(-c4c(F)c(F)c(F)c(F)c4F)c4ccc([nH]4)c(-c4c(F)c(F)c(F)c(F)c4F)c4nc(c(-c5c(F)c(F)c(F)c(F)c5F)c5ccc2[nH]5)C=C4)C=C3)cc1
REMARK SMILES IDX 15 1 14 2 12 3 13 4 11 6 10 7 9 8 8 9 4 10 5 11 6 12 7 13
REMARK SMILES IDX 2 14 1 15 3 16 16 17 17 18 18 19 19 20 20 21 21 23 22 24
REMARK SMILES IDX 23 25 84 26 24 27 83 28 25 29 26 30 27 31 77 32 28 33 82 34
REMARK SMILES IDX 76 35 78 36 29 37 81 38 75 39 74 40 30 42 62 43 42 44 61 45
REMARK SMILES IDX 43 46 46 47 60 48 79 49 44 50 45 51 59 53 80 54 47 55 31 56
REMARK SMILES IDX 32 57 40 58 33 59 34 60 38 61 41 62 35 63 36 64 39 65 37 66
REMARK SMILES IDX 63 67 64 68 72 69 65 70 66 71 70 72 73 73 67 74 68 75 71 76
REMARK SMILES IDX 69 77 48 78 49 79 57 80 50 81 51 82 55 83 58 84 52 85 53 86
REMARK SMILES IDX 56 87 54 88
REMARK H PARENT 14 5 19 22 78 41 46 52
REMARK Flexibility Score: inf
ROOT
ATOM      1  C   UNL     1      -3.190   6.548  -1.979  1.00  0.00     0.116 C 
ENDROOT
BRANCH   1   2
ATOM      2  N   UNL     1      -3.567   5.157  -1.842  1.00  0.00    -0.354 N 
ATOM      3  C   UNL     1      -3.383   4.342  -0.759  1.00  0.00     0.245 C 
ATOM      4  O   UNL     1      -3.878   3.216  -0.772  1.00  0.00    -0.272 OA
ATOM      5  H   UNL     1      -4.008   4.748  -2.621  1.00  0.00     0.163 HD
BRANCH   3   6
ATOM      6  C   UNL     1      -2.611   4.878   0.454  1.00  0.00     0.260 C 
BRANCH   6   7
ATOM      7  O   UNL     1      -1.309   5.398   0.208  1.00  0.00    -0.370 OA
BRANCH   7   8
ATOM      8  C   UNL     1      -0.381   4.414  -0.267  1.00  0.00     0.185 C 
BRANCH   8   9
ATOM      9  C   UNL     1       0.115   3.491   0.859  1.00  0.00     0.111 C 
ATOM     10  N   UNL     1       1.018   2.425   0.427  1.00  0.00    -0.338 N 
ATOM     11  C   UNL     1       2.308   2.534   1.083  1.00  0.00     0.120 C 
ATOM     12  C   UNL     1       1.992   3.289   2.361  1.00  0.00     0.024 C 
ATOM     13  C   UNL     1       0.909   4.269   1.921  1.00  0.00     0.029 C 
BRANCH  10  14
ATOM     14  C   UNL     1       0.546   1.367  -0.320  1.00  0.00     0.219 C 
ATOM     15  C   UNL     1       1.407   0.135  -0.379  1.00  0.00     0.114 C 
ATOM     16  O   UNL     1      -0.555   1.389  -0.867  1.00  0.00    -0.275 OA
ENDBRANCH  10  14
ENDBRANCH   8   9
ENDBRANCH   7   8
ENDBRANCH   6   7
ENDBRANCH   3   6
ENDBRANCH   1   2
BRANCH   1  17
ATOM     17  C   UNL     1      -2.035   6.751  -2.957  1.00  0.00     0.023 C 
BRANCH  17  18
ATOM     18  C   UNL     1      -2.315   6.311  -4.396  1.00  0.00     0.023 C 
BRANCH  18  19
ATOM     19  C   UNL     1      -3.590   6.866  -5.024  1.00  0.00     0.116 C 
BRANCH  19  20
ATOM     20  N   UNL     1      -3.634   8.319  -5.047  1.00  0.00    -0.352 N 
ATOM     21  C   UNL     1      -4.091   9.162  -6.028  1.00  0.00     0.251 C 
ATOM     22  H   UNL     1      -3.285   8.763  -4.241  1.00  0.00     0.163 HD
ATOM     23  O   UNL     1      -3.947  10.379  -5.901  1.00  0.00    -0.269 OA
BRANCH  21  24
ATOM     24  C   UNL     1      -4.725   8.627  -7.254  1.00  0.00     0.039 A 
ATOM     25  C   UNL     1      -4.402   9.214  -8.481  1.00  0.00     0.014 A 
ATOM     26  C   UNL     1      -5.644   7.575  -7.207  1.00  0.00     0.014 A 
ATOM     27  C   UNL     1      -4.958   8.714  -9.661  1.00  0.00     0.010 A 
ATOM     28  C   UNL     1      -6.138   7.028  -8.390  1.00  0.00     0.010 A 
ATOM     29  C   UNL     1      -5.809   7.598  -9.629  1.00  0.00    -0.014 A 
BRANCH  29  30
ATOM     30  C   UNL     1      -6.364   7.028 -10.884  1.00  0.00     0.031 A 
ATOM     31  C   UNL     1      -7.843   7.064 -11.150  1.00  0.00     0.074 A 
ATOM     32  C   UNL     1      -5.537   6.441 -11.770  1.00  0.00     0.049 A 
ATOM     33  N   UNL     1      -8.508   6.631 -12.193  1.00  0.00    -0.248 NA
ATOM     34  C   UNL     1      -8.691   7.636 -10.094  1.00  0.00     0.031 C 
ATOM     35  C   UNL     1      -4.091   6.293 -11.605  1.00  0.00     0.029 A 
ATOM     36  N   UNL     1      -5.794   5.862 -12.988  1.00  0.00    -0.354 N 
ATOM     37  C   UNL     1      -9.848   6.865 -11.911  1.00  0.00     0.074 A 
ATOM     38  C   UNL     1      -9.906   7.423 -10.577  1.00  0.00     0.031 C 
ATOM     39  C   UNL     1      -3.582   5.707 -12.700  1.00  0.00     0.029 A 
ATOM     40  C   UNL     1      -4.668   5.408 -13.629  1.00  0.00     0.049 A 
ATOM     41  H   UNL     1      -6.699   5.781 -13.366  1.00  0.00     0.167 HD
ATOM     42  C   UNL     1     -10.929   6.658 -12.701  1.00  0.00     0.037 A 
ATOM     43  C   UNL     1      -4.526   4.828 -14.836  1.00  0.00     0.037 A 
ATOM     44  C   UNL     1     -10.865   6.127 -14.037  1.00  0.00     0.049 A 
ATOM     45  C   UNL     1      -5.741   4.606 -15.694  1.00  0.00     0.074 A 
ATOM     46  C   UNL     1     -11.892   5.955 -14.949  1.00  0.00     0.029 A 
ATOM     47  N   UNL     1      -9.707   5.673 -14.651  1.00  0.00    -0.354 N 
ATOM     48  N   UNL     1      -6.991   4.917 -15.457  1.00  0.00    -0.248 NA
ATOM     49  C   UNL     1      -5.520   3.956 -16.994  1.00  0.00     0.031 C 
ATOM     50  C   UNL     1     -11.364   5.347 -16.093  1.00  0.00     0.029 A 
ATOM     51  C   UNL     1      -9.998   5.191 -15.917  1.00  0.00     0.049 A 
ATOM     52  H   UNL     1      -8.809   5.690 -14.246  1.00  0.00     0.167 HD
ATOM     53  C   UNL     1      -7.702   4.535 -16.587  1.00  0.00     0.074 A 
ATOM     54  C   UNL     1      -6.739   3.974 -17.513  1.00  0.00     0.031 C 
ATOM     55  C   UNL     1      -9.030   4.642 -16.834  1.00  0.00     0.037 A 
BRANCH  42  56
ATOM     56  C   UNL     1     -12.276   7.005 -12.131  1.00  0.00     0.064 A 
ATOM     57  C   UNL     1     -12.651   8.333 -11.873  1.00  0.00     0.173 A 
ATOM     58  C   UNL     1     -13.208   5.995 -11.844  1.00  0.00     0.173 A 
ATOM     59  F   UNL     1     -11.795   9.336 -12.120  1.00  0.00    -0.203 F 
ATOM     60  C   UNL     1     -13.888   8.633 -11.309  1.00  0.00     0.198 A 
ATOM     61  C   UNL     1     -14.458   6.302 -11.312  1.00  0.00     0.198 A 
ATOM     62  F   UNL     1     -12.907   4.709 -12.079  1.00  0.00    -0.203 F 
ATOM     63  F   UNL     1     -14.196   9.903 -11.012  1.00  0.00    -0.200 F 
ATOM     64  C   UNL     1     -14.792   7.619 -11.033  1.00  0.00     0.200 A 
ATOM     65  F   UNL     1     -15.336   5.322 -11.060  1.00  0.00    -0.200 F 
ATOM     66  F   UNL     1     -15.982   7.909 -10.489  1.00  0.00    -0.200 F 
ENDBRANCH  42  56
BRANCH  43  67
ATOM     67  C   UNL     1      -3.169   4.477 -15.329  1.00  0.00     0.064 A 
ATOM     68  C   UNL     1      -2.579   5.207 -16.370  1.00  0.00     0.173 A 
ATOM     69  C   UNL     1      -2.431   3.426 -14.768  1.00  0.00     0.173 A 
ATOM     70  F   UNL     1      -3.255   6.209 -16.952  1.00  0.00    -0.203 F 
ATOM     71  C   UNL     1      -1.305   4.893 -16.838  1.00  0.00     0.198 A 
ATOM     72  C   UNL     1      -1.147   3.128 -15.220  1.00  0.00     0.198 A 
ATOM     73  F   UNL     1      -2.950   2.700 -13.767  1.00  0.00    -0.203 F 
ATOM     74  F   UNL     1      -0.778   5.585 -17.857  1.00  0.00    -0.200 F 
ATOM     75  C   UNL     1      -0.588   3.858 -16.258  1.00  0.00     0.200 A 
ATOM     76  F   UNL     1      -0.451   2.136 -14.648  1.00  0.00    -0.200 F 
ATOM     77  F   UNL     1       0.641   3.562 -16.702  1.00  0.00    -0.200 F 
ENDBRANCH  43  67
BRANCH  55  78
ATOM     78  C   UNL     1      -9.521   4.181 -18.176  1.00  0.00     0.064 A 
ATOM     79  C   UNL     1      -9.579   2.821 -18.514  1.00  0.00     0.173 A 
ATOM     80  C   UNL     1      -9.974   5.113 -19.123  1.00  0.00     0.173 A 
ATOM     81  F   UNL     1      -9.142   1.892 -17.650  1.00  0.00    -0.203 F 
ATOM     82  C   UNL     1     -10.049   2.412 -19.759  1.00  0.00     0.198 A 
ATOM     83  C   UNL     1     -10.472   4.699 -20.355  1.00  0.00     0.198 A 
ATOM     84  F   UNL     1      -9.945   6.425 -18.848  1.00  0.00    -0.203 F 
ATOM     85  F   UNL     1     -10.051   1.111 -20.078  1.00  0.00    -0.200 F 
ATOM     86  C   UNL     1     -10.503   3.350 -20.675  1.00  0.00     0.200 A 
ATOM     87  F   UNL     1     -10.922   5.606 -21.233  1.00  0.00    -0.200 F 
ATOM     88  F   UNL     1     -10.962   2.954 -21.870  1.00  0.00    -0.200 F 
ENDBRANCH  55  78
ENDBRANCH  29  30
ENDBRANCH  21  24
ENDBRANCH  19  20
ENDBRANCH  18  19
ENDBRANCH  17  18
ENDBRANCH   1  17
TORSDOF 15
