REMARK SMILES COC(=O)c1c(NC(=O)[C@@H]2[C@H]3CC[C@H](CC3)[C@H]2C(=O)NCCCCNC(=O)c2ccc(-c3c4nc(c(-c5c(F)c(F)c(F)c(F)c5F)c5ccc([nH]5)c(-c5c(F)c(F)c(F)c(F)c5F)c5nc(c(-c6c(F)c(F)c(F)c(F)c6F)c6ccc3[nH]6)C=C5)C=C4)cc2)sc(C)c1-c1ccc(C)cc1
REMARK SMILES IDX 21 1 20 2 18 3 19 4 17 6 10 7 11 8 16 9 12 10 14 11 15 12
REMARK SMILES IDX 13 13 8 14 7 15 9 17 6 18 5 19 94 20 91 21 92 22 93 23 3 24
REMARK SMILES IDX 4 25 2 26 1 27 95 28 96 29 101 30 97 31 100 32 98 33 99 34
REMARK SMILES IDX 22 35 23 36 24 37 25 38 26 39 27 41 28 42 29 43 90 44 30 45
REMARK SMILES IDX 89 46 31 47 32 48 33 49 83 50 34 51 88 52 82 53 84 54 35 55
REMARK SMILES IDX 87 56 81 57 80 58 36 60 68 61 48 62 67 63 49 64 52 65 66 66
REMARK SMILES IDX 85 67 50 68 51 69 65 71 86 72 53 73 37 74 38 75 46 76 39 77
REMARK SMILES IDX 40 78 44 79 47 80 41 81 42 82 45 83 43 84 69 85 70 86 78 87
REMARK SMILES IDX 71 88 72 89 76 90 79 91 73 92 74 93 77 94 75 95 54 96 55 97
REMARK SMILES IDX 63 98 56 99 57 100 61 101 64 102 58 103 59 104 62 105 60 106
REMARK H PARENT 20 5 7 16 25 40 84 59 52 70
REMARK Flexibility Score: inf
ROOT
ATOM      1  C   UNL     1       1.239   3.637  -4.093  1.00  0.00     0.116 C 
ENDROOT
BRANCH   1   2
ATOM      2  N   UNL     1       1.993   4.710  -4.681  1.00  0.00    -0.356 N 
ATOM      3  C   UNL     1       2.214   5.012  -5.990  1.00  0.00     0.224 C 
ATOM      4  O   UNL     1       2.745   6.108  -6.207  1.00  0.00    -0.275 OA
ATOM      5  H   UNL     1       2.414   5.323  -4.036  1.00  0.00     0.163 HD
BRANCH   3   6
ATOM      6  C   UNL     1       1.848   4.105  -7.179  1.00  0.00     0.094 C 
ATOM      7  C   UNL     1       2.324   2.631  -7.141  1.00  0.00     0.094 C 
ATOM      8  C   UNL     1       1.137   1.724  -7.669  1.00  0.00     0.002 C 
ATOM      9  C   UNL     1      -0.107   1.872  -6.760  1.00  0.00     0.005 C 
ATOM     10  C   UNL     1       0.623   2.151  -9.064  1.00  0.00     0.005 C 
ATOM     11  C   UNL     1       0.358   4.204  -7.626  1.00  0.00     0.002 C 
ATOM     12  C   UNL     1      -0.600   3.334  -6.789  1.00  0.00     0.005 C 
ATOM     13  C   UNL     1       0.278   3.647  -9.067  1.00  0.00     0.005 C 
BRANCH   7  14
ATOM     14  C   UNL     1       3.587   2.452  -8.023  1.00  0.00     0.229 C 
ATOM     15  N   UNL     1       4.874   2.328  -7.591  1.00  0.00    -0.317 N 
ATOM     16  H   UNL     1       5.486   2.094  -8.326  1.00  0.00     0.170 HD
ATOM     17  O   UNL     1       3.467   2.384  -9.255  1.00  0.00    -0.274 OA
BRANCH  15  18
ATOM     18  C   UNL     1       5.539   2.445  -6.386  1.00  0.00     0.111 A 
ATOM     19  C   UNL     1       6.847   2.061  -6.104  1.00  0.00     0.102 A 
ATOM     20  C   UNL     1       7.159   2.268  -4.695  1.00  0.00     0.012 A 
ATOM     21  S   UNL     1       4.852   3.248  -5.090  1.00  0.00    -0.122 S 
ATOM     22  C   UNL     1       6.096   2.833  -4.012  1.00  0.00     0.012 A 
ATOM     23  C   UNL     1       5.923   3.145  -2.560  1.00  0.00     0.057 C 
BRANCH  19  24
ATOM     24  C   UNL     1       7.729   1.505  -7.135  1.00  0.00     0.341 C 
ATOM     25  O   UNL     1       7.504   1.624  -8.330  1.00  0.00    -0.246 OA
BRANCH  24  26
ATOM     26  O   UNL     1       8.807   0.850  -6.620  1.00  0.00    -0.465 OA
ATOM     27  C   UNL     1       9.758   0.388  -7.577  1.00  0.00     0.282 C 
ENDBRANCH  24  26
ENDBRANCH  19  24
BRANCH  20  28
ATOM     28  C   UNL     1       8.416   2.000  -4.006  1.00  0.00    -0.016 A 
ATOM     29  C   UNL     1       9.541   2.779  -4.294  1.00  0.00     0.009 A 
ATOM     30  C   UNL     1       8.506   0.982  -3.050  1.00  0.00     0.009 A 
ATOM     31  C   UNL     1      10.751   2.533  -3.642  1.00  0.00     0.004 A 
ATOM     32  C   UNL     1       9.715   0.746  -2.389  1.00  0.00     0.004 A 
ATOM     33  C   UNL     1      10.845   1.518  -2.682  1.00  0.00    -0.051 A 
ATOM     34  C   UNL     1      12.158   1.253  -2.005  1.00  0.00     0.044 C 
ENDBRANCH  20  28
ENDBRANCH  15  18
ENDBRANCH   7  14
ENDBRANCH   3   6
ENDBRANCH   1   2
BRANCH   1  35
ATOM     35  C   UNL     1       1.982   2.696  -3.157  1.00  0.00     0.023 C 
BRANCH  35  36
ATOM     36  C   UNL     1       2.263   3.260  -1.778  1.00  0.00     0.023 C 
BRANCH  36  37
ATOM     37  C   UNL     1       1.015   3.719  -1.045  1.00  0.00     0.116 C 
BRANCH  37  38
ATOM     38  N   UNL     1      -0.044   2.716  -1.020  1.00  0.00    -0.352 N 
ATOM     39  C   UNL     1      -0.873   2.372   0.017  1.00  0.00     0.251 C 
ATOM     40  H   UNL     1      -0.182   2.220  -1.859  1.00  0.00     0.163 HD
ATOM     41  O   UNL     1      -1.639   1.421  -0.079  1.00  0.00    -0.269 OA
BRANCH  39  42
ATOM     42  C   UNL     1      -0.794   3.151   1.263  1.00  0.00     0.039 A 
ATOM     43  C   UNL     1      -0.685   2.475   2.478  1.00  0.00     0.014 A 
ATOM     44  C   UNL     1      -0.752   4.546   1.211  1.00  0.00     0.014 A 
ATOM     45  C   UNL     1      -0.476   3.208   3.644  1.00  0.00     0.010 A 
ATOM     46  C   UNL     1      -0.431   5.262   2.352  1.00  0.00     0.010 A 
ATOM     47  C   UNL     1      -0.315   4.603   3.584  1.00  0.00    -0.014 A 
BRANCH  47  48
ATOM     48  C   UNL     1      -0.074   5.397   4.810  1.00  0.00     0.031 A 
ATOM     49  C   UNL     1      -1.084   6.425   5.238  1.00  0.00     0.074 A 
ATOM     50  C   UNL     1       1.066   5.224   5.504  1.00  0.00     0.049 A 
ATOM     51  N   UNL     1      -1.057   7.234   6.265  1.00  0.00    -0.248 NA
ATOM     52  C   UNL     1      -2.266   6.594   4.376  1.00  0.00     0.031 C 
ATOM     53  C   UNL     1       2.150   4.309   5.142  1.00  0.00     0.029 A 
ATOM     54  N   UNL     1       1.502   5.812   6.663  1.00  0.00    -0.354 N 
ATOM     55  C   UNL     1      -2.202   8.011   6.161  1.00  0.00     0.074 A 
ATOM     56  C   UNL     1      -2.864   7.635   4.933  1.00  0.00     0.031 C 
ATOM     57  C   UNL     1       3.107   4.367   6.082  1.00  0.00     0.029 A 
ATOM     58  C   UNL     1       2.717   5.342   7.095  1.00  0.00     0.049 A 
ATOM     59  H   UNL     1       0.992   6.506   7.140  1.00  0.00     0.167 HD
ATOM     60  C   UNL     1      -2.682   8.929   7.032  1.00  0.00     0.037 A 
ATOM     61  C   UNL     1       3.427   5.659   8.194  1.00  0.00     0.037 A 
ATOM     62  C   UNL     1      -2.038   9.269   8.271  1.00  0.00     0.049 A 
ATOM     63  C   UNL     1       2.859   6.664   9.160  1.00  0.00     0.074 A 
ATOM     64  C   UNL     1      -2.469  10.133   9.260  1.00  0.00     0.029 A 
ATOM     65  N   UNL     1      -0.820   8.753   8.690  1.00  0.00    -0.354 N 
ATOM     66  N   UNL     1       1.732   7.331   9.096  1.00  0.00    -0.248 NA
ATOM     67  C   UNL     1       3.658   6.950  10.359  1.00  0.00     0.031 C 
ATOM     68  C   UNL     1      -1.491  10.173  10.260  1.00  0.00     0.029 A 
ATOM     69  C   UNL     1      -0.475   9.295   9.917  1.00  0.00     0.049 A 
ATOM     70  H   UNL     1      -0.282   8.098   8.190  1.00  0.00     0.167 HD
ATOM     71  C   UNL     1       1.673   8.094  10.254  1.00  0.00     0.074 A 
ATOM     72  C   UNL     1       2.869   7.790  11.013  1.00  0.00     0.031 C 
ATOM     73  C   UNL     1       0.720   8.972  10.654  1.00  0.00     0.037 A 
BRANCH  60  74
ATOM     74  C   UNL     1      -3.970   9.612   6.676  1.00  0.00     0.064 A 
ATOM     75  C   UNL     1      -5.190   8.917   6.655  1.00  0.00     0.173 A 
ATOM     76  C   UNL     1      -3.991  10.980   6.365  1.00  0.00     0.173 A 
ATOM     77  F   UNL     1      -5.224   7.604   6.928  1.00  0.00    -0.203 F 
ATOM     78  C   UNL     1      -6.375   9.558   6.304  1.00  0.00     0.198 A 
ATOM     79  C   UNL     1      -5.183  11.625   6.047  1.00  0.00     0.198 A 
ATOM     80  F   UNL     1      -2.854  11.692   6.370  1.00  0.00    -0.203 F 
ATOM     81  F   UNL     1      -7.517   8.859   6.234  1.00  0.00    -0.200 F 
ATOM     82  C   UNL     1      -6.372  10.912   6.008  1.00  0.00     0.200 A 
ATOM     83  F   UNL     1      -5.181  12.936   5.771  1.00  0.00    -0.200 F 
ATOM     84  F   UNL     1      -7.515  11.529   5.675  1.00  0.00    -0.200 F 
ENDBRANCH  60  74
BRANCH  61  85
ATOM     85  C   UNL     1       4.724   4.986   8.464  1.00  0.00     0.064 A 
ATOM     86  C   UNL     1       4.856   4.079   9.525  1.00  0.00     0.173 A 
ATOM     87  C   UNL     1       5.857   5.238   7.677  1.00  0.00     0.173 A 
ATOM     88  F   UNL     1       3.805   3.818  10.317  1.00  0.00    -0.203 F 
ATOM     89  C   UNL     1       6.078   3.470   9.806  1.00  0.00     0.198 A 
ATOM     90  C   UNL     1       7.071   4.607   7.940  1.00  0.00     0.198 A 
ATOM     91  F   UNL     1       5.781   6.090   6.644  1.00  0.00    -0.203 F 
ATOM     92  F   UNL     1       6.187   2.646  10.856  1.00  0.00    -0.200 F 
ATOM     93  C   UNL     1       7.183   3.731   9.010  1.00  0.00     0.200 A 
ATOM     94  F   UNL     1       8.133   4.849   7.160  1.00  0.00    -0.200 F 
ATOM     95  F   UNL     1       8.357   3.144   9.278  1.00  0.00    -0.200 F 
ENDBRANCH  61  85
BRANCH  73  96
ATOM     96  C   UNL     1       0.923   9.643  11.981  1.00  0.00     0.064 A 
ATOM     97  C   UNL     1       1.915  10.616  12.168  1.00  0.00     0.173 A 
ATOM     98  C   UNL     1       0.097   9.326  13.070  1.00  0.00     0.173 A 
ATOM     99  F   UNL     1       2.739  10.943  11.162  1.00  0.00    -0.203 F 
ATOM    100  C   UNL     1       2.094  11.224  13.408  1.00  0.00     0.198 A 
ATOM    101  C   UNL     1       0.257   9.960  14.298  1.00  0.00     0.198 A 
ATOM    102  F   UNL     1      -0.873   8.408  12.939  1.00  0.00    -0.203 F 
ATOM    103  F   UNL     1       3.085  12.110  13.579  1.00  0.00    -0.200 F 
ATOM    104  C   UNL     1       1.261  10.901  14.469  1.00  0.00     0.200 A 
ATOM    105  F   UNL     1      -0.558   9.657  15.318  1.00  0.00    -0.200 F 
ATOM    106  F   UNL     1       1.433  11.490  15.660  1.00  0.00    -0.200 F 
ENDBRANCH  73  96
ENDBRANCH  47  48
ENDBRANCH  39  42
ENDBRANCH  37  38
ENDBRANCH  36  37
ENDBRANCH  35  36
ENDBRANCH   1  35
TORSDOF 16
