REMARK SMILES N#CCC[NH2+]C1(C(=O)NCCCCNC(=O)c2ccc(-c3c4nc(c(-c5c(F)c(F)c(F)c(F)c5F)c5ccc([nH]5)c(-c5c(F)c(F)c(F)c(F)c5F)c5nc(c(-c6c(F)c(F)c(F)c(F)c6F)c6ccc3[nH]6)C=C5)C=C4)cc2)CC1
REMARK SMILES IDX 10 1 9 2 7 3 8 4 6 6 80 7 81 8 5 9 4 12 3 13 2 14 1 15 11 16
REMARK SMILES IDX 12 17 13 18 14 19 15 20 16 22 17 23 18 24 79 25 19 26 78 27
REMARK SMILES IDX 20 28 21 29 22 30 72 31 23 32 77 33 71 34 73 35 24 36 76 37
REMARK SMILES IDX 70 38 69 39 25 41 57 42 37 43 56 44 38 45 41 46 55 47 74 48
REMARK SMILES IDX 39 49 40 50 54 52 75 53 42 54 26 55 27 56 35 57 28 58 29 59
REMARK SMILES IDX 33 60 36 61 30 62 31 63 34 64 32 65 58 66 59 67 67 68 60 69
REMARK SMILES IDX 61 70 65 71 68 72 62 73 63 74 66 75 64 76 43 77 44 78 52 79
REMARK SMILES IDX 45 80 46 81 50 82 53 83 47 84 48 85 51 86 49 87
REMARK H PARENT 9 5 5 10 5 11 14 21 73 40 41 51
REMARK Flexibility Score: inf
ROOT
ATOM      1  C   UNL     1       4.831  -4.545   4.588  1.00  0.00     0.116 C 
ENDROOT
BRANCH   1   2
ATOM      2  N   UNL     1       3.855  -3.558   4.195  1.00  0.00    -0.351 N 
ATOM      3  C   UNL     1       3.459  -3.076   2.981  1.00  0.00     0.281 C 
ATOM      4  O   UNL     1       2.446  -2.369   2.981  1.00  0.00    -0.268 OA
ATOM      5  H   UNL     1       3.380  -3.149   4.954  1.00  0.00     0.163 HD
BRANCH   3   6
ATOM      6  C   UNL     1       4.170  -3.329   1.657  1.00  0.00     0.176 C 
ATOM      7  C   UNL     1       4.242  -4.767   1.176  1.00  0.00     0.086 C 
ATOM      8  C   UNL     1       5.503  -3.995   1.437  1.00  0.00     0.086 C 
BRANCH   6   9
ATOM      9  N   UNL     1       3.781  -2.318   0.616  1.00  0.00    -0.333 N 
ATOM     10  H   UNL     1       4.151  -2.618  -0.287  1.00  0.00     0.347 HD
ATOM     11  H   UNL     1       2.763  -2.261   0.600  1.00  0.00     0.347 HD
BRANCH   9  12
ATOM     12  C   UNL     1       4.304  -0.976   0.921  1.00  0.00     0.276 C 
BRANCH  12  13
ATOM     13  C   UNL     1       3.752   0.094  -0.019  1.00  0.00     0.181 C 
BRANCH  13  14
ATOM     14  C   UNL     1       2.232   0.094  -0.019  1.00  0.00     0.068 C 
ATOM     15  N   UNL     1       0.971   0.094  -0.019  1.00  0.00    -0.198 NA
ENDBRANCH  13  14
ENDBRANCH  12  13
ENDBRANCH   9  12
ENDBRANCH   6   9
ENDBRANCH   3   6
ENDBRANCH   1   2
BRANCH   1  16
ATOM     16  C   UNL     1       6.088  -3.925   5.191  1.00  0.00     0.023 C 
BRANCH  16  17
ATOM     17  C   UNL     1       5.870  -3.109   6.472  1.00  0.00     0.023 C 
BRANCH  17  18
ATOM     18  C   UNL     1       4.983  -3.749   7.537  1.00  0.00     0.116 C 
BRANCH  18  19
ATOM     19  N   UNL     1       5.382  -5.100   7.887  1.00  0.00    -0.352 N 
ATOM     20  C   UNL     1       5.330  -5.749   9.094  1.00  0.00     0.251 C 
ATOM     21  H   UNL     1       5.745  -5.633   7.144  1.00  0.00     0.163 HD
ATOM     22  O   UNL     1       5.774  -6.890   9.185  1.00  0.00    -0.269 OA
BRANCH  20  23
ATOM     23  C   UNL     1       4.791  -5.075  10.297  1.00  0.00     0.039 A 
ATOM     24  C   UNL     1       5.482  -5.239  11.501  1.00  0.00     0.014 A 
ATOM     25  C   UNL     1       3.621  -4.311  10.263  1.00  0.00     0.014 A 
ATOM     26  C   UNL     1       5.033  -4.596  12.655  1.00  0.00     0.010 A 
ATOM     27  C   UNL     1       3.210  -3.616  11.401  1.00  0.00     0.010 A 
ATOM     28  C   UNL     1       3.910  -3.755  12.608  1.00  0.00    -0.014 A 
BRANCH  28  29
ATOM     29  C   UNL     1       3.479  -3.017  13.822  1.00  0.00     0.031 A 
ATOM     30  C   UNL     1       2.173  -3.336  14.491  1.00  0.00     0.074 A 
ATOM     31  C   UNL     1       4.265  -2.037  14.310  1.00  0.00     0.049 A 
ATOM     32  N   UNL     1       1.655  -2.824  15.580  1.00  0.00    -0.248 NA
ATOM     33  C   UNL     1       1.324  -4.347  13.842  1.00  0.00     0.031 C 
ATOM     34  C   UNL     1       5.524  -1.590  13.713  1.00  0.00     0.029 A 
ATOM     35  N   UNL     1       4.123  -1.245  15.421  1.00  0.00    -0.354 N 
ATOM     36  C   UNL     1       0.423  -3.445  15.742  1.00  0.00     0.074 A 
ATOM     37  C   UNL     1       0.245  -4.330  14.612  1.00  0.00     0.031 C 
ATOM     38  C   UNL     1       6.058  -0.629  14.482  1.00  0.00     0.029 A 
ATOM     39  C   UNL     1       5.170  -0.377  15.613  1.00  0.00     0.049 A 
ATOM     40  H   UNL     1       3.346  -1.294  16.023  1.00  0.00     0.167 HD
ATOM     41  C   UNL     1      -0.466  -3.307  16.755  1.00  0.00     0.037 A 
ATOM     42  C   UNL     1       5.394   0.513  16.598  1.00  0.00     0.037 A 
ATOM     43  C   UNL     1      -0.278  -2.440  17.889  1.00  0.00     0.049 A 
ATOM     44  C   UNL     1       4.405   0.623  17.726  1.00  0.00     0.074 A 
ATOM     45  C   UNL     1      -1.095  -2.271  18.994  1.00  0.00     0.029 A 
ATOM     46  N   UNL     1       0.807  -1.593  18.062  1.00  0.00    -0.354 N 
ATOM     47  N   UNL     1       3.283  -0.029  17.911  1.00  0.00    -0.248 NA
ATOM     48  C   UNL     1       4.726   1.582  18.792  1.00  0.00     0.031 C 
ATOM     49  C   UNL     1      -0.523  -1.294  19.817  1.00  0.00     0.029 A 
ATOM     50  C   UNL     1       0.674  -0.888  19.249  1.00  0.00     0.049 A 
ATOM     51  H   UNL     1       1.561  -1.505  17.435  1.00  0.00     0.167 HD
ATOM     52  C   UNL     1       2.777   0.420  19.122  1.00  0.00     0.074 A 
ATOM     53  C   UNL     1       3.726   1.385  19.639  1.00  0.00     0.031 C 
ATOM     54  C   UNL     1       1.628   0.067  19.750  1.00  0.00     0.037 A 
BRANCH  41  55
ATOM     55  C   UNL     1      -1.724  -4.124  16.686  1.00  0.00     0.064 A 
ATOM     56  C   UNL     1      -1.706  -5.516  16.866  1.00  0.00     0.173 A 
ATOM     57  C   UNL     1      -2.966  -3.507  16.472  1.00  0.00     0.173 A 
ATOM     58  F   UNL     1      -0.543  -6.156  17.061  1.00  0.00    -0.203 F 
ATOM     59  C   UNL     1      -2.879  -6.263  16.805  1.00  0.00     0.198 A 
ATOM     60  C   UNL     1      -4.141  -4.254  16.442  1.00  0.00     0.198 A 
ATOM     61  F   UNL     1      -3.041  -2.179  16.300  1.00  0.00    -0.203 F 
ATOM     62  F   UNL     1      -2.830  -7.596  16.932  1.00  0.00    -0.200 F 
ATOM     63  C   UNL     1      -4.096  -5.631  16.601  1.00  0.00     0.200 A 
ATOM     64  F   UNL     1      -5.318  -3.641  16.256  1.00  0.00    -0.200 F 
ATOM     65  F   UNL     1      -5.226  -6.350  16.549  1.00  0.00    -0.200 F 
ENDBRANCH  41  55
BRANCH  42  66
ATOM     66  C   UNL     1       6.633   1.332  16.589  1.00  0.00     0.064 A 
ATOM     67  C   UNL     1       7.656   1.098  17.519  1.00  0.00     0.173 A 
ATOM     68  C   UNL     1       6.821   2.361  15.655  1.00  0.00     0.173 A 
ATOM     69  F   UNL     1       7.513   0.137  18.443  1.00  0.00    -0.203 F 
ATOM     70  C   UNL     1       8.810   1.878  17.529  1.00  0.00     0.198 A 
ATOM     71  C   UNL     1       7.987   3.122  15.650  1.00  0.00     0.198 A 
ATOM     72  F   UNL     1       5.875   2.619  14.741  1.00  0.00    -0.203 F 
ATOM     73  F   UNL     1       9.753   1.662  18.457  1.00  0.00    -0.200 F 
ATOM     74  C   UNL     1       8.978   2.885  16.592  1.00  0.00     0.200 A 
ATOM     75  F   UNL     1       8.152   4.086  14.734  1.00  0.00    -0.200 F 
ATOM     76  F   UNL     1      10.090   3.632  16.600  1.00  0.00    -0.200 F 
ENDBRANCH  42  66
BRANCH  54  77
ATOM     77  C   UNL     1       1.354   0.707  21.080  1.00  0.00     0.064 A 
ATOM     78  C   UNL     1       1.002   2.061  21.186  1.00  0.00     0.173 A 
ATOM     79  C   UNL     1       1.433  -0.047  22.261  1.00  0.00     0.173 A 
ATOM     80  F   UNL     1       0.928   2.827  20.087  1.00  0.00    -0.203 F 
ATOM     81  C   UNL     1       0.775   2.645  22.429  1.00  0.00     0.198 A 
ATOM     82  C   UNL     1       1.177   0.534  23.499  1.00  0.00     0.198 A 
ATOM     83  F   UNL     1       1.759  -1.347  22.213  1.00  0.00    -0.203 F 
ATOM     84  F   UNL     1       0.498   3.954  22.511  1.00  0.00    -0.200 F 
ATOM     85  C   UNL     1       0.858   1.881  23.584  1.00  0.00     0.200 A 
ATOM     86  F   UNL     1       1.246  -0.208  24.613  1.00  0.00    -0.200 F 
ATOM     87  F   UNL     1       0.642   2.446  24.779  1.00  0.00    -0.200 F 
ENDBRANCH  54  77
ENDBRANCH  28  29
ENDBRANCH  20  23
ENDBRANCH  18  19
ENDBRANCH  17  18
ENDBRANCH  16  17
ENDBRANCH   1  16
TORSDOF 15
