REMARK SMILES Nc1ncccc1C[N@@H+]1CC2(CC[NH2+]CC2)C[C@H]1C(=O)NCCCCNC(=O)c1ccc(-c2c3nc(c(-c4c(F)c(F)c(F)c(F)c4F)c4ccc([nH]4)c(-c4c(F)c(F)c(F)c(F)c4F)c4nc(c(-c5c(F)c(F)c(F)c(F)c5F)c5ccc2[nH]5)C=C4)C=C3)cc1
REMARK SMILES IDX 23 1 22 2 21 3 19 4 20 5 18 7 9 8 10 9 11 11 17 12 12 13
REMARK SMILES IDX 16 14 13 15 15 16 14 17 8 20 7 21 2 22 3 23 4 24 6 25 5 26
REMARK SMILES IDX 1 27 24 30 25 31 26 32 27 33 28 35 29 36 30 37 91 38 31 39
REMARK SMILES IDX 90 40 32 41 33 42 34 43 84 44 35 45 89 46 83 47 85 48 36 49
REMARK SMILES IDX 88 50 82 51 81 52 37 54 69 55 49 56 68 57 50 58 53 59 67 60
REMARK SMILES IDX 86 61 51 62 52 63 66 65 87 66 54 67 38 68 39 69 47 70 40 71
REMARK SMILES IDX 41 72 45 73 48 74 42 75 43 76 46 77 44 78 70 79 71 80 79 81
REMARK SMILES IDX 72 82 73 83 77 84 80 85 74 86 75 87 78 88 76 89 55 90 56 91
REMARK SMILES IDX 64 92 57 93 58 94 62 95 65 96 59 97 60 98 63 99 61 100
REMARK H PARENT 21 6 9 10 14 18 14 19 1 28 1 29 26 34 85 53 53 64
REMARK Flexibility Score: inf
ROOT
ATOM      1  C   UNL     1      -1.202  -5.946   3.469  1.00  0.00     0.023 C 
ENDROOT
BRANCH   1   2
ATOM      2  C   UNL     1      -1.157  -4.495   3.924  1.00  0.00     0.116 C 
BRANCH   2   3
ATOM      3  N   UNL     1       0.141  -3.929   4.134  1.00  0.00    -0.351 N 
ATOM      4  C   UNL     1       0.673  -2.784   3.612  1.00  0.00     0.278 C 
ATOM      5  O   UNL     1       1.721  -2.401   4.152  1.00  0.00    -0.268 OA
ATOM      6  H   UNL     1       0.732  -4.434   4.738  1.00  0.00     0.163 HD
BRANCH   4   7
ATOM      7  C   UNL     1       0.085  -1.981   2.404  1.00  0.00     0.275 C 
ATOM      8  N   UNL     1      -0.044  -2.830   1.207  1.00  0.00    -0.320 N 
ATOM      9  C   UNL     1      -1.469  -2.972   0.880  1.00  0.00     0.270 C 
ATOM     10  H   UNL     1       0.299  -3.771   1.400  1.00  0.00     0.349 HD
ATOM     11  C   UNL     1      -2.295  -1.914   1.673  1.00  0.00     0.036 C 
ATOM     12  C   UNL     1      -1.224  -1.190   2.519  1.00  0.00     0.089 C 
ATOM     13  C   UNL     1      -3.434  -2.381   2.625  1.00  0.00     0.074 C 
ATOM     14  C   UNL     1      -3.071  -1.038   0.655  1.00  0.00     0.074 C 
ATOM     15  C   UNL     1      -4.490  -3.220   1.919  1.00  0.00     0.261 C 
ATOM     16  C   UNL     1      -4.159  -1.864  -0.066  1.00  0.00     0.261 C 
ATOM     17  N   UNL     1      -5.130  -2.453   0.855  1.00  0.00    -0.346 N 
ATOM     18  H   UNL     1      -5.680  -1.703   1.276  1.00  0.00     0.346 HD
ATOM     19  H   UNL     1      -5.720  -3.091   0.321  1.00  0.00     0.346 HD
BRANCH   8  20
ATOM     20  C   UNL     1       0.858  -2.419   0.099  1.00  0.00     0.303 C 
BRANCH  20  21
ATOM     21  C   UNL     1       0.759  -0.986  -0.397  1.00  0.00     0.048 A 
ATOM     22  C   UNL     1       1.585   0.046   0.062  1.00  0.00     0.132 A 
ATOM     23  N   UNL     1       1.337   1.349  -0.184  1.00  0.00    -0.239 NA
ATOM     24  C   UNL     1       0.290   1.655  -0.973  1.00  0.00     0.113 A 
ATOM     25  C   UNL     1      -0.238  -0.632  -1.314  1.00  0.00     0.015 A 
ATOM     26  C   UNL     1      -0.495   0.706  -1.592  1.00  0.00     0.021 A 
BRANCH  22  27
ATOM     27  N   UNL     1       2.699  -0.172   0.845  1.00  0.00    -0.383 N 
ATOM     28  H   UNL     1       3.248   0.588   1.143  1.00  0.00     0.158 HD
ATOM     29  H   UNL     1       2.944  -1.089   1.107  1.00  0.00     0.158 HD
ENDBRANCH  22  27
ENDBRANCH  20  21
ENDBRANCH   8  20
ENDBRANCH   4   7
ENDBRANCH   2   3
ENDBRANCH   1   2
BRANCH   1  30
ATOM     30  C   UNL     1      -1.613  -6.946   4.547  1.00  0.00     0.023 C 
BRANCH  30  31
ATOM     31  C   UNL     1      -2.924  -6.662   5.279  1.00  0.00     0.116 C 
BRANCH  31  32
ATOM     32  N   UNL     1      -4.106  -6.584   4.435  1.00  0.00    -0.352 N 
ATOM     33  C   UNL     1      -5.402  -6.939   4.765  1.00  0.00     0.251 C 
ATOM     34  H   UNL     1      -3.969  -6.238   3.524  1.00  0.00     0.163 HD
ATOM     35  O   UNL     1      -6.306  -6.857   3.953  1.00  0.00    -0.269 OA
BRANCH  33  36
ATOM     36  C   UNL     1      -5.661  -7.484   6.119  1.00  0.00     0.039 A 
ATOM     37  C   UNL     1      -6.255  -8.743   6.235  1.00  0.00     0.014 A 
ATOM     38  C   UNL     1      -5.225  -6.800   7.255  1.00  0.00     0.014 A 
ATOM     39  C   UNL     1      -6.320  -9.360   7.487  1.00  0.00     0.010 A 
ATOM     40  C   UNL     1      -5.221  -7.447   8.487  1.00  0.00     0.010 A 
ATOM     41  C   UNL     1      -5.755  -8.739   8.613  1.00  0.00    -0.014 A 
BRANCH  41  42
ATOM     42  C   UNL     1      -5.694  -9.431   9.927  1.00  0.00     0.031 A 
ATOM     43  C   UNL     1      -6.434  -8.872  11.109  1.00  0.00     0.074 A 
ATOM     44  C   UNL     1      -4.913 -10.519  10.075  1.00  0.00     0.049 A 
ATOM     45  N   UNL     1      -6.453  -9.292  12.349  1.00  0.00    -0.248 NA
ATOM     46  C   UNL     1      -7.234  -7.661  10.872  1.00  0.00     0.031 C 
ATOM     47  C   UNL     1      -4.099 -11.129   9.022  1.00  0.00     0.029 A 
ATOM     48  N   UNL     1      -4.670 -11.304  11.176  1.00  0.00    -0.354 N 
ATOM     49  C   UNL     1      -7.252  -8.390  13.039  1.00  0.00     0.074 A 
ATOM     50  C   UNL     1      -7.649  -7.368  12.095  1.00  0.00     0.031 C 
ATOM     51  C   UNL     1      -3.474 -12.209   9.518  1.00  0.00     0.029 A 
ATOM     52  C   UNL     1      -3.816 -12.351  10.930  1.00  0.00     0.049 A 
ATOM     53  H   UNL     1      -5.071 -11.132  12.059  1.00  0.00     0.167 HD
ATOM     54  C   UNL     1      -7.645  -8.426  14.335  1.00  0.00     0.037 A 
ATOM     55  C   UNL     1      -3.363 -13.319  11.751  1.00  0.00     0.037 A 
ATOM     56  C   UNL     1      -7.274  -9.457  15.266  1.00  0.00     0.049 A 
ATOM     57  C   UNL     1      -3.815 -13.337  13.186  1.00  0.00     0.074 A 
ATOM     58  C   UNL     1      -7.665  -9.614  16.584  1.00  0.00     0.029 A 
ATOM     59  N   UNL     1      -6.421 -10.512  14.974  1.00  0.00    -0.354 N 
ATOM     60  N   UNL     1      -4.626 -12.519  13.809  1.00  0.00    -0.248 NA
ATOM     61  C   UNL     1      -3.290 -14.420  14.030  1.00  0.00     0.031 C 
ATOM     62  C   UNL     1      -7.023 -10.745  17.100  1.00  0.00     0.029 A 
ATOM     63  C   UNL     1      -6.263 -11.316  16.092  1.00  0.00     0.049 A 
ATOM     64  H   UNL     1      -5.992 -10.667  14.102  1.00  0.00     0.167 HD
ATOM     65  C   UNL     1      -4.735 -13.002  15.105  1.00  0.00     0.074 A 
ATOM     66  C   UNL     1      -3.913 -14.193  15.178  1.00  0.00     0.031 C 
ATOM     67  C   UNL     1      -5.452 -12.505  16.143  1.00  0.00     0.037 A 
BRANCH  54  68
ATOM     68  C   UNL     1      -8.536  -7.316  14.812  1.00  0.00     0.064 A 
ATOM     69  C   UNL     1      -9.864  -7.203  14.374  1.00  0.00     0.173 A 
ATOM     70  C   UNL     1      -8.062  -6.361  15.723  1.00  0.00     0.173 A 
ATOM     71  F   UNL     1     -10.361  -8.084  13.492  1.00  0.00    -0.203 F 
ATOM     72  C   UNL     1     -10.674  -6.154  14.801  1.00  0.00     0.198 A 
ATOM     73  C   UNL     1      -8.884  -5.330  16.172  1.00  0.00     0.198 A 
ATOM     74  F   UNL     1      -6.801  -6.425  16.178  1.00  0.00    -0.203 F 
ATOM     75  F   UNL     1     -11.920  -6.035  14.323  1.00  0.00    -0.200 F 
ATOM     76  C   UNL     1     -10.185  -5.222  15.704  1.00  0.00     0.200 A 
ATOM     77  F   UNL     1      -8.415  -4.436  17.053  1.00  0.00    -0.200 F 
ATOM     78  F   UNL     1     -10.965  -4.212  16.114  1.00  0.00    -0.200 F 
ENDBRANCH  54  68
BRANCH  55  79
ATOM     79  C   UNL     1      -2.467 -14.381  11.225  1.00  0.00     0.064 A 
ATOM     80  C   UNL     1      -2.935 -15.693  11.065  1.00  0.00     0.173 A 
ATOM     81  C   UNL     1      -1.136 -14.115  10.877  1.00  0.00     0.173 A 
ATOM     82  F   UNL     1      -4.195 -16.000  11.405  1.00  0.00    -0.203 F 
ATOM     83  C   UNL     1      -2.099 -16.703  10.592  1.00  0.00     0.198 A 
ATOM     84  C   UNL     1      -0.308 -15.121  10.381  1.00  0.00     0.198 A 
ATOM     85  F   UNL     1      -0.642 -12.875  11.008  1.00  0.00    -0.203 F 
ATOM     86  F   UNL     1      -2.560 -17.957  10.488  1.00  0.00    -0.200 F 
ATOM     87  C   UNL     1      -0.788 -16.415  10.246  1.00  0.00     0.200 A 
ATOM     88  F   UNL     1       0.956 -14.837  10.037  1.00  0.00    -0.200 F 
ATOM     89  F   UNL     1       0.015 -17.386   9.789  1.00  0.00    -0.200 F 
ENDBRANCH  55  79
BRANCH  67  90
ATOM     90  C   UNL     1      -5.411 -13.267  17.434  1.00  0.00     0.064 A 
ATOM     91  C   UNL     1      -4.277 -13.256  18.259  1.00  0.00     0.173 A 
ATOM     92  C   UNL     1      -6.537 -13.982  17.870  1.00  0.00     0.173 A 
ATOM     93  F   UNL     1      -3.171 -12.600  17.878  1.00  0.00    -0.203 F 
ATOM     94  C   UNL     1      -4.265 -13.952  19.465  1.00  0.00     0.198 A 
ATOM     95  C   UNL     1      -6.530 -14.654  19.089  1.00  0.00     0.198 A 
ATOM     96  F   UNL     1      -7.648 -14.018  17.119  1.00  0.00    -0.203 F 
ATOM     97  F   UNL     1      -3.156 -13.964  20.218  1.00  0.00    -0.200 F 
ATOM     98  C   UNL     1      -5.393 -14.644  19.882  1.00  0.00     0.200 A 
ATOM     99  F   UNL     1      -7.624 -15.312  19.496  1.00  0.00    -0.200 F 
ATOM    100  F   UNL     1      -5.381 -15.307  21.047  1.00  0.00    -0.200 F 
ENDBRANCH  67  90
ENDBRANCH  41  42
ENDBRANCH  33  36
ENDBRANCH  31  32
ENDBRANCH  30  31
ENDBRANCH   1  30
TORSDOF 14
