REMARK SMILES O=C(NCCCCNC(=O)[C@@H]1CCCCC[C@H]1NS(=O)(=O)C(F)F)c1ccc(-c2c3nc(c(-c4c(F)c(F)c(F)c(F)c4F)c4ccc([nH]4)c(-c4c(F)c(F)c(F)c(F)c4F)c4nc(c(-c5c(F)c(F)c(F)c(F)c5F)c5ccc2[nH]5)C=C4)C=C3)cc1
REMARK SMILES IDX 6 1 5 2 4 3 3 4 1 5 2 6 25 8 26 9 87 10 27 11 86 12 28 13
REMARK SMILES IDX 29 14 30 15 80 16 31 17 85 18 79 19 81 20 32 21 84 22 78 23
REMARK SMILES IDX 77 24 33 26 65 27 45 28 64 29 46 30 49 31 63 32 82 33 47 34
REMARK SMILES IDX 48 35 62 37 83 38 50 39 34 40 35 41 43 42 36 43 37 44 41 45
REMARK SMILES IDX 44 46 38 47 39 48 42 49 40 50 66 51 67 52 75 53 68 54 69 55
REMARK SMILES IDX 73 56 76 57 70 58 71 59 74 60 72 61 51 62 52 63 60 64 53 65
REMARK SMILES IDX 54 66 58 67 61 68 55 69 56 70 59 71 57 72 7 73 8 74 9 75
REMARK SMILES IDX 10 77 11 78 12 79 13 80 14 81 17 83 16 84 15 85 18 87 19 89
REMARK SMILES IDX 20 90 21 91 22 92 23 93 24 94
REMARK H PARENT 3 7 81 25 49 36 8 76 18 88
REMARK Flexibility Score: 90.00
ROOT
ATOM      1  C   UNL     1       4.357   3.891   0.151  1.00  0.00     0.023 C 
ENDROOT
BRANCH   1   2
ATOM      2  C   UNL     1       4.839   2.644  -0.592  1.00  0.00     0.023 C 
BRANCH   2   3
ATOM      3  C   UNL     1       4.486   1.326   0.081  1.00  0.00     0.116 C 
BRANCH   3   4
ATOM      4  N   UNL     1       3.052   1.116   0.207  1.00  0.00    -0.352 N 
ATOM      5  O   UNL     1       1.094   0.021  -0.086  1.00  0.00    -0.269 OA
ATOM      6  C   UNL     1       2.320  -0.001  -0.119  1.00  0.00     0.251 C 
ATOM      7  H   UNL     1       2.539   1.872   0.574  1.00  0.00     0.163 HD
BRANCH   6   8
ATOM      8  C   UNL     1       3.031  -1.227  -0.535  1.00  0.00     0.039 A 
ATOM      9  C   UNL     1       4.136  -1.674   0.191  1.00  0.00     0.014 A 
ATOM     10  C   UNL     1       2.603  -1.919  -1.670  1.00  0.00     0.014 A 
ATOM     11  C   UNL     1       4.899  -2.725  -0.296  1.00  0.00     0.010 A 
ATOM     12  C   UNL     1       3.314  -3.042  -2.102  1.00  0.00     0.010 A 
ATOM     13  C   UNL     1       4.479  -3.443  -1.428  1.00  0.00    -0.014 A 
BRANCH  13  14
ATOM     14  C   UNL     1       5.214  -4.674  -1.808  1.00  0.00     0.031 A 
ATOM     15  C   UNL     1       5.934  -4.791  -3.120  1.00  0.00     0.074 A 
ATOM     16  C   UNL     1       5.235  -5.692  -0.924  1.00  0.00     0.049 A 
ATOM     17  N   UNL     1       6.622  -5.802  -3.591  1.00  0.00    -0.248 NA
ATOM     18  C   UNL     1       5.875  -3.634  -4.025  1.00  0.00     0.031 C 
ATOM     19  C   UNL     1       4.556  -5.691   0.376  1.00  0.00     0.029 A 
ATOM     20  N   UNL     1       5.853  -6.915  -0.970  1.00  0.00    -0.354 N 
ATOM     21  C   UNL     1       7.061  -5.412  -4.849  1.00  0.00     0.074 A 
ATOM     22  C   UNL     1       6.548  -4.079  -5.080  1.00  0.00     0.031 C 
ATOM     23  C   UNL     1       4.828  -6.833   1.018  1.00  0.00     0.029 A 
ATOM     24  C   UNL     1       5.631  -7.681   0.148  1.00  0.00     0.049 A 
ATOM     25  H   UNL     1       6.403  -7.214  -1.730  1.00  0.00     0.167 HD
ATOM     26  C   UNL     1       7.826  -6.110  -5.723  1.00  0.00     0.037 A 
ATOM     27  C   UNL     1       6.002  -8.943   0.429  1.00  0.00     0.037 A 
ATOM     28  C   UNL     1       8.342  -7.434  -5.474  1.00  0.00     0.049 A 
ATOM     29  C   UNL     1       6.816  -9.698  -0.582  1.00  0.00     0.074 A 
ATOM     30  C   UNL     1       9.170  -8.200  -6.277  1.00  0.00     0.029 A 
ATOM     31  N   UNL     1       8.072  -8.191  -4.344  1.00  0.00    -0.354 N 
ATOM     32  N   UNL     1       7.273  -9.297  -1.742  1.00  0.00    -0.248 NA
ATOM     33  C   UNL     1       7.163 -11.084  -0.245  1.00  0.00     0.031 C 
ATOM     34  C   UNL     1       9.346  -9.444  -5.665  1.00  0.00     0.029 A 
ATOM     35  C   UNL     1       8.686  -9.431  -4.447  1.00  0.00     0.049 A 
ATOM     36  H   UNL     1       7.526  -7.893  -3.581  1.00  0.00     0.167 HD
ATOM     37  C   UNL     1       7.979 -10.371  -2.265  1.00  0.00     0.074 A 
ATOM     38  C   UNL     1       7.915 -11.430  -1.280  1.00  0.00     0.031 C 
ATOM     39  C   UNL     1       8.616 -10.474  -3.456  1.00  0.00     0.037 A 
BRANCH  26  40
ATOM     40  C   UNL     1       8.149  -5.480  -7.049  1.00  0.00     0.064 A 
ATOM     41  C   UNL     1       9.056  -4.417  -7.162  1.00  0.00     0.173 A 
ATOM     42  C   UNL     1       7.620  -6.019  -8.233  1.00  0.00     0.173 A 
ATOM     43  F   UNL     1       9.586  -3.861  -6.062  1.00  0.00    -0.203 F 
ATOM     44  C   UNL     1       9.416  -3.912  -8.410  1.00  0.00     0.198 A 
ATOM     45  C   UNL     1       8.004  -5.530  -9.479  1.00  0.00     0.198 A 
ATOM     46  F   UNL     1       6.755  -7.042  -8.183  1.00  0.00    -0.203 F 
ATOM     47  F   UNL     1      10.267  -2.880  -8.493  1.00  0.00    -0.200 F 
ATOM     48  C   UNL     1       8.899  -4.476  -9.567  1.00  0.00     0.200 A 
ATOM     49  F   UNL     1       7.516  -6.089 -10.596  1.00  0.00    -0.200 F 
ATOM     50  F   UNL     1       9.266  -4.005 -10.767  1.00  0.00    -0.200 F 
ENDBRANCH  26  40
BRANCH  27  51
ATOM     51  C   UNL     1       5.577  -9.581   1.703  1.00  0.00     0.064 A 
ATOM     52  C   UNL     1       6.514  -9.966   2.671  1.00  0.00     0.173 A 
ATOM     53  C   UNL     1       4.223  -9.844   1.966  1.00  0.00     0.173 A 
ATOM     54  F   UNL     1       7.821  -9.751   2.460  1.00  0.00    -0.203 F 
ATOM     55  C   UNL     1       6.118 -10.624   3.833  1.00  0.00     0.198 A 
ATOM     56  C   UNL     1       3.825 -10.464   3.147  1.00  0.00     0.198 A 
ATOM     57  F   UNL     1       3.283  -9.488   1.078  1.00  0.00    -0.203 F 
ATOM     58  F   UNL     1       7.041 -11.042   4.710  1.00  0.00    -0.200 F 
ATOM     59  C   UNL     1       4.774 -10.867   4.073  1.00  0.00     0.200 A 
ATOM     60  F   UNL     1       2.523 -10.677   3.383  1.00  0.00    -0.200 F 
ATOM     61  F   UNL     1       4.394 -11.502   5.190  1.00  0.00    -0.200 F 
ENDBRANCH  27  51
BRANCH  39  62
ATOM     62  C   UNL     1       9.322 -11.768  -3.742  1.00  0.00     0.064 A 
ATOM     63  C   UNL     1       8.616 -12.956  -3.981  1.00  0.00     0.173 A 
ATOM     64  C   UNL     1      10.724 -11.815  -3.795  1.00  0.00     0.173 A 
ATOM     65  F   UNL     1       7.276 -12.969  -3.923  1.00  0.00    -0.203 F 
ATOM     66  C   UNL     1       9.288 -14.150  -4.228  1.00  0.00     0.198 A 
ATOM     67  C   UNL     1      11.391 -13.002  -4.079  1.00  0.00     0.198 A 
ATOM     68  F   UNL     1      11.447 -10.706  -3.579  1.00  0.00    -0.203 F 
ATOM     69  F   UNL     1       8.594 -15.285  -4.391  1.00  0.00    -0.200 F 
ATOM     70  C   UNL     1      10.673 -14.171  -4.285  1.00  0.00     0.200 A 
ATOM     71  F   UNL     1      12.729 -13.017  -4.150  1.00  0.00    -0.200 F 
ATOM     72  F   UNL     1      11.318 -15.320  -4.529  1.00  0.00    -0.200 F 
ENDBRANCH  39  62
ENDBRANCH  13  14
ENDBRANCH   6   8
ENDBRANCH   3   4
ENDBRANCH   2   3
ENDBRANCH   1   2
BRANCH   1  73
ATOM     73  C   UNL     1       4.832   3.975   1.601  1.00  0.00     0.116 C 
BRANCH  73  74
ATOM     74  N   UNL     1       6.272   4.147   1.673  1.00  0.00    -0.356 N 
ATOM     75  C   UNL     1       6.995   5.255   2.003  1.00  0.00     0.224 C 
ATOM     76  H   UNL     1       6.803   3.348   1.451  1.00  0.00     0.163 HD
ATOM     77  O   UNL     1       8.223   5.189   1.946  1.00  0.00    -0.275 OA
BRANCH  75  78
ATOM     78  C   UNL     1       6.268   6.497   2.505  1.00  0.00     0.096 C 
BRANCH  78  79
ATOM     79  C   UNL     1       6.968   7.745   1.949  1.00  0.00     0.015 C 
BRANCH  79  80
ATOM     80  C   UNL     1       6.349   9.052   2.434  1.00  0.00     0.001 C 
BRANCH  80  81
ATOM     81  C   UNL     1       7.011   9.576   3.701  1.00  0.00     0.000 CG0
ATOM     82  G   UNL     1       6.795   8.733   4.951  1.00  0.00     0.000 G0
ENDBRANCH  80  81
ENDBRANCH  79  80
ENDBRANCH  78  79
BRANCH  78  83
ATOM     83  C   UNL     1       6.154   6.377   4.049  1.00  0.00     0.082 C 
BRANCH  83  84
ATOM     84  C   UNL     1       7.149   7.250   4.828  1.00  0.00     0.021 C 
BRANCH  84  85
ATOM     85  C   UNL     1       6.795   8.733   4.951  1.00  0.00     0.002 CG0
ATOM     86  G   UNL     1       7.011   9.576   3.701  1.00  0.00     0.000 G0
ENDBRANCH  84  85
ENDBRANCH  83  84
BRANCH  83  87
ATOM     87  N   UNL     1       4.738   6.622   4.439  1.00  0.00    -0.206 NA
ATOM     88  H   UNL     1       4.168   6.069   3.799  1.00  0.00     0.141 HD
BRANCH  87  89
ATOM     89  S   UNL     1       4.155   6.293   5.990  1.00  0.00     0.274 S 
ATOM     90  O   UNL     1       5.013   6.959   6.944  1.00  0.00    -0.206 OA
ATOM     91  O   UNL     1       2.752   6.667   5.925  1.00  0.00    -0.206 OA
BRANCH  89  92
ATOM     92  C   UNL     1       4.280   4.478   6.210  1.00  0.00     0.473 C 
ATOM     93  F   UNL     1       3.596   3.788   5.252  1.00  0.00    -0.191 F 
ATOM     94  F   UNL     1       5.571   4.037   6.147  1.00  0.00    -0.191 F 
ENDBRANCH  89  92
ENDBRANCH  87  89
ENDBRANCH  83  87
ENDBRANCH  78  83
ENDBRANCH  75  78
ENDBRANCH  73  74
ENDBRANCH   1  73
TORSDOF 14
