REMARK SMILES Cc1ccc(C)c(N2C(=O)S[C@H](CC(=O)Nc3ccc(C(=O)NCCCCNC(=O)c4ccc(-c5c6nc(c(-c7c(F)c(F)c(F)c(F)c7F)c7ccc([nH]7)c(-c7c(F)c(F)c(F)c(F)c7F)c7nc(c(-c8c(F)c(F)c(F)c(F)c8F)c8ccc5[nH]8)C=C7)C=C6)cc4)c(O)c3)C2=O)c1
REMARK SMILES IDX 24 1 23 2 21 3 22 4 20 6 17 7 18 8 96 9 19 10 94 11 16 12
REMARK SMILES IDX 14 13 15 14 13 16 12 17 8 18 9 19 97 20 10 21 11 22 98 23
REMARK SMILES IDX 7 24 1 25 2 26 3 27 99 28 4 29 5 30 6 31 95 32 25 34 26 35
REMARK SMILES IDX 27 36 28 37 29 38 30 40 31 41 32 42 93 43 33 44 92 45 34 46
REMARK SMILES IDX 35 47 36 48 86 49 37 50 91 51 85 52 87 53 38 54 90 55 84 56
REMARK SMILES IDX 83 57 39 59 71 60 51 61 70 62 52 63 55 64 69 65 88 66 53 67
REMARK SMILES IDX 54 68 68 70 89 71 56 72 40 73 41 74 49 75 42 76 43 77 47 78
REMARK SMILES IDX 50 79 44 80 45 81 48 82 46 83 72 84 73 85 81 86 74 87 75 88
REMARK SMILES IDX 79 89 82 90 76 91 77 92 80 93 78 94 57 95 58 96 66 97 59 98
REMARK SMILES IDX 60 99 64 100 67 101 61 102 62 103 65 104 63 105
REMARK H PARENT 23 5 16 15 95 33 28 39 87 58 55 69
REMARK Flexibility Score: inf
ROOT
ATOM      1  C   UNL     1       2.878   7.438  -2.588  1.00  0.00     0.116 C 
ENDROOT
BRANCH   1   2
ATOM      2  N   UNL     1       2.251   6.368  -3.338  1.00  0.00    -0.352 N 
ATOM      3  C   UNL     1       0.910   6.054  -3.478  1.00  0.00     0.255 C 
ATOM      4  O   UNL     1       0.617   5.206  -4.322  1.00  0.00    -0.269 OA
ATOM      5  H   UNL     1       2.872   5.776  -3.821  1.00  0.00     0.163 HD
BRANCH   3   6
ATOM      6  C   UNL     1      -0.173   6.597  -2.594  1.00  0.00     0.081 A 
ATOM      7  C   UNL     1      -2.008   7.114  -0.512  1.00  0.00     0.044 A 
ATOM      8  C   UNL     1      -2.191   6.052  -1.384  1.00  0.00     0.027 A 
ATOM      9  C   UNL     1      -1.083   8.082  -0.869  1.00  0.00     0.073 A 
ATOM     10  C   UNL     1      -1.255   5.746  -2.369  1.00  0.00     0.020 A 
ATOM     11  C   UNL     1      -0.221   7.842  -1.955  1.00  0.00     0.130 A 
BRANCH   7  12
ATOM     12  N   UNL     1      -2.806   7.230   0.638  1.00  0.00    -0.326 N 
ATOM     13  C   UNL     1      -3.312   6.199   1.411  1.00  0.00     0.226 C 
ATOM     14  O   UNL     1      -4.295   6.385   2.127  1.00  0.00    -0.275 OA
ATOM     15  H   UNL     1      -3.031   8.144   0.926  1.00  0.00     0.169 HD
BRANCH  13  16
ATOM     16  C   UNL     1      -2.492   4.915   1.532  1.00  0.00     0.125 C 
BRANCH  16  17
ATOM     17  C   UNL     1      -3.243   3.597   1.348  1.00  0.00     0.156 C 
ATOM     18  N   UNL     1      -1.700   2.010   0.418  1.00  0.00    -0.240 N 
ATOM     19  C   UNL     1      -2.278   2.458  -0.739  1.00  0.00     0.293 C 
ATOM     20  C   UNL     1      -2.272   2.447   1.603  1.00  0.00     0.248 C 
ATOM     21  O   UNL     1      -1.888   2.329  -1.891  1.00  0.00    -0.261 OA
ATOM     22  S   UNL     1      -3.786   3.270  -0.355  1.00  0.00    -0.050 SA
ATOM     23  O   UNL     1      -2.045   2.013   2.727  1.00  0.00    -0.273 OA
BRANCH  18  24
ATOM     24  C   UNL     1      -0.857   0.875   0.366  1.00  0.00     0.056 A 
ATOM     25  C   UNL     1       2.870   0.052   0.084  1.00  0.00     0.044 C 
ATOM     26  C   UNL     1       1.376  -0.080   0.168  1.00  0.00    -0.049 A 
ATOM     27  C   UNL     1       0.806  -1.354   0.078  1.00  0.00     0.004 A 
ATOM     28  C   UNL     1       0.538   1.037   0.326  1.00  0.00     0.030 A 
ATOM     29  C   UNL     1      -0.578  -1.515   0.117  1.00  0.00     0.006 A 
ATOM     30  C   UNL     1      -1.426  -0.408   0.244  1.00  0.00    -0.027 A 
ATOM     31  C   UNL     1      -2.909  -0.665   0.227  1.00  0.00     0.046 C 
ENDBRANCH  18  24
ENDBRANCH  16  17
ENDBRANCH  13  16
ENDBRANCH   7  12
BRANCH  11  32
ATOM     32  O   UNL     1       0.486   8.928  -2.391  1.00  0.00    -0.507 OA
ATOM     33  H   UNL     1       1.079   8.842  -3.111  1.00  0.00     0.293 HD
ENDBRANCH  11  32
ENDBRANCH   3   6
ENDBRANCH   1   2
BRANCH   1  34
ATOM     34  C   UNL     1       4.312   7.242  -2.100  1.00  0.00     0.023 C 
BRANCH  34  35
ATOM     35  C   UNL     1       5.469   7.000  -3.075  1.00  0.00     0.023 C 
BRANCH  35  36
ATOM     36  C   UNL     1       5.491   7.766  -4.388  1.00  0.00     0.116 C 
BRANCH  36  37
ATOM     37  N   UNL     1       5.396   9.229  -4.279  1.00  0.00    -0.352 N 
ATOM     38  C   UNL     1       5.052  10.180  -5.241  1.00  0.00     0.251 C 
ATOM     39  H   UNL     1       5.609   9.595  -3.390  1.00  0.00     0.163 HD
ATOM     40  O   UNL     1       5.425  11.342  -5.119  1.00  0.00    -0.269 OA
BRANCH  38  41
ATOM     41  C   UNL     1       4.234   9.792  -6.413  1.00  0.00     0.039 A 
ATOM     42  C   UNL     1       4.176  10.498  -7.617  1.00  0.00     0.014 A 
ATOM     43  C   UNL     1       3.485   8.642  -6.295  1.00  0.00     0.014 A 
ATOM     44  C   UNL     1       3.369   9.985  -8.638  1.00  0.00     0.010 A 
ATOM     45  C   UNL     1       3.166   7.936  -7.406  1.00  0.00     0.010 A 
ATOM     46  C   UNL     1       2.856   8.682  -8.507  1.00  0.00    -0.014 A 
BRANCH  46  47
ATOM     47  C   UNL     1       2.073   7.998  -9.521  1.00  0.00     0.031 A 
ATOM     48  C   UNL     1       2.778   7.946 -10.806  1.00  0.00     0.074 A 
ATOM     49  C   UNL     1       0.942   7.287  -9.300  1.00  0.00     0.049 A 
ATOM     50  N   UNL     1       2.580   8.723 -11.811  1.00  0.00    -0.248 NA
ATOM     51  C   UNL     1       3.972   7.097 -10.914  1.00  0.00     0.031 C 
ATOM     52  C   UNL     1       0.314   6.929  -8.019  1.00  0.00     0.029 A 
ATOM     53  N   UNL     1       0.137   6.659 -10.208  1.00  0.00    -0.354 N 
ATOM     54  C   UNL     1       3.463   8.286 -12.784  1.00  0.00     0.074 A 
ATOM     55  C   UNL     1       4.438   7.473 -12.107  1.00  0.00     0.031 C 
ATOM     56  C   UNL     1      -0.653   6.004  -8.223  1.00  0.00     0.029 A 
ATOM     57  C   UNL     1      -0.832   5.827  -9.652  1.00  0.00     0.049 A 
ATOM     58  H   UNL     1       0.234   6.784 -11.180  1.00  0.00     0.167 HD
ATOM     59  C   UNL     1       3.104   8.368 -14.092  1.00  0.00     0.037 A 
ATOM     60  C   UNL     1      -1.719   5.054 -10.328  1.00  0.00     0.037 A 
ATOM     61  C   UNL     1       1.916   9.179 -14.238  1.00  0.00     0.049 A 
ATOM     62  C   UNL     1      -1.858   5.637 -11.682  1.00  0.00     0.074 A 
ATOM     63  C   UNL     1       1.596  10.511 -14.085  1.00  0.00     0.029 A 
ATOM     64  N   UNL     1       0.743   8.471 -14.165  1.00  0.00    -0.354 N 
ATOM     65  N   UNL     1      -2.414   6.793 -11.917  1.00  0.00    -0.248 NA
ATOM     66  C   UNL     1      -1.065   5.093 -12.777  1.00  0.00     0.031 C 
ATOM     67  C   UNL     1       0.224  10.546 -13.691  1.00  0.00     0.029 A 
ATOM     68  C   UNL     1      -0.268   9.241 -13.655  1.00  0.00     0.049 A 
ATOM     69  H   UNL     1       0.641   7.532 -14.443  1.00  0.00     0.167 HD
ATOM     70  C   UNL     1      -1.684   7.312 -12.969  1.00  0.00     0.074 A 
ATOM     71  C   UNL     1      -1.017   6.166 -13.571  1.00  0.00     0.031 C 
ATOM     72  C   UNL     1      -1.438   8.652 -13.040  1.00  0.00     0.037 A 
BRANCH  59  73
ATOM     73  C   UNL     1       3.478   7.351 -15.145  1.00  0.00     0.064 A 
ATOM     74  C   UNL     1       3.128   7.619 -16.483  1.00  0.00     0.173 A 
ATOM     75  C   UNL     1       3.864   6.021 -14.872  1.00  0.00     0.173 A 
ATOM     76  F   UNL     1       2.723   8.844 -16.851  1.00  0.00    -0.203 F 
ATOM     77  C   UNL     1       3.095   6.613 -17.452  1.00  0.00     0.198 A 
ATOM     78  C   UNL     1       3.882   5.033 -15.854  1.00  0.00     0.198 A 
ATOM     79  F   UNL     1       4.122   5.585 -13.634  1.00  0.00    -0.203 F 
ATOM     80  F   UNL     1       2.634   6.888 -18.680  1.00  0.00    -0.200 F 
ATOM     81  C   UNL     1       3.468   5.320 -17.135  1.00  0.00     0.200 A 
ATOM     82  F   UNL     1       4.222   3.780 -15.518  1.00  0.00    -0.200 F 
ATOM     83  F   UNL     1       3.380   4.342 -18.046  1.00  0.00    -0.200 F 
ENDBRANCH  59  73
BRANCH  60  84
ATOM     84  C   UNL     1      -2.329   3.749  -9.978  1.00  0.00     0.064 A 
ATOM     85  C   UNL     1      -3.449   3.261 -10.677  1.00  0.00     0.173 A 
ATOM     86  C   UNL     1      -1.637   2.820  -9.180  1.00  0.00     0.173 A 
ATOM     87  F   UNL     1      -4.148   4.071 -11.486  1.00  0.00    -0.203 F 
ATOM     88  C   UNL     1      -3.816   1.912 -10.628  1.00  0.00     0.198 A 
ATOM     89  C   UNL     1      -2.009   1.474  -9.127  1.00  0.00     0.198 A 
ATOM     90  F   UNL     1      -0.522   3.177  -8.528  1.00  0.00    -0.203 F 
ATOM     91  F   UNL     1      -4.834   1.468 -11.379  1.00  0.00    -0.200 F 
ATOM     92  C   UNL     1      -3.084   1.016  -9.867  1.00  0.00     0.200 A 
ATOM     93  F   UNL     1      -1.270   0.607  -8.421  1.00  0.00    -0.200 F 
ATOM     94  F   UNL     1      -3.383  -0.290  -9.887  1.00  0.00    -0.200 F 
ENDBRANCH  60  84
BRANCH  72  95
ATOM     95  C   UNL     1      -2.377   9.552 -12.292  1.00  0.00     0.064 A 
ATOM     96  C   UNL     1      -2.514   9.585 -10.894  1.00  0.00     0.173 A 
ATOM     97  C   UNL     1      -3.138  10.462 -13.037  1.00  0.00     0.173 A 
ATOM     98  F   UNL     1      -1.764   8.805 -10.106  1.00  0.00    -0.203 F 
ATOM     99  C   UNL     1      -3.413  10.456 -10.279  1.00  0.00     0.198 A 
ATOM    100  C   UNL     1      -4.005  11.357 -12.419  1.00  0.00     0.198 A 
ATOM    101  F   UNL     1      -3.019  10.503 -14.373  1.00  0.00    -0.203 F 
ATOM    102  F   UNL     1      -3.549  10.450  -8.944  1.00  0.00    -0.200 F 
ATOM    103  C   UNL     1      -4.153  11.344 -11.042  1.00  0.00     0.200 A 
ATOM    104  F   UNL     1      -4.686  12.243 -13.159  1.00  0.00    -0.200 F 
ATOM    105  F   UNL     1      -4.996  12.202 -10.449  1.00  0.00    -0.200 F 
ENDBRANCH  72  95
ENDBRANCH  46  47
ENDBRANCH  38  41
ENDBRANCH  36  37
ENDBRANCH  35  36
ENDBRANCH  34  35
ENDBRANCH   1  34
TORSDOF 16
