REMARK SMILES C[C@@H](C(=O)NCCCCNC(=O)c1ccc(-c2c3nc(c(-c4c(F)c(F)c(F)c(F)c4F)c4ccc([nH]4)c(-c4c(F)c(F)c(F)c(F)c4F)c4nc(c(-c5c(F)c(F)c(F)c(F)c5F)c5ccc2[nH]5)C=C4)C=C3)cc1)c1ccc(-c2cccc(OC(=O)Nc3ccccc3)c2)c(F)c1
REMARK SMILES IDX 6 1 5 2 3 3 4 4 2 6 1 7 76 8 77 9 98 10 78 11 96 12 79 13
REMARK SMILES IDX 97 14 80 15 81 16 95 17 82 18 84 19 83 20 85 21 86 22 87 23
REMARK SMILES IDX 88 24 89 26 90 27 94 28 91 29 93 30 92 31 7 32 8 33 9 34
REMARK SMILES IDX 10 35 11 36 12 38 13 39 14 40 75 41 15 42 74 43 16 44 17 45
REMARK SMILES IDX 18 46 68 47 19 48 73 49 67 50 69 51 20 52 72 53 66 54 65 55
REMARK SMILES IDX 21 57 53 58 33 59 52 60 34 61 37 62 51 63 70 64 35 65 36 66
REMARK SMILES IDX 50 68 71 69 38 70 22 71 23 72 31 73 24 74 25 75 29 76 32 77
REMARK SMILES IDX 26 78 27 79 30 80 28 81 54 82 55 83 63 84 56 85 57 86 61 87
REMARK SMILES IDX 64 88 58 89 59 90 62 91 60 92 39 93 40 94 48 95 41 96 42 97
REMARK SMILES IDX 46 98 49 99 43 100 44 101 47 102 45 103
REMARK H PARENT 5 5 88 25 10 37 69 56 37 67
REMARK Flexibility Score: inf
ROOT
ATOM      1  C   UNL     1       3.411   1.631   0.566  1.00  0.00     0.116 C 
ENDROOT
BRANCH   1   2
ATOM      2  N   UNL     1       2.383   2.463  -0.026  1.00  0.00    -0.356 N 
ATOM      3  C   UNL     1       1.066   2.181  -0.266  1.00  0.00     0.227 C 
ATOM      4  O   UNL     1       0.473   2.945  -1.030  1.00  0.00    -0.274 OA
ATOM      5  H   UNL     1       2.675   3.364  -0.296  1.00  0.00     0.163 HD
BRANCH   3   6
ATOM      6  C   UNL     1       0.406   0.976   0.429  1.00  0.00     0.105 C 
ATOM      7  C   UNL     1       0.848  -0.314  -0.279  1.00  0.00     0.023 C 
BRANCH   6   8
ATOM      8  C   UNL     1      -1.120   1.063   0.544  1.00  0.00    -0.033 A 
ATOM      9  C   UNL     1      -1.788   2.288   0.714  1.00  0.00     0.005 A 
ATOM     10  C   UNL     1      -1.905  -0.100   0.543  1.00  0.00     0.044 A 
ATOM     11  C   UNL     1      -3.186   2.353   0.799  1.00  0.00     0.012 A 
ATOM     12  C   UNL     1      -3.289  -0.032   0.633  1.00  0.00     0.131 A 
ATOM     13  C   UNL     1      -3.960   1.188   0.757  1.00  0.00     0.018 A 
ATOM     14  F   UNL     1      -3.973  -1.187   0.610  1.00  0.00    -0.206 F 
BRANCH  13  15
ATOM     15  C   UNL     1      -5.414   1.216   0.920  1.00  0.00    -0.012 A 
ATOM     16  C   UNL     1      -6.256   1.900   0.032  1.00  0.00     0.009 A 
ATOM     17  C   UNL     1      -5.989   0.515   1.991  1.00  0.00     0.056 A 
ATOM     18  C   UNL     1      -7.642   1.868   0.206  1.00  0.00     0.004 A 
ATOM     19  C   UNL     1      -7.364   0.494   2.172  1.00  0.00     0.133 A 
ATOM     20  C   UNL     1      -8.198   1.164   1.276  1.00  0.00     0.047 A 
BRANCH  19  21
ATOM     21  O   UNL     1      -8.008  -0.168   3.244  1.00  0.00    -0.410 OA
BRANCH  21  22
ATOM     22  C   UNL     1      -7.380  -0.742   4.350  1.00  0.00     0.417 C 
ATOM     23  O   UNL     1      -6.168  -0.850   4.519  1.00  0.00    -0.224 OA
ATOM     24  N   UNL     1      -8.226  -1.105   5.364  1.00  0.00    -0.291 N 
ATOM     25  H   UNL     1      -7.779  -1.366   6.202  1.00  0.00     0.173 HD
BRANCH  24  26
ATOM     26  C   UNL     1      -9.624  -1.165   5.401  1.00  0.00     0.044 A 
ATOM     27  C   UNL     1     -10.226  -1.121   6.664  1.00  0.00     0.026 A 
ATOM     28  C   UNL     1     -10.427  -1.301   4.267  1.00  0.00     0.026 A 
ATOM     29  C   UNL     1     -11.614  -1.159   6.787  1.00  0.00     0.002 A 
ATOM     30  C   UNL     1     -11.817  -1.360   4.393  1.00  0.00     0.002 A 
ATOM     31  C   UNL     1     -12.410  -1.278   5.651  1.00  0.00     0.000 A 
ENDBRANCH  24  26
ENDBRANCH  21  22
ENDBRANCH  19  21
ENDBRANCH  13  15
ENDBRANCH   6   8
ENDBRANCH   3   6
ENDBRANCH   1   2
BRANCH   1  32
ATOM     32  C   UNL     1       4.257   0.955  -0.519  1.00  0.00     0.023 C 
BRANCH  32  33
ATOM     33  C   UNL     1       5.038   1.917  -1.412  1.00  0.00     0.023 C 
BRANCH  33  34
ATOM     34  C   UNL     1       6.019   2.806  -0.670  1.00  0.00     0.116 C 
BRANCH  34  35
ATOM     35  N   UNL     1       7.039   2.048   0.040  1.00  0.00    -0.352 N 
ATOM     36  C   UNL     1       8.385   2.309   0.119  1.00  0.00     0.251 C 
ATOM     37  H   UNL     1       6.725   1.250   0.523  1.00  0.00     0.163 HD
ATOM     38  O   UNL     1       9.155   1.514   0.644  1.00  0.00    -0.269 OA
BRANCH  36  39
ATOM     39  C   UNL     1       8.892   3.560  -0.475  1.00  0.00     0.039 A 
ATOM     40  C   UNL     1       9.939   3.502  -1.397  1.00  0.00     0.014 A 
ATOM     41  C   UNL     1       8.270   4.774  -0.173  1.00  0.00     0.014 A 
ATOM     42  C   UNL     1      10.319   4.660  -2.076  1.00  0.00     0.010 A 
ATOM     43  C   UNL     1       8.596   5.906  -0.905  1.00  0.00     0.010 A 
ATOM     44  C   UNL     1       9.624   5.861  -1.861  1.00  0.00    -0.014 A 
BRANCH  44  45
ATOM     45  C   UNL     1       9.951   7.103  -2.601  1.00  0.00     0.031 A 
ATOM     46  C   UNL     1      10.434   8.303  -1.840  1.00  0.00     0.074 A 
ATOM     47  C   UNL     1       9.698   7.189  -3.920  1.00  0.00     0.049 A 
ATOM     48  N   UNL     1      10.594   9.536  -2.246  1.00  0.00    -0.248 NA
ATOM     49  C   UNL     1      10.738   8.092  -0.416  1.00  0.00     0.031 C 
ATOM     50  C   UNL     1       9.189   6.104  -4.758  1.00  0.00     0.029 A 
ATOM     51  N   UNL     1       9.807   8.253  -4.780  1.00  0.00    -0.354 N 
ATOM     52  C   UNL     1      10.979  10.252  -1.122  1.00  0.00     0.074 A 
ATOM     53  C   UNL     1      10.984   9.328  -0.009  1.00  0.00     0.031 C 
ATOM     54  C   UNL     1       9.031   6.556  -6.012  1.00  0.00     0.029 A 
ATOM     55  C   UNL     1       9.383   7.973  -6.056  1.00  0.00     0.049 A 
ATOM     56  H   UNL     1      10.155   9.133  -4.508  1.00  0.00     0.167 HD
ATOM     57  C   UNL     1      11.313  11.561  -1.030  1.00  0.00     0.037 A 
ATOM     58  C   UNL     1       9.271   8.775  -7.131  1.00  0.00     0.037 A 
ATOM     59  C   UNL     1      11.339  12.464  -2.150  1.00  0.00     0.049 A 
ATOM     60  C   UNL     1       9.661  10.223  -7.013  1.00  0.00     0.074 A 
ATOM     61  C   UNL     1      11.732  13.790  -2.181  1.00  0.00     0.029 A 
ATOM     62  N   UNL     1      10.954  12.129  -3.441  1.00  0.00    -0.354 N 
ATOM     63  N   UNL     1      10.079  10.882  -5.960  1.00  0.00    -0.248 NA
ATOM     64  C   UNL     1       9.569  11.038  -8.232  1.00  0.00     0.031 C 
ATOM     65  C   UNL     1      11.542  14.270  -3.481  1.00  0.00     0.029 A 
ATOM     66  C   UNL     1      11.082  13.229  -4.272  1.00  0.00     0.049 A 
ATOM     67  H   UNL     1      10.637  11.241  -3.723  1.00  0.00     0.167 HD
ATOM     68  C   UNL     1      10.329  12.177  -6.392  1.00  0.00     0.074 A 
ATOM     69  C   UNL     1      10.018  12.211  -7.807  1.00  0.00     0.031 C 
ATOM     70  C   UNL     1      10.782  13.239  -5.682  1.00  0.00     0.037 A 
BRANCH  57  71
ATOM     71  C   UNL     1      11.664  12.088   0.331  1.00  0.00     0.064 A 
ATOM     72  C   UNL     1      12.831  11.688   1.001  1.00  0.00     0.173 A 
ATOM     73  C   UNL     1      10.820  13.005   0.975  1.00  0.00     0.173 A 
ATOM     74  F   UNL     1      13.665  10.803   0.435  1.00  0.00    -0.203 F 
ATOM     75  C   UNL     1      13.115  12.151   2.283  1.00  0.00     0.198 A 
ATOM     76  C   UNL     1      11.127  13.493   2.243  1.00  0.00     0.198 A 
ATOM     77  F   UNL     1       9.695  13.426   0.378  1.00  0.00    -0.203 F 
ATOM     78  F   UNL     1      14.199  11.701   2.930  1.00  0.00    -0.200 F 
ATOM     79  C   UNL     1      12.266  13.056   2.901  1.00  0.00     0.200 A 
ATOM     80  F   UNL     1      10.311  14.378   2.833  1.00  0.00    -0.200 F 
ATOM     81  F   UNL     1      12.540  13.499   4.136  1.00  0.00    -0.200 F 
ENDBRANCH  57  71
BRANCH  58  82
ATOM     82  C   UNL     1       8.786   8.211  -8.417  1.00  0.00     0.064 A 
ATOM     83  C   UNL     1       9.665   8.013  -9.490  1.00  0.00     0.173 A 
ATOM     84  C   UNL     1       7.447   7.829  -8.589  1.00  0.00     0.173 A 
ATOM     85  F   UNL     1      10.950   8.380  -9.379  1.00  0.00    -0.203 F 
ATOM     86  C   UNL     1       9.222   7.460 -10.690  1.00  0.00     0.198 A 
ATOM     87  C   UNL     1       7.011   7.254  -9.780  1.00  0.00     0.198 A 
ATOM     88  F   UNL     1       6.569   7.992  -7.589  1.00  0.00    -0.203 F 
ATOM     89  F   UNL     1      10.077   7.308 -11.711  1.00  0.00    -0.200 F 
ATOM     90  C   UNL     1       7.898   7.074 -10.832  1.00  0.00     0.200 A 
ATOM     91  F   UNL     1       5.734   6.867  -9.908  1.00  0.00    -0.200 F 
ATOM     92  F   UNL     1       7.476   6.530 -11.981  1.00  0.00    -0.200 F 
ENDBRANCH  58  82
BRANCH  70  93
ATOM     93  C   UNL     1      11.019  14.521  -6.426  1.00  0.00     0.064 A 
ATOM     94  C   UNL     1       9.959  15.331  -6.857  1.00  0.00     0.173 A 
ATOM     95  C   UNL     1      12.328  14.976  -6.645  1.00  0.00     0.173 A 
ATOM     96  F   UNL     1       8.690  14.932  -6.684  1.00  0.00    -0.203 F 
ATOM     97  C   UNL     1      10.203  16.546  -7.492  1.00  0.00     0.198 A 
ATOM     98  C   UNL     1      12.568  16.203  -7.255  1.00  0.00     0.198 A 
ATOM     99  F   UNL     1      13.376  14.239  -6.245  1.00  0.00    -0.203 F 
ATOM    100  F   UNL     1       9.177  17.291  -7.925  1.00  0.00    -0.200 F 
ATOM    101  C   UNL     1      11.506  16.985  -7.681  1.00  0.00     0.200 A 
ATOM    102  F   UNL     1      13.826  16.632  -7.423  1.00  0.00    -0.200 F 
ATOM    103  F   UNL     1      11.737  18.163  -8.277  1.00  0.00    -0.200 F 
ENDBRANCH  70  93
ENDBRANCH  44  45
ENDBRANCH  36  39
ENDBRANCH  34  35
ENDBRANCH  33  34
ENDBRANCH  32  33
ENDBRANCH   1  32
TORSDOF 16
