REMARK SMILES COc1ccc([C@H](NC(=O)[C@H]2CC(C)=C(C)C[C@@H]2C(=O)NCCCCNC(=O)c2ccc(-c3c4nc(c(-c5c(F)c(F)c(F)c(F)c5F)c5ccc([nH]5)c(-c5c(F)c(F)c(F)c(F)c5F)c5nc(c(-c6c(F)c(F)c(F)c(F)c6F)c6ccc3[nH]6)C=C5)C=C4)cc2)c2ccccc2)cc1
REMARK SMILES IDX 22 1 21 2 19 3 20 4 18 6 11 7 12 8 13 9 17 10 14 11 15 12
REMARK SMILES IDX 16 13 9 14 8 15 10 17 7 18 6 19 3 20 4 21 99 22 5 23 98 24
REMARK SMILES IDX 2 25 1 26 92 27 93 28 97 29 94 30 96 31 95 32 23 33 24 34
REMARK SMILES IDX 25 35 26 36 27 37 28 39 29 40 30 41 91 42 31 43 90 44 32 45
REMARK SMILES IDX 33 46 34 47 84 48 35 49 89 50 83 51 85 52 36 53 88 54 82 55
REMARK SMILES IDX 81 56 37 58 69 59 49 60 68 61 50 62 53 63 67 64 86 65 51 66
REMARK SMILES IDX 52 67 66 69 87 70 54 71 38 72 39 73 47 74 40 75 41 76 45 77
REMARK SMILES IDX 48 78 42 79 43 80 46 81 44 82 70 83 71 84 79 85 72 86 73 87
REMARK SMILES IDX 77 88 80 89 74 90 75 91 78 92 76 93 55 94 56 95 64 96 57 97
REMARK SMILES IDX 58 98 62 99 65 100 59 101 60 102 63 103 61 104
REMARK H PARENT 21 5 8 16 26 38 85 57 53 68
REMARK Flexibility Score: inf
ROOT
ATOM      1  C   UNL     1       1.218   0.091  -2.698  1.00  0.00     0.116 C 
ENDROOT
BRANCH   1   2
ATOM      2  N   UNL     1       1.768   0.419  -3.998  1.00  0.00    -0.356 N 
ATOM      3  C   UNL     1       2.248  -0.401  -4.975  1.00  0.00     0.224 C 
ATOM      4  O   UNL     1       2.953   0.122  -5.840  1.00  0.00    -0.275 OA
ATOM      5  H   UNL     1       1.799   1.380  -4.208  1.00  0.00     0.163 HD
BRANCH   3   6
ATOM      6  C   UNL     1       1.879  -1.890  -4.989  1.00  0.00     0.095 C 
ATOM      7  C   UNL     1       2.833  -2.733  -4.119  1.00  0.00     0.095 C 
ATOM      8  C   UNL     1       3.759  -3.700  -4.850  1.00  0.00     0.045 C 
ATOM      9  C   UNL     1       3.216  -4.309  -6.114  1.00  0.00    -0.074 C 
ATOM     10  C   UNL     1       1.733  -2.336  -6.458  1.00  0.00     0.045 C 
ATOM     11  C   UNL     1       3.882  -5.600  -6.515  1.00  0.00     0.039 C 
ATOM     12  C   UNL     1       2.261  -3.693  -6.835  1.00  0.00    -0.074 C 
ATOM     13  C   UNL     1       1.715  -4.245  -8.127  1.00  0.00     0.039 C 
BRANCH   7  14
ATOM     14  C   UNL     1       2.112  -3.339  -2.908  1.00  0.00     0.224 C 
ATOM     15  N   UNL     1       1.325  -4.428  -2.868  1.00  0.00    -0.345 N 
ATOM     16  H   UNL     1       0.718  -4.410  -2.093  1.00  0.00     0.164 HD
ATOM     17  O   UNL     1       2.159  -2.734  -1.826  1.00  0.00    -0.275 OA
BRANCH  15  18
ATOM     18  C   UNL     1       1.135  -5.634  -3.679  1.00  0.00     0.143 C 
BRANCH  18  19
ATOM     19  C   UNL     1       1.045  -6.880  -2.769  1.00  0.00    -0.021 A 
ATOM     20  C   UNL     1       0.569  -9.277  -1.347  1.00  0.00     0.118 A 
ATOM     21  C   UNL     1       1.271  -9.306  -2.548  1.00  0.00     0.047 A 
ATOM     22  C   UNL     1       0.206  -8.053  -0.795  1.00  0.00     0.047 A 
ATOM     23  C   UNL     1       1.526  -8.118  -3.241  1.00  0.00     0.010 A 
ATOM     24  C   UNL     1       0.414  -6.870  -1.512  1.00  0.00     0.010 A 
BRANCH  20  25
ATOM     25  O   UNL     1       0.282 -10.485  -0.772  1.00  0.00    -0.497 OA
ATOM     26  C   UNL     1      -1.025 -10.540  -0.197  1.00  0.00     0.278 C 
ENDBRANCH  20  25
ENDBRANCH  18  19
BRANCH  18  27
ATOM     27  C   UNL     1      -0.038  -5.545  -4.667  1.00  0.00    -0.021 A 
ATOM     28  C   UNL     1      -0.420  -6.662  -5.439  1.00  0.00     0.006 A 
ATOM     29  C   UNL     1      -0.714  -4.344  -4.926  1.00  0.00     0.006 A 
ATOM     30  C   UNL     1      -1.384  -6.570  -6.447  1.00  0.00     0.000 A 
ATOM     31  C   UNL     1      -1.644  -4.235  -5.966  1.00  0.00     0.000 A 
ATOM     32  C   UNL     1      -1.974  -5.347  -6.732  1.00  0.00     0.000 A 
ENDBRANCH  18  27
ENDBRANCH  15  18
ENDBRANCH   7  14
ENDBRANCH   3   6
ENDBRANCH   1   2
BRANCH   1  33
ATOM     33  C   UNL     1       2.307   0.180  -1.626  1.00  0.00     0.023 C 
BRANCH  33  34
ATOM     34  C   UNL     1       2.883   1.580  -1.417  1.00  0.00     0.023 C 
BRANCH  34  35
ATOM     35  C   UNL     1       1.861   2.638  -1.033  1.00  0.00     0.116 C 
BRANCH  35  36
ATOM     36  N   UNL     1       1.175   2.335   0.212  1.00  0.00    -0.352 N 
ATOM     37  C   UNL     1       0.839   3.189   1.232  1.00  0.00     0.251 C 
ATOM     38  H   UNL     1       0.917   1.393   0.341  1.00  0.00     0.163 HD
ATOM     39  O   UNL     1       0.375   2.759   2.284  1.00  0.00    -0.269 OA
BRANCH  37  40
ATOM     40  C   UNL     1       1.077   4.637   1.066  1.00  0.00     0.039 A 
ATOM     41  C   UNL     1       1.746   5.328   2.079  1.00  0.00     0.014 A 
ATOM     42  C   UNL     1       0.678   5.298  -0.099  1.00  0.00     0.014 A 
ATOM     43  C   UNL     1       2.070   6.672   1.895  1.00  0.00     0.010 A 
ATOM     44  C   UNL     1       1.066   6.617  -0.311  1.00  0.00     0.010 A 
ATOM     45  C   UNL     1       1.765   7.317   0.684  1.00  0.00    -0.014 A 
BRANCH  45  46
ATOM     46  C   UNL     1       2.176   8.722   0.444  1.00  0.00     0.031 A 
ATOM     47  C   UNL     1       1.138   9.793   0.263  1.00  0.00     0.074 A 
ATOM     48  C   UNL     1       3.485   9.020   0.330  1.00  0.00     0.049 A 
ATOM     49  N   UNL     1       1.298  11.066   0.002  1.00  0.00    -0.248 NA
ATOM     50  C   UNL     1      -0.270   9.374   0.361  1.00  0.00     0.031 C 
ATOM     51  C   UNL     1       4.583   8.057   0.428  1.00  0.00     0.029 A 
ATOM     52  N   UNL     1       4.114  10.218   0.099  1.00  0.00    -0.354 N 
ATOM     53  C   UNL     1       0.019  11.593  -0.106  1.00  0.00     0.074 A 
ATOM     54  C   UNL     1      -0.908  10.496   0.063  1.00  0.00     0.031 C 
ATOM     55  C   UNL     1       5.750   8.705   0.281  1.00  0.00     0.029 A 
ATOM     56  C   UNL     1       5.483  10.120   0.047  1.00  0.00     0.049 A 
ATOM     57  H   UNL     1       3.629  11.067  -0.018  1.00  0.00     0.167 HD
ATOM     58  C   UNL     1      -0.348  12.882  -0.304  1.00  0.00     0.037 A 
ATOM     59  C   UNL     1       6.416  11.067  -0.170  1.00  0.00     0.037 A 
ATOM     60  C   UNL     1       0.578  13.975  -0.444  1.00  0.00     0.049 A 
ATOM     61  C   UNL     1       5.979  12.492  -0.378  1.00  0.00     0.074 A 
ATOM     62  C   UNL     1       0.305  15.324  -0.579  1.00  0.00     0.029 A 
ATOM     63  N   UNL     1       1.958  13.841  -0.468  1.00  0.00    -0.354 N 
ATOM     64  N   UNL     1       4.767  12.992  -0.397  1.00  0.00    -0.248 NA
ATOM     65  C   UNL     1       7.041  13.485  -0.586  1.00  0.00     0.031 C 
ATOM     66  C   UNL     1       1.518  16.003  -0.732  1.00  0.00     0.029 A 
ATOM     67  C   UNL     1       2.550  15.082  -0.639  1.00  0.00     0.049 A 
ATOM     68  H   UNL     1       2.445  12.990  -0.377  1.00  0.00     0.167 HD
ATOM     69  C   UNL     1       4.921  14.358  -0.592  1.00  0.00     0.074 A 
ATOM     70  C   UNL     1       6.345  14.611  -0.665  1.00  0.00     0.031 C 
ATOM     71  C   UNL     1       3.969  15.316  -0.703  1.00  0.00     0.037 A 
BRANCH  58  72
ATOM     72  C   UNL     1      -1.817  13.184  -0.372  1.00  0.00     0.064 A 
ATOM     73  C   UNL     1      -2.636  13.108   0.765  1.00  0.00     0.173 A 
ATOM     74  C   UNL     1      -2.404  13.601  -1.576  1.00  0.00     0.173 A 
ATOM     75  F   UNL     1      -2.127  12.704   1.939  1.00  0.00    -0.203 F 
ATOM     76  C   UNL     1      -3.993  13.415   0.693  1.00  0.00     0.198 A 
ATOM     77  C   UNL     1      -3.754  13.935  -1.638  1.00  0.00     0.198 A 
ATOM     78  F   UNL     1      -1.665  13.695  -2.692  1.00  0.00    -0.203 F 
ATOM     79  F   UNL     1      -4.764  13.292   1.782  1.00  0.00    -0.200 F 
ATOM     80  C   UNL     1      -4.548  13.836  -0.505  1.00  0.00     0.200 A 
ATOM     81  F   UNL     1      -4.287  14.354  -2.794  1.00  0.00    -0.200 F 
ATOM     82  F   UNL     1      -5.852  14.141  -0.570  1.00  0.00    -0.200 F 
ENDBRANCH  58  72
BRANCH  59  83
ATOM     83  C   UNL     1       7.857  10.705  -0.176  1.00  0.00     0.064 A 
ATOM     84  C   UNL     1       8.714  11.139   0.845  1.00  0.00     0.173 A 
ATOM     85  C   UNL     1       8.412   9.934  -1.208  1.00  0.00     0.173 A 
ATOM     86  F   UNL     1       8.235  11.896   1.843  1.00  0.00    -0.203 F 
ATOM     87  C   UNL     1      10.074  10.837   0.822  1.00  0.00     0.198 A 
ATOM     88  C   UNL     1       9.766   9.608  -1.215  1.00  0.00     0.198 A 
ATOM     89  F   UNL     1       7.635   9.489  -2.207  1.00  0.00    -0.203 F 
ATOM     90  F   UNL     1      10.879  11.309   1.784  1.00  0.00    -0.200 F 
ATOM     91  C   UNL     1      10.598  10.068  -0.206  1.00  0.00     0.200 A 
ATOM     92  F   UNL     1      10.267   8.853  -2.203  1.00  0.00    -0.200 F 
ATOM     93  F   UNL     1      11.906   9.779  -0.228  1.00  0.00    -0.200 F 
ENDBRANCH  59  83
BRANCH  71  94
ATOM     94  C   UNL     1       4.439  16.731  -0.884  1.00  0.00     0.064 A 
ATOM     95  C   UNL     1       5.017  17.166  -2.086  1.00  0.00     0.173 A 
ATOM     96  C   UNL     1       4.278  17.669   0.147  1.00  0.00     0.173 A 
ATOM     97  F   UNL     1       5.205  16.304  -3.096  1.00  0.00    -0.203 F 
ATOM     98  C   UNL     1       5.444  18.483  -2.237  1.00  0.00     0.198 A 
ATOM     99  C   UNL     1       4.678  18.992  -0.020  1.00  0.00     0.198 A 
ATOM    100  F   UNL     1       3.724  17.305   1.313  1.00  0.00    -0.203 F 
ATOM    101  F   UNL     1       6.041  18.864  -3.375  1.00  0.00    -0.200 F 
ATOM    102  C   UNL     1       5.268  19.395  -1.208  1.00  0.00     0.200 A 
ATOM    103  F   UNL     1       4.494  19.876   0.970  1.00  0.00    -0.200 F 
ATOM    104  F   UNL     1       5.675  20.663  -1.358  1.00  0.00    -0.200 F 
ENDBRANCH  71  94
ENDBRANCH  45  46
ENDBRANCH  37  40
ENDBRANCH  35  36
ENDBRANCH  34  35
ENDBRANCH  33  34
ENDBRANCH   1  33
TORSDOF 16
