REMARK SMILES CC1(C)[C@@]2(C(=O)NCCCCNC(=O)c3ccc(-c4c5nc(c(-c6c(F)c(F)c(F)c(F)c6F)c6ccc([nH]6)c(-c6c(F)c(F)c(F)c(F)c6F)c6nc(c(-c7c(F)c(F)c(F)c(F)c7F)c7ccc4[nH]7)C=C6)C=C5)cc3)CC[C@]1(C)/C(=N/NC(=O)c1ccc(Cl)cc1)C2
REMARK SMILES IDX 9 1 8 2 7 3 5 4 6 5 4 7 1 8 2 9 3 10 80 11 78 12 94 13 79 14
REMARK SMILES IDX 81 15 82 16 83 17 84 18 85 19 86 21 87 22 88 23 93 24 89 25
REMARK SMILES IDX 92 26 90 27 91 28 10 29 11 30 12 31 13 32 14 34 15 35 16 36
REMARK SMILES IDX 77 37 17 38 76 39 18 40 19 41 20 42 70 43 21 44 75 45 69 46
REMARK SMILES IDX 71 47 22 48 74 49 68 50 67 51 23 53 55 54 35 55 54 56 36 57
REMARK SMILES IDX 39 58 53 59 72 60 37 61 38 62 52 64 73 65 40 66 24 67 25 68
REMARK SMILES IDX 33 69 26 70 27 71 31 72 34 73 28 74 29 75 32 76 30 77 56 78
REMARK SMILES IDX 57 79 65 80 58 81 59 82 63 83 66 84 60 85 61 86 64 87 62 88
REMARK SMILES IDX 41 89 42 90 50 91 43 92 44 93 48 94 51 95 45 96 46 97 49 98
REMARK SMILES IDX 47 99
REMARK H PARENT 7 6 84 20 12 33 71 52 39 63
REMARK Flexibility Score: inf
ROOT
ATOM      1  C   UNL     1       0.006   3.584   5.062  1.00  0.00     0.023 C 
ENDROOT
BRANCH   1   2
ATOM      2  C   UNL     1       0.253   3.565   3.551  1.00  0.00     0.116 C 
BRANCH   2   3
ATOM      3  N   UNL     1       1.409   2.768   3.164  1.00  0.00    -0.356 N 
ATOM      4  C   UNL     1       1.597   1.694   2.353  1.00  0.00     0.227 C 
ATOM      5  O   UNL     1       2.739   1.621   1.884  1.00  0.00    -0.274 OA
ATOM      6  H   UNL     1       2.243   3.078   3.586  1.00  0.00     0.163 HD
BRANCH   4   7
ATOM      7  C   UNL     1       0.565   0.585   2.058  1.00  0.00     0.060 C 
ATOM      8  C   UNL     1       1.491  -0.041  -0.336  1.00  0.00     0.013 C 
ATOM      9  C   UNL     1       1.113  -0.541   1.080  1.00  0.00    -0.010 C 
ATOM     10  C   UNL     1       2.316  -1.366   1.600  1.00  0.00     0.013 C 
ATOM     11  C   UNL     1      -0.222  -1.344   1.115  1.00  0.00     0.014 C 
ATOM     12  C   UNL     1      -0.755   1.004   1.340  1.00  0.00     0.019 C 
ATOM     13  C   UNL     1       0.171  -0.251   3.313  1.00  0.00     0.071 C 
ATOM     14  C   UNL     1      -1.269  -0.306   0.682  1.00  0.00     0.014 C 
ATOM     15  C   UNL     1      -0.248  -2.669   0.370  1.00  0.00     0.018 C 
ATOM     16  C   UNL     1      -0.416  -1.475   2.634  1.00  0.00     0.046 C 
ATOM     17  N   UNL     1      -0.976  -2.542   3.116  1.00  0.00    -0.181 NA
BRANCH  17  18
ATOM     18  N   UNL     1      -1.005  -2.809   4.448  1.00  0.00    -0.243 N 
ATOM     19  C   UNL     1      -1.909  -2.345   5.382  1.00  0.00     0.271 C 
ATOM     20  H   UNL     1      -0.297  -3.404   4.787  1.00  0.00     0.194 HD
ATOM     21  O   UNL     1      -2.074  -2.910   6.460  1.00  0.00    -0.267 OA
BRANCH  19  22
ATOM     22  C   UNL     1      -2.592  -1.075   5.141  1.00  0.00     0.041 A 
ATOM     23  C   UNL     1      -2.100   0.032   5.833  1.00  0.00     0.015 A 
ATOM     24  C   UNL     1      -3.648  -0.954   4.237  1.00  0.00     0.015 A 
ATOM     25  C   UNL     1      -2.596   1.291   5.527  1.00  0.00     0.021 A 
ATOM     26  C   UNL     1      -4.122   0.321   3.918  1.00  0.00     0.021 A 
ATOM     27  C   UNL     1      -3.555   1.441   4.527  1.00  0.00     0.041 A 
ATOM     28  Cl  UNL     1      -3.978   3.021   3.994  1.00  0.00    -0.084 Cl
ENDBRANCH  19  22
ENDBRANCH  17  18
ENDBRANCH   4   7
ENDBRANCH   2   3
ENDBRANCH   1   2
BRANCH   1  29
ATOM     29  C   UNL     1       0.346   4.853   5.852  1.00  0.00     0.023 C 
BRANCH  29  30
ATOM     30  C   UNL     1      -0.587   6.046   5.628  1.00  0.00     0.116 C 
BRANCH  30  31
ATOM     31  N   UNL     1      -1.991   5.832   5.985  1.00  0.00    -0.352 N 
ATOM     32  C   UNL     1      -2.899   6.757   6.469  1.00  0.00     0.251 C 
ATOM     33  H   UNL     1      -2.332   4.916   5.865  1.00  0.00     0.163 HD
ATOM     34  O   UNL     1      -4.053   6.442   6.739  1.00  0.00    -0.269 OA
BRANCH  32  35
ATOM     35  C   UNL     1      -2.427   8.134   6.718  1.00  0.00     0.039 A 
ATOM     36  C   UNL     1      -2.531   8.673   8.003  1.00  0.00     0.014 A 
ATOM     37  C   UNL     1      -1.722   8.803   5.719  1.00  0.00     0.014 A 
ATOM     38  C   UNL     1      -1.801   9.820   8.322  1.00  0.00     0.010 A 
ATOM     39  C   UNL     1      -0.912   9.873   6.069  1.00  0.00     0.010 A 
ATOM     40  C   UNL     1      -0.927  10.383   7.378  1.00  0.00    -0.014 A 
BRANCH  40  41
ATOM     41  C   UNL     1      -0.016  11.507   7.719  1.00  0.00     0.031 A 
ATOM     42  C   UNL     1      -0.114  12.794   6.946  1.00  0.00     0.074 A 
ATOM     43  C   UNL     1       0.953  11.342   8.642  1.00  0.00     0.049 A 
ATOM     44  N   UNL     1       0.669  13.842   6.976  1.00  0.00    -0.248 NA
ATOM     45  C   UNL     1      -1.212  12.895   5.971  1.00  0.00     0.031 C 
ATOM     46  C   UNL     1       1.198  10.122   9.415  1.00  0.00     0.029 A 
ATOM     47  N   UNL     1       1.926  12.207   9.081  1.00  0.00    -0.354 N 
ATOM     48  C   UNL     1       0.170  14.708   6.013  1.00  0.00     0.074 A 
ATOM     49  C   UNL     1      -0.929  14.034   5.360  1.00  0.00     0.031 C 
ATOM     50  C   UNL     1       2.227  10.329  10.255  1.00  0.00     0.029 A 
ATOM     51  C   UNL     1       2.740  11.680  10.056  1.00  0.00     0.049 A 
ATOM     52  H   UNL     1       2.031  13.121   8.729  1.00  0.00     0.167 HD
ATOM     53  C   UNL     1       0.563  15.970   5.724  1.00  0.00     0.037 A 
ATOM     54  C   UNL     1       3.780  12.230  10.712  1.00  0.00     0.037 A 
ATOM     55  C   UNL     1       1.620  16.660   6.410  1.00  0.00     0.049 A 
ATOM     56  C   UNL     1       4.181  13.647  10.387  1.00  0.00     0.074 A 
ATOM     57  C   UNL     1       2.070  17.955   6.225  1.00  0.00     0.029 A 
ATOM     58  N   UNL     1       2.380  16.111   7.432  1.00  0.00    -0.354 N 
ATOM     59  N   UNL     1       3.664  14.475   9.512  1.00  0.00    -0.248 NA
ATOM     60  C   UNL     1       5.306  14.209  11.150  1.00  0.00     0.031 C 
ATOM     61  C   UNL     1       3.118  18.184   7.122  1.00  0.00     0.029 A 
ATOM     62  C   UNL     1       3.294  17.044   7.891  1.00  0.00     0.049 A 
ATOM     63  H   UNL     1       2.284  15.195   7.780  1.00  0.00     0.167 HD
ATOM     64  C   UNL     1       4.370  15.663   9.648  1.00  0.00     0.074 A 
ATOM     65  C   UNL     1       5.345  15.454  10.697  1.00  0.00     0.031 C 
ATOM     66  C   UNL     1       4.228  16.824   8.963  1.00  0.00     0.037 A 
BRANCH  53  67
ATOM     67  C   UNL     1      -0.185  16.696   4.646  1.00  0.00     0.064 A 
ATOM     68  C   UNL     1      -1.513  17.110   4.834  1.00  0.00     0.173 A 
ATOM     69  C   UNL     1       0.432  17.002   3.425  1.00  0.00     0.173 A 
ATOM     70  F   UNL     1      -2.154  16.825   5.978  1.00  0.00    -0.203 F 
ATOM     71  C   UNL     1      -2.205  17.776   3.827  1.00  0.00     0.198 A 
ATOM     72  C   UNL     1      -0.253  17.697   2.432  1.00  0.00     0.198 A 
ATOM     73  F   UNL     1       1.700  16.630   3.195  1.00  0.00    -0.203 F 
ATOM     74  F   UNL     1      -3.490  18.113   4.010  1.00  0.00    -0.200 F 
ATOM     75  C   UNL     1      -1.573  18.077   2.631  1.00  0.00     0.200 A 
ATOM     76  F   UNL     1       0.362  17.996   1.280  1.00  0.00    -0.200 F 
ATOM     77  F   UNL     1      -2.238  18.725   1.665  1.00  0.00    -0.200 F 
ENDBRANCH  53  67
BRANCH  54  78
ATOM     78  C   UNL     1       4.500  11.471  11.771  1.00  0.00     0.064 A 
ATOM     79  C   UNL     1       4.415  11.863  13.116  1.00  0.00     0.173 A 
ATOM     80  C   UNL     1       5.324  10.379  11.463  1.00  0.00     0.173 A 
ATOM     81  F   UNL     1       3.657  12.915  13.459  1.00  0.00    -0.203 F 
ATOM     82  C   UNL     1       5.153  11.217  14.105  1.00  0.00     0.198 A 
ATOM     83  C   UNL     1       6.040   9.714  12.459  1.00  0.00     0.198 A 
ATOM     84  F   UNL     1       5.438   9.959  10.195  1.00  0.00    -0.203 F 
ATOM     85  F   UNL     1       5.102  11.655  15.370  1.00  0.00    -0.200 F 
ATOM     86  C   UNL     1       5.965  10.142  13.776  1.00  0.00     0.200 A 
ATOM     87  F   UNL     1       6.814   8.669  12.139  1.00  0.00    -0.200 F 
ATOM     88  F   UNL     1       6.684   9.527  14.725  1.00  0.00    -0.200 F 
ENDBRANCH  54  78
BRANCH  66  89
ATOM     89  C   UNL     1       5.099  17.975   9.368  1.00  0.00     0.064 A 
ATOM     90  C   UNL     1       6.467  18.006   9.063  1.00  0.00     0.173 A 
ATOM     91  C   UNL     1       4.543  19.084  10.022  1.00  0.00     0.173 A 
ATOM     92  F   UNL     1       7.046  16.962   8.451  1.00  0.00    -0.203 F 
ATOM     93  C   UNL     1       7.253  19.098   9.420  1.00  0.00     0.198 A 
ATOM     94  C   UNL     1       5.325  20.187  10.351  1.00  0.00     0.198 A 
ATOM     95  F   UNL     1       3.237  19.105  10.327  1.00  0.00    -0.203 F 
ATOM     96  F   UNL     1       8.567  19.089   9.158  1.00  0.00    -0.200 F 
ATOM     97  C   UNL     1       6.680  20.190  10.056  1.00  0.00     0.200 A 
ATOM     98  F   UNL     1       4.768  21.247  10.953  1.00  0.00    -0.200 F 
ATOM     99  F   UNL     1       7.436  21.245  10.389  1.00  0.00    -0.200 F 
ENDBRANCH  66  89
ENDBRANCH  40  41
ENDBRANCH  32  35
ENDBRANCH  30  31
ENDBRANCH  29  30
ENDBRANCH   1  29
TORSDOF 13
