REMARK SMILES CC1(C)C(C(=O)Nc2ccc(CC(=O)NCCCCNC(=O)c3ccc(-c4c5nc(c(-c6c(F)c(F)c(F)c(F)c6F)c6ccc([nH]6)c(-c6c(F)c(F)c(F)c(F)c6F)c6nc(c(-c7c(F)c(F)c(F)c(F)c7F)c7ccc4[nH]7)C=C6)C=C5)cc3)cc2)C1(C)C
REMARK SMILES IDX 17 1 16 2 15 3 13 4 14 5 12 7 11 8 8 9 9 10 87 11 10 12
REMARK SMILES IDX 86 13 7 14 5 15 6 16 4 18 1 19 2 20 3 21 88 22 89 23 90 24
REMARK SMILES IDX 18 25 19 26 20 27 21 28 22 30 23 31 24 32 85 33 25 34 84 35
REMARK SMILES IDX 26 36 27 37 28 38 78 39 29 40 83 41 77 42 79 43 30 44 82 45
REMARK SMILES IDX 76 46 75 47 31 49 63 50 43 51 62 52 44 53 47 54 61 55 80 56
REMARK SMILES IDX 45 57 46 58 60 60 81 61 48 62 32 63 33 64 41 65 34 66 35 67
REMARK SMILES IDX 39 68 42 69 36 70 37 71 40 72 38 73 64 74 65 75 73 76 66 77
REMARK SMILES IDX 67 78 71 79 74 80 68 81 69 82 72 83 70 84 49 85 50 86 58 87
REMARK SMILES IDX 51 88 52 89 56 90 59 91 53 92 54 93 57 94 55 95
REMARK H PARENT 15 6 7 17 20 29 79 48 47 59
REMARK Flexibility Score: inf
ROOT
ATOM      1  C   UNL     1       4.323   0.008   6.438  1.00  0.00     0.023 C 
ENDROOT
BRANCH   1   2
ATOM      2  C   UNL     1       4.481  -1.514   6.505  1.00  0.00     0.116 C 
BRANCH   2   3
ATOM      3  N   UNL     1       3.823  -2.071   7.669  1.00  0.00    -0.356 N 
ATOM      4  C   UNL     1       2.539  -2.518   7.806  1.00  0.00     0.224 C 
ATOM      5  O   UNL     1       2.169  -2.880   8.925  1.00  0.00    -0.275 OA
ATOM      6  H   UNL     1       4.380  -2.136   8.478  1.00  0.00     0.163 HD
BRANCH   4   7
ATOM      7  C   UNL     1       1.622  -2.634   6.603  1.00  0.00     0.135 C 
BRANCH   7   8
ATOM      8  C   UNL     1       1.119  -1.327   6.046  1.00  0.00    -0.039 A 
ATOM      9  C   UNL     1       0.095   0.958   4.794  1.00  0.00     0.041 A 
ATOM     10  C   UNL     1      -0.466   0.521   5.993  1.00  0.00     0.026 A 
ATOM     11  C   UNL     1       1.275   0.390   4.353  1.00  0.00     0.026 A 
ATOM     12  C   UNL     1       0.058  -0.618   6.627  1.00  0.00     0.006 A 
ATOM     13  C   UNL     1       1.720  -0.800   4.903  1.00  0.00     0.006 A 
BRANCH   9  14
ATOM     14  N   UNL     1      -0.557   1.906   3.993  1.00  0.00    -0.326 N 
ATOM     15  C   UNL     1      -0.231   2.162   2.676  1.00  0.00     0.228 C 
ATOM     16  O   UNL     1       0.196   3.270   2.361  1.00  0.00    -0.274 OA
ATOM     17  H   UNL     1      -1.294   2.421   4.395  1.00  0.00     0.169 HD
BRANCH  15  18
ATOM     18  C   UNL     1      -0.704   1.258   1.569  1.00  0.00     0.091 C 
ATOM     19  C   UNL     1       0.220   0.394  -0.682  1.00  0.00     0.012 C 
ATOM     20  C   UNL     1       0.144   0.211   0.825  1.00  0.00    -0.017 C 
ATOM     21  C   UNL     1       1.436  -0.398   1.311  1.00  0.00     0.012 C 
ATOM     22  C   UNL     1      -1.201  -0.176   1.506  1.00  0.00    -0.017 C 
ATOM     23  C   UNL     1      -2.381  -0.464   0.593  1.00  0.00     0.012 C 
ATOM     24  C   UNL     1      -1.309  -1.023   2.752  1.00  0.00     0.012 C 
ENDBRANCH  15  18
ENDBRANCH   9  14
ENDBRANCH   7   8
ENDBRANCH   4   7
ENDBRANCH   2   3
ENDBRANCH   1   2
BRANCH   1  25
ATOM     25  C   UNL     1       5.143   0.785   7.459  1.00  0.00     0.023 C 
BRANCH  25  26
ATOM     26  C   UNL     1       6.641   0.582   7.345  1.00  0.00     0.116 C 
BRANCH  26  27
ATOM     27  N   UNL     1       7.186   0.996   6.062  1.00  0.00    -0.352 N 
ATOM     28  C   UNL     1       8.415   1.564   5.811  1.00  0.00     0.251 C 
ATOM     29  H   UNL     1       6.607   0.854   5.279  1.00  0.00     0.163 HD
ATOM     30  O   UNL     1       8.708   1.964   4.695  1.00  0.00    -0.269 OA
BRANCH  28  31
ATOM     31  C   UNL     1       9.358   1.724   6.937  1.00  0.00     0.039 A 
ATOM     32  C   UNL     1       9.935   2.976   7.159  1.00  0.00     0.014 A 
ATOM     33  C   UNL     1       9.609   0.661   7.809  1.00  0.00     0.014 A 
ATOM     34  C   UNL     1      10.712   3.179   8.300  1.00  0.00     0.010 A 
ATOM     35  C   UNL     1      10.308   0.889   8.987  1.00  0.00     0.010 A 
ATOM     36  C   UNL     1      10.871   2.149   9.242  1.00  0.00    -0.014 A 
BRANCH  36  37
ATOM     37  C   UNL     1      11.632   2.363  10.497  1.00  0.00     0.031 A 
ATOM     38  C   UNL     1      12.887   1.578  10.754  1.00  0.00     0.074 A 
ATOM     39  C   UNL     1      11.162   3.216  11.428  1.00  0.00     0.049 A 
ATOM     40  N   UNL     1      13.658   1.569  11.812  1.00  0.00    -0.248 NA
ATOM     41  C   UNL     1      13.319   0.656   9.690  1.00  0.00     0.031 C 
ATOM     42  C   UNL     1       9.930   3.998  11.315  1.00  0.00     0.029 A 
ATOM     43  N   UNL     1      11.662   3.560  12.659  1.00  0.00    -0.354 N 
ATOM     44  C   UNL     1      14.654   0.640  11.544  1.00  0.00     0.074 A 
ATOM     45  C   UNL     1      14.357   0.057  10.255  1.00  0.00     0.031 C 
ATOM     46  C   UNL     1       9.786   4.753  12.417  1.00  0.00     0.029 A 
ATOM     47  C   UNL     1      10.892   4.478  13.329  1.00  0.00     0.049 A 
ATOM     48  H   UNL     1      12.495   3.185  13.026  1.00  0.00     0.167 HD
ATOM     49  C   UNL     1      15.737   0.324  12.293  1.00  0.00     0.037 A 
ATOM     50  C   UNL     1      11.059   5.032  14.546  1.00  0.00     0.037 A 
ATOM     51  C   UNL     1      16.041   0.921  13.566  1.00  0.00     0.049 A 
ATOM     52  C   UNL     1      12.263   4.648  15.365  1.00  0.00     0.074 A 
ATOM     53  C   UNL     1      17.136   0.702  14.383  1.00  0.00     0.029 A 
ATOM     54  N   UNL     1      15.244   1.858  14.207  1.00  0.00    -0.354 N 
ATOM     55  N   UNL     1      13.234   3.817  15.073  1.00  0.00    -0.248 NA
ATOM     56  C   UNL     1      12.396   5.287  16.682  1.00  0.00     0.031 C 
ATOM     57  C   UNL     1      16.980   1.474  15.539  1.00  0.00     0.029 A 
ATOM     58  C   UNL     1      15.814   2.213  15.419  1.00  0.00     0.049 A 
ATOM     59  H   UNL     1      14.398   2.217  13.854  1.00  0.00     0.167 HD
ATOM     60  C   UNL     1      14.108   3.858  16.151  1.00  0.00     0.074 A 
ATOM     61  C   UNL     1      13.560   4.808  17.097  1.00  0.00     0.031 C 
ATOM     62  C   UNL     1      15.262   3.172  16.341  1.00  0.00     0.037 A 
BRANCH  49  63
ATOM     63  C   UNL     1      16.679  -0.710  11.746  1.00  0.00     0.064 A 
ATOM     64  C   UNL     1      17.483  -0.450  10.625  1.00  0.00     0.173 A 
ATOM     65  C   UNL     1      16.805  -1.962  12.366  1.00  0.00     0.173 A 
ATOM     66  F   UNL     1      17.390   0.727   9.986  1.00  0.00    -0.203 F 
ATOM     67  C   UNL     1      18.355  -1.415  10.128  1.00  0.00     0.198 A 
ATOM     68  C   UNL     1      17.702  -2.913  11.886  1.00  0.00     0.198 A 
ATOM     69  F   UNL     1      16.063  -2.261  13.443  1.00  0.00    -0.203 F 
ATOM     70  F   UNL     1      19.073  -1.162   9.025  1.00  0.00    -0.200 F 
ATOM     71  C   UNL     1      18.469  -2.642  10.763  1.00  0.00     0.200 A 
ATOM     72  F   UNL     1      17.821  -4.093  12.508  1.00  0.00    -0.200 F 
ATOM     73  F   UNL     1      19.315  -3.567  10.289  1.00  0.00    -0.200 F 
ENDBRANCH  49  63
BRANCH  50  74
ATOM     74  C   UNL     1      10.081   6.029  15.055  1.00  0.00     0.064 A 
ATOM     75  C   UNL     1      10.444   7.374  15.215  1.00  0.00     0.173 A 
ATOM     76  C   UNL     1       8.776   5.660  15.409  1.00  0.00     0.173 A 
ATOM     77  F   UNL     1      11.688   7.772  14.909  1.00  0.00    -0.203 F 
ATOM     78  C   UNL     1       9.549   8.305  15.736  1.00  0.00     0.198 A 
ATOM     79  C   UNL     1       7.871   6.599  15.902  1.00  0.00     0.198 A 
ATOM     80  F   UNL     1       8.376   4.387  15.271  1.00  0.00    -0.203 F 
ATOM     81  F   UNL     1       9.941   9.572  15.929  1.00  0.00    -0.200 F 
ATOM     82  C   UNL     1       8.261   7.918  16.075  1.00  0.00     0.200 A 
ATOM     83  F   UNL     1       6.623   6.223  16.215  1.00  0.00    -0.200 F 
ATOM     84  F   UNL     1       7.401   8.814  16.577  1.00  0.00    -0.200 F 
ENDBRANCH  50  74
BRANCH  62  85
ATOM     85  C   UNL     1      16.032   3.456  17.598  1.00  0.00     0.064 A 
ATOM     86  C   UNL     1      15.576   3.032  18.855  1.00  0.00     0.173 A 
ATOM     87  C   UNL     1      17.262   4.129  17.537  1.00  0.00     0.173 A 
ATOM     88  F   UNL     1      14.400   2.397  18.968  1.00  0.00    -0.203 F 
ATOM     89  C   UNL     1      16.310   3.298  20.008  1.00  0.00     0.198 A 
ATOM     90  C   UNL     1      18.008   4.364  18.688  1.00  0.00     0.198 A 
ATOM     91  F   UNL     1      17.746   4.548  16.358  1.00  0.00    -0.203 F 
ATOM     92  F   UNL     1      15.831   2.929  21.204  1.00  0.00    -0.200 F 
ATOM     93  C   UNL     1      17.528   3.956  19.923  1.00  0.00     0.200 A 
ATOM     94  F   UNL     1      19.192   4.987  18.602  1.00  0.00    -0.200 F 
ATOM     95  F   UNL     1      18.236   4.205  21.033  1.00  0.00    -0.200 F 
ENDBRANCH  62  85
ENDBRANCH  36  37
ENDBRANCH  28  31
ENDBRANCH  26  27
ENDBRANCH  25  26
ENDBRANCH   1  25
TORSDOF 14
