REMARK SMILES C[C@@H](Oc1ccc(-c2ccccc2)cc1)C(=O)N1CCC[C@H](C(=O)NCCCCNC(=O)c2ccc(-c3c4nc(c(-c5c(F)c(F)c(F)c(F)c5F)c5ccc([nH]5)c(-c5c(F)c(F)c(F)c(F)c5F)c5nc(c(-c6c(F)c(F)c(F)c(F)c6F)c6ccc3[nH]6)C=C5)C=C4)cc2)C1
REMARK SMILES IDX 26 1 25 2 23 3 24 4 22 6 18 7 19 8 96 9 20 10 21 11 16 12
REMARK SMILES IDX 17 13 2 14 1 15 3 16 4 17 5 18 15 19 6 20 14 21 7 22 8 23
REMARK SMILES IDX 9 24 13 25 10 26 12 27 11 28 27 29 28 30 29 31 30 32 31 33
REMARK SMILES IDX 32 35 33 36 34 37 95 38 35 39 94 40 36 41 37 42 38 43 88 44
REMARK SMILES IDX 39 45 93 46 87 47 89 48 40 49 92 50 86 51 85 52 41 54 73 55
REMARK SMILES IDX 53 56 72 57 54 58 57 59 71 60 90 61 55 62 56 63 70 65 91 66
REMARK SMILES IDX 58 67 42 68 43 69 51 70 44 71 45 72 49 73 52 74 46 75 47 76
REMARK SMILES IDX 50 77 48 78 74 79 75 80 83 81 76 82 77 83 81 84 84 85 78 86
REMARK SMILES IDX 79 87 82 88 80 89 59 90 60 91 68 92 61 93 62 94 66 95 69 96
REMARK SMILES IDX 63 97 64 98 67 99 65 100
REMARK H PARENT 25 5 30 34 89 53 57 64
REMARK Flexibility Score: inf
ROOT
ATOM      1  C   UNL     1      -3.721  -0.808   0.197  1.00  0.00     0.116 C 
ENDROOT
BRANCH   1   2
ATOM      2  N   UNL     1      -3.512  -0.670  -1.226  1.00  0.00    -0.356 N 
ATOM      3  C   UNL     1      -2.965   0.327  -1.965  1.00  0.00     0.224 C 
ATOM      4  O   UNL     1      -2.761   0.064  -3.157  1.00  0.00    -0.275 OA
ATOM      5  H   UNL     1      -3.823  -1.440  -1.755  1.00  0.00     0.163 HD
BRANCH   3   6
ATOM      6  C   UNL     1      -2.591   1.718  -1.434  1.00  0.00     0.098 C 
ATOM      7  N   UNL     1      -1.586   1.614   0.839  1.00  0.00    -0.339 N 
ATOM      8  C   UNL     1      -2.564   2.546   1.395  1.00  0.00     0.119 C 
ATOM      9  C   UNL     1      -1.319   1.760  -0.584  1.00  0.00     0.133 C 
ATOM     10  C   UNL     1      -3.888   2.569   0.639  1.00  0.00     0.022 C 
ATOM     11  C   UNL     1      -3.749   2.550  -0.880  1.00  0.00     0.017 C 
BRANCH   7  12
ATOM     12  C   UNL     1      -0.946   0.721   1.694  1.00  0.00     0.263 C 
ATOM     13  O   UNL     1      -1.527   0.289   2.698  1.00  0.00    -0.271 OA
BRANCH  12  14
ATOM     14  C   UNL     1       0.523   0.320   1.442  1.00  0.00     0.259 C 
ATOM     15  C   UNL     1       0.762  -0.615   0.261  1.00  0.00     0.064 C 
BRANCH  14  16
ATOM     16  O   UNL     1       1.234   1.554   1.279  1.00  0.00    -0.481 OA
BRANCH  16  17
ATOM     17  C   UNL     1       2.530   1.488   1.699  1.00  0.00     0.120 A 
ATOM     18  C   UNL     1       2.871   1.613   3.044  1.00  0.00     0.047 A 
ATOM     19  C   UNL     1       3.513   1.455   0.720  1.00  0.00     0.047 A 
ATOM     20  C   UNL     1       4.220   1.730   3.406  1.00  0.00     0.012 A 
ATOM     21  C   UNL     1       4.852   1.562   1.084  1.00  0.00     0.012 A 
ATOM     22  C   UNL     1       5.230   1.737   2.428  1.00  0.00    -0.018 A 
BRANCH  22  23
ATOM     23  C   UNL     1       6.640   2.002   2.758  1.00  0.00    -0.018 A 
ATOM     24  C   UNL     1       7.336   1.261   3.723  1.00  0.00     0.009 A 
ATOM     25  C   UNL     1       7.336   3.023   2.082  1.00  0.00     0.009 A 
ATOM     26  C   UNL     1       8.687   1.518   3.984  1.00  0.00     0.001 A 
ATOM     27  C   UNL     1       8.683   3.279   2.340  1.00  0.00     0.001 A 
ATOM     28  C   UNL     1       9.360   2.522   3.289  1.00  0.00     0.000 A 
ENDBRANCH  22  23
ENDBRANCH  16  17
ENDBRANCH  14  16
ENDBRANCH  12  14
ENDBRANCH   7  12
ENDBRANCH   3   6
ENDBRANCH   1   2
BRANCH   1  29
ATOM     29  C   UNL     1      -5.194  -0.853   0.594  1.00  0.00     0.023 C 
BRANCH  29  30
ATOM     30  C   UNL     1      -5.747  -2.255   0.819  1.00  0.00     0.023 C 
BRANCH  30  31
ATOM     31  C   UNL     1      -5.026  -3.077   1.883  1.00  0.00     0.116 C 
BRANCH  31  32
ATOM     32  N   UNL     1      -4.983  -2.464   3.204  1.00  0.00    -0.352 N 
ATOM     33  C   UNL     1      -5.070  -3.097   4.428  1.00  0.00     0.251 C 
ATOM     34  H   UNL     1      -4.880  -1.485   3.227  1.00  0.00     0.163 HD
ATOM     35  O   UNL     1      -5.095  -2.470   5.476  1.00  0.00    -0.269 OA
BRANCH  33  36
ATOM     36  C   UNL     1      -5.183  -4.570   4.438  1.00  0.00     0.039 A 
ATOM     37  C   UNL     1      -6.286  -5.162   5.055  1.00  0.00     0.014 A 
ATOM     38  C   UNL     1      -4.258  -5.341   3.731  1.00  0.00     0.014 A 
ATOM     39  C   UNL     1      -6.516  -6.528   4.879  1.00  0.00     0.010 A 
ATOM     40  C   UNL     1      -4.533  -6.681   3.490  1.00  0.00     0.010 A 
ATOM     41  C   UNL     1      -5.671  -7.285   4.051  1.00  0.00    -0.014 A 
BRANCH  41  42
ATOM     42  C   UNL     1      -5.946  -8.711   3.748  1.00  0.00     0.031 A 
ATOM     43  C   UNL     1      -4.957  -9.761   4.164  1.00  0.00     0.074 A 
ATOM     44  C   UNL     1      -7.023  -9.048   3.012  1.00  0.00     0.049 A 
ATOM     45  N   UNL     1      -4.925 -11.036   3.869  1.00  0.00    -0.248 NA
ATOM     46  C   UNL     1      -3.828  -9.307   4.992  1.00  0.00     0.031 C 
ATOM     47  C   UNL     1      -8.030  -8.116   2.502  1.00  0.00     0.029 A 
ATOM     48  N   UNL     1      -7.440 -10.271   2.547  1.00  0.00    -0.354 N 
ATOM     49  C   UNL     1      -3.760 -11.524   4.444  1.00  0.00     0.074 A 
ATOM     50  C   UNL     1      -3.089 -10.403   5.065  1.00  0.00     0.031 C 
ATOM     51  C   UNL     1      -8.957  -8.802   1.814  1.00  0.00     0.029 A 
ATOM     52  C   UNL     1      -8.591 -10.215   1.800  1.00  0.00     0.049 A 
ATOM     53  H   UNL     1      -6.959 -11.110   2.733  1.00  0.00     0.167 HD
ATOM     54  C   UNL     1      -3.302 -12.798   4.471  1.00  0.00     0.037 A 
ATOM     55  C   UNL     1      -9.268 -11.194   1.169  1.00  0.00     0.037 A 
ATOM     56  C   UNL     1      -3.996 -13.918   3.895  1.00  0.00     0.049 A 
ATOM     57  C   UNL     1      -8.756 -12.607   1.243  1.00  0.00     0.074 A 
ATOM     58  C   UNL     1      -3.648 -15.257   3.923  1.00  0.00     0.029 A 
ATOM     59  N   UNL     1      -5.189 -13.828   3.193  1.00  0.00    -0.354 N 
ATOM     60  N   UNL     1      -7.680 -13.067   1.833  1.00  0.00    -0.248 NA
ATOM     61  C   UNL     1      -9.556 -13.638   0.566  1.00  0.00     0.031 C 
ATOM     62  C   UNL     1      -4.618 -15.975   3.215  1.00  0.00     0.029 A 
ATOM     63  C   UNL     1      -5.589 -15.087   2.779  1.00  0.00     0.049 A 
ATOM     64  H   UNL     1      -5.679 -12.992   3.017  1.00  0.00     0.167 HD
ATOM     65  C   UNL     1      -7.690 -14.440   1.629  1.00  0.00     0.074 A 
ATOM     66  C   UNL     1      -8.882 -14.740   0.864  1.00  0.00     0.031 C 
ATOM     67  C   UNL     1      -6.792 -15.368   2.039  1.00  0.00     0.037 A 
BRANCH  54  68
ATOM     68  C   UNL     1      -1.991 -13.043   5.156  1.00  0.00     0.064 A 
ATOM     69  C   UNL     1      -1.861 -12.947   6.550  1.00  0.00     0.173 A 
ATOM     70  C   UNL     1      -0.854 -13.393   4.412  1.00  0.00     0.173 A 
ATOM     71  F   UNL     1      -2.916 -12.601   7.303  1.00  0.00    -0.203 F 
ATOM     72  C   UNL     1      -0.633 -13.159   7.171  1.00  0.00     0.198 A 
ATOM     73  C   UNL     1       0.366 -13.633   5.040  1.00  0.00     0.198 A 
ATOM     74  F   UNL     1      -0.925 -13.502   3.077  1.00  0.00    -0.203 F 
ATOM     75  F   UNL     1      -0.521 -13.007   8.498  1.00  0.00    -0.200 F 
ATOM     76  C   UNL     1       0.477 -13.507   6.417  1.00  0.00     0.200 A 
ATOM     77  F   UNL     1       1.436 -13.979   4.312  1.00  0.00    -0.200 F 
ATOM     78  F   UNL     1       1.658 -13.712   7.016  1.00  0.00    -0.200 F 
ENDBRANCH  54  68
BRANCH  55  79
ATOM     79  C   UNL     1     -10.524 -10.878   0.441  1.00  0.00     0.064 A 
ATOM     80  C   UNL     1     -11.765 -11.286   0.949  1.00  0.00     0.173 A 
ATOM     81  C   UNL     1     -10.513 -10.173  -0.771  1.00  0.00     0.173 A 
ATOM     82  F   UNL     1     -11.823 -11.982   2.093  1.00  0.00    -0.203 F 
ATOM     83  C   UNL     1     -12.947 -11.016   0.263  1.00  0.00     0.198 A 
ATOM     84  C   UNL     1     -11.698  -9.883  -1.444  1.00  0.00     0.198 A 
ATOM     85  F   UNL     1      -9.351  -9.758  -1.296  1.00  0.00    -0.203 F 
ATOM     86  F   UNL     1     -14.117 -11.453   0.750  1.00  0.00    -0.200 F 
ATOM     87  C   UNL     1     -12.914 -10.310  -0.930  1.00  0.00     0.200 A 
ATOM     88  F   UNL     1     -11.663  -9.191  -2.591  1.00  0.00    -0.200 F 
ATOM     89  F   UNL     1     -14.051 -10.049  -1.589  1.00  0.00    -0.200 F 
ENDBRANCH  55  79
BRANCH  67  90
ATOM     90  C   UNL     1      -7.085 -16.801   1.714  1.00  0.00     0.064 A 
ATOM     91  C   UNL     1      -6.924 -17.310   0.418  1.00  0.00     0.173 A 
ATOM     92  C   UNL     1      -7.479 -17.688   2.728  1.00  0.00     0.173 A 
ATOM     93  F   UNL     1      -6.563 -16.497  -0.586  1.00  0.00    -0.203 F 
ATOM     94  C   UNL     1      -7.162 -18.654   0.145  1.00  0.00     0.198 A 
ATOM     95  C   UNL     1      -7.693 -19.036   2.455  1.00  0.00     0.198 A 
ATOM     96  F   UNL     1      -7.642 -17.248   3.985  1.00  0.00    -0.203 F 
ATOM     97  F   UNL     1      -7.036 -19.114  -1.108  1.00  0.00    -0.200 F 
ATOM     98  C   UNL     1      -7.538 -19.517   1.164  1.00  0.00     0.200 A 
ATOM     99  F   UNL     1      -8.046 -19.870   3.443  1.00  0.00    -0.200 F 
ATOM    100  F   UNL     1      -7.757 -20.812   0.900  1.00  0.00    -0.200 F 
ENDBRANCH  67  90
ENDBRANCH  41  42
ENDBRANCH  33  36
ENDBRANCH  31  32
ENDBRANCH  30  31
ENDBRANCH  29  30
ENDBRANCH   1  29
TORSDOF 16
