REMARK SMILES CC(=O)Nc1cccc(NS(=O)(=O)c2cc(C(=O)NCCCCNC(=O)c3ccc(-c4c5nc(c(-c6c(F)c(F)c(F)c(F)c6F)c6ccc([nH]6)c(-c6c(F)c(F)c(F)c(F)c6F)c6nc(c(-c7c(F)c(F)c(F)c(F)c7F)c7ccc4[nH]7)C=C6)C=C5)cc3)ccc2C)c1C
REMARK SMILES IDX 20 1 19 2 17 3 18 4 16 6 14 7 15 8 92 9 91 10 93 11 90 12
REMARK SMILES IDX 11 13 12 14 13 15 10 16 9 18 5 19 6 20 94 21 7 22 95 23 8 24
REMARK SMILES IDX 4 25 1 26 2 27 3 28 21 30 22 31 23 32 24 33 25 34 26 36
REMARK SMILES IDX 27 37 28 38 89 39 29 40 88 41 30 42 31 43 32 44 82 45 33 46
REMARK SMILES IDX 87 47 81 48 83 49 34 50 86 51 80 52 79 53 35 55 67 56 47 57
REMARK SMILES IDX 66 58 48 59 51 60 65 61 84 62 49 63 50 64 64 66 85 67 52 68
REMARK SMILES IDX 36 69 37 70 45 71 38 72 39 73 43 74 46 75 40 76 41 77 44 78
REMARK SMILES IDX 42 79 68 80 69 81 77 82 70 83 71 84 75 85 78 86 72 87 73 88
REMARK SMILES IDX 76 89 74 90 53 91 54 92 62 93 55 94 56 95 60 96 63 97 57 98
REMARK SMILES IDX 58 99 61 100 59 101
REMARK H PARENT 19 5 10 17 4 29 24 35 83 54 51 65
REMARK Flexibility Score: inf
ROOT
ATOM      1  C   UNL     1       5.518  -6.329   5.282  1.00  0.00     0.116 C 
ENDROOT
BRANCH   1   2
ATOM      2  N   UNL     1       4.752  -6.083   6.502  1.00  0.00    -0.352 N 
ATOM      3  C   UNL     1       4.304  -4.956   7.157  1.00  0.00     0.251 C 
ATOM      4  O   UNL     1       3.668  -5.115   8.200  1.00  0.00    -0.269 OA
ATOM      5  H   UNL     1       4.496  -6.915   6.962  1.00  0.00     0.163 HD
BRANCH   3   6
ATOM      6  C   UNL     1       4.576  -3.566   6.699  1.00  0.00     0.041 A 
ATOM      7  C   UNL     1       5.234  -1.964   4.975  1.00  0.00     0.091 A 
ATOM      8  C   UNL     1       4.826  -3.246   5.377  1.00  0.00     0.036 A 
ATOM      9  C   UNL     1       5.213  -0.903   5.888  1.00  0.00    -0.031 A 
ATOM     10  C   UNL     1       4.822  -1.197   7.209  1.00  0.00     0.005 A 
ATOM     11  C   UNL     1       5.441   0.540   5.539  1.00  0.00     0.046 C 
ATOM     12  C   UNL     1       4.537  -2.511   7.616  1.00  0.00     0.014 A 
BRANCH   7  13
ATOM     13  S   UNL     1       5.810  -1.869   3.296  1.00  0.00     0.262 S 
ATOM     14  O   UNL     1       6.184  -3.220   2.898  1.00  0.00    -0.201 OA
ATOM     15  O   UNL     1       6.790  -0.820   3.185  1.00  0.00    -0.201 OA
BRANCH  13  16
ATOM     16  N   UNL     1       4.511  -1.448   2.293  1.00  0.00    -0.279 N 
ATOM     17  H   UNL     1       4.521  -1.755   1.358  1.00  0.00     0.180 HD
BRANCH  16  18
ATOM     18  C   UNL     1       3.392  -0.662   2.746  1.00  0.00     0.054 A 
ATOM     19  C   UNL     1       1.683   1.009   2.374  1.00  0.00     0.046 A 
ATOM     20  C   UNL     1       1.084   0.707   3.597  1.00  0.00     0.026 A 
ATOM     21  C   UNL     1       2.896   0.402   1.970  1.00  0.00    -0.003 A 
ATOM     22  C   UNL     1       1.541  -0.382   4.314  1.00  0.00     0.004 A 
ATOM     23  C   UNL     1       3.669   1.001   0.816  1.00  0.00     0.049 C 
ATOM     24  C   UNL     1       2.619  -1.113   3.823  1.00  0.00     0.027 A 
BRANCH  19  25
ATOM     25  N   UNL     1       0.947   1.837   1.517  1.00  0.00    -0.326 N 
ATOM     26  C   UNL     1       0.478  -0.030  -0.071  1.00  0.00     0.114 C 
ATOM     27  C   UNL     1       0.354   1.421   0.346  1.00  0.00     0.221 C 
ATOM     28  O   UNL     1      -0.337   2.212  -0.297  1.00  0.00    -0.275 OA
ATOM     29  H   UNL     1       0.847   2.783   1.769  1.00  0.00     0.169 HD
ENDBRANCH  19  25
ENDBRANCH  16  18
ENDBRANCH  13  16
ENDBRANCH   7  13
ENDBRANCH   3   6
ENDBRANCH   1   2
BRANCH   1  30
ATOM     30  C   UNL     1       6.992  -6.651   5.508  1.00  0.00     0.023 C 
BRANCH  30  31
ATOM     31  C   UNL     1       7.279  -8.065   5.994  1.00  0.00     0.023 C 
BRANCH  31  32
ATOM     32  C   UNL     1       6.768  -9.176   5.089  1.00  0.00     0.116 C 
BRANCH  32  33
ATOM     33  N   UNL     1       7.485  -9.379   3.837  1.00  0.00    -0.352 N 
ATOM     34  C   UNL     1       7.321 -10.361   2.866  1.00  0.00     0.251 C 
ATOM     35  H   UNL     1       8.193  -8.721   3.649  1.00  0.00     0.163 HD
ATOM     36  O   UNL     1       8.139 -10.454   1.955  1.00  0.00    -0.269 OA
BRANCH  34  37
ATOM     37  C   UNL     1       6.068 -11.165   2.801  1.00  0.00     0.039 A 
ATOM     38  C   UNL     1       5.508 -11.369   1.529  1.00  0.00     0.014 A 
ATOM     39  C   UNL     1       5.272 -11.296   3.924  1.00  0.00     0.014 A 
ATOM     40  C   UNL     1       4.129 -11.323   1.383  1.00  0.00     0.010 A 
ATOM     41  C   UNL     1       3.943 -11.010   3.777  1.00  0.00     0.010 A 
ATOM     42  C   UNL     1       3.387 -10.971   2.497  1.00  0.00    -0.014 A 
BRANCH  42  43
ATOM     43  C   UNL     1       1.988 -10.619   2.499  1.00  0.00     0.031 A 
ATOM     44  C   UNL     1       1.052 -11.644   2.979  1.00  0.00     0.074 A 
ATOM     45  C   UNL     1       1.644  -9.322   2.345  1.00  0.00     0.049 A 
ATOM     46  N   UNL     1      -0.219 -11.559   2.856  1.00  0.00    -0.248 NA
ATOM     47  C   UNL     1       1.482 -12.884   3.618  1.00  0.00     0.031 C 
ATOM     48  C   UNL     1       0.402  -8.668   2.744  1.00  0.00     0.029 A 
ATOM     49  N   UNL     1       2.326  -8.335   1.613  1.00  0.00    -0.354 N 
ATOM     50  C   UNL     1      -0.779 -12.522   3.662  1.00  0.00     0.074 A 
ATOM     51  C   UNL     1       0.312 -13.392   4.015  1.00  0.00     0.031 C 
ATOM     52  C   UNL     1       0.251  -7.542   2.025  1.00  0.00     0.029 A 
ATOM     53  C   UNL     1       1.306  -7.538   1.029  1.00  0.00     0.049 A 
ATOM     54  H   UNL     1       3.300  -8.222   1.525  1.00  0.00     0.167 HD
ATOM     55  C   UNL     1      -2.080 -12.348   4.027  1.00  0.00     0.037 A 
ATOM     56  C   UNL     1       1.107  -7.558  -0.324  1.00  0.00     0.037 A 
ATOM     57  C   UNL     1      -2.634 -11.175   3.343  1.00  0.00     0.049 A 
ATOM     58  C   UNL     1      -0.252  -8.094  -0.741  1.00  0.00     0.074 A 
ATOM     59  C   UNL     1      -2.895  -9.865   3.711  1.00  0.00     0.029 A 
ATOM     60  N   UNL     1      -2.665 -11.188   1.961  1.00  0.00    -0.354 N 
ATOM     61  N   UNL     1      -1.082  -8.698   0.065  1.00  0.00    -0.248 NA
ATOM     62  C   UNL     1      -0.757  -8.052  -2.109  1.00  0.00     0.031 C 
ATOM     63  C   UNL     1      -3.136  -9.113   2.522  1.00  0.00     0.029 A 
ATOM     64  C   UNL     1      -3.039  -9.970   1.442  1.00  0.00     0.049 A 
ATOM     65  H   UNL     1      -2.447 -11.976   1.413  1.00  0.00     0.167 HD
ATOM     66  C   UNL     1      -2.179  -9.149  -0.627  1.00  0.00     0.074 A 
ATOM     67  C   UNL     1      -1.910  -8.739  -1.995  1.00  0.00     0.031 C 
ATOM     68  C   UNL     1      -3.183  -9.848  -0.002  1.00  0.00     0.037 A 
BRANCH  55  69
ATOM     69  C   UNL     1      -2.819 -13.073   5.130  1.00  0.00     0.064 A 
ATOM     70  C   UNL     1      -4.042 -12.551   5.611  1.00  0.00     0.173 A 
ATOM     71  C   UNL     1      -2.391 -14.241   5.790  1.00  0.00     0.173 A 
ATOM     72  F   UNL     1      -4.625 -11.488   5.040  1.00  0.00    -0.203 F 
ATOM     73  C   UNL     1      -4.724 -13.099   6.700  1.00  0.00     0.198 A 
ATOM     74  C   UNL     1      -3.063 -14.779   6.892  1.00  0.00     0.198 A 
ATOM     75  F   UNL     1      -1.335 -14.945   5.381  1.00  0.00    -0.203 F 
ATOM     76  F   UNL     1      -5.869 -12.538   7.114  1.00  0.00    -0.200 F 
ATOM     77  C   UNL     1      -4.225 -14.203   7.354  1.00  0.00     0.200 A 
ATOM     78  F   UNL     1      -2.570 -15.869   7.500  1.00  0.00    -0.200 F 
ATOM     79  F   UNL     1      -4.868 -14.721   8.408  1.00  0.00    -0.200 F 
ENDBRANCH  55  69
BRANCH  56  80
ATOM     80  C   UNL     1       2.399  -7.764  -1.051  1.00  0.00     0.064 A 
ATOM     81  C   UNL     1       3.414  -6.804  -0.842  1.00  0.00     0.173 A 
ATOM     82  C   UNL     1       2.797  -9.045  -1.454  1.00  0.00     0.173 A 
ATOM     83  F   UNL     1       3.085  -5.554  -0.479  1.00  0.00    -0.203 F 
ATOM     84  C   UNL     1       4.759  -7.169  -0.825  1.00  0.00     0.198 A 
ATOM     85  C   UNL     1       4.151  -9.392  -1.478  1.00  0.00     0.198 A 
ATOM     86  F   UNL     1       1.884 -10.000  -1.679  1.00  0.00    -0.203 F 
ATOM     87  F   UNL     1       5.687  -6.280  -0.440  1.00  0.00    -0.200 F 
ATOM     88  C   UNL     1       5.122  -8.474  -1.103  1.00  0.00     0.200 A 
ATOM     89  F   UNL     1       4.509 -10.655  -1.756  1.00  0.00    -0.200 F 
ATOM     90  F   UNL     1       6.398  -8.862  -0.964  1.00  0.00    -0.200 F 
ENDBRANCH  56  80
BRANCH  68  91
ATOM     91  C   UNL     1      -4.380 -10.529  -0.653  1.00  0.00     0.064 A 
ATOM     92  C   UNL     1      -5.001 -10.075  -1.823  1.00  0.00     0.173 A 
ATOM     93  C   UNL     1      -5.005 -11.664  -0.060  1.00  0.00     0.173 A 
ATOM     94  F   UNL     1      -4.633  -8.926  -2.403  1.00  0.00    -0.203 F 
ATOM     95  C   UNL     1      -6.073 -10.764  -2.412  1.00  0.00     0.198 A 
ATOM     96  C   UNL     1      -6.098 -12.318  -0.620  1.00  0.00     0.198 A 
ATOM     97  F   UNL     1      -4.582 -12.209   1.086  1.00  0.00    -0.203 F 
ATOM     98  F   UNL     1      -6.586 -10.322  -3.568  1.00  0.00    -0.200 F 
ATOM     99  C   UNL     1      -6.617 -11.885  -1.814  1.00  0.00     0.200 A 
ATOM    100  F   UNL     1      -6.630 -13.375   0.011  1.00  0.00    -0.200 F 
ATOM    101  F   UNL     1      -7.643 -12.537  -2.376  1.00  0.00    -0.200 F 
ENDBRANCH  68  91
ENDBRANCH  42  43
ENDBRANCH  34  37
ENDBRANCH  32  33
ENDBRANCH  31  32
ENDBRANCH  30  31
ENDBRANCH   1  30
TORSDOF 15
