REMARK SMILES Cc1ccc(NC(=O)C[N@H+]2CCC[C@@H](C(=O)NCCCCNC(=O)c3ccc(-c4c5nc(c(-c6c(F)c(F)c(F)c(F)c6F)c6ccc([nH]6)c(-c6c(F)c(F)c(F)c(F)c6F)c6nc(c(-c7c(F)c(F)c(F)c(F)c7F)c7ccc4[nH]7)C=C6)C=C5)cc3)C2)cc1Cl
REMARK SMILES IDX 19 1 18 2 17 3 15 4 16 5 14 7 10 8 11 9 88 10 12 12 13 13
REMARK SMILES IDX 9 14 7 15 6 16 8 18 5 19 1 20 2 21 3 22 90 23 4 24 89 25
REMARK SMILES IDX 91 26 20 27 21 28 22 29 23 30 24 32 25 33 26 34 87 35 27 36
REMARK SMILES IDX 86 37 28 38 29 39 30 40 80 41 31 42 85 43 79 44 81 45 32 46
REMARK SMILES IDX 84 47 78 48 77 49 33 51 65 52 45 53 64 54 46 55 49 56 63 57
REMARK SMILES IDX 82 58 47 59 48 60 62 62 83 63 50 64 34 65 35 66 43 67 36 68
REMARK SMILES IDX 37 69 41 70 44 71 38 72 39 73 42 74 40 75 66 76 67 77 75 78
REMARK SMILES IDX 68 79 69 80 73 81 76 82 70 83 71 84 74 85 72 86 51 87 52 88
REMARK SMILES IDX 60 89 53 90 54 91 58 92 61 93 55 94 56 95 59 96 57 97
REMARK H PARENT 17 6 10 11 6 17 22 31 81 50 49 61
REMARK Flexibility Score: inf
ROOT
ATOM      1  C   UNL     1       2.526   1.640  -3.836  1.00  0.00     0.023 C 
ENDROOT
BRANCH   1   2
ATOM      2  C   UNL     1       1.899   0.899  -2.654  1.00  0.00     0.116 C 
BRANCH   2   3
ATOM      3  N   UNL     1       0.454   0.896  -2.769  1.00  0.00    -0.356 N 
ATOM      4  C   UNL     1      -0.390  -0.102  -3.154  1.00  0.00     0.228 C 
ATOM      5  O   UNL     1      -1.562   0.204  -3.381  1.00  0.00    -0.275 OA
ATOM      6  H   UNL     1       0.015   1.745  -2.533  1.00  0.00     0.163 HD
BRANCH   4   7
ATOM      7  C   UNL     1       0.086  -1.550  -3.149  1.00  0.00     0.133 C 
ATOM      8  N   UNL     1      -0.151  -3.534  -1.576  1.00  0.00    -0.326 N 
ATOM      9  C   UNL     1      -0.795  -4.309  -2.641  1.00  0.00     0.262 C 
ATOM     10  C   UNL     1      -0.309  -2.092  -1.773  1.00  0.00     0.276 C 
ATOM     11  H   UNL     1       0.848  -3.729  -1.638  1.00  0.00     0.348 HD
ATOM     12  C   UNL     1      -0.303  -3.857  -4.022  1.00  0.00     0.062 C 
ATOM     13  C   UNL     1      -0.583  -2.373  -4.248  1.00  0.00     0.025 C 
BRANCH   8  14
ATOM     14  C   UNL     1      -0.577  -3.972  -0.216  1.00  0.00     0.363 C 
BRANCH  14  15
ATOM     15  C   UNL     1      -2.049  -3.699   0.151  1.00  0.00     0.279 C 
ATOM     16  N   UNL     1      -2.512  -2.494   0.616  1.00  0.00    -0.321 N 
ATOM     17  H   UNL     1      -3.479  -2.485   0.802  1.00  0.00     0.170 HD
ATOM     18  O   UNL     1      -2.901  -4.579  -0.040  1.00  0.00    -0.268 OA
BRANCH  16  19
ATOM     19  C   UNL     1      -1.873  -1.269   0.878  1.00  0.00     0.042 A 
ATOM     20  C   UNL     1       0.107   2.568   0.720  1.00  0.00     0.046 C 
ATOM     21  C   UNL     1      -0.590   1.248   0.893  1.00  0.00    -0.032 A 
ATOM     22  C   UNL     1      -1.933   1.132   0.512  1.00  0.00     0.007 A 
ATOM     23  C   UNL     1       0.074   0.097   1.337  1.00  0.00     0.046 A 
ATOM     24  C   UNL     1      -2.574  -0.110   0.525  1.00  0.00     0.026 A 
ATOM     25  C   UNL     1      -0.576  -1.145   1.364  1.00  0.00     0.047 A 
ATOM     26  Cl  UNL     1       1.745   0.132   1.781  1.00  0.00    -0.084 Cl
ENDBRANCH  16  19
ENDBRANCH  14  15
ENDBRANCH   8  14
ENDBRANCH   4   7
ENDBRANCH   2   3
ENDBRANCH   1   2
BRANCH   1  27
ATOM     27  C   UNL     1       2.188   3.134  -3.900  1.00  0.00     0.023 C 
BRANCH  27  28
ATOM     28  C   UNL     1       2.597   3.951  -2.678  1.00  0.00     0.116 C 
BRANCH  28  29
ATOM     29  N   UNL     1       4.026   3.905  -2.416  1.00  0.00    -0.352 N 
ATOM     30  C   UNL     1       4.912   4.934  -2.213  1.00  0.00     0.251 C 
ATOM     31  H   UNL     1       4.416   3.002  -2.379  1.00  0.00     0.163 HD
ATOM     32  O   UNL     1       6.117   4.703  -2.145  1.00  0.00    -0.269 OA
BRANCH  30  33
ATOM     33  C   UNL     1       4.425   6.326  -2.108  1.00  0.00     0.039 A 
ATOM     34  C   UNL     1       5.094   7.325  -2.820  1.00  0.00     0.014 A 
ATOM     35  C   UNL     1       3.319   6.649  -1.318  1.00  0.00     0.014 A 
ATOM     36  C   UNL     1       4.611   8.635  -2.795  1.00  0.00     0.010 A 
ATOM     37  C   UNL     1       2.795   7.939  -1.355  1.00  0.00     0.010 A 
ATOM     38  C   UNL     1       3.433   8.946  -2.096  1.00  0.00    -0.014 A 
BRANCH  38  39
ATOM     39  C   UNL     1       2.852  10.313  -2.144  1.00  0.00     0.031 A 
ATOM     40  C   UNL     1       2.743  11.139  -0.893  1.00  0.00     0.074 A 
ATOM     41  C   UNL     1       2.368  10.789  -3.308  1.00  0.00     0.049 A 
ATOM     42  N   UNL     1       2.220  12.329  -0.728  1.00  0.00    -0.248 NA
ATOM     43  C   UNL     1       3.267  10.539   0.343  1.00  0.00     0.031 C 
ATOM     44  C   UNL     1       2.376  10.070  -4.583  1.00  0.00     0.029 A 
ATOM     45  N   UNL     1       1.770  11.989  -3.608  1.00  0.00    -0.354 N 
ATOM     46  C   UNL     1       2.342  12.613   0.625  1.00  0.00     0.074 A 
ATOM     47  C   UNL     1       2.937  11.449   1.248  1.00  0.00     0.031 C 
ATOM     48  C   UNL     1       1.836  10.851  -5.532  1.00  0.00     0.029 A 
ATOM     49  C   UNL     1       1.403  12.107  -4.927  1.00  0.00     0.049 A 
ATOM     50  H   UNL     1       1.618  12.696  -2.941  1.00  0.00     0.167 HD
ATOM     51  C   UNL     1       2.010  13.748   1.286  1.00  0.00     0.037 A 
ATOM     52  C   UNL     1       0.781  13.112  -5.574  1.00  0.00     0.037 A 
ATOM     53  C   UNL     1       1.434  14.910   0.659  1.00  0.00     0.049 A 
ATOM     54  C   UNL     1       0.400  14.352  -4.811  1.00  0.00     0.074 A 
ATOM     55  C   UNL     1       1.120  16.131   1.231  1.00  0.00     0.029 A 
ATOM     56  N   UNL     1       1.077  14.993  -0.679  1.00  0.00    -0.354 N 
ATOM     57  N   UNL     1       0.590  14.639  -3.546  1.00  0.00    -0.248 NA
ATOM     58  C   UNL     1      -0.278  15.413  -5.570  1.00  0.00     0.031 C 
ATOM     59  C   UNL     1       0.516  16.930   0.254  1.00  0.00     0.029 A 
ATOM     60  C   UNL     1       0.515  16.233  -0.943  1.00  0.00     0.049 A 
ATOM     61  H   UNL     1       1.204  14.277  -1.343  1.00  0.00     0.167 HD
ATOM     62  C   UNL     1       0.087  15.921  -3.365  1.00  0.00     0.074 A 
ATOM     63  C   UNL     1      -0.403  16.362  -4.654  1.00  0.00     0.031 C 
ATOM     64  C   UNL     1       0.037  16.665  -2.233  1.00  0.00     0.037 A 
BRANCH  51  65
ATOM     65  C   UNL     1       2.252  13.788   2.768  1.00  0.00     0.064 A 
ATOM     66  C   UNL     1       3.549  13.803   3.305  1.00  0.00     0.173 A 
ATOM     67  C   UNL     1       1.173  13.849   3.664  1.00  0.00     0.173 A 
ATOM     68  F   UNL     1       4.617  13.737   2.495  1.00  0.00    -0.203 F 
ATOM     69  C   UNL     1       3.755  13.843   4.682  1.00  0.00     0.198 A 
ATOM     70  C   UNL     1       1.384  13.924   5.038  1.00  0.00     0.198 A 
ATOM     71  F   UNL     1      -0.087  13.845   3.206  1.00  0.00    -0.203 F 
ATOM     72  F   UNL     1       5.002  13.799   5.173  1.00  0.00    -0.200 F 
ATOM     73  C   UNL     1       2.674  13.911   5.547  1.00  0.00     0.200 A 
ATOM     74  F   UNL     1       0.337  14.007   5.871  1.00  0.00    -0.200 F 
ATOM     75  F   UNL     1       2.874  13.957   6.871  1.00  0.00    -0.200 F 
ENDBRANCH  51  65
BRANCH  52  76
ATOM     76  C   UNL     1       0.498  12.997  -7.029  1.00  0.00     0.064 A 
ATOM     77  C   UNL     1       1.159  13.813  -7.958  1.00  0.00     0.173 A 
ATOM     78  C   UNL     1      -0.443  12.080  -7.521  1.00  0.00     0.173 A 
ATOM     79  F   UNL     1       2.051  14.720  -7.535  1.00  0.00    -0.203 F 
ATOM     80  C   UNL     1       0.874  13.733  -9.319  1.00  0.00     0.198 A 
ATOM     81  C   UNL     1      -0.704  11.978  -8.886  1.00  0.00     0.198 A 
ATOM     82  F   UNL     1      -1.100  11.272  -6.676  1.00  0.00    -0.203 F 
ATOM     83  F   UNL     1       1.483  14.561 -10.179  1.00  0.00    -0.200 F 
ATOM     84  C   UNL     1      -0.053  12.812  -9.783  1.00  0.00     0.200 A 
ATOM     85  F   UNL     1      -1.588  11.075  -9.332  1.00  0.00    -0.200 F 
ATOM     86  F   UNL     1      -0.324  12.732 -11.093  1.00  0.00    -0.200 F 
ENDBRANCH  52  76
BRANCH  64  87
ATOM     87  C   UNL     1      -0.530  18.052  -2.341  1.00  0.00     0.064 A 
ATOM     88  C   UNL     1      -1.896  18.279  -2.567  1.00  0.00     0.173 A 
ATOM     89  C   UNL     1       0.301  19.172  -2.179  1.00  0.00     0.173 A 
ATOM     90  F   UNL     1      -2.732  17.244  -2.744  1.00  0.00    -0.203 F 
ATOM     91  C   UNL     1      -2.403  19.573  -2.655  1.00  0.00     0.198 A 
ATOM     92  C   UNL     1      -0.215  20.463  -2.231  1.00  0.00     0.198 A 
ATOM     93  F   UNL     1       1.614  19.012  -1.953  1.00  0.00    -0.203 F 
ATOM     94  F   UNL     1      -3.701  19.765  -2.924  1.00  0.00    -0.200 F 
ATOM     95  C   UNL     1      -1.564  20.663  -2.478  1.00  0.00     0.200 A 
ATOM     96  F   UNL     1       0.595  21.515  -2.043  1.00  0.00    -0.200 F 
ATOM     97  F   UNL     1      -2.055  21.908  -2.553  1.00  0.00    -0.200 F 
ENDBRANCH  64  87
ENDBRANCH  38  39
ENDBRANCH  30  33
ENDBRANCH  28  29
ENDBRANCH  27  28
ENDBRANCH   1  27
TORSDOF 14
