REMARK SMILES Cc1ccc(C(F)(F)F)cc1-c1ccc(/C=C/C(=O)NCCCCNC(=O)c2ccc(-c3c4nc(c(-c5c(F)c(F)c(F)c(F)c5F)c5ccc([nH]5)c(-c5c(F)c(F)c(F)c(F)c5F)c5nc(c(-c6c(F)c(F)c(F)c(F)c6F)c6ccc3[nH]6)C=C5)C=C4)cc2)s1
REMARK SMILES IDX 22 1 21 2 20 3 18 4 19 5 17 7 16 8 15 9 12 10 13 11 91 12
REMARK SMILES IDX 14 13 11 14 1 15 2 16 3 17 4 18 10 19 5 20 6 21 7 22 8 23
REMARK SMILES IDX 9 24 23 25 24 26 25 27 26 28 27 30 28 31 29 32 90 33 30 34
REMARK SMILES IDX 89 35 31 36 32 37 33 38 83 39 34 40 88 41 82 42 84 43 35 44
REMARK SMILES IDX 87 45 81 46 80 47 36 49 68 50 48 51 67 52 49 53 52 54 66 55
REMARK SMILES IDX 85 56 50 57 51 58 65 60 86 61 53 62 37 63 38 64 46 65 39 66
REMARK SMILES IDX 40 67 44 68 47 69 41 70 42 71 45 72 43 73 69 74 70 75 78 76
REMARK SMILES IDX 71 77 72 78 76 79 79 80 73 81 74 82 77 83 75 84 54 85 55 86
REMARK SMILES IDX 63 87 56 88 57 89 61 90 64 91 58 92 59 93 62 94 60 95
REMARK H PARENT 20 6 25 29 84 48 52 59
REMARK Flexibility Score: inf
ROOT
ATOM      1  C   UNL     1       3.563   8.867  -0.669  1.00  0.00     0.023 C 
ENDROOT
BRANCH   1   2
ATOM      2  C   UNL     1       4.108   8.284   0.645  1.00  0.00     0.116 C 
BRANCH   2   3
ATOM      3  N   UNL     1       3.228   8.531   1.778  1.00  0.00    -0.353 N 
ATOM      4  C   UNL     1       2.392   7.700   2.461  1.00  0.00     0.244 C 
ATOM      5  O   UNL     1       1.857   8.098   3.493  1.00  0.00    -0.270 OA
ATOM      6  H   UNL     1       3.239   9.459   2.107  1.00  0.00     0.163 HD
BRANCH   4   7
ATOM      7  C   UNL     1       2.180   6.302   2.025  1.00  0.00     0.072 C 
ATOM      8  C   UNL     1       1.913   5.979   0.754  1.00  0.00     0.024 C 
BRANCH   8   9
ATOM      9  C   UNL     1       1.725   4.648   0.294  1.00  0.00     0.028 A 
ATOM     10  C   UNL     1       0.946   2.325  -0.101  1.00  0.00     0.035 A 
ATOM     11  C   UNL     1       1.747   2.785  -1.123  1.00  0.00     0.021 A 
ATOM     12  S   UNL     1       0.791   3.487   1.147  1.00  0.00    -0.136 S 
ATOM     13  C   UNL     1       2.186   4.119  -0.899  1.00  0.00     0.020 A 
BRANCH  10  14
ATOM     14  C   UNL     1       0.250   1.039   0.004  1.00  0.00    -0.005 A 
ATOM     15  C   UNL     1       2.441  -0.286   0.104  1.00  0.00     0.045 C 
ATOM     16  C   UNL     1       0.939  -0.187   0.082  1.00  0.00    -0.042 A 
ATOM     17  C   UNL     1       0.200  -1.382   0.098  1.00  0.00     0.005 A 
ATOM     18  C   UNL     1      -1.196  -1.367   0.066  1.00  0.00     0.013 A 
ATOM     19  C   UNL     1      -1.157   1.040  -0.026  1.00  0.00     0.023 A 
ATOM     20  C   UNL     1      -1.891  -0.154   0.011  1.00  0.00     0.056 A 
BRANCH  20  21
ATOM     21  C   UNL     1      -3.398  -0.142  -0.026  1.00  0.00     0.416 C 
ATOM     22  F   UNL     1      -3.895  -0.765  -1.132  1.00  0.00    -0.166 F 
ATOM     23  F   UNL     1      -3.951  -0.782   1.042  1.00  0.00    -0.166 F 
ATOM     24  F   UNL     1      -3.937   1.109  -0.032  1.00  0.00    -0.166 F 
ENDBRANCH  20  21
ENDBRANCH  10  14
ENDBRANCH   8   9
ENDBRANCH   4   7
ENDBRANCH   2   3
ENDBRANCH   1   2
BRANCH   1  25
ATOM     25  C   UNL     1       3.485  10.396  -0.709  1.00  0.00     0.023 C 
BRANCH  25  26
ATOM     26  C   UNL     1       4.840  11.070  -0.847  1.00  0.00     0.116 C 
BRANCH  26  27
ATOM     27  N   UNL     1       5.312  11.221  -2.226  1.00  0.00    -0.352 N 
ATOM     28  C   UNL     1       6.567  11.554  -2.689  1.00  0.00     0.251 C 
ATOM     29  H   UNL     1       4.634  11.061  -2.922  1.00  0.00     0.163 HD
ATOM     30  O   UNL     1       6.771  11.700  -3.879  1.00  0.00    -0.269 OA
BRANCH  28  31
ATOM     31  C   UNL     1       7.705  11.602  -1.731  1.00  0.00     0.039 A 
ATOM     32  C   UNL     1       8.873  10.903  -2.062  1.00  0.00     0.014 A 
ATOM     33  C   UNL     1       7.542  12.130  -0.452  1.00  0.00     0.014 A 
ATOM     34  C   UNL     1       9.741  10.513  -1.046  1.00  0.00     0.010 A 
ATOM     35  C   UNL     1       8.344  11.656   0.567  1.00  0.00     0.010 A 
ATOM     36  C   UNL     1       9.397  10.783   0.277  1.00  0.00    -0.014 A 
BRANCH  36  37
ATOM     37  C   UNL     1       9.979  10.076   1.413  1.00  0.00     0.031 A 
ATOM     38  C   UNL     1      10.880  10.765   2.360  1.00  0.00     0.074 A 
ATOM     39  C   UNL     1       9.621   8.793   1.649  1.00  0.00     0.049 A 
ATOM     40  N   UNL     1      11.683  10.143   3.156  1.00  0.00    -0.248 NA
ATOM     41  C   UNL     1      11.020  12.216   2.433  1.00  0.00     0.031 C 
ATOM     42  C   UNL     1       9.832   8.027   2.877  1.00  0.00     0.029 A 
ATOM     43  N   UNL     1       9.168   7.838   0.721  1.00  0.00    -0.354 N 
ATOM     44  C   UNL     1      12.191  11.061   4.041  1.00  0.00     0.074 A 
ATOM     45  C   UNL     1      11.880  12.338   3.452  1.00  0.00     0.031 C 
ATOM     46  C   UNL     1       9.818   6.720   2.582  1.00  0.00     0.029 A 
ATOM     47  C   UNL     1       9.737   6.611   1.138  1.00  0.00     0.049 A 
ATOM     48  H   UNL     1       8.580   7.990  -0.054  1.00  0.00     0.167 HD
ATOM     49  C   UNL     1      12.681  10.611   5.232  1.00  0.00     0.037 A 
ATOM     50  C   UNL     1      10.609   5.912   0.358  1.00  0.00     0.037 A 
ATOM     51  C   UNL     1      12.849   9.154   5.213  1.00  0.00     0.049 A 
ATOM     52  C   UNL     1      11.941   5.625   1.008  1.00  0.00     0.074 A 
ATOM     53  C   UNL     1      12.205   8.104   5.844  1.00  0.00     0.029 A 
ATOM     54  N   UNL     1      13.690   8.583   4.261  1.00  0.00    -0.354 N 
ATOM     55  N   UNL     1      12.392   6.258   2.054  1.00  0.00    -0.248 NA
ATOM     56  C   UNL     1      12.887   4.634   0.508  1.00  0.00     0.031 C 
ATOM     57  C   UNL     1      12.647   6.894   5.244  1.00  0.00     0.029 A 
ATOM     58  C   UNL     1      13.576   7.209   4.266  1.00  0.00     0.049 A 
ATOM     59  H   UNL     1      14.286   9.092   3.665  1.00  0.00     0.167 HD
ATOM     60  C   UNL     1      13.660   5.821   2.350  1.00  0.00     0.074 A 
ATOM     61  C   UNL     1      13.907   4.779   1.372  1.00  0.00     0.031 C 
ATOM     62  C   UNL     1      14.381   6.391   3.364  1.00  0.00     0.037 A 
BRANCH  49  63
ATOM     63  C   UNL     1      12.831  11.429   6.509  1.00  0.00     0.064 A 
ATOM     64  C   UNL     1      13.277  10.806   7.700  1.00  0.00     0.173 A 
ATOM     65  C   UNL     1      12.443  12.775   6.677  1.00  0.00     0.173 A 
ATOM     66  F   UNL     1      13.705   9.536   7.707  1.00  0.00    -0.203 F 
ATOM     67  C   UNL     1      13.284  11.456   8.942  1.00  0.00     0.198 A 
ATOM     68  C   UNL     1      12.493  13.437   7.909  1.00  0.00     0.198 A 
ATOM     69  F   UNL     1      11.950  13.512   5.681  1.00  0.00    -0.203 F 
ATOM     70  F   UNL     1      13.655  10.787  10.042  1.00  0.00    -0.200 F 
ATOM     71  C   UNL     1      12.895  12.774   9.045  1.00  0.00     0.200 A 
ATOM     72  F   UNL     1      12.117  14.722   7.982  1.00  0.00    -0.200 F 
ATOM     73  F   UNL     1      12.894  13.398  10.231  1.00  0.00    -0.200 F 
ENDBRANCH  49  63
BRANCH  50  74
ATOM     74  C   UNL     1      10.397   6.121  -1.095  1.00  0.00     0.064 A 
ATOM     75  C   UNL     1       9.182   5.692  -1.661  1.00  0.00     0.173 A 
ATOM     76  C   UNL     1      11.161   7.044  -1.819  1.00  0.00     0.173 A 
ATOM     77  F   UNL     1       8.410   4.813  -1.002  1.00  0.00    -0.203 F 
ATOM     78  C   UNL     1       8.695   6.250  -2.840  1.00  0.00     0.198 A 
ATOM     79  C   UNL     1      10.675   7.592  -3.008  1.00  0.00     0.198 A 
ATOM     80  F   UNL     1      12.315   7.509  -1.321  1.00  0.00    -0.203 F 
ATOM     81  F   UNL     1       7.480   5.906  -3.290  1.00  0.00    -0.200 F 
ATOM     82  C   UNL     1       9.430   7.221  -3.498  1.00  0.00     0.200 A 
ATOM     83  F   UNL     1      11.369   8.557  -3.628  1.00  0.00    -0.200 F 
ATOM     84  F   UNL     1       8.921   7.832  -4.577  1.00  0.00    -0.200 F 
ENDBRANCH  50  74
BRANCH  62  85
ATOM     85  C   UNL     1      15.862   6.217   3.675  1.00  0.00     0.064 A 
ATOM     86  C   UNL     1      16.820   5.683   2.796  1.00  0.00     0.173 A 
ATOM     87  C   UNL     1      16.400   6.727   4.890  1.00  0.00     0.173 A 
ATOM     88  F   UNL     1      16.497   5.277   1.564  1.00  0.00    -0.203 F 
ATOM     89  C   UNL     1      18.180   5.606   3.125  1.00  0.00     0.198 A 
ATOM     90  C   UNL     1      17.763   6.704   5.188  1.00  0.00     0.198 A 
ATOM     91  F   UNL     1      15.624   7.297   5.822  1.00  0.00    -0.203 F 
ATOM     92  F   UNL     1      19.038   5.047   2.259  1.00  0.00    -0.200 F 
ATOM     93  C   UNL     1      18.653   6.127   4.312  1.00  0.00     0.200 A 
ATOM     94  F   UNL     1      18.206   7.266   6.322  1.00  0.00    -0.200 F 
ATOM     95  F   UNL     1      19.962   6.095   4.598  1.00  0.00    -0.200 F 
ENDBRANCH  62  85
ENDBRANCH  36  37
ENDBRANCH  28  31
ENDBRANCH  26  27
ENDBRANCH  25  26
ENDBRANCH   1  25
TORSDOF 14
