REMARK SMILES COc1ccc(OCC(=O)N/N=C(/C)C(=O)NCCCCNC(=O)c2ccc(-c3c4nc(c(-c5c(F)c(F)c(F)c(F)c5F)c5ccc([nH]5)c(-c5c(F)c(F)c(F)c(F)c5F)c5nc(c(-c6c(F)c(F)c(F)c(F)c6F)c6ccc3[nH]6)C=C5)C=C4)cc2)cc1
REMARK SMILES IDX 18 1 17 2 15 3 16 4 13 6 12 7 14 8 11 9 9 10 10 11 8 13 7 14
REMARK SMILES IDX 6 15 3 16 4 17 89 18 5 19 88 20 2 21 1 22 19 23 20 24 21 25
REMARK SMILES IDX 22 26 23 27 24 29 25 30 26 31 87 32 27 33 86 34 28 35 29 36
REMARK SMILES IDX 30 37 80 38 31 39 85 40 79 41 81 42 32 43 84 44 78 45 77 46
REMARK SMILES IDX 33 48 65 49 45 50 64 51 46 52 49 53 63 54 82 55 47 56 48 57
REMARK SMILES IDX 62 59 83 60 50 61 34 62 35 63 43 64 36 65 37 66 41 67 44 68
REMARK SMILES IDX 38 69 39 70 42 71 40 72 66 73 67 74 75 75 68 76 69 77 73 78
REMARK SMILES IDX 76 79 70 80 71 81 74 82 72 83 51 84 52 85 60 86 53 87 54 88
REMARK SMILES IDX 58 89 61 90 55 91 56 92 59 93 57 94
REMARK H PARENT 17 5 11 12 22 28 81 47 49 58
REMARK Flexibility Score: inf
ROOT
ATOM      1  C   UNL     1       0.881   0.759   9.713  1.00  0.00     0.116 C 
ENDROOT
BRANCH   1   2
ATOM      2  N   UNL     1       2.130   0.160   9.283  1.00  0.00    -0.351 N 
ATOM      3  C   UNL     1       2.424  -1.113   8.863  1.00  0.00     0.267 C 
ATOM      4  O   UNL     1       3.552  -1.553   9.059  1.00  0.00    -0.268 OA
ATOM      5  H   UNL     1       2.901   0.772   9.295  1.00  0.00     0.163 HD
BRANCH   3   6
ATOM      6  C   UNL     1       1.451  -1.913   8.006  1.00  0.00     0.122 C 
ATOM      7  N   UNL     1       1.770  -2.546   6.912  1.00  0.00    -0.172 NA
ATOM      8  C   UNL     1       0.030  -2.056   8.476  1.00  0.00     0.075 C 
BRANCH   7   9
ATOM      9  N   UNL     1       3.047  -2.624   6.451  1.00  0.00    -0.244 N 
ATOM     10  C   UNL     1       3.903  -1.663   5.982  1.00  0.00     0.277 C 
ATOM     11  O   UNL     1       4.957  -2.030   5.444  1.00  0.00    -0.269 OA
ATOM     12  H   UNL     1       3.424  -3.534   6.455  1.00  0.00     0.193 HD
BRANCH  10  13
ATOM     13  C   UNL     1       3.612  -0.169   6.123  1.00  0.00     0.331 C 
BRANCH  13  14
ATOM     14  O   UNL     1       2.290   0.284   5.910  1.00  0.00    -0.484 OA
BRANCH  14  15
ATOM     15  C   UNL     1       1.848   0.329   4.617  1.00  0.00     0.120 A 
ATOM     16  C   UNL     1       0.673   0.482   2.067  1.00  0.00     0.119 A 
ATOM     17  C   UNL     1      -0.063   0.806   3.206  1.00  0.00     0.050 A 
ATOM     18  C   UNL     1       2.008   0.104   2.206  1.00  0.00     0.050 A 
ATOM     19  C   UNL     1       0.519   0.727   4.473  1.00  0.00     0.050 A 
ATOM     20  C   UNL     1       2.593   0.025   3.476  1.00  0.00     0.050 A 
BRANCH  16  21
ATOM     21  O   UNL     1      -0.011   0.580   0.888  1.00  0.00    -0.497 OA
ATOM     22  C   UNL     1       0.608  -0.008  -0.251  1.00  0.00     0.278 C 
ENDBRANCH  16  21
ENDBRANCH  14  15
ENDBRANCH  13  14
ENDBRANCH  10  13
ENDBRANCH   7   9
ENDBRANCH   3   6
ENDBRANCH   1   2
BRANCH   1  23
ATOM     23  C   UNL     1       1.075   1.393  11.094  1.00  0.00     0.023 C 
BRANCH  23  24
ATOM     24  C   UNL     1       1.908   2.680  11.094  1.00  0.00     0.023 C 
BRANCH  24  25
ATOM     25  C   UNL     1       1.276   3.853  10.350  1.00  0.00     0.116 C 
BRANCH  25  26
ATOM     26  N   UNL     1      -0.007   4.235  10.917  1.00  0.00    -0.352 N 
ATOM     27  C   UNL     1      -0.449   5.464  11.335  1.00  0.00     0.251 C 
ATOM     28  H   UNL     1      -0.655   3.501  11.017  1.00  0.00     0.163 HD
ATOM     29  O   UNL     1      -1.505   5.557  11.953  1.00  0.00    -0.269 OA
BRANCH  27  30
ATOM     30  C   UNL     1       0.347   6.677  11.057  1.00  0.00     0.039 A 
ATOM     31  C   UNL     1       0.527   7.609  12.083  1.00  0.00     0.014 A 
ATOM     32  C   UNL     1       0.879   6.917   9.786  1.00  0.00     0.014 A 
ATOM     33  C   UNL     1       1.288   8.757  11.853  1.00  0.00     0.010 A 
ATOM     34  C   UNL     1       1.675   8.039   9.570  1.00  0.00     0.010 A 
ATOM     35  C   UNL     1       1.885   8.967  10.601  1.00  0.00    -0.014 A 
BRANCH  35  36
ATOM     36  C   UNL     1       2.734  10.155  10.350  1.00  0.00     0.031 A 
ATOM     37  C   UNL     1       2.259  11.241   9.430  1.00  0.00     0.074 A 
ATOM     38  C   UNL     1       3.960  10.222  10.901  1.00  0.00     0.049 A 
ATOM     39  N   UNL     1       2.891  12.311   9.017  1.00  0.00    -0.248 NA
ATOM     40  C   UNL     1       0.901  11.094   8.883  1.00  0.00     0.031 C 
ATOM     41  C   UNL     1       4.548   9.211  11.781  1.00  0.00     0.029 A 
ATOM     42  N   UNL     1       4.938  11.178  10.788  1.00  0.00    -0.354 N 
ATOM     43  C   UNL     1       2.021  12.949   8.145  1.00  0.00     0.074 A 
ATOM     44  C   UNL     1       0.824  12.138   8.069  1.00  0.00     0.031 C 
ATOM     45  C   UNL     1       5.782   9.604  12.136  1.00  0.00     0.029 A 
ATOM     46  C   UNL     1       6.080  10.879  11.489  1.00  0.00     0.049 A 
ATOM     47  H   UNL     1       4.831  11.998  10.256  1.00  0.00     0.167 HD
ATOM     48  C   UNL     1       2.201  14.113   7.477  1.00  0.00     0.037 A 
ATOM     49  C   UNL     1       7.238  11.557  11.593  1.00  0.00     0.037 A 
ATOM     50  C   UNL     1       3.373  14.940   7.581  1.00  0.00     0.049 A 
ATOM     51  C   UNL     1       7.397  12.864  10.871  1.00  0.00     0.074 A 
ATOM     52  C   UNL     1       3.622  16.165   6.988  1.00  0.00     0.029 A 
ATOM     53  N   UNL     1       4.493  14.624   8.335  1.00  0.00    -0.354 N 
ATOM     54  N   UNL     1       6.550  13.480  10.083  1.00  0.00    -0.248 NA
ATOM     55  C   UNL     1       8.672  13.572  11.055  1.00  0.00     0.031 C 
ATOM     56  C   UNL     1       4.903  16.583   7.368  1.00  0.00     0.029 A 
ATOM     57  C   UNL     1       5.440  15.628   8.216  1.00  0.00     0.049 A 
ATOM     58  H   UNL     1       4.600  13.807   8.874  1.00  0.00     0.167 HD
ATOM     59  C   UNL     1       7.179  14.653   9.692  1.00  0.00     0.074 A 
ATOM     60  C   UNL     1       8.476  14.669  10.336  1.00  0.00     0.031 C 
ATOM     61  C   UNL     1       6.721  15.629   8.871  1.00  0.00     0.037 A 
BRANCH  48  62
ATOM     62  C   UNL     1       1.097  14.562   6.570  1.00  0.00     0.064 A 
ATOM     63  C   UNL     1      -0.088  15.114   7.079  1.00  0.00     0.173 A 
ATOM     64  C   UNL     1       1.237  14.466   5.178  1.00  0.00     0.173 A 
ATOM     65  F   UNL     1      -0.272  15.212   8.404  1.00  0.00    -0.203 F 
ATOM     66  C   UNL     1      -1.103  15.537   6.224  1.00  0.00     0.198 A 
ATOM     67  C   UNL     1       0.228  14.908   4.327  1.00  0.00     0.198 A 
ATOM     68  F   UNL     1       2.353  13.947   4.645  1.00  0.00    -0.203 F 
ATOM     69  F   UNL     1      -2.242  16.028   6.732  1.00  0.00    -0.200 F 
ATOM     70  C   UNL     1      -0.942  15.438   4.850  1.00  0.00     0.200 A 
ATOM     71  F   UNL     1       0.386  14.817   2.999  1.00  0.00    -0.200 F 
ATOM     72  F   UNL     1      -1.920  15.847   4.029  1.00  0.00    -0.200 F 
ENDBRANCH  48  62
BRANCH  49  73
ATOM     73  C   UNL     1       8.329  11.019  12.441  1.00  0.00     0.064 A 
ATOM     74  C   UNL     1       8.602  11.580  13.695  1.00  0.00     0.173 A 
ATOM     75  C   UNL     1       9.108   9.932  12.022  1.00  0.00     0.173 A 
ATOM     76  F   UNL     1       7.893  12.634  14.125  1.00  0.00    -0.203 F 
ATOM     77  C   UNL     1       9.623  11.079  14.498  1.00  0.00     0.198 A 
ATOM     78  C   UNL     1      10.118   9.421  12.833  1.00  0.00     0.198 A 
ATOM     79  F   UNL     1       8.879   9.362  10.830  1.00  0.00    -0.203 F 
ATOM     80  F   UNL     1       9.884  11.650  15.681  1.00  0.00    -0.200 F 
ATOM     81  C   UNL     1      10.377   9.997  14.068  1.00  0.00     0.200 A 
ATOM     82  F   UNL     1      10.839   8.370  12.420  1.00  0.00    -0.200 F 
ATOM     83  F   UNL     1      11.358   9.512  14.843  1.00  0.00    -0.200 F 
ENDBRANCH  49  73
BRANCH  61  84
ATOM     84  C   UNL     1       7.619  16.805   8.644  1.00  0.00     0.064 A 
ATOM     85  C   UNL     1       8.710  16.730   7.767  1.00  0.00     0.173 A 
ATOM     86  C   UNL     1       7.364  18.027   9.281  1.00  0.00     0.173 A 
ATOM     87  F   UNL     1       9.000  15.575   7.149  1.00  0.00    -0.203 F 
ATOM     88  C   UNL     1       9.524  17.837   7.545  1.00  0.00     0.198 A 
ATOM     89  C   UNL     1       8.170  19.137   9.044  1.00  0.00     0.198 A 
ATOM     90  F   UNL     1       6.331  18.145  10.128  1.00  0.00    -0.203 F 
ATOM     91  F   UNL     1      10.580  17.737   6.727  1.00  0.00    -0.200 F 
ATOM     92  C   UNL     1       9.250  19.040   8.180  1.00  0.00     0.200 A 
ATOM     93  F   UNL     1       7.903  20.300   9.654  1.00  0.00    -0.200 F 
ATOM     94  F   UNL     1      10.034  20.105   7.963  1.00  0.00    -0.200 F 
ENDBRANCH  61  84
ENDBRANCH  35  36
ENDBRANCH  27  30
ENDBRANCH  25  26
ENDBRANCH  24  25
ENDBRANCH  23  24
ENDBRANCH   1  23
TORSDOF 16
