REMARK SMILES O=C(NCc1ccco1)N[C@@H]1CCCCC[C@H]1C(=O)NCCCCNC(=O)c1ccc(-c2c3nc(c(-c4c(F)c(F)c(F)c(F)c4F)c4ccc([nH]4)c(-c4c(F)c(F)c(F)c(F)c4F)c4nc(c(-c5c(F)c(F)c(F)c(F)c5F)c5ccc2[nH]5)C=C4)C=C3)cc1
REMARK SMILES IDX 21 1 20 2 18 3 19 4 17 6 11 7 10 9 1 10 2 11 3 12 4 15 5 16
REMARK SMILES IDX 6 17 9 18 7 19 8 20 16 21 15 22 14 23 13 24 12 25 22 27
REMARK SMILES IDX 23 28 24 29 25 30 26 31 27 33 28 34 29 35 90 36 30 37 89 38
REMARK SMILES IDX 31 39 32 40 33 41 83 42 34 43 88 44 82 45 84 46 35 47 87 48
REMARK SMILES IDX 81 49 80 50 36 52 68 53 48 54 67 55 49 56 52 57 66 58 85 59
REMARK SMILES IDX 50 60 51 61 65 63 86 64 53 65 37 66 38 67 46 68 39 69 40 70
REMARK SMILES IDX 44 71 47 72 41 73 42 74 45 75 43 76 69 77 70 78 78 79 71 80
REMARK SMILES IDX 72 81 76 82 79 83 73 84 74 85 77 86 75 87 54 88 55 89 63 90
REMARK SMILES IDX 56 91 57 92 61 93 64 94 58 95 59 96 62 97 60 98
REMARK H PARENT 20 5 3 13 10 14 25 32 84 51 52 62
REMARK Flexibility Score: 90.00
ROOT
ATOM      1  C   UNL     1       0.840   0.958   5.356  1.00  0.00     0.116 C 
ENDROOT
BRANCH   1   2
ATOM      2  N   UNL     1       0.288   0.012   4.425  1.00  0.00    -0.356 N 
ATOM      3  C   UNL     1       0.886  -0.930   3.655  1.00  0.00     0.225 C 
ATOM      4  O   UNL     1       0.164  -1.883   3.335  1.00  0.00    -0.275 OA
ATOM      5  H   UNL     1      -0.691   0.056   4.329  1.00  0.00     0.163 HD
BRANCH   3   6
ATOM      6  C   UNL     1       2.353  -0.898   3.187  1.00  0.00     0.101 C 
BRANCH   6   7
ATOM      7  C   UNL     1       2.788   0.352   2.395  1.00  0.00     0.096 CG0
ATOM      8  G   UNL     1       4.044   1.110   2.863  1.00  0.00     0.000 G0
BRANCH   7   9
ATOM      9  N   UNL     1       3.148  -0.061   1.022  1.00  0.00    -0.335 N 
ATOM     10  O   UNL     1       1.163   0.304  -0.044  1.00  0.00    -0.249 OA
ATOM     11  C   UNL     1       2.357   0.015  -0.075  1.00  0.00     0.315 C 
ATOM     12  N   UNL     1       2.989  -0.224  -1.255  1.00  0.00    -0.331 N 
ATOM     13  H   UNL     1       2.412  -0.452  -2.019  1.00  0.00     0.165 HD
ATOM     14  H   UNL     1       4.052  -0.428   0.891  1.00  0.00     0.165 HD
BRANCH  12  15
ATOM     15  C   UNL     1       4.415  -0.181  -1.519  1.00  0.00     0.193 C 
BRANCH  15  16
ATOM     16  C   UNL     1       4.916  -1.476  -2.042  1.00  0.00     0.122 A 
ATOM     17  C   UNL     1       5.849  -1.786  -3.012  1.00  0.00     0.047 A 
ATOM     18  O   UNL     1       4.451  -2.623  -1.466  1.00  0.00    -0.467 OA
ATOM     19  C   UNL     1       5.937  -3.198  -3.051  1.00  0.00     0.042 A 
ATOM     20  C   UNL     1       5.061  -3.660  -2.098  1.00  0.00     0.195 A 
ENDBRANCH  15  16
ENDBRANCH  12  15
ENDBRANCH   7   9
ENDBRANCH   6   7
BRANCH   6  21
ATOM     21  C   UNL     1       3.393  -1.523   4.123  1.00  0.00     0.015 C 
BRANCH  21  22
ATOM     22  C   UNL     1       3.768  -0.809   5.411  1.00  0.00     0.001 C 
BRANCH  22  23
ATOM     23  C   UNL     1       4.569   0.488   5.296  1.00  0.00     0.000 C 
BRANCH  23  24
ATOM     24  C   UNL     1       4.143   1.563   4.303  1.00  0.00     0.002 C 
BRANCH  24  25
ATOM     25  C   UNL     1       4.044   1.110   2.863  1.00  0.00     0.026 CG0
ATOM     26  G   UNL     1       2.788   0.352   2.395  1.00  0.00     0.000 G0
ENDBRANCH  24  25
ENDBRANCH  23  24
ENDBRANCH  22  23
ENDBRANCH  21  22
ENDBRANCH   6  21
ENDBRANCH   3   6
ENDBRANCH   1   2
BRANCH   1  27
ATOM     27  C   UNL     1       0.444   2.406   5.094  1.00  0.00     0.023 C 
BRANCH  27  28
ATOM     28  C   UNL     1      -0.350   3.041   6.230  1.00  0.00     0.023 C 
BRANCH  28  29
ATOM     29  C   UNL     1       0.276   2.958   7.618  1.00  0.00     0.116 C 
BRANCH  29  30
ATOM     30  N   UNL     1       1.535   3.672   7.781  1.00  0.00    -0.352 N 
ATOM     31  C   UNL     1       1.930   4.440   8.859  1.00  0.00     0.251 C 
ATOM     32  H   UNL     1       2.177   3.600   7.038  1.00  0.00     0.163 HD
ATOM     33  O   UNL     1       3.014   5.014   8.871  1.00  0.00    -0.269 OA
BRANCH  31  34
ATOM     34  C   UNL     1       0.983   4.610   9.982  1.00  0.00     0.039 A 
ATOM     35  C   UNL     1       0.563   5.897  10.324  1.00  0.00     0.014 A 
ATOM     36  C   UNL     1       0.390   3.489  10.566  1.00  0.00     0.014 A 
ATOM     37  C   UNL     1      -0.537   6.055  11.169  1.00  0.00     0.010 A 
ATOM     38  C   UNL     1      -0.770   3.649  11.315  1.00  0.00     0.010 A 
ATOM     39  C   UNL     1      -1.254   4.933  11.617  1.00  0.00    -0.014 A 
BRANCH  39  40
ATOM     40  C   UNL     1      -2.517   5.074  12.389  1.00  0.00     0.031 A 
ATOM     41  C   UNL     1      -2.623   4.484  13.768  1.00  0.00     0.074 A 
ATOM     42  C   UNL     1      -3.594   5.656  11.825  1.00  0.00     0.049 A 
ATOM     43  N   UNL     1      -3.654   4.436  14.575  1.00  0.00    -0.248 NA
ATOM     44  C   UNL     1      -1.419   3.823  14.294  1.00  0.00     0.031 C 
ATOM     45  C   UNL     1      -3.647   6.212  10.471  1.00  0.00     0.029 A 
ATOM     46  N   UNL     1      -4.857   5.874  12.319  1.00  0.00    -0.354 N 
ATOM     47  C   UNL     1      -3.225   3.725  15.688  1.00  0.00     0.074 A 
ATOM     48  C   UNL     1      -1.872   3.292  15.418  1.00  0.00     0.031 C 
ATOM     49  C   UNL     1      -4.861   6.747  10.261  1.00  0.00     0.029 A 
ATOM     50  C   UNL     1      -5.686   6.536  11.446  1.00  0.00     0.049 A 
ATOM     51  H   UNL     1      -5.142   5.583  13.216  1.00  0.00     0.167 HD
ATOM     52  C   UNL     1      -3.884   3.484  16.847  1.00  0.00     0.037 A 
ATOM     53  C   UNL     1      -6.966   6.933  11.588  1.00  0.00     0.037 A 
ATOM     54  C   UNL     1      -5.221   3.936  17.122  1.00  0.00     0.049 A 
ATOM     55  C   UNL     1      -7.685   6.644  12.879  1.00  0.00     0.074 A 
ATOM     56  C   UNL     1      -5.958   3.801  18.285  1.00  0.00     0.029 A 
ATOM     57  N   UNL     1      -6.027   4.611  16.214  1.00  0.00    -0.354 N 
ATOM     58  N   UNL     1      -7.245   6.041  13.956  1.00  0.00    -0.248 NA
ATOM     59  C   UNL     1      -9.080   7.096  12.973  1.00  0.00     0.031 C 
ATOM     60  C   UNL     1      -7.227   4.348  18.064  1.00  0.00     0.029 A 
ATOM     61  C   UNL     1      -7.262   4.875  16.783  1.00  0.00     0.049 A 
ATOM     62  H   UNL     1      -5.760   4.863  15.301  1.00  0.00     0.167 HD
ATOM     63  C   UNL     1      -8.293   6.069  14.866  1.00  0.00     0.074 A 
ATOM     64  C   UNL     1      -9.389   6.759  14.217  1.00  0.00     0.031 C 
ATOM     65  C   UNL     1      -8.342   5.569  16.126  1.00  0.00     0.037 A 
BRANCH  52  66
ATOM     66  C   UNL     1      -3.153   2.694  17.896  1.00  0.00     0.064 A 
ATOM     67  C   UNL     1      -2.015   3.204  18.543  1.00  0.00     0.173 A 
ATOM     68  C   UNL     1      -3.583   1.407  18.249  1.00  0.00     0.173 A 
ATOM     69  F   UNL     1      -1.553   4.426  18.235  1.00  0.00    -0.203 F 
ATOM     70  C   UNL     1      -1.304   2.434  19.460  1.00  0.00     0.198 A 
ATOM     71  C   UNL     1      -2.892   0.654  19.196  1.00  0.00     0.198 A 
ATOM     72  F   UNL     1      -4.668   0.872  17.670  1.00  0.00    -0.203 F 
ATOM     73  F   UNL     1      -0.176   2.913  20.001  1.00  0.00    -0.200 F 
ATOM     74  C   UNL     1      -1.745   1.162  19.789  1.00  0.00     0.200 A 
ATOM     75  F   UNL     1      -3.327  -0.570  19.524  1.00  0.00    -0.200 F 
ATOM     76  F   UNL     1      -1.057   0.419  20.666  1.00  0.00    -0.200 F 
ENDBRANCH  52  66
BRANCH  53  77
ATOM     77  C   UNL     1      -7.632   7.696  10.499  1.00  0.00     0.064 A 
ATOM     78  C   UNL     1      -7.925   9.058  10.659  1.00  0.00     0.173 A 
ATOM     79  C   UNL     1      -7.978   7.093   9.281  1.00  0.00     0.173 A 
ATOM     80  F   UNL     1      -7.632   9.674  11.814  1.00  0.00    -0.203 F 
ATOM     81  C   UNL     1      -8.549   9.785   9.647  1.00  0.00     0.198 A 
ATOM     82  C   UNL     1      -8.579   7.828   8.260  1.00  0.00     0.198 A 
ATOM     83  F   UNL     1      -7.717   5.794   9.077  1.00  0.00    -0.203 F 
ATOM     84  F   UNL     1      -8.850  11.076   9.841  1.00  0.00    -0.200 F 
ATOM     85  C   UNL     1      -8.869   9.171   8.446  1.00  0.00     0.200 A 
ATOM     86  F   UNL     1      -8.874   7.235   7.096  1.00  0.00    -0.200 F 
ATOM     87  F   UNL     1      -9.460   9.873   7.470  1.00  0.00    -0.200 F 
ENDBRANCH  53  77
BRANCH  65  88
ATOM     88  C   UNL     1      -9.609   5.783  16.904  1.00  0.00     0.064 A 
ATOM     89  C   UNL     1     -10.793   5.100  16.590  1.00  0.00     0.173 A 
ATOM     90  C   UNL     1      -9.625   6.651  18.006  1.00  0.00     0.173 A 
ATOM     91  F   UNL     1     -10.835   4.270  15.536  1.00  0.00    -0.203 F 
ATOM     92  C   UNL     1     -11.953   5.298  17.335  1.00  0.00     0.198 A 
ATOM     93  C   UNL     1     -10.776   6.821  18.769  1.00  0.00     0.198 A 
ATOM     94  F   UNL     1      -8.517   7.323  18.354  1.00  0.00    -0.203 F 
ATOM     95  F   UNL     1     -13.085   4.672  16.987  1.00  0.00    -0.200 F 
ATOM     96  C   UNL     1     -11.941   6.151  18.429  1.00  0.00     0.200 A 
ATOM     97  F   UNL     1     -10.758   7.634  19.835  1.00  0.00    -0.200 F 
ATOM     98  F   UNL     1     -13.055   6.332  19.151  1.00  0.00    -0.200 F 
ENDBRANCH  65  88
ENDBRANCH  39  40
ENDBRANCH  31  34
ENDBRANCH  29  30
ENDBRANCH  28  29
ENDBRANCH  27  28
ENDBRANCH   1  27
TORSDOF 14
