REMARK SMILES C/C(=C(\C#N)C(=O)NCCCCNC(=O)c1ccc(-c2c3nc(c(-c4c(F)c(F)c(F)c(F)c4F)c4ccc([nH]4)c(-c4c(F)c(F)c(F)c(F)c4F)c4nc(c(-c5c(F)c(F)c(F)c(F)c5F)c5ccc2[nH]5)C=C4)C=C3)cc1)c1cccc2ccccc12
REMARK SMILES IDX 11 1 10 2 9 3 8 4 6 5 7 6 3 8 1 9 2 10 79 11 80 12 88 13
REMARK SMILES IDX 81 14 83 15 87 16 82 17 84 18 86 19 85 20 4 21 5 22 12 23
REMARK SMILES IDX 13 24 14 25 15 27 16 28 17 29 78 30 18 31 77 32 19 33 20 34
REMARK SMILES IDX 21 35 71 36 22 37 76 38 70 39 72 40 23 41 75 42 69 43 68 44
REMARK SMILES IDX 24 46 56 47 36 48 55 49 37 50 40 51 54 52 73 53 38 54 39 55
REMARK SMILES IDX 53 57 74 58 41 59 25 60 26 61 34 62 27 63 28 64 32 65 35 66
REMARK SMILES IDX 29 67 30 68 33 69 31 70 57 71 58 72 66 73 59 74 60 75 64 76
REMARK SMILES IDX 67 77 61 78 62 79 65 80 63 81 42 82 43 83 51 84 44 85 45 86
REMARK SMILES IDX 49 87 52 88 46 89 47 90 50 91 48 92
REMARK H PARENT 8 7 13 26 72 45 40 56
REMARK Flexibility Score: inf
ROOT
ATOM      1  C   UNL     1      -4.295   5.189  -0.824  1.00  0.00     0.023 C 
ENDROOT
BRANCH   1   2
ATOM      2  C   UNL     1      -3.579   3.937  -1.332  1.00  0.00     0.023 C 
BRANCH   2   3
ATOM      3  C   UNL     1      -2.058   4.038  -1.395  1.00  0.00     0.116 C 
BRANCH   3   4
ATOM      4  N   UNL     1      -1.428   4.086  -0.085  1.00  0.00    -0.351 N 
ATOM      5  C   UNL     1      -0.472   3.357   0.561  1.00  0.00     0.262 C 
ATOM      6  O   UNL     1       0.022   3.946   1.526  1.00  0.00    -0.268 OA
ATOM      7  H   UNL     1      -1.774   4.822   0.470  1.00  0.00     0.163 HD
BRANCH   5   8
ATOM      8  C   UNL     1      -0.022   1.961   0.164  1.00  0.00     0.120 C 
ATOM      9  C   UNL     1       1.141  -0.248   0.511  1.00  0.00     0.046 C 
ATOM     10  C   UNL     1       0.628   1.090   1.005  1.00  0.00    -0.020 C 
BRANCH  10  11
ATOM     11  C   UNL     1       0.880   1.371   2.464  1.00  0.00    -0.013 A 
ATOM     12  C   UNL     1      -0.243   1.752   3.222  1.00  0.00     0.009 A 
ATOM     13  C   UNL     1       2.160   1.365   3.118  1.00  0.00    -0.011 A 
ATOM     14  C   UNL     1      -0.097   2.400   4.443  1.00  0.00     0.001 A 
ATOM     15  C   UNL     1       2.300   2.157   4.287  1.00  0.00    -0.018 A 
ATOM     16  C   UNL     1       3.303   0.594   2.769  1.00  0.00     0.009 A 
ATOM     17  C   UNL     1       1.175   2.698   4.911  1.00  0.00     0.009 A 
ATOM     18  C   UNL     1       3.552   2.349   4.889  1.00  0.00     0.009 A 
ATOM     19  C   UNL     1       4.481   0.615   3.529  1.00  0.00     0.001 A 
ATOM     20  C   UNL     1       4.626   1.537   4.552  1.00  0.00     0.001 A 
ENDBRANCH  10  11
BRANCH   8  21
ATOM     21  C   UNL     1      -0.253   1.544  -1.181  1.00  0.00     0.105 C 
ATOM     22  N   UNL     1      -0.438   1.154  -2.257  1.00  0.00    -0.192 NA
ENDBRANCH   8  21
ENDBRANCH   5   8
ENDBRANCH   3   4
ENDBRANCH   2   3
ENDBRANCH   1   2
BRANCH   1  23
ATOM     23  C   UNL     1      -3.946   6.487  -1.547  1.00  0.00     0.116 C 
BRANCH  23  24
ATOM     24  N   UNL     1      -4.201   6.437  -2.980  1.00  0.00    -0.352 N 
ATOM     25  C   UNL     1      -4.865   7.344  -3.774  1.00  0.00     0.251 C 
ATOM     26  H   UNL     1      -3.850   5.644  -3.446  1.00  0.00     0.163 HD
ATOM     27  O   UNL     1      -5.107   7.085  -4.948  1.00  0.00    -0.269 OA
BRANCH  25  28
ATOM     28  C   UNL     1      -5.318   8.623  -3.190  1.00  0.00     0.039 A 
ATOM     29  C   UNL     1      -6.633   9.039  -3.408  1.00  0.00     0.014 A 
ATOM     30  C   UNL     1      -4.459   9.384  -2.394  1.00  0.00     0.014 A 
ATOM     31  C   UNL     1      -7.111  10.179  -2.759  1.00  0.00     0.010 A 
ATOM     32  C   UNL     1      -4.961  10.465  -1.680  1.00  0.00     0.010 A 
ATOM     33  C   UNL     1      -6.294  10.873  -1.851  1.00  0.00    -0.014 A 
BRANCH  33  34
ATOM     34  C   UNL     1      -6.813  12.021  -1.064  1.00  0.00     0.031 A 
ATOM     35  C   UNL     1      -6.198  13.383  -1.222  1.00  0.00     0.074 A 
ATOM     36  C   UNL     1      -7.788  11.822  -0.155  1.00  0.00     0.049 A 
ATOM     37  N   UNL     1      -6.450  14.488  -0.567  1.00  0.00    -0.248 NA
ATOM     38  C   UNL     1      -5.138  13.515  -2.235  1.00  0.00     0.031 C 
ATOM     39  C   UNL     1      -8.440  10.541   0.119  1.00  0.00     0.029 A 
ATOM     40  N   UNL     1      -8.394  12.694   0.716  1.00  0.00    -0.354 N 
ATOM     41  C   UNL     1      -5.577  15.438  -1.079  1.00  0.00     0.074 A 
ATOM     42  C   UNL     1      -4.745  14.767  -2.054  1.00  0.00     0.031 C 
ATOM     43  C   UNL     1      -9.370  10.714   1.071  1.00  0.00     0.029 A 
ATOM     44  C   UNL     1      -9.343  12.104   1.516  1.00  0.00     0.049 A 
ATOM     45  H   UNL     1      -8.170  13.652   0.763  1.00  0.00     0.167 HD
ATOM     46  C   UNL     1      -5.493  16.756  -0.779  1.00  0.00     0.037 A 
ATOM     47  C   UNL     1     -10.093  12.621   2.509  1.00  0.00     0.037 A 
ATOM     48  C   UNL     1      -6.329  17.418   0.187  1.00  0.00     0.049 A 
ATOM     49  C   UNL     1      -9.946  14.079   2.856  1.00  0.00     0.074 A 
ATOM     50  C   UNL     1      -6.356  18.759   0.527  1.00  0.00     0.029 A 
ATOM     51  N   UNL     1      -7.276  16.786   0.980  1.00  0.00    -0.354 N 
ATOM     52  N   UNL     1      -9.166  14.984   2.317  1.00  0.00    -0.248 NA
ATOM     53  C   UNL     1     -10.786  14.589   3.949  1.00  0.00     0.031 C 
ATOM     54  C   UNL     1      -7.263  18.926   1.576  1.00  0.00     0.029 A 
ATOM     55  C   UNL     1      -7.865  17.705   1.834  1.00  0.00     0.049 A 
ATOM     56  H   UNL     1      -7.497  15.828   0.941  1.00  0.00     0.167 HD
ATOM     57  C   UNL     1      -9.447  16.174   2.977  1.00  0.00     0.074 A 
ATOM     58  C   UNL     1     -10.477  15.878   3.949  1.00  0.00     0.031 C 
ATOM     59  C   UNL     1      -8.901  17.401   2.790  1.00  0.00     0.037 A 
BRANCH  46  60
ATOM     60  C   UNL     1      -4.451  17.569  -1.495  1.00  0.00     0.064 A 
ATOM     61  C   UNL     1      -4.527  17.824  -2.873  1.00  0.00     0.173 A 
ATOM     62  C   UNL     1      -3.381  18.136  -0.785  1.00  0.00     0.173 A 
ATOM     63  F   UNL     1      -5.524  17.301  -3.603  1.00  0.00    -0.203 F 
ATOM     64  C   UNL     1      -3.553  18.582  -3.518  1.00  0.00     0.198 A 
ATOM     65  C   UNL     1      -2.431  18.927  -1.426  1.00  0.00     0.198 A 
ATOM     66  F   UNL     1      -3.262  17.933   0.536  1.00  0.00    -0.203 F 
ATOM     67  F   UNL     1      -3.616  18.761  -4.845  1.00  0.00    -0.200 F 
ATOM     68  C   UNL     1      -2.512  19.140  -2.793  1.00  0.00     0.200 A 
ATOM     69  F   UNL     1      -1.437  19.481  -0.719  1.00  0.00    -0.200 F 
ATOM     70  F   UNL     1      -1.581  19.878  -3.413  1.00  0.00    -0.200 F 
ENDBRANCH  46  60
BRANCH  47  71
ATOM     71  C   UNL     1     -11.054  11.755   3.246  1.00  0.00     0.064 A 
ATOM     72  C   UNL     1     -12.437  11.970   3.156  1.00  0.00     0.173 A 
ATOM     73  C   UNL     1     -10.611  10.708   4.069  1.00  0.00     0.173 A 
ATOM     74  F   UNL     1     -12.911  12.970   2.399  1.00  0.00    -0.203 F 
ATOM     75  C   UNL     1     -13.336  11.190   3.881  1.00  0.00     0.198 A 
ATOM     76  C   UNL     1     -11.513   9.906   4.764  1.00  0.00     0.198 A 
ATOM     77  F   UNL     1      -9.300  10.455   4.188  1.00  0.00    -0.203 F 
ATOM     78  F   UNL     1     -14.648  11.456   3.822  1.00  0.00    -0.200 F 
ATOM     79  C   UNL     1     -12.874  10.155   4.680  1.00  0.00     0.200 A 
ATOM     80  F   UNL     1     -11.063   8.894   5.519  1.00  0.00    -0.200 F 
ATOM     81  F   UNL     1     -13.740   9.404   5.374  1.00  0.00    -0.200 F 
ENDBRANCH  47  71
BRANCH  59  82
ATOM     82  C   UNL     1      -9.438  18.537   3.615  1.00  0.00     0.064 A 
ATOM     83  C   UNL     1      -9.203  18.631   4.995  1.00  0.00     0.173 A 
ATOM     84  C   UNL     1     -10.146  19.581   2.999  1.00  0.00     0.173 A 
ATOM     85  F   UNL     1      -8.543  17.654   5.636  1.00  0.00    -0.203 F 
ATOM     86  C   UNL     1      -9.675  19.716   5.729  1.00  0.00     0.198 A 
ATOM     87  C   UNL     1     -10.584  20.682   3.729  1.00  0.00     0.198 A 
ATOM     88  F   UNL     1     -10.393  19.546   1.681  1.00  0.00    -0.203 F 
ATOM     89  F   UNL     1      -9.480  19.761   7.054  1.00  0.00    -0.200 F 
ATOM     90  C   UNL     1     -10.355  20.745   5.095  1.00  0.00     0.200 A 
ATOM     91  F   UNL     1     -11.220  21.685   3.109  1.00  0.00    -0.200 F 
ATOM     92  F   UNL     1     -10.792  21.797   5.801  1.00  0.00    -0.200 F 
ENDBRANCH  59  82
ENDBRANCH  33  34
ENDBRANCH  25  28
ENDBRANCH  23  24
ENDBRANCH   1  23
TORSDOF 13
