REMARK SMILES Cc1ccc(-c2nn(CCC(=O)NCCCCNC(=O)c3ccc(-c4c5nc(c(-c6c(F)c(F)c(F)c(F)c6F)c6ccc([nH]6)c(-c6c(F)c(F)c(F)c(F)c6F)c6nc(c(-c7c(F)c(F)c(F)c(F)c7F)c7ccc4[nH]7)C=C6)C=C5)cc3)c(=O)c3noc(C)c23)cc1C
REMARK SMILES IDX 15 1 14 2 13 3 11 4 12 5 10 7 9 8 8 9 6 10 7 11 91 12 86 13
REMARK SMILES IDX 89 14 84 15 87 16 88 17 90 18 85 19 5 20 1 21 2 22 3 23
REMARK SMILES IDX 93 24 4 25 92 26 94 27 16 28 17 29 18 30 19 31 20 33 21 34
REMARK SMILES IDX 22 35 83 36 23 37 82 38 24 39 25 40 26 41 76 42 27 43 81 44
REMARK SMILES IDX 75 45 77 46 28 47 80 48 74 49 73 50 29 52 61 53 41 54 60 55
REMARK SMILES IDX 42 56 45 57 59 58 78 59 43 60 44 61 58 63 79 64 46 65 30 66
REMARK SMILES IDX 31 67 39 68 32 69 33 70 37 71 40 72 34 73 35 74 38 75 36 76
REMARK SMILES IDX 62 77 63 78 71 79 64 80 65 81 69 82 72 83 66 84 67 85 70 86
REMARK SMILES IDX 68 87 47 88 48 89 56 90 49 91 50 92 54 93 57 94 51 95 52 96
REMARK SMILES IDX 55 97 53 98
REMARK H PARENT 13 6 18 32 77 51 45 62
REMARK Flexibility Score: inf
ROOT
ATOM      1  C   UNL     1      -5.431  -4.602   0.916  1.00  0.00     0.023 C 
ENDROOT
BRANCH   1   2
ATOM      2  C   UNL     1      -5.224  -5.091  -0.514  1.00  0.00     0.116 C 
BRANCH   2   3
ATOM      3  N   UNL     1      -6.453  -4.963  -1.275  1.00  0.00    -0.356 N 
ATOM      4  C   UNL     1      -6.816  -4.038  -2.206  1.00  0.00     0.221 C 
ATOM      5  O   UNL     1      -7.982  -4.041  -2.606  1.00  0.00    -0.275 OA
ATOM      6  H   UNL     1      -7.130  -5.653  -1.088  1.00  0.00     0.163 HD
BRANCH   4   7
ATOM      7  C   UNL     1      -5.809  -3.062  -2.778  1.00  0.00     0.124 C 
BRANCH   7   8
ATOM      8  C   UNL     1      -5.918  -1.666  -2.173  1.00  0.00     0.158 C 
BRANCH   8   9
ATOM      9  N   UNL     1      -5.097  -1.480  -0.974  1.00  0.00    -0.227 N 
ATOM     10  C   UNL     1      -2.912  -1.094  -0.178  1.00  0.00     0.104 A 
ATOM     11  N   UNL     1      -3.721  -1.227  -1.194  1.00  0.00    -0.169 NA
ATOM     12  C   UNL     1      -3.401  -1.321   1.149  1.00  0.00     0.078 A 
ATOM     13  C   UNL     1      -4.779  -1.385   1.387  1.00  0.00     0.183 A 
ATOM     14  C   UNL     1      -2.820  -1.558   2.370  1.00  0.00     0.143 A 
ATOM     15  C   UNL     1      -5.734  -1.396   0.292  1.00  0.00     0.296 A 
ATOM     16  N   UNL     1      -5.053  -1.570   2.684  1.00  0.00    -0.074 NA
ATOM     17  O   UNL     1      -3.812  -1.686   3.301  1.00  0.00    -0.360 OA
ATOM     18  C   UNL     1      -1.443  -1.754   2.865  1.00  0.00     0.091 C 
ATOM     19  O   UNL     1      -6.946  -1.415   0.452  1.00  0.00    -0.265 OA
BRANCH  10  20
ATOM     20  C   UNL     1      -1.575  -0.499  -0.325  1.00  0.00     0.003 A 
ATOM     21  C   UNL     1       2.183   1.573   0.007  1.00  0.00     0.044 C 
ATOM     22  C   UNL     1       0.892   0.813  -0.148  1.00  0.00    -0.048 A 
ATOM     23  C   UNL     1      -0.303   1.546  -0.212  1.00  0.00     0.004 A 
ATOM     24  C   UNL     1       0.847  -0.599  -0.209  1.00  0.00    -0.048 A 
ATOM     25  C   UNL     1      -1.529   0.897  -0.298  1.00  0.00     0.011 A 
ATOM     26  C   UNL     1      -0.400  -1.250  -0.307  1.00  0.00     0.014 A 
ATOM     27  C   UNL     1       2.084  -1.451  -0.101  1.00  0.00     0.044 C 
ENDBRANCH  10  20
ENDBRANCH   8   9
ENDBRANCH   7   8
ENDBRANCH   4   7
ENDBRANCH   2   3
ENDBRANCH   1   2
BRANCH   1  28
ATOM     28  C   UNL     1      -5.575  -5.670   2.002  1.00  0.00     0.023 C 
BRANCH  28  29
ATOM     29  C   UNL     1      -4.306  -6.469   2.312  1.00  0.00     0.116 C 
BRANCH  29  30
ATOM     30  N   UNL     1      -3.168  -5.617   2.624  1.00  0.00    -0.352 N 
ATOM     31  C   UNL     1      -2.216  -5.683   3.603  1.00  0.00     0.251 C 
ATOM     32  H   UNL     1      -3.064  -4.849   2.016  1.00  0.00     0.163 HD
ATOM     33  O   UNL     1      -1.407  -4.763   3.708  1.00  0.00    -0.269 OA
BRANCH  31  34
ATOM     34  C   UNL     1      -2.126  -6.817   4.540  1.00  0.00     0.039 A 
ATOM     35  C   UNL     1      -1.833  -6.525   5.878  1.00  0.00     0.014 A 
ATOM     36  C   UNL     1      -2.212  -8.144   4.112  1.00  0.00     0.014 A 
ATOM     37  C   UNL     1      -1.681  -7.556   6.798  1.00  0.00     0.010 A 
ATOM     38  C   UNL     1      -2.068  -9.178   5.038  1.00  0.00     0.010 A 
ATOM     39  C   UNL     1      -1.825  -8.887   6.387  1.00  0.00    -0.014 A 
BRANCH  39  40
ATOM     40  C   UNL     1      -1.864  -9.914   7.441  1.00  0.00     0.031 A 
ATOM     41  C   UNL     1      -3.058 -10.819   7.367  1.00  0.00     0.074 A 
ATOM     42  C   UNL     1      -0.734 -10.399   7.996  1.00  0.00     0.049 A 
ATOM     43  N   UNL     1      -3.134 -11.841   6.563  1.00  0.00    -0.248 NA
ATOM     44  C   UNL     1      -4.338 -10.459   7.979  1.00  0.00     0.031 C 
ATOM     45  C   UNL     1       0.515 -10.635   7.265  1.00  0.00     0.029 A 
ATOM     46  N   UNL     1      -0.518 -10.964   9.232  1.00  0.00    -0.354 N 
ATOM     47  C   UNL     1      -4.459 -12.238   6.521  1.00  0.00     0.074 A 
ATOM     48  C   UNL     1      -5.168 -11.356   7.422  1.00  0.00     0.031 C 
ATOM     49  C   UNL     1       1.291 -11.460   7.998  1.00  0.00     0.029 A 
ATOM     50  C   UNL     1       0.658 -11.705   9.293  1.00  0.00     0.049 A 
ATOM     51  H   UNL     1      -1.132 -10.856   9.995  1.00  0.00     0.167 HD
ATOM     52  C   UNL     1      -4.898 -13.266   5.747  1.00  0.00     0.037 A 
ATOM     53  C   UNL     1       0.811 -12.835  10.039  1.00  0.00     0.037 A 
ATOM     54  C   UNL     1      -3.891 -13.945   4.989  1.00  0.00     0.049 A 
ATOM     55  C   UNL     1       0.049 -13.826   9.186  1.00  0.00     0.074 A 
ATOM     56  C   UNL     1      -3.396 -13.931   3.704  1.00  0.00     0.029 A 
ATOM     57  N   UNL     1      -3.120 -14.875   5.646  1.00  0.00    -0.354 N 
ATOM     58  N   UNL     1       0.470 -14.381   8.078  1.00  0.00    -0.248 NA
ATOM     59  C   UNL     1      -1.399 -13.910   9.395  1.00  0.00     0.031 C 
ATOM     60  C   UNL     1      -2.078 -14.483   3.801  1.00  0.00     0.029 A 
ATOM     61  C   UNL     1      -1.849 -14.759   5.149  1.00  0.00     0.049 A 
ATOM     62  H   UNL     1      -3.424 -15.503   6.342  1.00  0.00     0.167 HD
ATOM     63  C   UNL     1      -0.684 -14.634   7.330  1.00  0.00     0.074 A 
ATOM     64  C   UNL     1      -1.797 -14.351   8.210  1.00  0.00     0.031 C 
ATOM     65  C   UNL     1      -0.677 -14.869   5.985  1.00  0.00     0.037 A 
BRANCH  52  66
ATOM     66  C   UNL     1      -6.256 -13.841   5.784  1.00  0.00     0.064 A 
ATOM     67  C   UNL     1      -6.432 -15.041   6.490  1.00  0.00     0.173 A 
ATOM     68  C   UNL     1      -7.294 -13.399   4.961  1.00  0.00     0.173 A 
ATOM     69  F   UNL     1      -5.447 -15.503   7.280  1.00  0.00    -0.203 F 
ATOM     70  C   UNL     1      -7.583 -15.802   6.340  1.00  0.00     0.198 A 
ATOM     71  C   UNL     1      -8.457 -14.159   4.822  1.00  0.00     0.198 A 
ATOM     72  F   UNL     1      -7.164 -12.267   4.253  1.00  0.00    -0.203 F 
ATOM     73  F   UNL     1      -7.693 -16.975   6.978  1.00  0.00    -0.200 F 
ATOM     74  C   UNL     1      -8.592 -15.367   5.497  1.00  0.00     0.200 A 
ATOM     75  F   UNL     1      -9.435 -13.744   4.004  1.00  0.00    -0.200 F 
ATOM     76  F   UNL     1      -9.686 -16.120   5.320  1.00  0.00    -0.200 F 
ENDBRANCH  52  66
BRANCH  53  77
ATOM     77  C   UNL     1       0.593 -12.665  11.514  1.00  0.00     0.064 A 
ATOM     78  C   UNL     1       1.234 -11.588  12.164  1.00  0.00     0.173 A 
ATOM     79  C   UNL     1      -0.219 -13.472  12.324  1.00  0.00     0.173 A 
ATOM     80  F   UNL     1       2.136 -10.843  11.505  1.00  0.00    -0.203 F 
ATOM     81  C   UNL     1       0.946 -11.240  13.483  1.00  0.00     0.198 A 
ATOM     82  C   UNL     1      -0.529 -13.110  13.639  1.00  0.00     0.198 A 
ATOM     83  F   UNL     1      -0.749 -14.610  11.859  1.00  0.00    -0.203 F 
ATOM     84  F   UNL     1       1.530 -10.168  14.035  1.00  0.00    -0.200 F 
ATOM     85  C   UNL     1       0.031 -11.979  14.208  1.00  0.00     0.200 A 
ATOM     86  F   UNL     1      -1.404 -13.844  14.341  1.00  0.00    -0.200 F 
ATOM     87  F   UNL     1      -0.310 -11.605  15.448  1.00  0.00    -0.200 F 
ENDBRANCH  53  77
BRANCH  65  88
ATOM     88  C   UNL     1       0.666 -15.000   5.358  1.00  0.00     0.064 A 
ATOM     89  C   UNL     1       1.452 -16.131   5.604  1.00  0.00     0.173 A 
ATOM     90  C   UNL     1       1.158 -14.032   4.469  1.00  0.00     0.173 A 
ATOM     91  F   UNL     1       1.019 -17.090   6.438  1.00  0.00    -0.203 F 
ATOM     92  C   UNL     1       2.676 -16.301   4.964  1.00  0.00     0.198 A 
ATOM     93  C   UNL     1       2.368 -14.220   3.808  1.00  0.00     0.198 A 
ATOM     94  F   UNL     1       0.460 -12.915   4.212  1.00  0.00    -0.203 F 
ATOM     95  F   UNL     1       3.410 -17.395   5.206  1.00  0.00    -0.200 F 
ATOM     96  C   UNL     1       3.124 -15.354   4.055  1.00  0.00     0.200 A 
ATOM     97  F   UNL     1       2.789 -13.314   2.914  1.00  0.00    -0.200 F 
ATOM     98  F   UNL     1       4.281 -15.542   3.405  1.00  0.00    -0.200 F 
ENDBRANCH  65  88
ENDBRANCH  39  40
ENDBRANCH  31  34
ENDBRANCH  29  30
ENDBRANCH  28  29
ENDBRANCH   1  28
TORSDOF 14
