REMARK SMILES COc1cc(OC)cc(-c2ccc(C(=O)NCCCCNC(=O)c3ccc(-c4c5nc(c(-c6c(F)c(F)c(F)c(F)c6F)c6ccc([nH]6)c(-c6c(F)c(F)c(F)c(F)c6F)c6nc(c(-c7c(F)c(F)c(F)c(F)c7F)c7ccc4[nH]7)C=C6)C=C5)cc3)o2)c1
REMARK SMILES IDX 18 1 17 2 16 3 14 4 15 5 13 7 10 8 11 9 87 10 12 11 9 12
REMARK SMILES IDX 3 13 4 14 88 15 5 16 8 17 2 18 1 19 6 20 7 21 19 22 20 23
REMARK SMILES IDX 21 24 22 25 23 27 24 28 25 29 86 30 26 31 85 32 27 33 28 34
REMARK SMILES IDX 29 35 79 36 30 37 84 38 78 39 80 40 31 41 83 42 77 43 76 44
REMARK SMILES IDX 32 46 64 47 44 48 63 49 45 50 48 51 62 52 81 53 46 54 47 55
REMARK SMILES IDX 61 57 82 58 49 59 33 60 34 61 42 62 35 63 36 64 40 65 43 66
REMARK SMILES IDX 37 67 38 68 41 69 39 70 65 71 66 72 74 73 67 74 68 75 72 76
REMARK SMILES IDX 75 77 69 78 70 79 73 80 71 81 50 82 51 83 59 84 52 85 53 86
REMARK SMILES IDX 57 87 60 88 54 89 55 90 58 91 56 92
REMARK H PARENT 16 6 21 26 80 45 48 56
REMARK Flexibility Score: inf
ROOT
ATOM      1  C   UNL     1       9.423   2.117   5.612  1.00  0.00     0.023 C 
ENDROOT
BRANCH   1   2
ATOM      2  C   UNL     1       8.873   0.828   5.000  1.00  0.00     0.116 C 
BRANCH   2   3
ATOM      3  N   UNL     1       7.948   0.178   5.902  1.00  0.00    -0.349 N 
ATOM      4  C   UNL     1       6.570   0.198   5.951  1.00  0.00     0.287 C 
ATOM      5  O   UNL     1       6.059  -0.514   6.817  1.00  0.00    -0.266 OA
ATOM      6  H   UNL     1       8.373  -0.373   6.598  1.00  0.00     0.163 HD
BRANCH   4   7
ATOM      7  C   UNL     1       5.794   1.001   5.020  1.00  0.00     0.192 A 
ATOM      8  C   UNL     1       3.922   1.538   3.977  1.00  0.00     0.135 A 
ATOM      9  C   UNL     1       4.891   2.366   3.466  1.00  0.00     0.052 A 
ATOM     10  O   UNL     1       4.448   0.713   4.918  1.00  0.00    -0.451 OA
ATOM     11  C   UNL     1       6.073   2.064   4.176  1.00  0.00     0.057 A 
BRANCH   8  12
ATOM     12  C   UNL     1       2.497   1.463   3.733  1.00  0.00     0.025 A 
ATOM     13  C   UNL     1       0.673   1.234   2.158  1.00  0.00     0.123 A 
ATOM     14  C   UNL     1      -0.191   1.782   3.109  1.00  0.00     0.092 A 
ATOM     15  C   UNL     1       2.023   1.082   2.471  1.00  0.00     0.058 A 
ATOM     16  C   UNL     1       0.269   2.149   4.377  1.00  0.00     0.123 A 
ATOM     17  C   UNL     1       1.611   1.958   4.697  1.00  0.00     0.058 A 
BRANCH  13  18
ATOM     18  O   UNL     1       0.104   0.960   0.944  1.00  0.00    -0.497 OA
ATOM     19  C   UNL     1       0.810   0.057   0.101  1.00  0.00     0.278 C 
ENDBRANCH  13  18
BRANCH  16  20
ATOM     20  O   UNL     1      -0.672   2.708   5.198  1.00  0.00    -0.497 OA
ATOM     21  C   UNL     1      -0.183   3.371   6.360  1.00  0.00     0.278 C 
ENDBRANCH  16  20
ENDBRANCH   8  12
ENDBRANCH   4   7
ENDBRANCH   2   3
ENDBRANCH   1   2
BRANCH   1  22
ATOM     22  C   UNL     1      10.583   1.891   6.587  1.00  0.00     0.023 C 
BRANCH  22  23
ATOM     23  C   UNL     1      11.806   1.204   5.986  1.00  0.00     0.116 C 
BRANCH  23  24
ATOM     24  N   UNL     1      12.334   1.886   4.815  1.00  0.00    -0.352 N 
ATOM     25  C   UNL     1      13.639   2.008   4.405  1.00  0.00     0.251 C 
ATOM     26  H   UNL     1      11.665   2.321   4.238  1.00  0.00     0.163 HD
ATOM     27  O   UNL     1      13.923   2.721   3.449  1.00  0.00    -0.269 OA
BRANCH  25  28
ATOM     28  C   UNL     1      14.705   1.307   5.150  1.00  0.00     0.039 A 
ATOM     29  C   UNL     1      15.850   2.021   5.506  1.00  0.00     0.014 A 
ATOM     30  C   UNL     1      14.566  -0.035   5.515  1.00  0.00     0.014 A 
ATOM     31  C   UNL     1      16.828   1.406   6.288  1.00  0.00     0.010 A 
ATOM     32  C   UNL     1      15.506  -0.623   6.358  1.00  0.00     0.010 A 
ATOM     33  C   UNL     1      16.646   0.092   6.754  1.00  0.00    -0.014 A 
BRANCH  33  34
ATOM     34  C   UNL     1      17.638  -0.532   7.666  1.00  0.00     0.031 A 
ATOM     35  C   UNL     1      18.418  -1.741   7.231  1.00  0.00     0.074 A 
ATOM     36  C   UNL     1      17.810  -0.023   8.902  1.00  0.00     0.049 A 
ATOM     37  N   UNL     1      19.312  -2.430   7.894  1.00  0.00    -0.248 NA
ATOM     38  C   UNL     1      18.143  -2.261   5.882  1.00  0.00     0.031 C 
ATOM     39  C   UNL     1      17.071   1.112   9.460  1.00  0.00     0.029 A 
ATOM     40  N   UNL     1      18.658  -0.394   9.915  1.00  0.00    -0.354 N 
ATOM     41  C   UNL     1      19.711  -3.452   7.043  1.00  0.00     0.074 A 
ATOM     42  C   UNL     1      18.911  -3.339   5.843  1.00  0.00     0.031 C 
ATOM     43  C   UNL     1      17.517   1.361  10.701  1.00  0.00     0.029 A 
ATOM     44  C   UNL     1      18.545   0.383  11.043  1.00  0.00     0.049 A 
ATOM     45  H   UNL     1      19.289  -1.147   9.841  1.00  0.00     0.167 HD
ATOM     46  C   UNL     1      20.681  -4.378   7.230  1.00  0.00     0.037 A 
ATOM     47  C   UNL     1      19.194   0.311  12.220  1.00  0.00     0.037 A 
ATOM     48  C   UNL     1      21.480  -4.485   8.423  1.00  0.00     0.049 A 
ATOM     49  C   UNL     1      20.252  -0.745  12.406  1.00  0.00     0.074 A 
ATOM     50  C   UNL     1      22.502  -5.376   8.700  1.00  0.00     0.029 A 
ATOM     51  N   UNL     1      21.348  -3.670   9.537  1.00  0.00    -0.354 N 
ATOM     52  N   UNL     1      20.666  -1.662  11.565  1.00  0.00    -0.248 NA
ATOM     53  C   UNL     1      20.943  -0.767  13.703  1.00  0.00     0.031 C 
ATOM     54  C   UNL     1      22.960  -5.128   9.998  1.00  0.00     0.029 A 
ATOM     55  C   UNL     1      22.261  -4.046  10.509  1.00  0.00     0.049 A 
ATOM     56  H   UNL     1      20.701  -2.933   9.625  1.00  0.00     0.167 HD
ATOM     57  C   UNL     1      21.683  -2.347  12.218  1.00  0.00     0.074 A 
ATOM     58  C   UNL     1      21.842  -1.721  13.513  1.00  0.00     0.031 C 
ATOM     59  C   UNL     1      22.415  -3.403  11.788  1.00  0.00     0.037 A 
BRANCH  46  60
ATOM     60  C   UNL     1      20.953  -5.339   6.109  1.00  0.00     0.064 A 
ATOM     61  C   UNL     1      21.559  -4.912   4.916  1.00  0.00     0.173 A 
ATOM     62  C   UNL     1      20.670  -6.705   6.248  1.00  0.00     0.173 A 
ATOM     63  F   UNL     1      21.839  -3.614   4.728  1.00  0.00    -0.203 F 
ATOM     64  C   UNL     1      21.855  -5.815   3.899  1.00  0.00     0.198 A 
ATOM     65  C   UNL     1      20.995  -7.611   5.240  1.00  0.00     0.198 A 
ATOM     66  F   UNL     1      20.096  -7.167   7.369  1.00  0.00    -0.203 F 
ATOM     67  F   UNL     1      22.398  -5.378   2.755  1.00  0.00    -0.200 F 
ATOM     68  C   UNL     1      21.582  -7.165   4.066  1.00  0.00     0.200 A 
ATOM     69  F   UNL     1      20.745  -8.916   5.408  1.00  0.00    -0.200 F 
ATOM     70  F   UNL     1      21.884  -8.035   3.093  1.00  0.00    -0.200 F 
ENDBRANCH  46  60
BRANCH  47  71
ATOM     71  C   UNL     1      18.876   1.265  13.317  1.00  0.00     0.064 A 
ATOM     72  C   UNL     1      19.823   2.197  13.766  1.00  0.00     0.173 A 
ATOM     73  C   UNL     1      17.637   1.231  13.974  1.00  0.00     0.173 A 
ATOM     74  F   UNL     1      21.030   2.258  13.183  1.00  0.00    -0.203 F 
ATOM     75  C   UNL     1      19.560   3.026  14.854  1.00  0.00     0.198 A 
ATOM     76  C   UNL     1      17.361   2.086  15.039  1.00  0.00     0.198 A 
ATOM     77  F   UNL     1      16.691   0.365  13.581  1.00  0.00    -0.203 F 
ATOM     78  F   UNL     1      20.511   3.855  15.307  1.00  0.00    -0.200 F 
ATOM     79  C   UNL     1      18.328   2.972  15.488  1.00  0.00     0.200 A 
ATOM     80  F   UNL     1      16.163   2.042  15.637  1.00  0.00    -0.200 F 
ATOM     81  F   UNL     1      18.078   3.763  16.540  1.00  0.00    -0.200 F 
ENDBRANCH  47  71
BRANCH  59  82
ATOM     82  C   UNL     1      23.482  -3.919  12.712  1.00  0.00     0.064 A 
ATOM     83  C   UNL     1      23.166  -4.586  13.905  1.00  0.00     0.173 A 
ATOM     84  C   UNL     1      24.838  -3.759  12.389  1.00  0.00     0.173 A 
ATOM     85  F   UNL     1      21.884  -4.753  14.267  1.00  0.00    -0.203 F 
ATOM     86  C   UNL     1      24.168  -5.038  14.759  1.00  0.00     0.198 A 
ATOM     87  C   UNL     1      25.837  -4.244  13.228  1.00  0.00     0.198 A 
ATOM     88  F   UNL     1      25.195  -3.137  11.255  1.00  0.00    -0.203 F 
ATOM     89  F   UNL     1      23.842  -5.615  15.924  1.00  0.00    -0.200 F 
ATOM     90  C   UNL     1      25.501  -4.872  14.418  1.00  0.00     0.200 A 
ATOM     91  F   UNL     1      27.125  -4.098  12.888  1.00  0.00    -0.200 F 
ATOM     92  F   UNL     1      26.464  -5.310  15.240  1.00  0.00    -0.200 F 
ENDBRANCH  59  82
ENDBRANCH  33  34
ENDBRANCH  25  28
ENDBRANCH  23  24
ENDBRANCH  22  23
ENDBRANCH   1  22
TORSDOF 14
