REMARK SMILES CC(C)[C@@H](NC(=O)[C@@H]1CCCCC[C@H]1[NH3+])C(=O)NCCCCNC(=O)c1ccc(-c2c3nc(c(-c4c(F)c(F)c(F)c(F)c4F)c4ccc([nH]4)c(-c4c(F)c(F)c(F)c(F)c4F)c4nc(c(-c5c(F)c(F)c(F)c(F)c5F)c5ccc2[nH]5)C=C4)C=C3)cc1
REMARK SMILES IDX 19 1 18 2 16 3 17 4 4 6 2 7 1 8 3 9 5 10 6 11 7 13 8 14 9 15
REMARK SMILES IDX 10 16 11 17 14 19 13 20 12 21 15 23 20 27 21 28 22 29 23 30
REMARK SMILES IDX 24 31 25 33 26 34 27 35 88 36 28 37 87 38 29 39 30 40 31 41
REMARK SMILES IDX 81 42 32 43 86 44 80 45 82 46 33 47 85 48 79 49 78 50 34 52
REMARK SMILES IDX 66 53 46 54 65 55 47 56 50 57 64 58 83 59 48 60 49 61 63 63
REMARK SMILES IDX 84 64 51 65 35 66 36 67 44 68 37 69 38 70 42 71 45 72 39 73
REMARK SMILES IDX 40 74 43 75 41 76 67 77 68 78 76 79 69 80 70 81 74 82 77 83
REMARK SMILES IDX 71 84 72 85 75 86 73 87 52 88 53 89 61 90 54 91 55 92 59 93
REMARK SMILES IDX 62 94 56 95 57 96 60 97 58 98
REMARK H PARENT 18 5 5 12 15 24 15 25 15 26 23 32 82 51 50 62
REMARK Flexibility Score: 90.00
ROOT
ATOM      1  C   UNL     1       0.951   3.838  -0.431  1.00  0.00     0.116 C 
ENDROOT
BRANCH   1   2
ATOM      2  N   UNL     1       0.634   3.315  -1.745  1.00  0.00    -0.354 N 
ATOM      3  C   UNL     1      -0.117   2.221  -2.065  1.00  0.00     0.242 C 
ATOM      4  O   UNL     1      -0.320   1.993  -3.261  1.00  0.00    -0.273 OA
ATOM      5  H   UNL     1       1.010   3.814  -2.506  1.00  0.00     0.163 HD
BRANCH   3   6
ATOM      6  C   UNL     1      -0.555   1.217  -0.978  1.00  0.00     0.173 C 
BRANCH   6   7
ATOM      7  C   UNL     1       0.735   0.380  -0.636  1.00  0.00     0.015 C 
ATOM      8  C   UNL     1       0.511  -0.748   0.374  1.00  0.00     0.010 C 
ATOM      9  C   UNL     1       1.405  -0.222  -1.886  1.00  0.00     0.010 C 
ENDBRANCH   6   7
BRANCH   6  10
ATOM     10  N   UNL     1      -1.139   1.841   0.237  1.00  0.00    -0.344 N 
ATOM     11  C   UNL     1      -2.272   2.510   0.585  1.00  0.00     0.229 C 
ATOM     12  H   UNL     1      -0.536   1.744   1.009  1.00  0.00     0.164 HD
ATOM     13  O   UNL     1      -2.478   2.451   1.807  1.00  0.00    -0.275 OA
BRANCH  11  14
ATOM     14  C   UNL     1      -3.249   3.325  -0.333  1.00  0.00     0.136 C 
BRANCH  14  15
ATOM     15  C   UNL     1      -2.753   3.451  -1.767  1.00  0.00     0.020 C 
BRANCH  15  16
ATOM     16  C   UNL     1      -3.576   4.248  -2.768  1.00  0.00     0.001 C 
BRANCH  16  17
ATOM     17  C   UNL     1      -3.130   5.705  -2.837  1.00  0.00     0.000 CG0
ATOM     18  G   UNL     1      -3.091   6.419  -1.494  1.00  0.00     0.000 G0
ENDBRANCH  16  17
ENDBRANCH  15  16
ENDBRANCH  14  15
BRANCH  14  19
ATOM     19  C   UNL     1      -3.564   4.698   0.374  1.00  0.00     0.193 C 
BRANCH  19  20
ATOM     20  C   UNL     1      -4.082   5.888  -0.467  1.00  0.00     0.066 C 
BRANCH  20  21
ATOM     21  C   UNL     1      -3.091   6.419  -1.494  1.00  0.00     0.006 CG0
ATOM     22  G   UNL     1      -3.130   5.705  -2.837  1.00  0.00     0.000 G0
ENDBRANCH  20  21
ENDBRANCH  19  20
BRANCH  19  23
ATOM     23  N   UNL     1      -4.576   4.507   1.430  1.00  0.00    -0.354 N 
ATOM     24  H   UNL     1      -5.467   4.249   1.005  1.00  0.00     0.344 HD
ATOM     25  H   UNL     1      -4.689   5.375   1.953  1.00  0.00     0.344 HD
ATOM     26  H   UNL     1      -4.273   3.766   2.062  1.00  0.00     0.344 HD
ENDBRANCH  19  23
ENDBRANCH  14  19
ENDBRANCH  11  14
ENDBRANCH   6  10
ENDBRANCH   3   6
ENDBRANCH   1   2
BRANCH   1  27
ATOM     27  C   UNL     1       2.032   4.910  -0.496  1.00  0.00     0.023 C 
BRANCH  27  28
ATOM     28  C   UNL     1       1.543   6.225  -1.104  1.00  0.00     0.023 C 
BRANCH  28  29
ATOM     29  C   UNL     1       0.507   6.947  -0.249  1.00  0.00     0.116 C 
BRANCH  29  30
ATOM     30  N   UNL     1       1.071   7.538   0.951  1.00  0.00    -0.352 N 
ATOM     31  C   UNL     1       1.221   8.858   1.290  1.00  0.00     0.251 C 
ATOM     32  H   UNL     1       1.394   6.894   1.622  1.00  0.00     0.163 HD
ATOM     33  O   UNL     1       1.826   9.170   2.313  1.00  0.00    -0.269 OA
BRANCH  31  34
ATOM     34  C   UNL     1       0.702   9.915   0.398  1.00  0.00     0.039 A 
ATOM     35  C   UNL     1       1.571  10.938   0.014  1.00  0.00     0.014 A 
ATOM     36  C   UNL     1      -0.615   9.896  -0.072  1.00  0.00     0.014 A 
ATOM     37  C   UNL     1       1.148  11.895  -0.908  1.00  0.00     0.010 A 
ATOM     38  C   UNL     1      -1.016  10.814  -1.042  1.00  0.00     0.010 A 
ATOM     39  C   UNL     1      -0.133  11.812  -1.479  1.00  0.00    -0.014 A 
BRANCH  39  40
ATOM     40  C   UNL     1      -0.534  12.741  -2.566  1.00  0.00     0.031 A 
ATOM     41  C   UNL     1      -1.611  13.760  -2.344  1.00  0.00     0.074 A 
ATOM     42  C   UNL     1       0.056  12.635  -3.773  1.00  0.00     0.049 A 
ATOM     43  N   UNL     1      -2.109  14.632  -3.184  1.00  0.00    -0.248 NA
ATOM     44  C   UNL     1      -2.219  13.797  -1.005  1.00  0.00     0.031 C 
ATOM     45  C   UNL     1       1.100  11.670  -4.119  1.00  0.00     0.029 A 
ATOM     46  N   UNL     1      -0.140  13.344  -4.932  1.00  0.00    -0.354 N 
ATOM     47  C   UNL     1      -3.084  15.323  -2.478  1.00  0.00     0.074 A 
ATOM     48  C   UNL     1      -3.144  14.734  -1.156  1.00  0.00     0.031 C 
ATOM     49  C   UNL     1       1.470  11.862  -5.395  1.00  0.00     0.029 A 
ATOM     50  C   UNL     1       0.660  12.932  -5.970  1.00  0.00     0.049 A 
ATOM     51  H   UNL     1      -0.792  14.077  -5.012  1.00  0.00     0.167 HD
ATOM     52  C   UNL     1      -3.844  16.366  -2.889  1.00  0.00     0.037 A 
ATOM     53  C   UNL     1       0.724  13.359  -7.246  1.00  0.00     0.037 A 
ATOM     54  C   UNL     1      -3.779  16.951  -4.203  1.00  0.00     0.049 A 
ATOM     55  C   UNL     1      -0.183  14.470  -7.697  1.00  0.00     0.074 A 
ATOM     56  C   UNL     1      -4.465  18.049  -4.694  1.00  0.00     0.029 A 
ATOM     57  N   UNL     1      -2.991  16.477  -5.242  1.00  0.00    -0.354 N 
ATOM     58  N   UNL     1      -1.051  15.163  -7.001  1.00  0.00    -0.248 NA
ATOM     59  C   UNL     1      -0.107  14.854  -9.114  1.00  0.00     0.031 C 
ATOM     60  C   UNL     1      -4.137  18.202  -6.045  1.00  0.00     0.029 A 
ATOM     61  C   UNL     1      -3.208  17.231  -6.385  1.00  0.00     0.049 A 
ATOM     62  H   UNL     1      -2.369  15.716  -5.177  1.00  0.00     0.167 HD
ATOM     63  C   UNL     1      -1.613  16.072  -7.887  1.00  0.00     0.074 A 
ATOM     64  C   UNL     1      -0.973  15.856  -9.169  1.00  0.00     0.031 C 
ATOM     65  C   UNL     1      -2.574  17.000  -7.658  1.00  0.00     0.037 A 
BRANCH  52  66
ATOM     66  C   UNL     1      -4.821  16.940  -1.904  1.00  0.00     0.064 A 
ATOM     67  C   UNL     1      -4.394  17.665  -0.781  1.00  0.00     0.173 A 
ATOM     68  C   UNL     1      -6.202  16.790  -2.102  1.00  0.00     0.173 A 
ATOM     69  F   UNL     1      -3.085  17.830  -0.542  1.00  0.00    -0.203 F 
ATOM     70  C   UNL     1      -5.313  18.191   0.124  1.00  0.00     0.198 A 
ATOM     71  C   UNL     1      -7.118  17.342  -1.211  1.00  0.00     0.198 A 
ATOM     72  F   UNL     1      -6.664  16.112  -3.164  1.00  0.00    -0.203 F 
ATOM     73  F   UNL     1      -4.880  18.836   1.216  1.00  0.00    -0.200 F 
ATOM     74  C   UNL     1      -6.673  18.034  -0.095  1.00  0.00     0.200 A 
ATOM     75  F   UNL     1      -8.433  17.201  -1.431  1.00  0.00    -0.200 F 
ATOM     76  F   UNL     1      -7.556  18.543   0.776  1.00  0.00    -0.200 F 
ENDBRANCH  52  66
BRANCH  53  77
ATOM     77  C   UNL     1       1.688  12.732  -8.187  1.00  0.00     0.064 A 
ATOM     78  C   UNL     1       2.797  13.444  -8.661  1.00  0.00     0.173 A 
ATOM     79  C   UNL     1       1.525  11.409  -8.624  1.00  0.00     0.173 A 
ATOM     80  F   UNL     1       2.982  14.720  -8.289  1.00  0.00    -0.203 F 
ATOM     81  C   UNL     1       3.702  12.861  -9.545  1.00  0.00     0.198 A 
ATOM     82  C   UNL     1       2.446  10.818  -9.487  1.00  0.00     0.198 A 
ATOM     83  F   UNL     1       0.480  10.684  -8.198  1.00  0.00    -0.203 F 
ATOM     84  F   UNL     1       4.735  13.576 -10.012  1.00  0.00    -0.200 F 
ATOM     85  C   UNL     1       3.530  11.546  -9.951  1.00  0.00     0.200 A 
ATOM     86  F   UNL     1       2.283   9.543  -9.865  1.00  0.00    -0.200 F 
ATOM     87  F   UNL     1       4.406  10.983 -10.795  1.00  0.00    -0.200 F 
ENDBRANCH  53  77
BRANCH  65  88
ATOM     88  C   UNL     1      -2.995  17.856  -8.816  1.00  0.00     0.064 A 
ATOM     89  C   UNL     1      -3.778  17.340  -9.859  1.00  0.00     0.173 A 
ATOM     90  C   UNL     1      -2.660  19.218  -8.857  1.00  0.00     0.173 A 
ATOM     91  F   UNL     1      -4.109  16.040  -9.875  1.00  0.00    -0.203 F 
ATOM     92  C   UNL     1      -4.198  18.153 -10.909  1.00  0.00     0.198 A 
ATOM     93  C   UNL     1      -3.105  20.034  -9.894  1.00  0.00     0.198 A 
ATOM     94  F   UNL     1      -1.916  19.762  -7.882  1.00  0.00    -0.203 F 
ATOM     95  F   UNL     1      -4.913  17.630 -11.914  1.00  0.00    -0.200 F 
ATOM     96  C   UNL     1      -3.869  19.501 -10.920  1.00  0.00     0.200 A 
ATOM     97  F   UNL     1      -2.798  21.339  -9.897  1.00  0.00    -0.200 F 
ATOM     98  F   UNL     1      -4.285  20.285 -11.925  1.00  0.00    -0.200 F 
ENDBRANCH  65  88
ENDBRANCH  39  40
ENDBRANCH  31  34
ENDBRANCH  29  30
ENDBRANCH  28  29
ENDBRANCH  27  28
ENDBRANCH   1  27
TORSDOF 15
