REMARK SMILES C[C@H]1CC[C@@](NC(=O)N[C@H]2CCOC2)(C(=O)NCCCCNC(=O)c2ccc(-c3c4nc(c(-c5c(F)c(F)c(F)c(F)c5F)c5ccc([nH]5)c(-c5c(F)c(F)c(F)c(F)c5F)c5nc(c(-c6c(F)c(F)c(F)c(F)c6F)c6ccc3[nH]6)C=C5)C=C4)cc2)CC1
REMARK SMILES IDX 19 1 18 2 17 3 15 4 16 5 5 7 1 8 2 9 89 10 3 11 88 12 4 13
REMARK SMILES IDX 6 14 7 15 8 17 9 18 10 20 11 21 14 22 12 23 13 24 20 25
REMARK SMILES IDX 21 26 22 27 23 28 24 30 25 31 26 32 87 33 27 34 86 35 28 36
REMARK SMILES IDX 29 37 30 38 80 39 31 40 85 41 79 42 81 43 32 44 84 45 78 46
REMARK SMILES IDX 77 47 33 49 65 50 45 51 64 52 46 53 49 54 63 55 82 56 47 57
REMARK SMILES IDX 48 58 62 60 83 61 50 62 34 63 35 64 43 65 36 66 37 67 41 68
REMARK SMILES IDX 44 69 38 70 39 71 42 72 40 73 66 74 67 75 75 76 68 77 69 78
REMARK SMILES IDX 73 79 76 80 70 81 71 82 74 83 72 84 51 85 52 86 60 87 53 88
REMARK SMILES IDX 54 89 58 90 61 91 55 92 56 93 59 94 57 95
REMARK H PARENT 17 6 6 16 9 19 22 29 81 48 49 59
REMARK Flexibility Score: inf
ROOT
ATOM      1  C   UNL     1      -6.036   2.954  -2.304  1.00  0.00     0.023 C 
ENDROOT
BRANCH   1   2
ATOM      2  C   UNL     1      -5.442   1.623  -2.754  1.00  0.00     0.116 C 
BRANCH   2   3
ATOM      3  N   UNL     1      -4.879   0.901  -1.630  1.00  0.00    -0.354 N 
ATOM      4  C   UNL     1      -4.587  -0.422  -1.489  1.00  0.00     0.245 C 
ATOM      5  O   UNL     1      -4.078  -0.743  -0.410  1.00  0.00    -0.272 OA
ATOM      6  H   UNL     1      -4.675   1.456  -0.843  1.00  0.00     0.163 HD
BRANCH   4   7
ATOM      7  C   UNL     1      -5.002  -1.469  -2.567  1.00  0.00     0.120 C 
ATOM      8  C   UNL     1      -6.280  -3.426   0.990  1.00  0.00     0.007 C 
ATOM      9  C   UNL     1      -6.223  -3.349  -0.540  1.00  0.00    -0.014 C 
ATOM     10  C   UNL     1      -4.765  -3.512  -1.005  1.00  0.00     0.006 C 
ATOM     11  C   UNL     1      -6.933  -2.073  -1.013  1.00  0.00     0.006 C 
ATOM     12  C   UNL     1      -4.434  -2.885  -2.359  1.00  0.00     0.039 C 
ATOM     13  C   UNL     1      -6.542  -1.642  -2.426  1.00  0.00     0.039 C 
BRANCH   7  14
ATOM     14  N   UNL     1      -4.680  -1.006  -3.939  1.00  0.00    -0.324 N 
ATOM     15  C   UNL     1      -3.574  -0.777  -4.653  1.00  0.00     0.315 C 
ATOM     16  H   UNL     1      -5.495  -0.818  -4.460  1.00  0.00     0.166 HD
ATOM     17  O   UNL     1      -3.719  -0.676  -5.875  1.00  0.00    -0.249 OA
ATOM     18  N   UNL     1      -2.336  -0.621  -4.180  1.00  0.00    -0.333 N 
ATOM     19  H   UNL     1      -1.663  -0.629  -4.898  1.00  0.00     0.165 HD
BRANCH  18  20
ATOM     20  C   UNL     1      -1.733  -0.444  -2.874  1.00  0.00     0.112 C 
ATOM     21  C   UNL     1      -0.847  -1.580  -2.419  1.00  0.00     0.056 C 
ATOM     22  C   UNL     1      -0.760   0.731  -2.770  1.00  0.00     0.185 C 
ATOM     23  C   UNL     1      -0.124  -0.922  -1.264  1.00  0.00     0.162 C 
ATOM     24  O   UNL     1       0.123   0.434  -1.672  1.00  0.00    -0.379 OA
ENDBRANCH  18  20
ENDBRANCH   7  14
ENDBRANCH   4   7
ENDBRANCH   2   3
ENDBRANCH   1   2
BRANCH   1  25
ATOM     25  C   UNL     1      -4.992   3.971  -1.838  1.00  0.00     0.023 C 
BRANCH  25  26
ATOM     26  C   UNL     1      -4.005   4.390  -2.923  1.00  0.00     0.116 C 
BRANCH  26  27
ATOM     27  N   UNL     1      -4.673   5.092  -4.009  1.00  0.00    -0.352 N 
ATOM     28  C   UNL     1      -4.598   6.417  -4.350  1.00  0.00     0.251 C 
ATOM     29  H   UNL     1      -5.258   4.539  -4.575  1.00  0.00     0.163 HD
ATOM     30  O   UNL     1      -5.428   6.912  -5.112  1.00  0.00    -0.269 OA
BRANCH  28  31
ATOM     31  C   UNL     1      -3.516   7.253  -3.798  1.00  0.00     0.039 A 
ATOM     32  C   UNL     1      -3.820   8.518  -3.289  1.00  0.00     0.014 A 
ATOM     33  C   UNL     1      -2.197   6.790  -3.804  1.00  0.00     0.014 A 
ATOM     34  C   UNL     1      -2.804   9.301  -2.738  1.00  0.00     0.010 A 
ATOM     35  C   UNL     1      -1.198   7.542  -3.195  1.00  0.00     0.010 A 
ATOM     36  C   UNL     1      -1.490   8.808  -2.667  1.00  0.00    -0.014 A 
BRANCH  36  37
ATOM     37  C   UNL     1      -0.399   9.611  -2.063  1.00  0.00     0.031 A 
ATOM     38  C   UNL     1       0.731  10.102  -2.922  1.00  0.00     0.074 A 
ATOM     39  C   UNL     1      -0.393   9.837  -0.736  1.00  0.00     0.049 A 
ATOM     40  N   UNL     1       1.815  10.748  -2.574  1.00  0.00    -0.248 NA
ATOM     41  C   UNL     1       0.645   9.804  -4.360  1.00  0.00     0.031 C 
ATOM     42  C   UNL     1      -1.410   9.370   0.206  1.00  0.00     0.029 A 
ATOM     43  N   UNL     1       0.510  10.505   0.051  1.00  0.00    -0.354 N 
ATOM     44  C   UNL     1       2.545  10.916  -3.743  1.00  0.00     0.074 A 
ATOM     45  C   UNL     1       1.806  10.264  -4.803  1.00  0.00     0.031 C 
ATOM     46  C   UNL     1      -1.083   9.780   1.443  1.00  0.00     0.029 A 
ATOM     47  C   UNL     1       0.180  10.509   1.384  1.00  0.00     0.049 A 
ATOM     48  H   UNL     1       1.318  10.941  -0.305  1.00  0.00     0.167 HD
ATOM     49  C   UNL     1       3.716  11.573  -3.920  1.00  0.00     0.037 A 
ATOM     50  C   UNL     1       0.829  11.038   2.438  1.00  0.00     0.037 A 
ATOM     51  C   UNL     1       4.432  12.247  -2.870  1.00  0.00     0.049 A 
ATOM     52  C   UNL     1       2.123  11.772   2.213  1.00  0.00     0.074 A 
ATOM     53  C   UNL     1       5.592  12.996  -2.959  1.00  0.00     0.029 A 
ATOM     54  N   UNL     1       4.052  12.254  -1.536  1.00  0.00    -0.354 N 
ATOM     55  N   UNL     1       2.771  11.981   1.093  1.00  0.00    -0.248 NA
ATOM     56  C   UNL     1       2.771  12.350   3.398  1.00  0.00     0.031 C 
ATOM     57  C   UNL     1       5.934  13.426  -1.672  1.00  0.00     0.029 A 
ATOM     58  C   UNL     1       4.964  12.980  -0.789  1.00  0.00     0.049 A 
ATOM     59  H   UNL     1       3.252  11.808  -1.175  1.00  0.00     0.167 HD
ATOM     60  C   UNL     1       3.886  12.734   1.432  1.00  0.00     0.074 A 
ATOM     61  C   UNL     1       3.820  12.957   2.862  1.00  0.00     0.031 C 
ATOM     62  C   UNL     1       4.876  13.198   0.632  1.00  0.00     0.037 A 
BRANCH  49  63
ATOM     63  C   UNL     1       4.292  11.600  -5.305  1.00  0.00     0.064 A 
ATOM     64  C   UNL     1       3.705  12.358  -6.330  1.00  0.00     0.173 A 
ATOM     65  C   UNL     1       5.463  10.886  -5.604  1.00  0.00     0.173 A 
ATOM     66  F   UNL     1       2.578  13.047  -6.098  1.00  0.00    -0.203 F 
ATOM     67  C   UNL     1       4.254  12.379  -7.609  1.00  0.00     0.198 A 
ATOM     68  C   UNL     1       6.024  10.932  -6.878  1.00  0.00     0.198 A 
ATOM     69  F   UNL     1       6.066  10.149  -4.659  1.00  0.00    -0.203 F 
ATOM     70  F   UNL     1       3.650  13.073  -8.584  1.00  0.00    -0.200 F 
ATOM     71  C   UNL     1       5.416  11.672  -7.880  1.00  0.00     0.200 A 
ATOM     72  F   UNL     1       7.153  10.258  -7.136  1.00  0.00    -0.200 F 
ATOM     73  F   UNL     1       5.946  11.699  -9.111  1.00  0.00    -0.200 F 
ENDBRANCH  49  63
BRANCH  50  74
ATOM     74  C   UNL     1       0.249  10.918   3.800  1.00  0.00     0.064 A 
ATOM     75  C   UNL     1      -0.290  12.036   4.450  1.00  0.00     0.173 A 
ATOM     76  C   UNL     1       0.218   9.690   4.475  1.00  0.00     0.173 A 
ATOM     77  F   UNL     1      -0.264  13.235   3.851  1.00  0.00    -0.203 F 
ATOM     78  C   UNL     1      -0.823  11.934   5.733  1.00  0.00     0.198 A 
ATOM     79  C   UNL     1      -0.338   9.584   5.749  1.00  0.00     0.198 A 
ATOM     80  F   UNL     1       0.717   8.589   3.893  1.00  0.00    -0.203 F 
ATOM     81  F   UNL     1      -1.296  13.027   6.348  1.00  0.00    -0.200 F 
ATOM     82  C   UNL     1      -0.852  10.707   6.379  1.00  0.00     0.200 A 
ATOM     83  F   UNL     1      -0.375   8.395   6.365  1.00  0.00    -0.200 F 
ATOM     84  F   UNL     1      -1.368  10.609   7.612  1.00  0.00    -0.200 F 
ENDBRANCH  50  74
BRANCH  62  85
ATOM     85  C   UNL     1       5.951  14.021   1.278  1.00  0.00     0.064 A 
ATOM     86  C   UNL     1       6.934  13.437   2.090  1.00  0.00     0.173 A 
ATOM     87  C   UNL     1       6.020  15.403   1.048  1.00  0.00     0.173 A 
ATOM     88  F   UNL     1       6.899  12.122   2.352  1.00  0.00    -0.203 F 
ATOM     89  C   UNL     1       7.936  14.212   2.667  1.00  0.00     0.198 A 
ATOM     90  C   UNL     1       7.039  16.171   1.605  1.00  0.00     0.198 A 
ATOM     91  F   UNL     1       5.106  16.007   0.274  1.00  0.00    -0.203 F 
ATOM     92  F   UNL     1       8.841  13.642   3.474  1.00  0.00    -0.200 F 
ATOM     93  C   UNL     1       7.992  15.576   2.418  1.00  0.00     0.200 A 
ATOM     94  F   UNL     1       7.099  17.486   1.355  1.00  0.00    -0.200 F 
ATOM     95  F   UNL     1       8.961  16.319   2.970  1.00  0.00    -0.200 F 
ENDBRANCH  62  85
ENDBRANCH  36  37
ENDBRANCH  28  31
ENDBRANCH  26  27
ENDBRANCH  25  26
ENDBRANCH   1  25
TORSDOF 13
