REMARK SMILES COc1ccc(-c2nc3cc(N4C[C@@H](C(=O)NCCCCNC(=O)c5ccc(-c6c7nc(c(-c8c(F)c(F)c(F)c(F)c8F)c8ccc([nH]8)c(-c8c(F)c(F)c(F)c(F)c8F)c8nc(c(-c9c(F)c(F)c(F)c(F)c9F)c9ccc6[nH]9)C=C8)C=C7)cc5)CC4=O)ccc3o2)cc1
REMARK SMILES IDX 19 1 18 2 17 3 15 4 16 5 14 7 12 8 13 9 89 10 88 11 90 12
REMARK SMILES IDX 11 13 7 14 8 15 94 16 9 17 93 18 10 19 92 20 91 21 6 22 3 23
REMARK SMILES IDX 4 24 96 25 5 26 95 27 2 28 1 29 20 30 21 31 22 32 23 33
REMARK SMILES IDX 24 35 25 36 26 37 87 38 27 39 86 40 28 41 29 42 30 43 80 44
REMARK SMILES IDX 31 45 85 46 79 47 81 48 32 49 84 50 78 51 77 52 33 54 65 55
REMARK SMILES IDX 45 56 64 57 46 58 49 59 63 60 82 61 47 62 48 63 62 65 83 66
REMARK SMILES IDX 50 67 34 68 35 69 43 70 36 71 37 72 41 73 44 74 38 75 39 76
REMARK SMILES IDX 42 77 40 78 66 79 67 80 75 81 68 82 69 83 73 84 76 85 70 86
REMARK SMILES IDX 71 87 74 88 72 89 51 90 52 91 60 92 53 93 54 94 58 95 61 96
REMARK SMILES IDX 55 97 56 98 59 99 57 100
REMARK H PARENT 17 6 22 34 81 53 49 64
REMARK Flexibility Score: inf
ROOT
ATOM      1  C   UNL     1       7.768  -7.705 -13.064  1.00  0.00     0.023 C 
ENDROOT
BRANCH   1   2
ATOM      2  C   UNL     1       7.223  -7.816 -11.643  1.00  0.00     0.116 C 
BRANCH   2   3
ATOM      3  N   UNL     1       8.286  -8.082 -10.691  1.00  0.00    -0.356 N 
ATOM      4  C   UNL     1       8.837  -7.302  -9.727  1.00  0.00     0.225 C 
ATOM      5  O   UNL     1       9.762  -7.783  -9.067  1.00  0.00    -0.275 OA
ATOM      6  H   UNL     1       8.675  -8.984 -10.757  1.00  0.00     0.163 HD
BRANCH   4   7
ATOM      7  C   UNL     1       8.309  -5.925  -9.396  1.00  0.00     0.107 C 
ATOM      8  N   UNL     1       6.173  -4.928  -9.388  1.00  0.00    -0.312 N 
ATOM      9  C   UNL     1       6.922  -6.014  -8.803  1.00  0.00     0.139 C 
ATOM     10  C   UNL     1       6.831  -4.349 -10.472  1.00  0.00     0.227 C 
ATOM     11  C   UNL     1       8.229  -4.927 -10.539  1.00  0.00     0.116 C 
ATOM     12  O   UNL     1       6.431  -3.484 -11.226  1.00  0.00    -0.274 OA
BRANCH   8  13
ATOM     13  C   UNL     1       4.931  -4.505  -8.857  1.00  0.00     0.046 A 
ATOM     14  C   UNL     1       2.179  -3.251  -5.599  1.00  0.00     0.227 A 
ATOM     15  N   UNL     1       3.297  -3.946  -5.588  1.00  0.00    -0.209 NA
ATOM     16  O   UNL     1       1.671  -2.979  -6.849  1.00  0.00    -0.436 OA
ATOM     17  C   UNL     1       3.601  -4.073  -6.901  1.00  0.00     0.112 A 
ATOM     18  C   UNL     1       2.631  -3.489  -7.692  1.00  0.00     0.155 A 
ATOM     19  C   UNL     1       4.740  -4.624  -7.476  1.00  0.00     0.058 A 
ATOM     20  C   UNL     1       2.720  -3.418  -9.077  1.00  0.00     0.051 A 
ATOM     21  C   UNL     1       3.921  -3.913  -9.639  1.00  0.00     0.030 A 
BRANCH  14  22
ATOM     22  C   UNL     1       1.592  -2.616  -4.436  1.00  0.00     0.037 A 
ATOM     23  C   UNL     1       0.685  -1.599  -1.982  1.00  0.00     0.118 A 
ATOM     24  C   UNL     1      -0.205  -2.202  -2.880  1.00  0.00     0.047 A 
ATOM     25  C   UNL     1       2.033  -1.501  -2.313  1.00  0.00     0.047 A 
ATOM     26  C   UNL     1       0.239  -2.695  -4.114  1.00  0.00     0.017 A 
ATOM     27  C   UNL     1       2.478  -2.007  -3.531  1.00  0.00     0.017 A 
BRANCH  23  28
ATOM     28  O   UNL     1       0.148  -1.194  -0.791  1.00  0.00    -0.497 OA
ATOM     29  C   UNL     1       0.833  -0.122  -0.148  1.00  0.00     0.278 C 
ENDBRANCH  23  28
ENDBRANCH  14  22
ENDBRANCH   8  13
ENDBRANCH   4   7
ENDBRANCH   2   3
ENDBRANCH   1   2
BRANCH   1  30
ATOM     30  C   UNL     1       8.348  -9.006 -13.618  1.00  0.00     0.023 C 
BRANCH  30  31
ATOM     31  C   UNL     1       7.401 -10.199 -13.580  1.00  0.00     0.116 C 
BRANCH  31  32
ATOM     32  N   UNL     1       6.155  -9.956 -14.292  1.00  0.00    -0.352 N 
ATOM     33  C   UNL     1       5.518 -10.745 -15.217  1.00  0.00     0.251 C 
ATOM     34  H   UNL     1       5.706  -9.106 -14.080  1.00  0.00     0.163 HD
ATOM     35  O   UNL     1       4.541 -10.322 -15.825  1.00  0.00    -0.269 OA
BRANCH  33  36
ATOM     36  C   UNL     1       6.040 -12.097 -15.504  1.00  0.00     0.039 A 
ATOM     37  C   UNL     1       6.203 -12.486 -16.835  1.00  0.00     0.014 A 
ATOM     38  C   UNL     1       6.396 -12.961 -14.466  1.00  0.00     0.014 A 
ATOM     39  C   UNL     1       6.795 -13.715 -17.126  1.00  0.00     0.010 A 
ATOM     40  C   UNL     1       7.059 -14.150 -14.757  1.00  0.00     0.010 A 
ATOM     41  C   UNL     1       7.268 -14.537 -16.089  1.00  0.00    -0.014 A 
BRANCH  41  42
ATOM     42  C   UNL     1       8.004 -15.793 -16.381  1.00  0.00     0.031 A 
ATOM     43  C   UNL     1       7.444 -17.118 -15.949  1.00  0.00     0.074 A 
ATOM     44  C   UNL     1       9.214 -15.730 -16.971  1.00  0.00     0.049 A 
ATOM     45  N   UNL     1       7.969 -18.313 -16.056  1.00  0.00    -0.248 NA
ATOM     46  C   UNL     1       6.135 -17.096 -15.279  1.00  0.00     0.031 C 
ATOM     47  C   UNL     1       9.890 -14.499 -17.383  1.00  0.00     0.029 A 
ATOM     48  N   UNL     1      10.097 -16.724 -17.313  1.00  0.00    -0.354 N 
ATOM     49  C   UNL     1       7.064 -19.178 -15.457  1.00  0.00     0.074 A 
ATOM     50  C   UNL     1       5.983 -18.367 -14.939  1.00  0.00     0.031 C 
ATOM     51  C   UNL     1      11.070 -14.810 -17.940  1.00  0.00     0.029 A 
ATOM     52  C   UNL     1      11.253 -16.258 -17.889  1.00  0.00     0.049 A 
ATOM     53  H   UNL     1       9.918 -17.680 -17.160  1.00  0.00     0.167 HD
ATOM     54  C   UNL     1       7.119 -20.528 -15.367  1.00  0.00     0.037 A 
ATOM     55  C   UNL     1      12.344 -16.921 -18.317  1.00  0.00     0.037 A 
ATOM     56  C   UNL     1       8.186 -21.331 -15.905  1.00  0.00     0.049 A 
ATOM     57  C   UNL     1      12.381 -18.421 -18.206  1.00  0.00     0.074 A 
ATOM     58  C   UNL     1       8.297 -22.710 -15.935  1.00  0.00     0.029 A 
ATOM     59  N   UNL     1       9.334 -20.826 -16.500  1.00  0.00    -0.354 N 
ATOM     60  N   UNL     1      11.480 -19.236 -17.715  1.00  0.00    -0.248 NA
ATOM     61  C   UNL     1      13.583 -19.093 -18.717  1.00  0.00     0.031 C 
ATOM     62  C   UNL     1       9.536 -23.038 -16.494  1.00  0.00     0.029 A 
ATOM     63  C   UNL     1      10.172 -21.866 -16.870  1.00  0.00     0.049 A 
ATOM     64  H   UNL     1       9.524 -19.870 -16.639  1.00  0.00     0.167 HD
ATOM     65  C   UNL     1      11.993 -20.516 -17.877  1.00  0.00     0.074 A 
ATOM     66  C   UNL     1      13.278 -20.369 -18.530  1.00  0.00     0.031 C 
ATOM     67  C   UNL     1      11.450 -21.705 -17.517  1.00  0.00     0.037 A 
BRANCH  54  68
ATOM     68  C   UNL     1       5.994 -21.224 -14.656  1.00  0.00     0.064 A 
ATOM     69  C   UNL     1       4.697 -21.271 -15.191  1.00  0.00     0.173 A 
ATOM     70  C   UNL     1       6.222 -21.881 -13.437  1.00  0.00     0.173 A 
ATOM     71  F   UNL     1       4.421 -20.651 -16.349  1.00  0.00    -0.203 F 
ATOM     72  C   UNL     1       3.665 -21.920 -14.517  1.00  0.00     0.198 A 
ATOM     73  C   UNL     1       5.196 -22.558 -12.783  1.00  0.00     0.198 A 
ATOM     74  F   UNL     1       7.444 -21.874 -12.883  1.00  0.00    -0.203 F 
ATOM     75  F   UNL     1       2.424 -21.903 -15.022  1.00  0.00    -0.200 F 
ATOM     76  C   UNL     1       3.917 -22.568 -13.318  1.00  0.00     0.200 A 
ATOM     77  F   UNL     1       5.444 -23.196 -11.631  1.00  0.00    -0.200 F 
ATOM     78  F   UNL     1       2.924 -23.198 -12.674  1.00  0.00    -0.200 F 
ENDBRANCH  54  68
BRANCH  55  79
ATOM     79  C   UNL     1      13.483 -16.168 -18.905  1.00  0.00     0.064 A 
ATOM     80  C   UNL     1      13.781 -16.263 -20.272  1.00  0.00     0.173 A 
ATOM     81  C   UNL     1      14.290 -15.334 -18.118  1.00  0.00     0.173 A 
ATOM     82  F   UNL     1      13.051 -17.064 -21.062  1.00  0.00    -0.203 F 
ATOM     83  C   UNL     1      14.854 -15.567 -20.825  1.00  0.00     0.198 A 
ATOM     84  C   UNL     1      15.343 -14.614 -18.677  1.00  0.00     0.198 A 
ATOM     85  F   UNL     1      14.042 -15.203 -16.806  1.00  0.00    -0.203 F 
ATOM     86  F   UNL     1      15.144 -15.710 -22.125  1.00  0.00    -0.200 F 
ATOM     87  C   UNL     1      15.630 -14.737 -20.029  1.00  0.00     0.200 A 
ATOM     88  F   UNL     1      16.080 -13.801 -17.908  1.00  0.00    -0.200 F 
ATOM     89  F   UNL     1      16.656 -14.061 -20.562  1.00  0.00    -0.200 F 
ENDBRANCH  55  79
BRANCH  67  90
ATOM     90  C   UNL     1      12.232 -22.946 -17.843  1.00  0.00     0.064 A 
ATOM     91  C   UNL     1      13.414 -23.272 -17.163  1.00  0.00     0.173 A 
ATOM     92  C   UNL     1      11.770 -23.839 -18.822  1.00  0.00     0.173 A 
ATOM     93  F   UNL     1      13.906 -22.444 -16.229  1.00  0.00    -0.203 F 
ATOM     94  C   UNL     1      14.120 -24.433 -17.470  1.00  0.00     0.198 A 
ATOM     95  C   UNL     1      12.460 -25.015 -19.102  1.00  0.00     0.198 A 
ATOM     96  F   UNL     1      10.640 -23.578 -19.497  1.00  0.00    -0.203 F 
ATOM     97  F   UNL     1      15.274 -24.698 -16.842  1.00  0.00    -0.200 F 
ATOM     98  C   UNL     1      13.638 -25.307 -18.433  1.00  0.00     0.200 A 
ATOM     99  F   UNL     1      11.984 -25.866 -20.023  1.00  0.00    -0.200 F 
ATOM    100  F   UNL     1      14.313 -26.427 -18.720  1.00  0.00    -0.200 F 
ENDBRANCH  67  90
ENDBRANCH  41  42
ENDBRANCH  33  36
ENDBRANCH  31  32
ENDBRANCH  30  31
ENDBRANCH   1  30
TORSDOF 14
