REMARK SMILES CC(C)(C)C(=O)NCc1ccc(C(=O)NCCCCNC(=O)c2ccc(-c3c4nc(c(-c5c(F)c(F)c(F)c(F)c5F)c5ccc([nH]5)c(-c5c(F)c(F)c(F)c(F)c5F)c5nc(c(-c6c(F)c(F)c(F)c(F)c6F)c6ccc3[nH]6)C=C5)C=C4)cc2)o1
REMARK SMILES IDX 17 1 16 2 15 3 13 4 14 5 12 7 9 8 10 9 86 10 11 11 8 12 7 13
REMARK SMILES IDX 5 14 6 15 2 17 1 18 3 19 4 20 18 21 19 22 20 23 21 24 22 26
REMARK SMILES IDX 23 27 24 28 85 29 25 30 84 31 26 32 27 33 28 34 78 35 29 36
REMARK SMILES IDX 83 37 77 38 79 39 30 40 82 41 76 42 75 43 31 45 63 46 43 47
REMARK SMILES IDX 62 48 44 49 47 50 61 51 80 52 45 53 46 54 60 56 81 57 48 58
REMARK SMILES IDX 32 59 33 60 41 61 34 62 35 63 39 64 42 65 36 66 37 67 40 68
REMARK SMILES IDX 38 69 64 70 65 71 73 72 66 73 67 74 71 75 74 76 68 77 69 78
REMARK SMILES IDX 72 79 70 80 49 81 50 82 58 83 51 84 52 85 56 86 59 87 53 88
REMARK SMILES IDX 54 89 57 90 55 91
REMARK H PARENT 15 6 7 16 20 25 79 44 47 55
REMARK Flexibility Score: inf
ROOT
ATOM      1  C   UNL     1      -5.353  -0.922   8.293  1.00  0.00     0.023 C 
ENDROOT
BRANCH   1   2
ATOM      2  C   UNL     1      -5.727  -0.339   6.930  1.00  0.00     0.116 C 
BRANCH   2   3
ATOM      3  N   UNL     1      -5.444   1.077   6.871  1.00  0.00    -0.349 N 
ATOM      4  C   UNL     1      -4.337   1.760   6.420  1.00  0.00     0.286 C 
ATOM      5  O   UNL     1      -4.424   2.990   6.464  1.00  0.00    -0.266 OA
ATOM      6  H   UNL     1      -6.168   1.653   7.211  1.00  0.00     0.163 HD
BRANCH   4   7
ATOM      7  C   UNL     1      -3.159   1.071   5.918  1.00  0.00     0.191 A 
ATOM      8  C   UNL     1      -1.202   1.056   4.867  1.00  0.00     0.124 A 
ATOM      9  C   UNL     1      -1.460  -0.248   5.225  1.00  0.00     0.048 A 
ATOM     10  O   UNL     1      -2.224   1.854   5.279  1.00  0.00    -0.454 OA
ATOM     11  C   UNL     1      -2.690  -0.232   5.925  1.00  0.00     0.056 A 
BRANCH   8  12
ATOM     12  C   UNL     1      -0.081   1.740   4.172  1.00  0.00     0.191 C 
BRANCH  12  13
ATOM     13  N   UNL     1       0.858   0.745   3.697  1.00  0.00    -0.348 N 
ATOM     14  C   UNL     1       1.071   0.192   2.478  1.00  0.00     0.225 C 
ATOM     15  O   UNL     1       1.811  -0.798   2.466  1.00  0.00    -0.275 OA
ATOM     16  H   UNL     1       1.460   0.403   4.397  1.00  0.00     0.163 HD
BRANCH  14  17
ATOM     17  C   UNL     1       0.472   0.764   1.177  1.00  0.00     0.041 C 
ATOM     18  C   UNL     1       0.973  -0.102  -0.004  1.00  0.00     0.021 C 
ATOM     19  C   UNL     1       0.983   2.192   0.940  1.00  0.00     0.021 C 
ATOM     20  C   UNL     1      -1.060   0.701   1.161  1.00  0.00     0.021 C 
ENDBRANCH  14  17
ENDBRANCH  12  13
ENDBRANCH   8  12
ENDBRANCH   4   7
ENDBRANCH   2   3
ENDBRANCH   1   2
BRANCH   1  21
ATOM     21  C   UNL     1      -6.414  -0.701   9.378  1.00  0.00     0.023 C 
BRANCH  21  22
ATOM     22  C   UNL     1      -7.782  -1.312   9.082  1.00  0.00     0.116 C 
BRANCH  22  23
ATOM     23  N   UNL     1      -7.731  -2.737   8.793  1.00  0.00    -0.352 N 
ATOM     24  C   UNL     1      -8.681  -3.699   9.046  1.00  0.00     0.251 C 
ATOM     25  H   UNL     1      -6.907  -3.055   8.359  1.00  0.00     0.163 HD
ATOM     26  O   UNL     1      -8.443  -4.878   8.829  1.00  0.00    -0.269 OA
BRANCH  24  27
ATOM     27  C   UNL     1      -9.978  -3.297   9.627  1.00  0.00     0.039 A 
ATOM     28  C   UNL     1     -10.448  -3.982  10.750  1.00  0.00     0.014 A 
ATOM     29  C   UNL     1     -10.707  -2.234   9.089  1.00  0.00     0.014 A 
ATOM     30  C   UNL     1     -11.618  -3.554  11.378  1.00  0.00     0.010 A 
ATOM     31  C   UNL     1     -11.836  -1.766   9.755  1.00  0.00     0.010 A 
ATOM     32  C   UNL     1     -12.299  -2.418  10.908  1.00  0.00    -0.014 A 
BRANCH  32  33
ATOM     33  C   UNL     1     -13.488  -1.891  11.623  1.00  0.00     0.031 A 
ATOM     34  C   UNL     1     -14.834  -1.891  10.956  1.00  0.00     0.074 A 
ATOM     35  C   UNL     1     -13.339  -1.354  12.849  1.00  0.00     0.049 A 
ATOM     36  N   UNL     1     -15.976  -1.427  11.398  1.00  0.00    -0.248 NA
ATOM     37  C   UNL     1     -14.903  -2.462   9.602  1.00  0.00     0.031 C 
ATOM     38  C   UNL     1     -12.072  -1.244  13.576  1.00  0.00     0.029 A 
ATOM     39  N   UNL     1     -14.258  -0.790  13.698  1.00  0.00    -0.354 N 
ATOM     40  C   UNL     1     -16.891  -1.639  10.376  1.00  0.00     0.074 A 
ATOM     41  C   UNL     1     -16.163  -2.223   9.270  1.00  0.00     0.031 C 
ATOM     42  C   UNL     1     -12.298  -0.670  14.769  1.00  0.00     0.029 A 
ATOM     43  C   UNL     1     -13.716  -0.342  14.878  1.00  0.00     0.049 A 
ATOM     44  H   UNL     1     -15.215  -0.714  13.482  1.00  0.00     0.167 HD
ATOM     45  C   UNL     1     -18.222  -1.391  10.370  1.00  0.00     0.037 A 
ATOM     46  C   UNL     1     -14.297   0.268  15.928  1.00  0.00     0.037 A 
ATOM     47  C   UNL     1     -18.947  -0.836  11.482  1.00  0.00     0.049 A 
ATOM     48  C   UNL     1     -15.780   0.523  15.898  1.00  0.00     0.074 A 
ATOM     49  C   UNL     1     -20.307  -0.609  11.599  1.00  0.00     0.029 A 
ATOM     50  N   UNL     1     -18.369  -0.418  12.672  1.00  0.00    -0.354 N 
ATOM     51  N   UNL     1     -16.649   0.246  14.956  1.00  0.00    -0.248 NA
ATOM     52  C   UNL     1     -16.365   1.169  17.081  1.00  0.00     0.031 C 
ATOM     53  C   UNL     1     -20.547  -0.013  12.842  1.00  0.00     0.029 A 
ATOM     54  C   UNL     1     -19.342   0.086  13.520  1.00  0.00     0.049 A 
ATOM     55  H   UNL     1     -17.408  -0.471  12.883  1.00  0.00     0.167 HD
ATOM     56  C   UNL     1     -17.883   0.656  15.442  1.00  0.00     0.074 A 
ATOM     57  C   UNL     1     -17.653   1.185  16.771  1.00  0.00     0.031 C 
ATOM     58  C   UNL     1     -19.097   0.601  14.842  1.00  0.00     0.037 A 
BRANCH  45  59
ATOM     59  C   UNL     1     -18.987  -1.728   9.123  1.00  0.00     0.064 A 
ATOM     60  C   UNL     1     -19.216  -3.058   8.738  1.00  0.00     0.173 A 
ATOM     61  C   UNL     1     -19.537  -0.711   8.328  1.00  0.00     0.173 A 
ATOM     62  F   UNL     1     -18.701  -4.067   9.457  1.00  0.00    -0.203 F 
ATOM     63  C   UNL     1     -19.945  -3.356   7.590  1.00  0.00     0.198 A 
ATOM     64  C   UNL     1     -20.291  -1.014   7.197  1.00  0.00     0.198 A 
ATOM     65  F   UNL     1     -19.353   0.577   8.654  1.00  0.00    -0.203 F 
ATOM     66  F   UNL     1     -20.112  -4.633   7.217  1.00  0.00    -0.200 F 
ATOM     67  C   UNL     1     -20.489  -2.335   6.825  1.00  0.00     0.200 A 
ATOM     68  F   UNL     1     -20.827  -0.026   6.467  1.00  0.00    -0.200 F 
ATOM     69  F   UNL     1     -21.199  -2.624   5.726  1.00  0.00    -0.200 F 
ENDBRANCH  45  59
BRANCH  46  70
ATOM     70  C   UNL     1     -13.483   0.657  17.109  1.00  0.00     0.064 A 
ATOM     71  C   UNL     1     -13.640   0.003  18.339  1.00  0.00     0.173 A 
ATOM     72  C   UNL     1     -12.544   1.697  17.039  1.00  0.00     0.173 A 
ATOM     73  F   UNL     1     -14.540  -0.984  18.461  1.00  0.00    -0.203 F 
ATOM     74  C   UNL     1     -12.908   0.390  19.459  1.00  0.00     0.198 A 
ATOM     75  C   UNL     1     -11.791   2.063  18.152  1.00  0.00     0.198 A 
ATOM     76  F   UNL     1     -12.351   2.351  15.884  1.00  0.00    -0.203 F 
ATOM     77  F   UNL     1     -13.115  -0.219  20.635  1.00  0.00    -0.200 F 
ATOM     78  C   UNL     1     -11.981   1.416  19.364  1.00  0.00     0.200 A 
ATOM     79  F   UNL     1     -10.886   3.046  18.052  1.00  0.00    -0.200 F 
ATOM     80  F   UNL     1     -11.276   1.788  20.442  1.00  0.00    -0.200 F 
ENDBRANCH  46  70
BRANCH  58  81
ATOM     81  C   UNL     1     -20.275   1.096  15.630  1.00  0.00     0.064 A 
ATOM     82  C   UNL     1     -20.468   2.461  15.887  1.00  0.00     0.173 A 
ATOM     83  C   UNL     1     -21.239   0.195  16.106  1.00  0.00     0.173 A 
ATOM     84  F   UNL     1     -19.566   3.361  15.466  1.00  0.00    -0.203 F 
ATOM     85  C   UNL     1     -21.569   2.903  16.615  1.00  0.00     0.198 A 
ATOM     86  C   UNL     1     -22.355   0.643  16.806  1.00  0.00     0.198 A 
ATOM     87  F   UNL     1     -21.105  -1.121  15.881  1.00  0.00    -0.203 F 
ATOM     88  F   UNL     1     -21.707   4.207  16.892  1.00  0.00    -0.200 F 
ATOM     89  C   UNL     1     -22.515   1.996  17.067  1.00  0.00     0.200 A 
ATOM     90  F   UNL     1     -23.275  -0.234  17.231  1.00  0.00    -0.200 F 
ATOM     91  F   UNL     1     -23.577   2.424  17.763  1.00  0.00    -0.200 F 
ENDBRANCH  58  81
ENDBRANCH  32  33
ENDBRANCH  24  27
ENDBRANCH  22  23
ENDBRANCH  21  22
ENDBRANCH   1  21
TORSDOF 14
