REMARK SMILES CCCc1cc(OC(F)(F)F)cc2c1O[C@@H](C(F)(F)F)C(C(=O)NCCCCNC(=O)c1ccc(-c3c4nc(c(-c5c(F)c(F)c(F)c(F)c5F)c5ccc([nH]5)c(-c5c(F)c(F)c(F)c(F)c5F)c5nc(c(-c6c(F)c(F)c(F)c(F)c6F)c6ccc3[nH]6)C=C5)C=C4)cc1)=C2
REMARK SMILES IDX 26 1 25 2 24 3 22 4 23 5 21 7 4 8 5 9 14 10 6 11 13 12 15 13
REMARK SMILES IDX 12 14 95 15 16 16 3 17 2 18 1 19 7 20 8 21 9 22 10 23 11 24
REMARK SMILES IDX 17 25 18 26 19 27 20 28 27 29 28 30 29 31 30 32 31 34 32 35
REMARK SMILES IDX 33 36 94 37 34 38 93 39 35 40 36 41 37 42 87 43 38 44 92 45
REMARK SMILES IDX 86 46 88 47 39 48 91 49 85 50 84 51 40 53 72 54 52 55 71 56
REMARK SMILES IDX 53 57 56 58 70 59 89 60 54 61 55 62 69 64 90 65 57 66 41 67
REMARK SMILES IDX 42 68 50 69 43 70 44 71 48 72 51 73 45 74 46 75 49 76 47 77
REMARK SMILES IDX 73 78 74 79 82 80 75 81 76 82 80 83 83 84 77 85 78 86 81 87
REMARK SMILES IDX 79 88 58 89 59 90 67 91 60 92 61 93 65 94 68 95 62 96 63 97
REMARK SMILES IDX 66 98 64 99
REMARK H PARENT 24 6 29 33 88 52 56 63
REMARK Flexibility Score: inf
ROOT
ATOM      1  C   UNL     1      -0.410  -7.944   5.423  1.00  0.00     0.023 C 
ENDROOT
BRANCH   1   2
ATOM      2  C   UNL     1       0.968  -7.866   4.753  1.00  0.00     0.116 C 
BRANCH   2   3
ATOM      3  N   UNL     1       0.941  -8.549   3.472  1.00  0.00    -0.352 N 
ATOM      4  C   UNL     1       0.636  -8.130   2.214  1.00  0.00     0.251 C 
ATOM      5  O   UNL     1       0.548  -8.983   1.335  1.00  0.00    -0.270 OA
ATOM      6  H   UNL     1       1.191  -9.499   3.523  1.00  0.00     0.163 HD
BRANCH   4   7
ATOM      7  C   UNL     1       0.463  -6.696   1.853  1.00  0.00     0.067 C 
ATOM      8  C   UNL     1       0.267  -2.644   0.683  1.00  0.00    -0.002 A 
ATOM      9  C   UNL     1      -0.343  -1.732   1.565  1.00  0.00     0.054 A 
ATOM     10  C   UNL     1       0.336  -3.997   1.067  1.00  0.00     0.131 A 
ATOM     11  C   UNL     1      -0.824  -2.134   2.812  1.00  0.00     0.130 A 
ATOM     12  C   UNL     1      -0.194  -4.413   2.285  1.00  0.00     0.021 A 
ATOM     13  O   UNL     1       1.000  -4.863   0.243  1.00  0.00    -0.475 OA
ATOM     14  C   UNL     1      -0.765  -3.482   3.157  1.00  0.00     0.058 A 
ATOM     15  C   UNL     1      -0.079  -5.802   2.691  1.00  0.00     0.025 C 
ATOM     16  C   UNL     1       0.766  -6.296   0.411  1.00  0.00     0.314 C 
BRANCH   8  17
ATOM     17  C   UNL     1       0.866  -2.220  -0.647  1.00  0.00     0.039 C 
BRANCH  17  18
ATOM     18  C   UNL     1       0.605  -0.790  -1.142  1.00  0.00     0.001 C 
ATOM     19  C   UNL     1       1.498   0.258  -0.486  1.00  0.00     0.004 C 
ENDBRANCH  17  18
ENDBRANCH   8  17
BRANCH  11  20
ATOM     20  O   UNL     1      -1.361  -1.327   3.774  1.00  0.00    -0.406 OA
BRANCH  20  21
ATOM     21  C   UNL     1      -1.227   0.075   3.605  1.00  0.00     0.573 C 
ATOM     22  F   UNL     1       0.059   0.428   3.395  1.00  0.00    -0.132 F 
ATOM     23  F   UNL     1      -1.988   0.507   2.578  1.00  0.00    -0.132 F 
ATOM     24  F   UNL     1      -1.651   0.688   4.732  1.00  0.00    -0.132 F 
ENDBRANCH  20  21
ENDBRANCH  11  20
BRANCH  16  25
ATOM     25  C   UNL     1       1.935  -7.030  -0.286  1.00  0.00     0.429 C 
ATOM     26  F   UNL     1       1.569  -8.218  -0.815  1.00  0.00    -0.167 F 
ATOM     27  F   UNL     1       2.407  -6.301  -1.334  1.00  0.00    -0.167 F 
ATOM     28  F   UNL     1       2.983  -7.239   0.545  1.00  0.00    -0.167 F 
ENDBRANCH  16  25
ENDBRANCH   4   7
ENDBRANCH   2   3
ENDBRANCH   1   2
BRANCH   1  29
ATOM     29  C   UNL     1      -0.700  -9.275   6.120  1.00  0.00     0.023 C 
BRANCH  29  30
ATOM     30  C   UNL     1       0.215  -9.590   7.296  1.00  0.00     0.116 C 
BRANCH  30  31
ATOM     31  N   UNL     1       0.201  -8.564   8.326  1.00  0.00    -0.352 N 
ATOM     32  C   UNL     1       0.412  -8.701   9.677  1.00  0.00     0.251 C 
ATOM     33  H   UNL     1       0.016  -7.649   8.013  1.00  0.00     0.163 HD
ATOM     34  O   UNL     1       0.261  -7.747  10.427  1.00  0.00    -0.269 OA
BRANCH  32  35
ATOM     35  C   UNL     1       0.776 -10.026  10.220  1.00  0.00     0.039 A 
ATOM     36  C   UNL     1       0.079 -10.503  11.332  1.00  0.00     0.014 A 
ATOM     37  C   UNL     1       1.771 -10.803   9.622  1.00  0.00     0.014 A 
ATOM     38  C   UNL     1       0.336 -11.789  11.805  1.00  0.00     0.010 A 
ATOM     39  C   UNL     1       1.973 -12.112  10.047  1.00  0.00     0.010 A 
ATOM     40  C   UNL     1       1.258 -12.617  11.142  1.00  0.00    -0.014 A 
BRANCH  40  41
ATOM     41  C   UNL     1       1.464 -14.020  11.579  1.00  0.00     0.031 A 
ATOM     42  C   UNL     1       2.791 -14.459  12.130  1.00  0.00     0.074 A 
ATOM     43  C   UNL     1       0.463 -14.908  11.432  1.00  0.00     0.049 A 
ATOM     44  N   UNL     1       3.155 -15.639  12.565  1.00  0.00    -0.248 NA
ATOM     45  C   UNL     1       3.859 -13.448  12.173  1.00  0.00     0.031 C 
ATOM     46  C   UNL     1      -0.846 -14.615  10.845  1.00  0.00     0.029 A 
ATOM     47  N   UNL     1       0.388 -16.237  11.763  1.00  0.00    -0.354 N 
ATOM     48  C   UNL     1       4.489 -15.513  12.925  1.00  0.00     0.074 A 
ATOM     49  C   UNL     1       4.889 -14.161  12.603  1.00  0.00     0.031 C 
ATOM     50  C   UNL     1      -1.605 -15.721  10.889  1.00  0.00     0.029 A 
ATOM     51  C   UNL     1      -0.829 -16.807  11.478  1.00  0.00     0.049 A 
ATOM     52  H   UNL     1       1.136 -16.735  12.166  1.00  0.00     0.167 HD
ATOM     53  C   UNL     1       5.299 -16.435  13.499  1.00  0.00     0.037 A 
ATOM     54  C   UNL     1      -1.269 -18.063  11.678  1.00  0.00     0.037 A 
ATOM     55  C   UNL     1       4.889 -17.774  13.835  1.00  0.00     0.049 A 
ATOM     56  C   UNL     1      -0.356 -19.061  12.336  1.00  0.00     0.074 A 
ATOM     57  C   UNL     1       5.615 -18.766  14.470  1.00  0.00     0.029 A 
ATOM     58  N   UNL     1       3.639 -18.309  13.557  1.00  0.00    -0.354 N 
ATOM     59  N   UNL     1       0.877 -18.907  12.752  1.00  0.00    -0.248 NA
ATOM     60  C   UNL     1      -0.904 -20.405  12.567  1.00  0.00     0.031 C 
ATOM     61  C   UNL     1       4.820 -19.915  14.537  1.00  0.00     0.029 A 
ATOM     62  C   UNL     1       3.579 -19.623  13.993  1.00  0.00     0.049 A 
ATOM     63  H   UNL     1       2.904 -17.826  13.116  1.00  0.00     0.167 HD
ATOM     64  C   UNL     1       1.243 -20.119  13.320  1.00  0.00     0.074 A 
ATOM     65  C   UNL     1       0.094 -20.994  13.211  1.00  0.00     0.031 C 
ATOM     66  C   UNL     1       2.424 -20.477  13.883  1.00  0.00     0.037 A 
BRANCH  53  67
ATOM     67  C   UNL     1       6.710 -16.023  13.806  1.00  0.00     0.064 A 
ATOM     68  C   UNL     1       7.000 -15.089  14.813  1.00  0.00     0.173 A 
ATOM     69  C   UNL     1       7.788 -16.592  13.112  1.00  0.00     0.173 A 
ATOM     70  F   UNL     1       6.006 -14.505  15.499  1.00  0.00    -0.203 F 
ATOM     71  C   UNL     1       8.313 -14.718  15.092  1.00  0.00     0.198 A 
ATOM     72  C   UNL     1       9.102 -16.243  13.415  1.00  0.00     0.198 A 
ATOM     73  F   UNL     1       7.569 -17.494  12.143  1.00  0.00    -0.203 F 
ATOM     74  F   UNL     1       8.562 -13.786  16.022  1.00  0.00    -0.200 F 
ATOM     75  C   UNL     1       9.363 -15.301  14.398  1.00  0.00     0.200 A 
ATOM     76  F   UNL     1      10.116 -16.816  12.752  1.00  0.00    -0.200 F 
ATOM     77  F   UNL     1      10.627 -14.948  14.672  1.00  0.00    -0.200 F 
ENDBRANCH  53  67
BRANCH  54  78
ATOM     78  C   UNL     1      -2.656 -18.433  11.294  1.00  0.00     0.064 A 
ATOM     79  C   UNL     1      -3.626 -18.702  12.271  1.00  0.00     0.173 A 
ATOM     80  C   UNL     1      -3.042 -18.524   9.949  1.00  0.00     0.173 A 
ATOM     81  F   UNL     1      -3.300 -18.644  13.571  1.00  0.00    -0.203 F 
ATOM     82  C   UNL     1      -4.922 -19.070  11.917  1.00  0.00     0.198 A 
ATOM     83  C   UNL     1      -4.346 -18.864   9.597  1.00  0.00     0.198 A 
ATOM     84  F   UNL     1      -2.154 -18.268   8.977  1.00  0.00    -0.203 F 
ATOM     85  F   UNL     1      -5.815 -19.367  12.870  1.00  0.00    -0.200 F 
ATOM     86  C   UNL     1      -5.282 -19.146  10.580  1.00  0.00     0.200 A 
ATOM     87  F   UNL     1      -4.695 -18.921   8.304  1.00  0.00    -0.200 F 
ATOM     88  F   UNL     1      -6.530 -19.497  10.239  1.00  0.00    -0.200 F 
ENDBRANCH  54  78
BRANCH  66  89
ATOM     89  C   UNL     1       2.517 -21.860  14.459  1.00  0.00     0.064 A 
ATOM     90  C   UNL     1       2.550 -23.000  13.642  1.00  0.00     0.173 A 
ATOM     91  C   UNL     1       2.596 -22.044  15.848  1.00  0.00     0.173 A 
ATOM     92  F   UNL     1       2.462 -22.879  12.309  1.00  0.00    -0.203 F 
ATOM     93  C   UNL     1       2.623 -24.275  14.197  1.00  0.00     0.198 A 
ATOM     94  C   UNL     1       2.702 -23.319  16.397  1.00  0.00     0.198 A 
ATOM     95  F   UNL     1       2.577 -20.987  16.673  1.00  0.00    -0.203 F 
ATOM     96  F   UNL     1       2.595 -25.353  13.400  1.00  0.00    -0.200 F 
ATOM     97  C   UNL     1       2.705 -24.433  15.572  1.00  0.00     0.200 A 
ATOM     98  F   UNL     1       2.796 -23.468  17.726  1.00  0.00    -0.200 F 
ATOM     99  F   UNL     1       2.778 -25.661  16.104  1.00  0.00    -0.200 F 
ENDBRANCH  66  89
ENDBRANCH  40  41
ENDBRANCH  32  35
ENDBRANCH  30  31
ENDBRANCH  29  30
ENDBRANCH   1  29
TORSDOF 16
