REMARK SMILES O=C(NCCCCNC(=O)[C@@H]1[C@@H](C(=O)Nc2nc(-c3ccc(F)cc3)cs2)[C@H]2C=C[C@@H]1O2)c1ccc(-c2c3nc(c(-c4c(F)c(F)c(F)c(F)c4F)c4ccc([nH]4)c(-c4c(F)c(F)c(F)c(F)c4F)c4nc(c(-c5c(F)c(F)c(F)c(F)c5F)c5ccc2[nH]5)C=C4)C=C3)cc1
REMARK SMILES IDX 6 1 5 2 4 3 3 4 1 5 2 6 33 8 34 9 95 10 35 11 94 12 36 13
REMARK SMILES IDX 37 14 38 15 88 16 39 17 93 18 87 19 89 20 40 21 92 22 86 23
REMARK SMILES IDX 85 24 41 26 73 27 53 28 72 29 54 30 57 31 71 32 90 33 55 34
REMARK SMILES IDX 56 35 70 37 91 38 58 39 42 40 43 41 51 42 44 43 45 44 49 45
REMARK SMILES IDX 52 46 46 47 47 48 50 49 48 50 74 51 75 52 83 53 76 54 77 55
REMARK SMILES IDX 81 56 84 57 78 58 79 59 82 60 80 61 59 62 60 63 68 64 61 65
REMARK SMILES IDX 62 66 66 67 69 68 63 69 64 70 67 71 65 72 7 73 8 74 9 75
REMARK SMILES IDX 10 77 11 78 12 79 31 80 28 81 30 82 32 83 29 84 13 85 14 86
REMARK SMILES IDX 15 87 16 89 17 90 27 91 18 92 26 93 19 94 20 95 25 96 21 97
REMARK SMILES IDX 24 98 22 99 23 100
REMARK H PARENT 3 7 89 25 57 36 8 76 15 88
REMARK Flexibility Score: inf
ROOT
ATOM      1  C   UNL     1       4.153   3.779   0.988  1.00  0.00     0.023 C 
ENDROOT
BRANCH   1   2
ATOM      2  C   UNL     1       4.584   2.821  -0.126  1.00  0.00     0.023 C 
BRANCH   2   3
ATOM      3  C   UNL     1       4.386   1.347   0.197  1.00  0.00     0.116 C 
BRANCH   3   4
ATOM      4  N   UNL     1       2.985   1.012   0.380  1.00  0.00    -0.352 N 
ATOM      5  O   UNL     1       1.072  -0.103  -0.068  1.00  0.00    -0.269 OA
ATOM      6  C   UNL     1       2.287  -0.036  -0.169  1.00  0.00     0.251 C 
ATOM      7  H   UNL     1       2.472   1.609   0.971  1.00  0.00     0.163 HD
BRANCH   6   8
ATOM      8  C   UNL     1       3.034  -1.080  -0.900  1.00  0.00     0.039 A 
ATOM      9  C   UNL     1       4.160  -1.675  -0.323  1.00  0.00     0.014 A 
ATOM     10  C   UNL     1       2.592  -1.470  -2.166  1.00  0.00     0.014 A 
ATOM     11  C   UNL     1       4.894  -2.606  -1.047  1.00  0.00     0.010 A 
ATOM     12  C   UNL     1       3.292  -2.454  -2.866  1.00  0.00     0.010 A 
ATOM     13  C   UNL     1       4.447  -3.026  -2.311  1.00  0.00    -0.014 A 
BRANCH  13  14
ATOM     14  C   UNL     1       5.121  -4.167  -2.973  1.00  0.00     0.031 A 
ATOM     15  C   UNL     1       5.903  -3.989  -4.239  1.00  0.00     0.074 A 
ATOM     16  C   UNL     1       5.002  -5.382  -2.404  1.00  0.00     0.049 A 
ATOM     17  N   UNL     1       6.522  -4.895  -4.952  1.00  0.00    -0.248 NA
ATOM     18  C   UNL     1       6.005  -2.625  -4.781  1.00  0.00     0.031 C 
ATOM     19  C   UNL     1       4.247  -5.663  -1.180  1.00  0.00     0.029 A 
ATOM     20  N   UNL     1       5.510  -6.602  -2.767  1.00  0.00    -0.354 N 
ATOM     21  C   UNL     1       7.075  -4.219  -6.030  1.00  0.00     0.074 A 
ATOM     22  C   UNL     1       6.709  -2.825  -5.889  1.00  0.00     0.031 C 
ATOM     23  C   UNL     1       4.362  -6.964  -0.880  1.00  0.00     0.029 A 
ATOM     24  C   UNL     1       5.145  -7.620  -1.920  1.00  0.00     0.049 A 
ATOM     25  H   UNL     1       6.080  -6.736  -3.559  1.00  0.00     0.167 HD
ATOM     26  C   UNL     1       7.825  -4.726  -7.036  1.00  0.00     0.037 A 
ATOM     27  C   UNL     1       5.388  -8.941  -1.987  1.00  0.00     0.037 A 
ATOM     28  C   UNL     1       8.204  -6.111  -7.146  1.00  0.00     0.049 A 
ATOM     29  C   UNL     1       6.195  -9.473  -3.134  1.00  0.00     0.074 A 
ATOM     30  C   UNL     1       9.025  -6.703  -8.091  1.00  0.00     0.029 A 
ATOM     31  N   UNL     1       7.785  -7.118  -6.291  1.00  0.00    -0.354 N 
ATOM     32  N   UNL     1       6.751  -8.816  -4.122  1.00  0.00    -0.248 NA
ATOM     33  C   UNL     1       6.398 -10.927  -3.187  1.00  0.00     0.031 C 
ATOM     34  C   UNL     1       9.064  -8.077  -7.836  1.00  0.00     0.029 A 
ATOM     35  C   UNL     1       8.301  -8.335  -6.708  1.00  0.00     0.049 A 
ATOM     36  H   UNL     1       7.207  -6.989  -5.505  1.00  0.00     0.167 HD
ATOM     37  C   UNL     1       7.367  -9.771  -4.915  1.00  0.00     0.074 A 
ATOM     38  C   UNL     1       7.140 -11.053  -4.279  1.00  0.00     0.031 C 
ATOM     39  C   UNL     1       8.051  -9.601  -6.070  1.00  0.00     0.037 A 
BRANCH  26  40
ATOM     40  C   UNL     1       8.303  -3.798  -8.111  1.00  0.00     0.064 A 
ATOM     41  C   UNL     1       7.757  -3.874  -9.402  1.00  0.00     0.173 A 
ATOM     42  C   UNL     1       9.390  -2.940  -7.905  1.00  0.00     0.173 A 
ATOM     43  F   UNL     1       6.721  -4.689  -9.651  1.00  0.00    -0.203 F 
ATOM     44  C   UNL     1       8.302  -3.142 -10.454  1.00  0.00     0.198 A 
ATOM     45  C   UNL     1       9.922  -2.195  -8.956  1.00  0.00     0.198 A 
ATOM     46  F   UNL     1       9.943  -2.831  -6.688  1.00  0.00    -0.203 F 
ATOM     47  F   UNL     1       7.792  -3.263 -11.688  1.00  0.00    -0.200 F 
ATOM     48  C   UNL     1       9.386  -2.307 -10.231  1.00  0.00     0.200 A 
ATOM     49  F   UNL     1      10.963  -1.380  -8.738  1.00  0.00    -0.200 F 
ATOM     50  F   UNL     1       9.919  -1.613 -11.246  1.00  0.00    -0.200 F 
ENDBRANCH  26  40
BRANCH  27  51
ATOM     51  C   UNL     1       4.831  -9.840  -0.945  1.00  0.00     0.064 A 
ATOM     52  C   UNL     1       3.448 -10.059  -0.842  1.00  0.00     0.173 A 
ATOM     53  C   UNL     1       5.663 -10.464  -0.009  1.00  0.00     0.173 A 
ATOM     54  F   UNL     1       2.610  -9.478  -1.713  1.00  0.00    -0.203 F 
ATOM     55  C   UNL     1       2.919 -10.850   0.173  1.00  0.00     0.198 A 
ATOM     56  C   UNL     1       5.134 -11.279   0.990  1.00  0.00     0.198 A 
ATOM     57  F   UNL     1       6.992 -10.299  -0.079  1.00  0.00    -0.203 F 
ATOM     58  F   UNL     1       1.592 -11.010   0.273  1.00  0.00    -0.200 F 
ATOM     59  C   UNL     1       3.763 -11.464   1.086  1.00  0.00     0.200 A 
ATOM     60  F   UNL     1       5.954 -11.889   1.857  1.00  0.00    -0.200 F 
ATOM     61  F   UNL     1       3.254 -12.235   2.057  1.00  0.00    -0.200 F 
ENDBRANCH  27  51
BRANCH  39  62
ATOM     62  C   UNL     1       8.591 -10.828  -6.737  1.00  0.00     0.064 A 
ATOM     63  C   UNL     1       9.967 -11.098  -6.732  1.00  0.00     0.173 A 
ATOM     64  C   UNL     1       7.749 -11.695  -7.446  1.00  0.00     0.173 A 
ATOM     65  F   UNL     1      10.812 -10.292  -6.071  1.00  0.00    -0.203 F 
ATOM     66  C   UNL     1      10.483 -12.184  -7.432  1.00  0.00     0.198 A 
ATOM     67  C   UNL     1       8.266 -12.794  -8.125  1.00  0.00     0.198 A 
ATOM     68  F   UNL     1       6.424 -11.484  -7.464  1.00  0.00    -0.203 F 
ATOM     69  F   UNL     1      11.805 -12.405  -7.442  1.00  0.00    -0.200 F 
ATOM     70  C   UNL     1       9.633 -13.031  -8.126  1.00  0.00     0.200 A 
ATOM     71  F   UNL     1       7.441 -13.624  -8.778  1.00  0.00    -0.200 F 
ATOM     72  F   UNL     1      10.131 -14.080  -8.796  1.00  0.00    -0.200 F 
ENDBRANCH  39  62
ENDBRANCH  13  14
ENDBRANCH   6   8
ENDBRANCH   3   4
ENDBRANCH   2   3
ENDBRANCH   1   2
BRANCH   1  73
ATOM     73  C   UNL     1       4.771   3.472   2.350  1.00  0.00     0.116 C 
BRANCH  73  74
ATOM     74  N   UNL     1       6.220   3.527   2.276  1.00  0.00    -0.356 N 
ATOM     75  C   UNL     1       7.096   4.332   2.936  1.00  0.00     0.227 C 
ATOM     76  H   UNL     1       6.631   2.884   1.653  1.00  0.00     0.163 HD
ATOM     77  O   UNL     1       8.251   4.382   2.515  1.00  0.00    -0.275 OA
BRANCH  75  78
ATOM     78  C   UNL     1       6.637   5.042   4.183  1.00  0.00     0.127 C 
ATOM     79  C   UNL     1       6.683   6.609   4.078  1.00  0.00     0.127 C 
ATOM     80  C   UNL     1       7.660   4.749   5.291  1.00  0.00     0.155 C 
ATOM     81  C   UNL     1       7.571   6.919   5.291  1.00  0.00     0.155 C 
ATOM     82  C   UNL     1       7.047   5.122   6.605  1.00  0.00     0.004 C 
ATOM     83  O   UNL     1       8.567   5.864   5.143  1.00  0.00    -0.365 OA
ATOM     84  C   UNL     1       6.982   6.457   6.601  1.00  0.00     0.004 C 
BRANCH  79  85
ATOM     85  C   UNL     1       5.246   7.111   3.916  1.00  0.00     0.233 C 
ATOM     86  O   UNL     1       4.555   6.608   3.014  1.00  0.00    -0.274 OA
ATOM     87  N   UNL     1       4.596   8.006   4.694  1.00  0.00    -0.302 N 
ATOM     88  H   UNL     1       3.615   8.012   4.611  1.00  0.00     0.172 HD
BRANCH  87  89
ATOM     89  C   UNL     1       5.119   8.896   5.571  1.00  0.00     0.189 A 
ATOM     90  N   UNL     1       6.351   9.303   5.664  1.00  0.00    -0.220 NA
ATOM     91  S   UNL     1       4.023   9.519   6.720  1.00  0.00    -0.105 S 
ATOM     92  C   UNL     1       6.504  10.029   6.826  1.00  0.00     0.084 A 
ATOM     93  C   UNL     1       5.351  10.229   7.559  1.00  0.00     0.097 A 
BRANCH  92  94
ATOM     94  C   UNL     1       7.823  10.452   7.236  1.00  0.00     0.001 A 
ATOM     95  C   UNL     1       8.359  11.643   6.735  1.00  0.00     0.013 A 
ATOM     96  C   UNL     1       8.611   9.609   8.033  1.00  0.00     0.013 A 
ATOM     97  C   UNL     1       9.676  11.993   7.037  1.00  0.00     0.040 A 
ATOM     98  C   UNL     1       9.930   9.959   8.326  1.00  0.00     0.040 A 
ATOM     99  C   UNL     1      10.449  11.147   7.826  1.00  0.00     0.123 A 
ATOM    100  F   UNL     1      11.718  11.476   8.096  1.00  0.00    -0.207 F 
ENDBRANCH  92  94
ENDBRANCH  87  89
ENDBRANCH  79  85
ENDBRANCH  75  78
ENDBRANCH  73  74
ENDBRANCH   1  73
TORSDOF 14
