REMARK SMILES C[C@H](CC[NH2+][C@@H]1CCOC2(CCC2)C1)CCC(=O)NCCCCNC(=O)c1ccc(-c2c3nc(c(-c4c(F)c(F)c(F)c(F)c4F)c4ccc([nH]4)c(-c4c(F)c(F)c(F)c(F)c4F)c4nc(c(-c5c(F)c(F)c(F)c(F)c5F)c5ccc2[nH]5)C=C4)C=C3)cc1
REMARK SMILES IDX 17 1 18 2 19 3 16 5 15 6 2 7 1 8 3 9 4 10 5 11 6 14 7 15
REMARK SMILES IDX 14 16 8 17 10 18 9 19 11 20 13 21 12 22 20 23 21 24 22 25
REMARK SMILES IDX 23 26 24 27 25 28 26 30 27 31 28 32 89 33 29 34 88 35 30 36
REMARK SMILES IDX 31 37 32 38 82 39 33 40 87 41 81 42 83 43 34 44 86 45 80 46
REMARK SMILES IDX 79 47 35 49 67 50 47 51 66 52 48 53 51 54 65 55 84 56 49 57
REMARK SMILES IDX 50 58 64 60 85 61 52 62 36 63 37 64 45 65 38 66 39 67 43 68
REMARK SMILES IDX 46 69 40 70 41 71 44 72 42 73 68 74 69 75 77 76 70 77 71 78
REMARK SMILES IDX 75 79 78 80 72 81 73 82 76 83 74 84 53 85 54 86 62 87 55 88
REMARK SMILES IDX 56 89 60 90 63 91 57 92 58 93 61 94 59 95
REMARK H PARENT 19 4 5 12 5 13 24 29 83 48 51 59
REMARK Flexibility Score: inf
ROOT
ATOM      1  C   UNL     1      -1.272   2.981   0.269  1.00  0.00     0.220 C 
ATOM      2  O   UNL     1      -2.303   3.640   0.122  1.00  0.00    -0.275 OA
ATOM      3  N   UNL     1      -0.087   3.648   0.327  1.00  0.00    -0.356 N 
ATOM      4  H   UNL     1      -0.160   4.629   0.303  1.00  0.00     0.163 HD
ENDROOT
BRANCH   1   5
ATOM      5  C   UNL     1      -1.320   1.465   0.373  1.00  0.00     0.100 C 
BRANCH   5   6
ATOM      6  C   UNL     1      -1.394   0.794  -1.003  1.00  0.00     0.013 C 
BRANCH   6   7
ATOM      7  C   UNL     1      -0.109   0.051  -1.465  1.00  0.00    -0.008 C 
ATOM      8  C   UNL     1      -0.233  -0.236  -2.963  1.00  0.00     0.008 C 
BRANCH   7   9
ATOM      9  C   UNL     1       0.193  -1.194  -0.566  1.00  0.00     0.064 C 
BRANCH   9  10
ATOM     10  C   UNL     1       1.088  -2.394  -1.023  1.00  0.00     0.261 C 
BRANCH  10  11
ATOM     11  N   UNL     1       1.964  -2.096  -2.130  1.00  0.00    -0.344 N 
ATOM     12  H   UNL     1       2.157  -1.096  -2.070  1.00  0.00     0.346 HD
ATOM     13  H   UNL     1       1.429  -2.475  -2.912  1.00  0.00     0.346 HD
BRANCH  11  14
ATOM     14  C   UNL     1       3.265  -2.743  -2.335  1.00  0.00     0.187 C 
ATOM     15  C   UNL     1       3.927  -3.655  -1.274  1.00  0.00     0.093 C 
ATOM     16  C   UNL     1       4.211  -1.586  -2.716  1.00  0.00     0.100 C 
ATOM     17  C   UNL     1       4.769  -2.978  -0.192  1.00  0.00     0.167 C 
ATOM     18  C   UNL     1       4.665  -0.920  -1.429  1.00  0.00     0.074 C 
ATOM     19  O   UNL     1       5.489  -1.866  -0.710  1.00  0.00    -0.375 OA
ATOM     20  C   UNL     1       5.251   0.517  -1.542  1.00  0.00     0.036 C 
ATOM     21  C   UNL     1       3.532  -0.259  -0.585  1.00  0.00     0.036 C 
ATOM     22  C   UNL     1       4.538   0.793  -0.211  1.00  0.00     0.006 C 
ENDBRANCH  11  14
ENDBRANCH  10  11
ENDBRANCH   9  10
ENDBRANCH   7   9
ENDBRANCH   6   7
ENDBRANCH   5   6
ENDBRANCH   1   5
BRANCH   3  23
ATOM     23  C   UNL     1       1.264   3.135   0.419  1.00  0.00     0.116 C 
BRANCH  23  24
ATOM     24  C   UNL     1       2.054   3.449  -0.849  1.00  0.00     0.023 C 
BRANCH  24  25
ATOM     25  C   UNL     1       3.151   4.517  -0.757  1.00  0.00     0.023 C 
BRANCH  25  26
ATOM     26  C   UNL     1       3.916   4.727   0.554  1.00  0.00     0.116 C 
BRANCH  26  27
ATOM     27  N   UNL     1       4.700   3.588   1.025  1.00  0.00    -0.352 N 
ATOM     28  C   UNL     1       6.069   3.415   1.039  1.00  0.00     0.251 C 
ATOM     29  H   UNL     1       4.176   2.835   1.383  1.00  0.00     0.163 HD
ATOM     30  O   UNL     1       6.614   2.332   1.204  1.00  0.00    -0.269 OA
BRANCH  28  31
ATOM     31  C   UNL     1       6.899   4.611   0.984  1.00  0.00     0.039 A 
ATOM     32  C   UNL     1       8.004   4.715   0.138  1.00  0.00     0.014 A 
ATOM     33  C   UNL     1       6.523   5.639   1.847  1.00  0.00     0.014 A 
ATOM     34  C   UNL     1       8.698   5.920   0.104  1.00  0.00     0.010 A 
ATOM     35  C   UNL     1       7.133   6.858   1.727  1.00  0.00     0.010 A 
ATOM     36  C   UNL     1       8.235   6.999   0.873  1.00  0.00    -0.014 A 
BRANCH  36  37
ATOM     37  C   UNL     1       8.862   8.327   0.870  1.00  0.00     0.031 A 
ATOM     38  C   UNL     1       9.390   8.853   2.170  1.00  0.00     0.074 A 
ATOM     39  C   UNL     1       8.720   9.097  -0.221  1.00  0.00     0.049 A 
ATOM     40  N   UNL     1       9.685  10.077   2.509  1.00  0.00    -0.248 NA
ATOM     41  C   UNL     1       9.508   7.875   3.269  1.00  0.00     0.031 C 
ATOM     42  C   UNL     1       8.117   8.672  -1.488  1.00  0.00     0.029 A 
ATOM     43  N   UNL     1       9.029  10.412  -0.422  1.00  0.00    -0.354 N 
ATOM     44  C   UNL     1       9.966  10.024   3.868  1.00  0.00     0.074 A 
ATOM     45  C   UNL     1       9.742   8.665   4.304  1.00  0.00     0.031 C 
ATOM     46  C   UNL     1       8.118   9.707  -2.342  1.00  0.00     0.029 A 
ATOM     47  C   UNL     1       8.684  10.868  -1.668  1.00  0.00     0.049 A 
ATOM     48  H   UNL     1       9.459  10.976   0.261  1.00  0.00     0.167 HD
ATOM     49  C   UNL     1      10.398  11.028   4.665  1.00  0.00     0.037 A 
ATOM     50  C   UNL     1       8.815  12.100  -2.190  1.00  0.00     0.037 A 
ATOM     51  C   UNL     1      10.666  12.350   4.169  1.00  0.00     0.049 A 
ATOM     52  C   UNL     1       9.411  13.168  -1.319  1.00  0.00     0.074 A 
ATOM     53  C   UNL     1      11.201  13.436   4.833  1.00  0.00     0.029 A 
ATOM     54  N   UNL     1      10.431  12.751   2.858  1.00  0.00    -0.354 N 
ATOM     55  N   UNL     1       9.748  13.106  -0.052  1.00  0.00    -0.248 NA
ATOM     56  C   UNL     1       9.657  14.470  -1.947  1.00  0.00     0.031 C 
ATOM     57  C   UNL     1      11.273  14.501   3.927  1.00  0.00     0.029 A 
ATOM     58  C   UNL     1      10.814  14.068   2.690  1.00  0.00     0.049 A 
ATOM     59  H   UNL     1      10.047  12.180   2.154  1.00  0.00     0.167 HD
ATOM     60  C   UNL     1      10.268  14.350   0.268  1.00  0.00     0.074 A 
ATOM     61  C   UNL     1      10.215  15.141  -0.948  1.00  0.00     0.031 C 
ATOM     62  C   UNL     1      10.744  14.805   1.453  1.00  0.00     0.037 A 
BRANCH  49  63
ATOM     63  C   UNL     1      10.618  10.715   6.118  1.00  0.00     0.064 A 
ATOM     64  C   UNL     1      11.619   9.823   6.537  1.00  0.00     0.173 A 
ATOM     65  C   UNL     1       9.808  11.295   7.106  1.00  0.00     0.173 A 
ATOM     66  F   UNL     1      12.413   9.226   5.634  1.00  0.00    -0.203 F 
ATOM     67  C   UNL     1      11.770   9.489   7.880  1.00  0.00     0.198 A 
ATOM     68  C   UNL     1       9.985  10.985   8.453  1.00  0.00     0.198 A 
ATOM     69  F   UNL     1       8.836  12.154   6.766  1.00  0.00    -0.203 F 
ATOM     70  F   UNL     1      12.685   8.579   8.243  1.00  0.00    -0.200 F 
ATOM     71  C   UNL     1      10.957  10.073   8.838  1.00  0.00     0.200 A 
ATOM     72  F   UNL     1       9.204  11.558   9.380  1.00  0.00    -0.200 F 
ATOM     73  F   UNL     1      11.100   9.748  10.130  1.00  0.00    -0.200 F 
ENDBRANCH  49  63
BRANCH  50  74
ATOM     74  C   UNL     1       8.457  12.338  -3.610  1.00  0.00     0.064 A 
ATOM     75  C   UNL     1       9.463  12.499  -4.572  1.00  0.00     0.173 A 
ATOM     76  C   UNL     1       7.126  12.347  -4.050  1.00  0.00     0.173 A 
ATOM     77  F   UNL     1      10.752  12.501  -4.198  1.00  0.00    -0.203 F 
ATOM     78  C   UNL     1       9.153  12.676  -5.919  1.00  0.00     0.198 A 
ATOM     79  C   UNL     1       6.817  12.501  -5.401  1.00  0.00     0.198 A 
ATOM     80  F   UNL     1       6.127  12.174  -3.172  1.00  0.00    -0.203 F 
ATOM     81  F   UNL     1      10.135  12.852  -6.812  1.00  0.00    -0.200 F 
ATOM     82  C   UNL     1       7.830  12.670  -6.333  1.00  0.00     0.200 A 
ATOM     83  F   UNL     1       5.538  12.473  -5.801  1.00  0.00    -0.200 F 
ATOM     84  F   UNL     1       7.532  12.825  -7.630  1.00  0.00    -0.200 F 
ENDBRANCH  50  74
BRANCH  62  85
ATOM     85  C   UNL     1      11.262  16.209   1.470  1.00  0.00     0.064 A 
ATOM     86  C   UNL     1      10.391  17.306   1.452  1.00  0.00     0.173 A 
ATOM     87  C   UNL     1      12.640  16.453   1.554  1.00  0.00     0.173 A 
ATOM     88  F   UNL     1       9.066  17.116   1.357  1.00  0.00    -0.203 F 
ATOM     89  C   UNL     1      10.885  18.605   1.495  1.00  0.00     0.198 A 
ATOM     90  C   UNL     1      13.128  17.753   1.624  1.00  0.00     0.198 A 
ATOM     91  F   UNL     1      13.508  15.431   1.581  1.00  0.00    -0.203 F 
ATOM     92  F   UNL     1      10.039  19.643   1.434  1.00  0.00    -0.200 F 
ATOM     93  C   UNL     1      12.251  18.827   1.588  1.00  0.00     0.200 A 
ATOM     94  F   UNL     1      14.447  17.966   1.726  1.00  0.00    -0.200 F 
ATOM     95  F   UNL     1      12.725  20.079   1.638  1.00  0.00    -0.200 F 
ENDBRANCH  62  85
ENDBRANCH  36  37
ENDBRANCH  28  31
ENDBRANCH  26  27
ENDBRANCH  25  26
ENDBRANCH  24  25
ENDBRANCH  23  24
ENDBRANCH   3  23
TORSDOF 17
