REMARK SMILES O=C(NCCCCNC(=O)[C@@H]1CCCCC[C@H]1NC(=O)C1CC1)c1ccc(-c2c3nc(c(-c4c(F)c(F)c(F)c(F)c4F)c4ccc([nH]4)c(-c4c(F)c(F)c(F)c(F)c4F)c4nc(c(-c5c(F)c(F)c(F)c(F)c5F)c5ccc2[nH]5)C=C4)C=C3)cc1
REMARK SMILES IDX 6 1 5 2 4 3 3 4 1 5 2 6 24 8 25 9 86 10 26 11 85 12 27 13
REMARK SMILES IDX 28 14 29 15 79 16 30 17 84 18 78 19 80 20 31 21 83 22 77 23
REMARK SMILES IDX 76 24 32 26 64 27 44 28 63 29 45 30 48 31 62 32 81 33 46 34
REMARK SMILES IDX 47 35 61 37 82 38 49 39 33 40 34 41 42 42 35 43 36 44 40 45
REMARK SMILES IDX 43 46 37 47 38 48 41 49 39 50 65 51 66 52 74 53 67 54 68 55
REMARK SMILES IDX 72 56 75 57 69 58 70 59 73 60 71 61 50 62 51 63 59 64 52 65
REMARK SMILES IDX 53 66 57 67 60 68 54 69 55 70 58 71 56 72 7 73 8 74 9 75
REMARK SMILES IDX 10 77 11 78 12 79 13 80 14 81 17 83 16 84 15 85 18 87 19 88
REMARK SMILES IDX 20 90 21 91 22 92 23 93
REMARK H PARENT 3 7 80 25 48 36 8 76 18 89
REMARK Flexibility Score: 100.00
ROOT
ATOM      1  C   UNL     1       4.333  -3.189  -1.877  1.00  0.00     0.023 C 
ENDROOT
BRANCH   1   2
ATOM      2  C   UNL     1       4.737  -2.522  -0.567  1.00  0.00     0.023 C 
BRANCH   2   3
ATOM      3  C   UNL     1       4.376  -1.052  -0.483  1.00  0.00     0.116 C 
BRANCH   3   4
ATOM      4  N   UNL     1       2.954  -0.791  -0.669  1.00  0.00    -0.352 N 
ATOM      5  O   UNL     1       0.966   0.193  -0.203  1.00  0.00    -0.269 OA
ATOM      6  C   UNL     1       2.177   0.147  -0.030  1.00  0.00     0.251 C 
ATOM      7  H   UNL     1       2.494  -1.355  -1.332  1.00  0.00     0.163 HD
BRANCH   6   8
ATOM      8  C   UNL     1       2.840   1.068   0.912  1.00  0.00     0.039 A 
ATOM      9  C   UNL     1       4.021   1.707   0.533  1.00  0.00     0.014 A 
ATOM     10  C   UNL     1       2.345   1.193   2.211  1.00  0.00     0.014 A 
ATOM     11  C   UNL     1       4.811   2.300   1.504  1.00  0.00     0.010 A 
ATOM     12  C   UNL     1       3.087   1.900   3.159  1.00  0.00     0.010 A 
ATOM     13  C   UNL     1       4.350   2.415   2.827  1.00  0.00    -0.014 A 
BRANCH  13  14
ATOM     14  C   UNL     1       5.204   3.110   3.823  1.00  0.00     0.031 A 
ATOM     15  C   UNL     1       5.725   2.399   5.042  1.00  0.00     0.074 A 
ATOM     16  C   UNL     1       5.545   4.392   3.588  1.00  0.00     0.049 A 
ATOM     17  N   UNL     1       6.506   2.854   5.990  1.00  0.00    -0.248 NA
ATOM     18  C   UNL     1       5.311   1.000   5.231  1.00  0.00     0.031 C 
ATOM     19  C   UNL     1       5.095   5.184   2.441  1.00  0.00     0.029 A 
ATOM     20  N   UNL     1       6.365   5.245   4.278  1.00  0.00    -0.354 N 
ATOM     21  C   UNL     1       6.653   1.813   6.898  1.00  0.00     0.074 A 
ATOM     22  C   UNL     1       5.859   0.709   6.403  1.00  0.00     0.031 C 
ATOM     23  C   UNL     1       5.692   6.382   2.471  1.00  0.00     0.029 A 
ATOM     24  C   UNL     1       6.500   6.474   3.679  1.00  0.00     0.049 A 
ATOM     25  H   UNL     1       6.813   5.002   5.120  1.00  0.00     0.167 HD
ATOM     26  C   UNL     1       7.389   1.783   8.037  1.00  0.00     0.037 A 
ATOM     27  C   UNL     1       7.184   7.564   4.070  1.00  0.00     0.037 A 
ATOM     28  C   UNL     1       8.190   2.884   8.512  1.00  0.00     0.049 A 
ATOM     29  C   UNL     1       7.965   7.508   5.351  1.00  0.00     0.074 A 
ATOM     30  C   UNL     1       9.003   2.941   9.631  1.00  0.00     0.029 A 
ATOM     31  N   UNL     1       8.273   4.127   7.898  1.00  0.00    -0.354 N 
ATOM     32  N   UNL     1       8.126   6.506   6.180  1.00  0.00    -0.248 NA
ATOM     33  C   UNL     1       8.661   8.737   5.748  1.00  0.00     0.031 C 
ATOM     34  C   UNL     1       9.525   4.235   9.730  1.00  0.00     0.029 A 
ATOM     35  C   UNL     1       9.100   4.965   8.632  1.00  0.00     0.049 A 
ATOM     36  H   UNL     1       7.812   4.377   7.065  1.00  0.00     0.167 HD
ATOM     37  C   UNL     1       8.967   6.972   7.180  1.00  0.00     0.074 A 
ATOM     38  C   UNL     1       9.296   8.342   6.840  1.00  0.00     0.031 C 
ATOM     39  C   UNL     1       9.427   6.324   8.279  1.00  0.00     0.037 A 
BRANCH  26  40
ATOM     40  C   UNL     1       7.341   0.532   8.872  1.00  0.00     0.064 A 
ATOM     41  C   UNL     1       7.914  -0.674   8.442  1.00  0.00     0.173 A 
ATOM     42  C   UNL     1       6.749   0.555  10.145  1.00  0.00     0.173 A 
ATOM     43  F   UNL     1       8.486  -0.757   7.231  1.00  0.00    -0.203 F 
ATOM     44  C   UNL     1       7.869  -1.816   9.241  1.00  0.00     0.198 A 
ATOM     45  C   UNL     1       6.736  -0.578  10.955  1.00  0.00     0.198 A 
ATOM     46  F   UNL     1       6.192   1.683  10.613  1.00  0.00    -0.203 F 
ATOM     47  F   UNL     1       8.378  -2.969   8.786  1.00  0.00    -0.200 F 
ATOM     48  C   UNL     1       7.288  -1.765  10.498  1.00  0.00     0.200 A 
ATOM     49  F   UNL     1       6.189  -0.521  12.177  1.00  0.00    -0.200 F 
ATOM     50  F   UNL     1       7.253  -2.862  11.268  1.00  0.00    -0.200 F 
ENDBRANCH  26  40
BRANCH  27  51
ATOM     51  C   UNL     1       7.155   8.794   3.237  1.00  0.00     0.064 A 
ATOM     52  C   UNL     1       8.312   9.258   2.596  1.00  0.00     0.173 A 
ATOM     53  C   UNL     1       5.973   9.529   3.063  1.00  0.00     0.173 A 
ATOM     54  F   UNL     1       9.470   8.597   2.743  1.00  0.00    -0.203 F 
ATOM     55  C   UNL     1       8.293  10.424   1.836  1.00  0.00     0.198 A 
ATOM     56  C   UNL     1       5.947  10.674   2.272  1.00  0.00     0.198 A 
ATOM     57  F   UNL     1       4.835   9.122   3.646  1.00  0.00    -0.203 F 
ATOM     58  F   UNL     1       9.425  10.875   1.278  1.00  0.00    -0.200 F 
ATOM     59  C   UNL     1       7.109  11.128   1.668  1.00  0.00     0.200 A 
ATOM     60  F   UNL     1       4.796  11.337   2.095  1.00  0.00    -0.200 F 
ATOM     61  F   UNL     1       7.091  12.247   0.932  1.00  0.00    -0.200 F 
ENDBRANCH  27  51
BRANCH  39  62
ATOM     62  C   UNL     1      10.384   7.073   9.162  1.00  0.00     0.064 A 
ATOM     63  C   UNL     1       9.982   8.176   9.930  1.00  0.00     0.173 A 
ATOM     64  C   UNL     1      11.727   6.672   9.244  1.00  0.00     0.173 A 
ATOM     65  F   UNL     1       8.714   8.611   9.876  1.00  0.00    -0.203 F 
ATOM     66  C   UNL     1      10.898   8.874  10.714  1.00  0.00     0.198 A 
ATOM     67  C   UNL     1      12.630   7.348  10.059  1.00  0.00     0.198 A 
ATOM     68  F   UNL     1      12.164   5.619   8.536  1.00  0.00    -0.203 F 
ATOM     69  F   UNL     1      10.506   9.967  11.384  1.00  0.00    -0.200 F 
ATOM     70  C   UNL     1      12.218   8.456  10.783  1.00  0.00     0.200 A 
ATOM     71  F   UNL     1      13.901   6.931  10.137  1.00  0.00    -0.200 F 
ATOM     72  F   UNL     1      13.097   9.128  11.539  1.00  0.00    -0.200 F 
ENDBRANCH  39  62
ENDBRANCH  13  14
ENDBRANCH   6   8
ENDBRANCH   3   4
ENDBRANCH   2   3
ENDBRANCH   1   2
BRANCH   1  73
ATOM     73  C   UNL     1       5.008  -2.598  -3.119  1.00  0.00     0.116 C 
BRANCH  73  74
ATOM     74  N   UNL     1       6.385  -3.030  -3.199  1.00  0.00    -0.356 N 
ATOM     75  C   UNL     1       6.936  -4.139  -3.761  1.00  0.00     0.225 C 
ATOM     76  H   UNL     1       7.031  -2.420  -2.776  1.00  0.00     0.163 HD
ATOM     77  O   UNL     1       8.129  -4.324  -3.502  1.00  0.00    -0.275 OA
BRANCH  75  78
ATOM     78  C   UNL     1       6.142  -5.062  -4.719  1.00  0.00     0.101 C 
BRANCH  78  79
ATOM     79  C   UNL     1       4.849  -5.599  -4.083  1.00  0.00     0.015 C 
BRANCH  79  80
ATOM     80  C   UNL     1       4.174  -6.807  -4.719  1.00  0.00     0.001 C 
BRANCH  80  81
ATOM     81  C   UNL     1       4.693  -8.118  -4.151  1.00  0.00     0.000 CG0
ATOM     82  G   UNL     1       6.117  -8.484  -4.545  1.00  0.00     0.000 G0
ENDBRANCH  80  81
ENDBRANCH  79  80
ENDBRANCH  78  79
BRANCH  78  83
ATOM     83  C   UNL     1       7.107  -6.166  -5.238  1.00  0.00     0.094 C 
BRANCH  83  84
ATOM     84  C   UNL     1       7.185  -7.409  -4.327  1.00  0.00     0.026 C 
BRANCH  84  85
ATOM     85  C   UNL     1       6.117  -8.484  -4.545  1.00  0.00     0.002 CG0
ATOM     86  G   UNL     1       4.693  -8.118  -4.151  1.00  0.00     0.000 G0
ENDBRANCH  84  85
ENDBRANCH  83  84
BRANCH  83  87
ATOM     87  N   UNL     1       6.824  -6.526  -6.630  1.00  0.00    -0.352 N 
ATOM     88  C   UNL     1       7.657  -6.591  -7.713  1.00  0.00     0.223 C 
ATOM     89  H   UNL     1       5.886  -6.758  -6.814  1.00  0.00     0.163 HD
ATOM     90  O   UNL     1       7.194  -6.911  -8.802  1.00  0.00    -0.275 OA
BRANCH  88  91
ATOM     91  C   UNL     1       9.095  -6.240  -7.564  1.00  0.00     0.078 C 
ATOM     92  C   UNL     1      10.064  -6.525  -8.691  1.00  0.00     0.014 C 
ATOM     93  C   UNL     1       9.669  -5.110  -8.390  1.00  0.00     0.014 C 
ENDBRANCH  88  91
ENDBRANCH  83  87
ENDBRANCH  78  83
ENDBRANCH  75  78
ENDBRANCH  73  74
ENDBRANCH   1  73
TORSDOF 13
