REMARK SMILES COC(=O)C[C@H](c1ccc(C(=O)NCCCCNC(=O)c2ccc(-c3c4nc(c(-c5c(F)c(F)c(F)c(F)c5F)c5ccc([nH]5)c(-c5c(F)c(F)c(F)c(F)c5F)c5nc(c(-c6c(F)c(F)c(F)c(F)c6F)c6ccc3[nH]6)C=C5)C=C4)cc2)cc1)c1c(O)n[nH]c1C
REMARK SMILES IDX 14 1 13 2 11 3 12 4 10 6 7 7 8 8 85 9 9 10 84 11 6 12 5 13
REMARK SMILES IDX 3 14 4 15 2 16 1 17 86 18 87 19 91 20 89 21 90 22 92 23
REMARK SMILES IDX 88 25 15 27 16 28 17 29 18 30 19 31 20 33 21 34 22 35 83 36
REMARK SMILES IDX 23 37 82 38 24 39 25 40 26 41 76 42 27 43 81 44 75 45 77 46
REMARK SMILES IDX 28 47 80 48 74 49 73 50 29 52 61 53 41 54 60 55 42 56 45 57
REMARK SMILES IDX 59 58 78 59 43 60 44 61 58 63 79 64 46 65 30 66 31 67 39 68
REMARK SMILES IDX 32 69 33 70 37 71 40 72 34 73 35 74 38 75 36 76 62 77 63 78
REMARK SMILES IDX 71 79 64 80 65 81 69 82 72 83 66 84 67 85 70 86 68 87 47 88
REMARK SMILES IDX 48 89 56 90 49 91 50 92 54 93 57 94 51 95 52 96 55 97 53 98
REMARK H PARENT 13 5 90 24 88 26 18 32 77 51 45 62
REMARK Flexibility Score: inf
ROOT
ATOM      1  C   UNL     1       1.615  -5.188  -0.290  1.00  0.00     0.116 C 
ENDROOT
BRANCH   1   2
ATOM      2  N   UNL     1       0.234  -5.519  -0.000  1.00  0.00    -0.352 N 
ATOM      3  C   UNL     1      -0.642  -5.043   0.945  1.00  0.00     0.251 C 
ATOM      4  O   UNL     1      -1.783  -5.505   0.943  1.00  0.00    -0.269 OA
ATOM      5  H   UNL     1      -0.146  -6.210  -0.589  1.00  0.00     0.163 HD
BRANCH   3   6
ATOM      6  C   UNL     1      -0.292  -3.961   1.908  1.00  0.00     0.039 A 
ATOM      7  C   UNL     1       0.229  -1.743   3.582  1.00  0.00    -0.040 A 
ATOM      8  C   UNL     1      -1.086  -2.067   3.217  1.00  0.00     0.005 A 
ATOM      9  C   UNL     1       1.261  -2.602   3.179  1.00  0.00     0.005 A 
ATOM     10  C   UNL     1      -1.338  -3.150   2.369  1.00  0.00     0.014 A 
ATOM     11  C   UNL     1       0.995  -3.717   2.386  1.00  0.00     0.014 A 
BRANCH   7  12
ATOM     12  C   UNL     1       0.585  -0.488   4.364  1.00  0.00     0.068 C 
BRANCH  12  13
ATOM     13  C   UNL     1       0.013   0.817   3.773  1.00  0.00     0.136 C 
BRANCH  13  14
ATOM     14  C   UNL     1      -0.513   0.762   2.361  1.00  0.00     0.306 C 
ATOM     15  O   UNL     1      -1.678   1.022   2.077  1.00  0.00    -0.252 OA
BRANCH  14  16
ATOM     16  O   UNL     1       0.441   0.401   1.462  1.00  0.00    -0.469 OA
ATOM     17  C   UNL     1      -0.093   0.143   0.160  1.00  0.00     0.282 C 
ENDBRANCH  14  16
ENDBRANCH  13  14
ENDBRANCH  12  13
BRANCH  12  18
ATOM     18  C   UNL     1       0.231  -0.762   5.820  1.00  0.00     0.044 A 
ATOM     19  C   UNL     1       0.289  -1.987   6.529  1.00  0.00     0.234 A 
ATOM     20  C   UNL     1      -0.129   0.126   6.836  1.00  0.00     0.040 A 
ATOM     21  N   UNL     1      -0.077  -1.931   7.798  1.00  0.00    -0.137 NA
ATOM     22  N   UNL     1      -0.358  -0.633   7.958  1.00  0.00    -0.279 N 
ATOM     23  C   UNL     1      -0.280   1.600   6.900  1.00  0.00     0.066 C 
ATOM     24  H   UNL     1      -0.697  -0.257   8.802  1.00  0.00     0.190 HD
BRANCH  19  25
ATOM     25  O   UNL     1       0.674  -3.199   6.139  1.00  0.00    -0.492 OA
ATOM     26  H   UNL     1       0.952  -3.340   5.256  1.00  0.00     0.295 HD
ENDBRANCH  19  25
ENDBRANCH  12  18
ENDBRANCH   7  12
ENDBRANCH   3   6
ENDBRANCH   1   2
BRANCH   1  27
ATOM     27  C   UNL     1       2.561  -6.167   0.412  1.00  0.00     0.023 C 
BRANCH  27  28
ATOM     28  C   UNL     1       2.679  -7.527  -0.276  1.00  0.00     0.023 C 
BRANCH  28  29
ATOM     29  C   UNL     1       3.285  -7.485  -1.673  1.00  0.00     0.116 C 
BRANCH  29  30
ATOM     30  N   UNL     1       4.616  -6.899  -1.705  1.00  0.00    -0.352 N 
ATOM     31  C   UNL     1       5.672  -7.219  -2.527  1.00  0.00     0.251 C 
ATOM     32  H   UNL     1       4.784  -6.180  -1.054  1.00  0.00     0.163 HD
ATOM     33  O   UNL     1       6.767  -6.703  -2.370  1.00  0.00    -0.269 OA
BRANCH  31  34
ATOM     34  C   UNL     1       5.470  -8.238  -3.577  1.00  0.00     0.039 A 
ATOM     35  C   UNL     1       6.353  -9.318  -3.637  1.00  0.00     0.014 A 
ATOM     36  C   UNL     1       4.382  -8.157  -4.449  1.00  0.00     0.014 A 
ATOM     37  C   UNL     1       6.096 -10.364  -4.524  1.00  0.00     0.010 A 
ATOM     38  C   UNL     1       4.093  -9.229  -5.287  1.00  0.00     0.010 A 
ATOM     39  C   UNL     1       4.940 -10.347  -5.321  1.00  0.00    -0.014 A 
BRANCH  39  40
ATOM     40  C   UNL     1       4.578 -11.509  -6.167  1.00  0.00     0.031 A 
ATOM     41  C   UNL     1       4.560 -11.382  -7.662  1.00  0.00     0.074 A 
ATOM     42  C   UNL     1       4.191 -12.657  -5.577  1.00  0.00     0.049 A 
ATOM     43  N   UNL     1       4.204 -12.262  -8.562  1.00  0.00    -0.248 NA
ATOM     44  C   UNL     1       4.973 -10.084  -8.219  1.00  0.00     0.031 C 
ATOM     45  C   UNL     1       4.116 -12.882  -4.132  1.00  0.00     0.029 A 
ATOM     46  N   UNL     1       3.775 -13.847  -6.120  1.00  0.00    -0.354 N 
ATOM     47  C   UNL     1       4.341 -11.625  -9.787  1.00  0.00     0.074 A 
ATOM     48  C   UNL     1       4.766 -10.269  -9.515  1.00  0.00     0.031 C 
ATOM     49  C   UNL     1       3.697 -14.136  -3.903  1.00  0.00     0.029 A 
ATOM     50  C   UNL     1       3.442 -14.793  -5.181  1.00  0.00     0.049 A 
ATOM     51  H   UNL     1       3.721 -14.007  -7.089  1.00  0.00     0.167 HD
ATOM     52  C   UNL     1       4.151 -12.135 -11.027  1.00  0.00     0.037 A 
ATOM     53  C   UNL     1       2.974 -16.045  -5.336  1.00  0.00     0.037 A 
ATOM     54  C   UNL     1       3.748 -13.491 -11.293  1.00  0.00     0.049 A 
ATOM     55  C   UNL     1       2.767 -16.583  -6.726  1.00  0.00     0.074 A 
ATOM     56  C   UNL     1       3.591 -14.120 -12.515  1.00  0.00     0.029 A 
ATOM     57  N   UNL     1       3.436 -14.427 -10.318  1.00  0.00    -0.354 N 
ATOM     58  N   UNL     1       2.971 -15.995  -7.879  1.00  0.00    -0.248 NA
ATOM     59  C   UNL     1       2.269 -17.961  -6.834  1.00  0.00     0.031 C 
ATOM     60  C   UNL     1       3.143 -15.425 -12.281  1.00  0.00     0.029 A 
ATOM     61  C   UNL     1       3.064 -15.622 -10.912  1.00  0.00     0.049 A 
ATOM     62  H   UNL     1       3.473 -14.265  -9.347  1.00  0.00     0.167 HD
ATOM     63  C   UNL     1       2.649 -16.935  -8.848  1.00  0.00     0.074 A 
ATOM     64  C   UNL     1       2.253 -18.139  -8.147  1.00  0.00     0.031 C 
ATOM     65  C   UNL     1       2.676 -16.811 -10.197  1.00  0.00     0.037 A 
BRANCH  52  66
ATOM     66  C   UNL     1       4.384 -11.223 -12.195  1.00  0.00     0.064 A 
ATOM     67  C   UNL     1       5.677 -10.815 -12.558  1.00  0.00     0.173 A 
ATOM     68  C   UNL     1       3.311 -10.789 -12.987  1.00  0.00     0.173 A 
ATOM     69  F   UNL     1       6.735 -11.193 -11.825  1.00  0.00    -0.203 F 
ATOM     70  C   UNL     1       5.884  -9.988 -13.659  1.00  0.00     0.198 A 
ATOM     71  C   UNL     1       3.525  -9.984 -14.103  1.00  0.00     0.198 A 
ATOM     72  F   UNL     1       2.056 -11.154 -12.685  1.00  0.00    -0.203 F 
ATOM     73  F   UNL     1       7.123  -9.577 -13.962  1.00  0.00    -0.200 F 
ATOM     74  C   UNL     1       4.809  -9.580 -14.434  1.00  0.00     0.200 A 
ATOM     75  F   UNL     1       2.487  -9.599 -14.859  1.00  0.00    -0.200 F 
ATOM     76  F   UNL     1       5.011  -8.791 -15.499  1.00  0.00    -0.200 F 
ENDBRANCH  52  66
BRANCH  53  77
ATOM     77  C   UNL     1       2.688 -16.885  -4.145  1.00  0.00     0.064 A 
ATOM     78  C   UNL     1       3.491 -17.991  -3.836  1.00  0.00     0.173 A 
ATOM     79  C   UNL     1       1.606 -16.606  -3.297  1.00  0.00     0.173 A 
ATOM     80  F   UNL     1       4.525 -18.309  -4.629  1.00  0.00    -0.203 F 
ATOM     81  C   UNL     1       3.211 -18.800  -2.737  1.00  0.00     0.198 A 
ATOM     82  C   UNL     1       1.343 -17.399  -2.182  1.00  0.00     0.198 A 
ATOM     83  F   UNL     1       0.810 -15.556  -3.547  1.00  0.00    -0.203 F 
ATOM     84  F   UNL     1       3.968 -19.878  -2.491  1.00  0.00    -0.200 F 
ATOM     85  C   UNL     1       2.141 -18.500  -1.908  1.00  0.00     0.200 A 
ATOM     86  F   UNL     1       0.316 -17.100  -1.377  1.00  0.00    -0.200 F 
ATOM     87  F   UNL     1       1.873 -19.277  -0.850  1.00  0.00    -0.200 F 
ENDBRANCH  53  77
BRANCH  65  88
ATOM     88  C   UNL     1       2.288 -18.016 -11.003  1.00  0.00     0.064 A 
ATOM     89  C   UNL     1       0.955 -18.441 -11.090  1.00  0.00     0.173 A 
ATOM     90  C   UNL     1       3.257 -18.731 -11.723  1.00  0.00     0.173 A 
ATOM     91  F   UNL     1      -0.004 -17.799 -10.406  1.00  0.00    -0.203 F 
ATOM     92  C   UNL     1       0.608 -19.554 -11.851  1.00  0.00     0.198 A 
ATOM     93  C   UNL     1       2.902 -19.826 -12.505  1.00  0.00     0.198 A 
ATOM     94  F   UNL     1       4.545 -18.361 -11.676  1.00  0.00    -0.203 F 
ATOM     95  F   UNL     1      -0.665 -19.971 -11.884  1.00  0.00    -0.200 F 
ATOM     96  C   UNL     1       1.581 -20.241 -12.563  1.00  0.00     0.200 A 
ATOM     97  F   UNL     1       3.841 -20.482 -13.201  1.00  0.00    -0.200 F 
ATOM     98  F   UNL     1       1.244 -21.309 -13.299  1.00  0.00    -0.200 F 
ENDBRANCH  65  88
ENDBRANCH  39  40
ENDBRANCH  31  34
ENDBRANCH  29  30
ENDBRANCH  28  29
ENDBRANCH  27  28
ENDBRANCH   1  27
TORSDOF 17
