REMARK SMILES O=C(NCCCCNC(=O)[C@@H]1CCC[N@@H+]1CC(=O)N1CCSc2ccccc21)c1ccc(-c2c3nc(c(-c4c(F)c(F)c(F)c(F)c4F)c4ccc([nH]4)c(-c4c(F)c(F)c(F)c(F)c4F)c4nc(c(-c5c(F)c(F)c(F)c(F)c5F)c5ccc2[nH]5)C=C4)C=C3)cc1
REMARK SMILES IDX 6 1 5 2 4 3 3 4 1 5 2 6 29 8 30 9 91 10 31 11 90 12 32 13
REMARK SMILES IDX 33 14 34 15 84 16 35 17 89 18 83 19 85 20 36 21 88 22 82 23
REMARK SMILES IDX 81 24 37 26 69 27 49 28 68 29 50 30 53 31 67 32 86 33 51 34
REMARK SMILES IDX 52 35 66 37 87 38 54 39 38 40 39 41 47 42 40 43 41 44 45 45
REMARK SMILES IDX 48 46 42 47 43 48 46 49 44 50 70 51 71 52 79 53 72 54 73 55
REMARK SMILES IDX 77 56 80 57 74 58 75 59 78 60 76 61 55 62 56 63 64 64 57 65
REMARK SMILES IDX 58 66 62 67 65 68 59 69 60 70 63 71 61 72 7 73 8 74 9 75
REMARK SMILES IDX 10 77 11 78 12 79 15 80 13 81 14 82 16 84 17 85 18 86 19 87
REMARK SMILES IDX 20 88 28 89 21 90 23 91 27 92 22 93 24 94 26 95 25 96
REMARK H PARENT 3 7 85 25 53 36 8 76 15 83
REMARK Flexibility Score: inf
ROOT
ATOM      1  C   UNL     1       3.772  -3.938   0.678  1.00  0.00     0.023 C 
ENDROOT
BRANCH   1   2
ATOM      2  C   UNL     1       4.360  -2.548   0.954  1.00  0.00     0.023 C 
BRANCH   2   3
ATOM      3  C   UNL     1       4.125  -1.473  -0.100  1.00  0.00     0.116 C 
BRANCH   3   4
ATOM      4  N   UNL     1       2.722  -1.145  -0.259  1.00  0.00    -0.352 N 
ATOM      5  O   UNL     1       0.856   0.097  -0.249  1.00  0.00    -0.269 OA
ATOM      6  C   UNL     1       2.091   0.071  -0.255  1.00  0.00     0.251 C 
ATOM      7  H   UNL     1       2.128  -1.919  -0.391  1.00  0.00     0.163 HD
BRANCH   6   8
ATOM      8  C   UNL     1       2.837   1.354  -0.261  1.00  0.00     0.039 A 
ATOM      9  C   UNL     1       2.279   2.448   0.415  1.00  0.00     0.014 A 
ATOM     10  C   UNL     1       4.007   1.535  -1.005  1.00  0.00     0.014 A 
ATOM     11  C   UNL     1       2.879   3.709   0.339  1.00  0.00     0.010 A 
ATOM     12  C   UNL     1       4.644   2.778  -1.024  1.00  0.00     0.010 A 
ATOM     13  C   UNL     1       4.064   3.887  -0.389  1.00  0.00    -0.014 A 
BRANCH  13  14
ATOM     14  C   UNL     1       4.634   5.243  -0.609  1.00  0.00     0.031 A 
ATOM     15  C   UNL     1       4.624   5.831  -1.997  1.00  0.00     0.074 A 
ATOM     16  C   UNL     1       5.161   5.946   0.411  1.00  0.00     0.049 A 
ATOM     17  N   UNL     1       5.142   6.952  -2.431  1.00  0.00    -0.248 NA
ATOM     18  C   UNL     1       3.961   5.035  -3.043  1.00  0.00     0.031 C 
ATOM     19  C   UNL     1       5.233   5.497   1.800  1.00  0.00     0.029 A 
ATOM     20  N   UNL     1       5.738   7.192   0.432  1.00  0.00    -0.354 N 
ATOM     21  C   UNL     1       4.889   6.981  -3.796  1.00  0.00     0.074 A 
ATOM     22  C   UNL     1       4.217   5.745  -4.130  1.00  0.00     0.031 C 
ATOM     23  C   UNL     1       5.794   6.464   2.544  1.00  0.00     0.029 A 
ATOM     24  C   UNL     1       6.155   7.586   1.680  1.00  0.00     0.049 A 
ATOM     25  H   UNL     1       5.842   7.751  -0.372  1.00  0.00     0.167 HD
ATOM     26  C   UNL     1       5.166   7.961  -4.690  1.00  0.00     0.037 A 
ATOM     27  C   UNL     1       6.761   8.721   2.078  1.00  0.00     0.037 A 
ATOM     28  C   UNL     1       5.787   9.213  -4.352  1.00  0.00     0.049 A 
ATOM     29  C   UNL     1       7.074   9.790   1.065  1.00  0.00     0.074 A 
ATOM     30  C   UNL     1       6.068  10.287  -5.178  1.00  0.00     0.029 A 
ATOM     31  N   UNL     1       6.210   9.564  -3.079  1.00  0.00    -0.354 N 
ATOM     32  N   UNL     1       6.822   9.809  -0.221  1.00  0.00    -0.248 NA
ATOM     33  C   UNL     1       7.761  10.992   1.559  1.00  0.00     0.031 C 
ATOM     34  C   UNL     1       6.690  11.277  -4.411  1.00  0.00     0.029 A 
ATOM     35  C   UNL     1       6.763  10.833  -3.100  1.00  0.00     0.049 A 
ATOM     36  H   UNL     1       6.130   8.995  -2.280  1.00  0.00     0.167 HD
ATOM     37  C   UNL     1       7.304  11.025  -0.687  1.00  0.00     0.074 A 
ATOM     38  C   UNL     1       7.848  11.726   0.458  1.00  0.00     0.031 C 
ATOM     39  C   UNL     1       7.301  11.515  -1.951  1.00  0.00     0.037 A 
BRANCH  26  40
ATOM     40  C   UNL     1       4.784   7.722  -6.121  1.00  0.00     0.064 A 
ATOM     41  C   UNL     1       3.443   7.726  -6.533  1.00  0.00     0.173 A 
ATOM     42  C   UNL     1       5.770   7.521  -7.098  1.00  0.00     0.173 A 
ATOM     43  F   UNL     1       2.462   7.899  -5.634  1.00  0.00    -0.203 F 
ATOM     44  C   UNL     1       3.101   7.510  -7.865  1.00  0.00     0.198 A 
ATOM     45  C   UNL     1       5.426   7.334  -8.435  1.00  0.00     0.198 A 
ATOM     46  F   UNL     1       7.068   7.513  -6.759  1.00  0.00    -0.203 F 
ATOM     47  F   UNL     1       1.811   7.470  -8.226  1.00  0.00    -0.200 F 
ATOM     48  C   UNL     1       4.093   7.322  -8.816  1.00  0.00     0.200 A 
ATOM     49  F   UNL     1       6.386   7.163  -9.355  1.00  0.00    -0.200 F 
ATOM     50  F   UNL     1       3.763   7.121 -10.099  1.00  0.00    -0.200 F 
ENDBRANCH  26  40
BRANCH  27  51
ATOM     51  C   UNL     1       7.086   8.917   3.514  1.00  0.00     0.064 A 
ATOM     52  C   UNL     1       6.364   9.835   4.291  1.00  0.00     0.173 A 
ATOM     53  C   UNL     1       8.105   8.188   4.143  1.00  0.00     0.173 A 
ATOM     54  F   UNL     1       5.397  10.573   3.727  1.00  0.00    -0.203 F 
ATOM     55  C   UNL     1       6.652  10.018   5.641  1.00  0.00     0.198 A 
ATOM     56  C   UNL     1       8.377   8.355   5.499  1.00  0.00     0.198 A 
ATOM     57  F   UNL     1       8.825   7.300   3.442  1.00  0.00    -0.203 F 
ATOM     58  F   UNL     1       5.967  10.923   6.354  1.00  0.00    -0.200 F 
ATOM     59  C   UNL     1       7.653   9.273   6.246  1.00  0.00     0.200 A 
ATOM     60  F   UNL     1       9.338   7.627   6.083  1.00  0.00    -0.200 F 
ATOM     61  F   UNL     1       7.923   9.442   7.548  1.00  0.00    -0.200 F 
ENDBRANCH  27  51
BRANCH  39  62
ATOM     62  C   UNL     1       7.897  12.873  -2.170  1.00  0.00     0.064 A 
ATOM     63  C   UNL     1       9.286  13.070  -2.155  1.00  0.00     0.173 A 
ATOM     64  C   UNL     1       7.079  13.973  -2.468  1.00  0.00     0.173 A 
ATOM     65  F   UNL     1      10.108  12.052  -1.862  1.00  0.00    -0.203 F 
ATOM     66  C   UNL     1       9.832  14.323  -2.419  1.00  0.00     0.198 A 
ATOM     67  C   UNL     1       7.630  15.218  -2.756  1.00  0.00     0.198 A 
ATOM     68  F   UNL     1       5.745  13.833  -2.503  1.00  0.00    -0.203 F 
ATOM     69  F   UNL     1      11.160  14.496  -2.370  1.00  0.00    -0.200 F 
ATOM     70  C   UNL     1       9.005  15.393  -2.728  1.00  0.00     0.200 A 
ATOM     71  F   UNL     1       6.830  16.247  -3.068  1.00  0.00    -0.200 F 
ATOM     72  F   UNL     1       9.534  16.594  -2.997  1.00  0.00    -0.200 F 
ENDBRANCH  39  62
ENDBRANCH  13  14
ENDBRANCH   6   8
ENDBRANCH   3   4
ENDBRANCH   2   3
ENDBRANCH   1   2
BRANCH   1  73
ATOM     73  C   UNL     1       4.122  -4.573  -0.670  1.00  0.00     0.116 C 
BRANCH  73  74
ATOM     74  N   UNL     1       5.545  -4.715  -0.897  1.00  0.00    -0.351 N 
ATOM     75  C   UNL     1       6.379  -5.793  -0.891  1.00  0.00     0.278 C 
ATOM     76  H   UNL     1       6.000  -3.864  -1.096  1.00  0.00     0.163 HD
ATOM     77  O   UNL     1       7.503  -5.570  -1.357  1.00  0.00    -0.268 OA
BRANCH  75  78
ATOM     78  C   UNL     1       5.974  -7.189  -0.352  1.00  0.00     0.274 C 
ATOM     79  C   UNL     1       4.965  -7.364   0.766  1.00  0.00     0.081 C 
ATOM     80  N   UNL     1       7.117  -8.018   0.133  1.00  0.00    -0.317 N 
ATOM     81  C   UNL     1       5.130  -8.825   1.175  1.00  0.00     0.068 C 
ATOM     82  C   UNL     1       6.522  -9.228   0.705  1.00  0.00     0.263 C 
ATOM     83  H   UNL     1       7.698  -8.184  -0.688  1.00  0.00     0.349 HD
BRANCH  80  84
ATOM     84  C   UNL     1       8.203  -7.430   0.955  1.00  0.00     0.364 C 
BRANCH  84  85
ATOM     85  C   UNL     1       7.982  -7.210   2.483  1.00  0.00     0.282 C 
ATOM     86  O   UNL     1       7.905  -8.176   3.245  1.00  0.00    -0.268 OA
BRANCH  85  87
ATOM     87  N   UNL     1       8.009  -5.872   2.928  1.00  0.00    -0.306 N 
ATOM     88  C   UNL     1       7.264  -4.877   2.177  1.00  0.00     0.137 C 
ATOM     89  C   UNL     1       8.546  -5.436   4.202  1.00  0.00     0.057 A 
ATOM     90  C   UNL     1       7.990  -3.566   2.011  1.00  0.00     0.097 C 
ATOM     91  C   UNL     1       8.472  -4.074   4.613  1.00  0.00     0.031 A 
ATOM     92  C   UNL     1       9.234  -6.318   5.048  1.00  0.00     0.027 A 
ATOM     93  S   UNL     1       7.859  -2.724   3.594  1.00  0.00    -0.122 SA
ATOM     94  C   UNL     1       8.974  -3.666   5.858  1.00  0.00     0.017 A 
ATOM     95  C   UNL     1       9.772  -5.889   6.270  1.00  0.00     0.002 A 
ATOM     96  C   UNL     1       9.624  -4.571   6.685  1.00  0.00     0.001 A 
ENDBRANCH  85  87
ENDBRANCH  84  85
ENDBRANCH  80  84
ENDBRANCH  75  78
ENDBRANCH  73  74
ENDBRANCH   1  73
TORSDOF 14
