REMARK SMILES CCc1cc(OC(F)(F)F)cc2c1O[C@@H](C(F)(F)F)C(C(=O)NCCCCNC(=O)c1ccc(-c3c4nc(c(-c5c(F)c(F)c(F)c(F)c5F)c5ccc([nH]5)c(-c5c(F)c(F)c(F)c(F)c5F)c5nc(c(-c6c(F)c(F)c(F)c(F)c6F)c6ccc3[nH]6)C=C5)C=C4)cc1)=C2
REMARK SMILES IDX 25 1 24 2 23 3 21 4 22 5 20 7 3 8 4 9 13 10 5 11 12 12 14 13
REMARK SMILES IDX 11 14 94 15 15 16 2 17 1 18 6 19 7 20 8 21 9 22 10 23 16 24
REMARK SMILES IDX 17 25 18 26 19 27 26 28 27 29 28 30 29 31 30 33 31 34 32 35
REMARK SMILES IDX 93 36 33 37 92 38 34 39 35 40 36 41 86 42 37 43 91 44 85 45
REMARK SMILES IDX 87 46 38 47 90 48 84 49 83 50 39 52 71 53 51 54 70 55 52 56
REMARK SMILES IDX 55 57 69 58 88 59 53 60 54 61 68 63 89 64 56 65 40 66 41 67
REMARK SMILES IDX 49 68 42 69 43 70 47 71 50 72 44 73 45 74 48 75 46 76 72 77
REMARK SMILES IDX 73 78 81 79 74 80 75 81 79 82 82 83 76 84 77 85 80 86 78 87
REMARK SMILES IDX 57 88 58 89 66 90 59 91 60 92 64 93 67 94 61 95 62 96 65 97
REMARK SMILES IDX 63 98
REMARK H PARENT 23 6 28 32 87 51 55 62
REMARK Flexibility Score: inf
ROOT
ATOM      1  C   UNL     1       5.806  -6.667   1.888  1.00  0.00     0.023 C 
ENDROOT
BRANCH   1   2
ATOM      2  C   UNL     1       5.325  -5.536   2.806  1.00  0.00     0.116 C 
BRANCH   2   3
ATOM      3  N   UNL     1       6.086  -4.328   2.543  1.00  0.00    -0.352 N 
ATOM      4  C   UNL     1       5.908  -3.309   1.661  1.00  0.00     0.251 C 
ATOM      5  O   UNL     1       6.823  -2.501   1.525  1.00  0.00    -0.270 OA
ATOM      6  H   UNL     1       6.883  -4.227   3.112  1.00  0.00     0.163 HD
BRANCH   4   7
ATOM      7  C   UNL     1       4.635  -3.090   0.922  1.00  0.00     0.067 C 
ATOM      8  C   UNL     1       0.913  -2.201  -0.857  1.00  0.00    -0.002 A 
ATOM      9  C   UNL     1       0.121  -3.281  -1.313  1.00  0.00     0.054 A 
ATOM     10  C   UNL     1       2.176  -2.478  -0.306  1.00  0.00     0.131 A 
ATOM     11  C   UNL     1       0.557  -4.601  -1.200  1.00  0.00     0.130 A 
ATOM     12  C   UNL     1       2.615  -3.797  -0.194  1.00  0.00     0.021 A 
ATOM     13  O   UNL     1       2.924  -1.435   0.145  1.00  0.00    -0.475 OA
ATOM     14  C   UNL     1       1.808  -4.849  -0.640  1.00  0.00     0.058 A 
ATOM     15  C   UNL     1       3.880  -4.093   0.456  1.00  0.00     0.025 C 
ATOM     16  C   UNL     1       4.297  -1.644   0.582  1.00  0.00     0.314 C 
BRANCH   8  17
ATOM     17  C   UNL     1       0.368  -0.800  -1.065  1.00  0.00     0.036 C 
ATOM     18  C   UNL     1       0.615   0.221   0.038  1.00  0.00     0.009 C 
ENDBRANCH   8  17
BRANCH  11  19
ATOM     19  O   UNL     1      -0.119  -5.724  -1.577  1.00  0.00    -0.406 OA
BRANCH  19  20
ATOM     20  C   UNL     1      -1.400  -5.566  -2.163  1.00  0.00     0.573 C 
ATOM     21  F   UNL     1      -2.253  -4.957  -1.314  1.00  0.00    -0.132 F 
ATOM     22  F   UNL     1      -1.322  -4.862  -3.311  1.00  0.00    -0.132 F 
ATOM     23  F   UNL     1      -1.895  -6.790  -2.452  1.00  0.00    -0.132 F 
ENDBRANCH  19  20
ENDBRANCH  11  19
BRANCH  16  24
ATOM     24  C   UNL     1       4.588  -0.601   1.688  1.00  0.00     0.429 C 
ATOM     25  F   UNL     1       5.869  -0.171   1.679  1.00  0.00    -0.167 F 
ATOM     26  F   UNL     1       3.831   0.516   1.518  1.00  0.00    -0.167 F 
ATOM     27  F   UNL     1       4.311  -1.074   2.925  1.00  0.00    -0.167 F 
ENDBRANCH  16  24
ENDBRANCH   4   7
ENDBRANCH   2   3
ENDBRANCH   1   2
BRANCH   1  28
ATOM     28  C   UNL     1       7.131  -7.303   2.318  1.00  0.00     0.023 C 
BRANCH  28  29
ATOM     29  C   UNL     1       7.077  -8.043   3.648  1.00  0.00     0.116 C 
BRANCH  29  30
ATOM     30  N   UNL     1       6.093  -9.114   3.666  1.00  0.00    -0.352 N 
ATOM     31  C   UNL     1       6.127 -10.295   4.370  1.00  0.00     0.251 C 
ATOM     32  H   UNL     1       5.300  -8.976   3.101  1.00  0.00     0.163 HD
ATOM     33  O   UNL     1       5.268 -11.147   4.199  1.00  0.00    -0.269 OA
BRANCH  31  34
ATOM     34  C   UNL     1       7.245 -10.540   5.304  1.00  0.00     0.039 A 
ATOM     35  C   UNL     1       7.942 -11.746   5.210  1.00  0.00     0.014 A 
ATOM     36  C   UNL     1       7.621  -9.572   6.238  1.00  0.00     0.014 A 
ATOM     37  C   UNL     1       9.063 -11.956   6.013  1.00  0.00     0.010 A 
ATOM     38  C   UNL     1       8.777  -9.755   6.990  1.00  0.00     0.010 A 
ATOM     39  C   UNL     1       9.508 -10.947   6.883  1.00  0.00    -0.014 A 
BRANCH  39  40
ATOM     40  C   UNL     1      10.740 -11.120   7.690  1.00  0.00     0.031 A 
ATOM     41  C   UNL     1      10.655 -11.180   9.188  1.00  0.00     0.074 A 
ATOM     42  C   UNL     1      11.937 -11.152   7.074  1.00  0.00     0.049 A 
ATOM     43  N   UNL     1      11.619 -11.257  10.069  1.00  0.00    -0.248 NA
ATOM     44  C   UNL     1       9.307 -11.114   9.775  1.00  0.00     0.031 C 
ATOM     45  C   UNL     1      12.148 -11.049   5.630  1.00  0.00     0.029 A 
ATOM     46  N   UNL     1      13.204 -11.269   7.588  1.00  0.00    -0.354 N 
ATOM     47  C   UNL     1      10.998 -11.234  11.310  1.00  0.00     0.074 A 
ATOM     48  C   UNL     1       9.579 -11.083  11.072  1.00  0.00     0.031 C 
ATOM     49  C   UNL     1      13.463 -11.127   5.371  1.00  0.00     0.029 A 
ATOM     50  C   UNL     1      14.189 -11.252   6.632  1.00  0.00     0.049 A 
ATOM     51  H   UNL     1      13.389 -11.356   8.551  1.00  0.00     0.167 HD
ATOM     52  C   UNL     1      11.559 -11.352  12.537  1.00  0.00     0.037 A 
ATOM     53  C   UNL     1      15.527 -11.325   6.761  1.00  0.00     0.037 A 
ATOM     54  C   UNL     1      12.968 -11.531  12.767  1.00  0.00     0.049 A 
ATOM     55  C   UNL     1      16.124 -11.466   8.134  1.00  0.00     0.074 A 
ATOM     56  C   UNL     1      13.630 -11.725  13.966  1.00  0.00     0.029 A 
ATOM     57  N   UNL     1      13.934 -11.537  11.771  1.00  0.00    -0.354 N 
ATOM     58  N   UNL     1      15.521 -11.515   9.297  1.00  0.00    -0.248 NA
ATOM     59  C   UNL     1      17.588 -11.568   8.212  1.00  0.00     0.031 C 
ATOM     60  C   UNL     1      15.001 -11.810  13.701  1.00  0.00     0.029 A 
ATOM     61  C   UNL     1      15.189 -11.714  12.331  1.00  0.00     0.049 A 
ATOM     62  H   UNL     1      13.755 -11.432  10.808  1.00  0.00     0.167 HD
ATOM     63  C   UNL     1      16.526 -11.682  10.241  1.00  0.00     0.074 A 
ATOM     64  C   UNL     1      17.777 -11.739   9.513  1.00  0.00     0.031 C 
ATOM     65  C   UNL     1      16.422 -11.778  11.589  1.00  0.00     0.037 A 
BRANCH  52  66
ATOM     66  C   UNL     1      10.644 -11.298  13.725  1.00  0.00     0.064 A 
ATOM     67  C   UNL     1       9.751 -12.341  14.011  1.00  0.00     0.173 A 
ATOM     68  C   UNL     1      10.681 -10.206  14.604  1.00  0.00     0.173 A 
ATOM     69  F   UNL     1       9.667 -13.402  13.194  1.00  0.00    -0.203 F 
ATOM     70  C   UNL     1       8.908 -12.279  15.118  1.00  0.00     0.198 A 
ATOM     71  C   UNL     1       9.858 -10.161  15.726  1.00  0.00     0.198 A 
ATOM     72  F   UNL     1      11.520  -9.183  14.379  1.00  0.00    -0.203 F 
ATOM     73  F   UNL     1       8.027 -13.264  15.343  1.00  0.00    -0.200 F 
ATOM     74  C   UNL     1       8.967 -11.193  15.978  1.00  0.00     0.200 A 
ATOM     75  F   UNL     1       9.924  -9.116  16.563  1.00  0.00    -0.200 F 
ATOM     76  F   UNL     1       8.159 -11.137  17.046  1.00  0.00    -0.200 F 
ENDBRANCH  52  66
BRANCH  53  77
ATOM     77  C   UNL     1      16.391 -11.300   5.553  1.00  0.00     0.064 A 
ATOM     78  C   UNL     1      17.076 -12.450   5.136  1.00  0.00     0.173 A 
ATOM     79  C   UNL     1      16.552 -10.132   4.793  1.00  0.00     0.173 A 
ATOM     80  F   UNL     1      16.968 -13.585   5.841  1.00  0.00    -0.203 F 
ATOM     81  C   UNL     1      17.905 -12.428   4.016  1.00  0.00     0.198 A 
ATOM     82  C   UNL     1      17.360 -10.118   3.658  1.00  0.00     0.198 A 
ATOM     83  F   UNL     1      15.913  -9.007   5.146  1.00  0.00    -0.203 F 
ATOM     84  F   UNL     1      18.581 -13.530   3.665  1.00  0.00    -0.200 F 
ATOM     85  C   UNL     1      18.042 -11.264   3.275  1.00  0.00     0.200 A 
ATOM     86  F   UNL     1      17.480  -8.995   2.937  1.00  0.00    -0.200 F 
ATOM     87  F   UNL     1      18.837 -11.244   2.197  1.00  0.00    -0.200 F 
ENDBRANCH  53  77
BRANCH  65  88
ATOM     88  C   UNL     1      17.690 -11.989  12.361  1.00  0.00     0.064 A 
ATOM     89  C   UNL     1      18.627 -10.960  12.532  1.00  0.00     0.173 A 
ATOM     90  C   UNL     1      17.951 -13.226  12.971  1.00  0.00     0.173 A 
ATOM     91  F   UNL     1      18.430  -9.765  11.954  1.00  0.00    -0.203 F 
ATOM     92  C   UNL     1      19.791 -11.168  13.267  1.00  0.00     0.198 A 
ATOM     93  C   UNL     1      19.102 -13.421  13.729  1.00  0.00     0.198 A 
ATOM     94  F   UNL     1      17.082 -14.240  12.842  1.00  0.00    -0.203 F 
ATOM     95  F   UNL     1      20.695 -10.185  13.380  1.00  0.00    -0.200 F 
ATOM     96  C   UNL     1      20.024 -12.395  13.870  1.00  0.00     0.200 A 
ATOM     97  F   UNL     1      19.319 -14.604  14.322  1.00  0.00    -0.200 F 
ATOM     98  F   UNL     1      21.141 -12.591  14.583  1.00  0.00    -0.200 F 
ENDBRANCH  65  88
ENDBRANCH  39  40
ENDBRANCH  31  34
ENDBRANCH  29  30
ENDBRANCH  28  29
ENDBRANCH   1  28
TORSDOF 15
