REMARK SMILES O=C(Cn1cc(/C=C2\SC(N3CCOCC3)=[NH+]C2=O)c2ccccc21)NCCCCNC(=O)c1ccc(-c2c3nc(c(-c4c(F)c(F)c(F)c(F)c4F)c4ccc([nH]4)c(-c4c(F)c(F)c(F)c(F)c4F)c4nc(c(-c5c(F)c(F)c(F)c(F)c5F)c5ccc2[nH]5)C=C4)C=C3)cc1
REMARK SMILES IDX 28 1 27 2 26 3 1 4 2 5 3 7 4 8 5 9 25 10 6 11 20 12 24 13
REMARK SMILES IDX 21 14 23 15 22 16 7 17 8 18 9 19 18 20 10 21 17 22 19 23
REMARK SMILES IDX 11 24 12 26 16 27 13 28 15 29 14 30 29 31 30 32 31 33 32 34
REMARK SMILES IDX 33 36 34 37 35 38 96 39 36 40 95 41 37 42 38 43 39 44 89 45
REMARK SMILES IDX 40 46 94 47 88 48 90 49 41 50 93 51 87 52 86 53 42 55 74 56
REMARK SMILES IDX 54 57 73 58 55 59 58 60 72 61 91 62 56 63 57 64 71 66 92 67
REMARK SMILES IDX 59 68 43 69 44 70 52 71 45 72 46 73 50 74 53 75 47 76 48 77
REMARK SMILES IDX 51 78 49 79 75 80 76 81 84 82 77 83 78 84 82 85 85 86 79 87
REMARK SMILES IDX 80 88 83 89 81 90 60 91 61 92 69 93 62 94 63 95 67 96 70 97
REMARK SMILES IDX 64 98 65 99 68 100 66 101
REMARK H PARENT 26 6 17 25 31 35 90 54 58 65
REMARK Flexibility Score: inf
ROOT
ATOM      1  C   UNL     1       2.586   1.053   3.309  1.00  0.00     0.023 C 
ENDROOT
BRANCH   1   2
ATOM      2  C   UNL     1       2.182   1.378   1.874  1.00  0.00     0.116 C 
BRANCH   2   3
ATOM      3  N   UNL     1       2.880   0.564   0.898  1.00  0.00    -0.355 N 
ATOM      4  O   UNL     1       0.989  -0.383   0.001  1.00  0.00    -0.273 OA
ATOM      5  C   UNL     1       2.206  -0.218  -0.023  1.00  0.00     0.239 C 
ATOM      6  H   UNL     1       3.865   0.567   0.891  1.00  0.00     0.163 HD
BRANCH   5   7
ATOM      7  C   UNL     1       3.084  -0.897  -1.057  1.00  0.00     0.222 C 
BRANCH   7   8
ATOM      8  N   UNL     1       3.801   0.011  -1.952  1.00  0.00    -0.337 N 
ATOM      9  C   UNL     1       3.613   1.363  -2.064  1.00  0.00     0.095 A 
ATOM     10  C   UNL     1       4.792  -0.395  -2.832  1.00  0.00     0.049 A 
ATOM     11  C   UNL     1       4.552   1.855  -2.941  1.00  0.00     0.001 A 
ATOM     12  C   UNL     1       5.274   0.755  -3.472  1.00  0.00     0.007 A 
ATOM     13  C   UNL     1       5.302  -1.672  -3.119  1.00  0.00     0.027 A 
ATOM     14  C   UNL     1       6.301   0.619  -4.429  1.00  0.00     0.011 A 
ATOM     15  C   UNL     1       6.315  -1.778  -4.076  1.00  0.00     0.002 A 
ATOM     16  C   UNL     1       6.809  -0.650  -4.724  1.00  0.00     0.001 A 
BRANCH  11  17
ATOM     17  C   UNL     1       4.686   3.241  -3.245  1.00  0.00     0.034 C 
ATOM     18  C   UNL     1       5.104   4.188  -2.392  1.00  0.00     0.110 C 
ATOM     19  S   UNL     1       5.705   3.974  -0.796  1.00  0.00     0.006 SA
ATOM     20  C   UNL     1       5.079   5.640  -2.711  1.00  0.00     0.346 C 
ATOM     21  C   UNL     1       5.774   5.716  -0.600  1.00  0.00     0.319 C 
ATOM     22  N   UNL     1       5.397   6.415  -1.621  1.00  0.00    -0.200 N 
ATOM     23  O   UNL     1       4.789   6.078  -3.826  1.00  0.00    -0.240 OA
ATOM     24  N   UNL     1       6.147   6.200   0.618  1.00  0.00    -0.251 N 
ATOM     25  H   UNL     1       5.344   7.398  -1.618  1.00  0.00     0.316 HD
ATOM     26  C   UNL     1       7.413   5.859   1.270  1.00  0.00     0.265 C 
ATOM     27  C   UNL     1       5.424   7.287   1.282  1.00  0.00     0.265 C 
ATOM     28  C   UNL     1       7.152   5.530   2.742  1.00  0.00     0.206 C 
ATOM     29  C   UNL     1       5.213   6.895   2.754  1.00  0.00     0.206 C 
ATOM     30  O   UNL     1       6.463   6.599   3.408  1.00  0.00    -0.373 OA
ENDBRANCH  11  17
ENDBRANCH   7   8
ENDBRANCH   5   7
ENDBRANCH   2   3
ENDBRANCH   1   2
BRANCH   1  31
ATOM     31  C   UNL     1       4.065   1.281   3.643  1.00  0.00     0.023 C 
BRANCH  31  32
ATOM     32  C   UNL     1       4.582   2.690   3.359  1.00  0.00     0.116 C 
BRANCH  32  33
ATOM     33  N   UNL     1       3.823   3.731   4.021  1.00  0.00    -0.352 N 
ATOM     34  C   UNL     1       3.994   4.480   5.153  1.00  0.00     0.251 C 
ATOM     35  H   UNL     1       2.990   3.951   3.546  1.00  0.00     0.163 HD
ATOM     36  O   UNL     1       3.242   5.451   5.271  1.00  0.00    -0.269 OA
BRANCH  34  37
ATOM     37  C   UNL     1       4.955   4.185   6.252  1.00  0.00     0.039 A 
ATOM     38  C   UNL     1       5.766   3.056   6.328  1.00  0.00     0.014 A 
ATOM     39  C   UNL     1       4.945   5.079   7.344  1.00  0.00     0.014 A 
ATOM     40  C   UNL     1       6.484   2.787   7.490  1.00  0.00     0.010 A 
ATOM     41  C   UNL     1       5.657   4.812   8.511  1.00  0.00     0.010 A 
ATOM     42  C   UNL     1       6.396   3.641   8.597  1.00  0.00    -0.014 A 
BRANCH  42  43
ATOM     43  C   UNL     1       7.168   3.275   9.781  1.00  0.00     0.031 A 
ATOM     44  C   UNL     1       8.639   3.258   9.578  1.00  0.00     0.074 A 
ATOM     45  C   UNL     1       6.640   2.992  10.991  1.00  0.00     0.049 A 
ATOM     46  N   UNL     1       9.425   2.233   9.592  1.00  0.00    -0.248 NA
ATOM     47  C   UNL     1       9.304   4.520   9.225  1.00  0.00     0.031 C 
ATOM     48  C   UNL     1       5.277   3.254  11.455  1.00  0.00     0.029 A 
ATOM     49  N   UNL     1       7.250   2.462  12.098  1.00  0.00    -0.354 N 
ATOM     50  C   UNL     1      10.714   2.736   9.432  1.00  0.00     0.074 A 
ATOM     51  C   UNL     1      10.572   4.125   9.083  1.00  0.00     0.031 C 
ATOM     52  C   UNL     1       5.220   3.080  12.796  1.00  0.00     0.029 A 
ATOM     53  C   UNL     1       6.488   2.536  13.255  1.00  0.00     0.049 A 
ATOM     54  H   UNL     1       8.150   2.064  12.074  1.00  0.00     0.167 HD
ATOM     55  C   UNL     1      11.797   2.017   9.838  1.00  0.00     0.037 A 
ATOM     56  C   UNL     1       6.878   2.196  14.507  1.00  0.00     0.037 A 
ATOM     57  C   UNL     1      11.461   0.638  10.068  1.00  0.00     0.049 A 
ATOM     58  C   UNL     1       7.986   1.220  14.404  1.00  0.00     0.074 A 
ATOM     59  C   UNL     1      11.366  -0.521   9.332  1.00  0.00     0.029 A 
ATOM     60  N   UNL     1      10.841   0.413  11.263  1.00  0.00    -0.354 N 
ATOM     61  N   UNL     1       7.846   0.008  13.946  1.00  0.00    -0.248 NA
ATOM     62  C   UNL     1       9.363   1.670  14.588  1.00  0.00     0.031 C 
ATOM     63  C   UNL     1      10.560  -1.422  10.093  1.00  0.00     0.029 A 
ATOM     64  C   UNL     1      10.198  -0.795  11.280  1.00  0.00     0.049 A 
ATOM     65  H   UNL     1      10.854   1.043  12.019  1.00  0.00     0.167 HD
ATOM     66  C   UNL     1       9.078  -0.288  13.407  1.00  0.00     0.074 A 
ATOM     67  C   UNL     1      10.008   0.668  13.988  1.00  0.00     0.031 C 
ATOM     68  C   UNL     1       9.182  -1.035  12.274  1.00  0.00     0.037 A 
BRANCH  55  69
ATOM     69  C   UNL     1      13.036   2.614  10.468  1.00  0.00     0.064 A 
ATOM     70  C   UNL     1      14.151   1.787  10.725  1.00  0.00     0.173 A 
ATOM     71  C   UNL     1      13.051   3.868  11.117  1.00  0.00     0.173 A 
ATOM     72  F   UNL     1      14.230   0.560  10.188  1.00  0.00    -0.203 F 
ATOM     73  C   UNL     1      15.171   2.169  11.603  1.00  0.00     0.198 A 
ATOM     74  C   UNL     1      14.095   4.266  11.951  1.00  0.00     0.198 A 
ATOM     75  F   UNL     1      12.008   4.705  11.062  1.00  0.00    -0.203 F 
ATOM     76  F   UNL     1      16.153   1.307  11.900  1.00  0.00    -0.200 F 
ATOM     77  C   UNL     1      15.142   3.408  12.216  1.00  0.00     0.200 A 
ATOM     78  F   UNL     1      14.035   5.460  12.559  1.00  0.00    -0.200 F 
ATOM     79  F   UNL     1      16.091   3.757  13.095  1.00  0.00    -0.200 F 
ENDBRANCH  55  69
BRANCH  56  80
ATOM     80  C   UNL     1       6.536   2.823  15.806  1.00  0.00     0.064 A 
ATOM     81  C   UNL     1       6.815   2.160  17.015  1.00  0.00     0.173 A 
ATOM     82  C   UNL     1       6.260   4.200  15.892  1.00  0.00     0.173 A 
ATOM     83  F   UNL     1       7.109   0.852  17.016  1.00  0.00    -0.203 F 
ATOM     84  C   UNL     1       6.890   2.849  18.227  1.00  0.00     0.198 A 
ATOM     85  C   UNL     1       6.327   4.885  17.107  1.00  0.00     0.198 A 
ATOM     86  F   UNL     1       6.030   4.924  14.788  1.00  0.00    -0.203 F 
ATOM     87  F   UNL     1       7.254   2.200  19.343  1.00  0.00    -0.200 F 
ATOM     88  C   UNL     1       6.667   4.215  18.269  1.00  0.00     0.200 A 
ATOM     89  F   UNL     1       6.139   6.212  17.131  1.00  0.00    -0.200 F 
ATOM     90  F   UNL     1       6.826   4.892  19.414  1.00  0.00    -0.200 F 
ENDBRANCH  56  80
BRANCH  68  91
ATOM     91  C   UNL     1       8.080  -1.994  11.974  1.00  0.00     0.064 A 
ATOM     92  C   UNL     1       6.776  -1.616  11.621  1.00  0.00     0.173 A 
ATOM     93  C   UNL     1       8.381  -3.362  11.994  1.00  0.00     0.173 A 
ATOM     94  F   UNL     1       6.438  -0.323  11.516  1.00  0.00    -0.203 F 
ATOM     95  C   UNL     1       5.807  -2.576  11.332  1.00  0.00     0.198 A 
ATOM     96  C   UNL     1       7.422  -4.316  11.675  1.00  0.00     0.198 A 
ATOM     97  F   UNL     1       9.624  -3.772  12.295  1.00  0.00    -0.203 F 
ATOM     98  F   UNL     1       4.561  -2.198  11.010  1.00  0.00    -0.200 F 
ATOM     99  C   UNL     1       6.133  -3.923  11.353  1.00  0.00     0.200 A 
ATOM    100  F   UNL     1       7.753  -5.614  11.659  1.00  0.00    -0.200 F 
ATOM    101  F   UNL     1       5.211  -4.845  11.040  1.00  0.00    -0.200 F 
ENDBRANCH  68  91
ENDBRANCH  42  43
ENDBRANCH  34  37
ENDBRANCH  32  33
ENDBRANCH  31  32
ENDBRANCH   1  31
TORSDOF 13
