REMARK SMILES O=C(NCCCCNC(=O)c1cc(NC(=S)NC(=O)c2ccccc2Cl)c(Cl)cc1Cl)c1ccc(-c2c3nc(c(-c4c(F)c(F)c(F)c(F)c4F)c4ccc([nH]4)c(-c4c(F)c(F)c(F)c(F)c4F)c4nc(c(-c5c(F)c(F)c(F)c(F)c5F)c5ccc2[nH]5)C=C4)C=C3)cc1
REMARK SMILES IDX 6 1 5 2 4 3 3 4 1 5 2 6 32 8 33 9 94 10 34 11 93 12 35 13
REMARK SMILES IDX 36 14 37 15 87 16 38 17 92 18 86 19 88 20 39 21 91 22 85 23
REMARK SMILES IDX 84 24 40 26 72 27 52 28 71 29 53 30 56 31 70 32 89 33 54 34
REMARK SMILES IDX 55 35 69 37 90 38 57 39 41 40 42 41 50 42 43 43 44 44 48 45
REMARK SMILES IDX 51 46 45 47 46 48 49 49 47 50 73 51 74 52 82 53 75 54 76 55
REMARK SMILES IDX 80 56 83 57 77 58 78 59 81 60 79 61 58 62 59 63 67 64 60 65
REMARK SMILES IDX 61 66 65 67 68 68 62 69 63 70 66 71 64 72 7 73 8 74 9 75
REMARK SMILES IDX 10 77 11 78 12 79 30 80 13 81 29 82 31 83 27 84 28 85 14 86
REMARK SMILES IDX 15 88 16 89 17 90 18 91 19 93 20 94 21 95 25 96 22 97 24 98
REMARK SMILES IDX 26 99 23 100
REMARK H PARENT 3 7 88 25 56 36 8 76 14 87 17 92
REMARK Flexibility Score: inf
ROOT
ATOM      1  C   UNL     1       5.317  -3.039  -1.100  1.00  0.00     0.023 C 
ENDROOT
BRANCH   1   2
ATOM      2  C   UNL     1       5.219  -2.087   0.079  1.00  0.00     0.023 C 
BRANCH   2   3
ATOM      3  C   UNL     1       4.639  -0.721  -0.255  1.00  0.00     0.116 C 
BRANCH   3   4
ATOM      4  N   UNL     1       3.195  -0.684  -0.483  1.00  0.00    -0.352 N 
ATOM      5  O   UNL     1       1.086   0.145  -0.206  1.00  0.00    -0.269 OA
ATOM      6  C   UNL     1       2.284   0.225   0.032  1.00  0.00     0.251 C 
ATOM      7  H   UNL     1       2.828  -1.385  -1.069  1.00  0.00     0.163 HD
BRANCH   6   8
ATOM      8  C   UNL     1       2.803   1.269   0.940  1.00  0.00     0.039 A 
ATOM      9  C   UNL     1       3.908   2.014   0.535  1.00  0.00     0.014 A 
ATOM     10  C   UNL     1       2.348   1.323   2.259  1.00  0.00     0.014 A 
ATOM     11  C   UNL     1       4.722   2.572   1.507  1.00  0.00     0.010 A 
ATOM     12  C   UNL     1       3.091   2.030   3.210  1.00  0.00     0.010 A 
ATOM     13  C   UNL     1       4.325   2.598   2.857  1.00  0.00    -0.014 A 
BRANCH  13  14
ATOM     14  C   UNL     1       5.213   3.256   3.854  1.00  0.00     0.031 A 
ATOM     15  C   UNL     1       5.753   2.521   5.055  1.00  0.00     0.074 A 
ATOM     16  C   UNL     1       5.573   4.536   3.632  1.00  0.00     0.049 A 
ATOM     17  N   UNL     1       6.541   2.963   6.006  1.00  0.00    -0.248 NA
ATOM     18  C   UNL     1       5.353   1.116   5.224  1.00  0.00     0.031 C 
ATOM     19  C   UNL     1       5.114   5.353   2.504  1.00  0.00     0.029 A 
ATOM     20  N   UNL     1       6.423   5.366   4.313  1.00  0.00    -0.354 N 
ATOM     21  C   UNL     1       6.698   1.910   6.901  1.00  0.00     0.074 A 
ATOM     22  C   UNL     1       5.907   0.810   6.390  1.00  0.00     0.031 C 
ATOM     23  C   UNL     1       5.745   6.532   2.526  1.00  0.00     0.029 A 
ATOM     24  C   UNL     1       6.566   6.599   3.726  1.00  0.00     0.049 A 
ATOM     25  H   UNL     1       6.886   5.105   5.142  1.00  0.00     0.167 HD
ATOM     26  C   UNL     1       7.434   1.869   8.040  1.00  0.00     0.037 A 
ATOM     27  C   UNL     1       7.255   7.684   4.121  1.00  0.00     0.037 A 
ATOM     28  C   UNL     1       8.236   2.966   8.526  1.00  0.00     0.049 A 
ATOM     29  C   UNL     1       8.032   7.616   5.401  1.00  0.00     0.074 A 
ATOM     30  C   UNL     1       9.049   3.013   9.646  1.00  0.00     0.029 A 
ATOM     31  N   UNL     1       8.320   4.215   7.924  1.00  0.00    -0.354 N 
ATOM     32  N   UNL     1       8.188   6.607   6.223  1.00  0.00    -0.248 NA
ATOM     33  C   UNL     1       8.728   8.841   5.808  1.00  0.00     0.031 C 
ATOM     34  C   UNL     1       9.569   4.306   9.759  1.00  0.00     0.029 A 
ATOM     35  C   UNL     1       9.147   5.046   8.666  1.00  0.00     0.049 A 
ATOM     36  H   UNL     1       7.861   4.472   7.092  1.00  0.00     0.167 HD
ATOM     37  C   UNL     1       9.025   7.065   7.229  1.00  0.00     0.074 A 
ATOM     38  C   UNL     1       9.358   8.436   6.900  1.00  0.00     0.031 C 
ATOM     39  C   UNL     1       9.478   6.407   8.325  1.00  0.00     0.037 A 
BRANCH  26  40
ATOM     40  C   UNL     1       7.385   0.612   8.870  1.00  0.00     0.064 A 
ATOM     41  C   UNL     1       7.953  -0.595   8.434  1.00  0.00     0.173 A 
ATOM     42  C   UNL     1       6.803   0.631  10.148  1.00  0.00     0.173 A 
ATOM     43  F   UNL     1       8.520  -0.676   7.221  1.00  0.00    -0.203 F 
ATOM     44  C   UNL     1       7.910  -1.739   9.230  1.00  0.00     0.198 A 
ATOM     45  C   UNL     1       6.793  -0.504  10.955  1.00  0.00     0.198 A 
ATOM     46  F   UNL     1       6.254   1.759  10.625  1.00  0.00    -0.203 F 
ATOM     47  F   UNL     1       8.413  -2.893   8.770  1.00  0.00    -0.200 F 
ATOM     48  C   UNL     1       7.337  -1.691  10.492  1.00  0.00     0.200 A 
ATOM     49  F   UNL     1       6.255  -0.449  12.182  1.00  0.00    -0.200 F 
ATOM     50  F   UNL     1       7.305  -2.790  11.259  1.00  0.00    -0.200 F 
ENDBRANCH  26  40
BRANCH  27  51
ATOM     51  C   UNL     1       7.221   8.920   3.298  1.00  0.00     0.064 A 
ATOM     52  C   UNL     1       8.376   9.391   2.659  1.00  0.00     0.173 A 
ATOM     53  C   UNL     1       6.035   9.650   3.125  1.00  0.00     0.173 A 
ATOM     54  F   UNL     1       9.536   8.735   2.804  1.00  0.00    -0.203 F 
ATOM     55  C   UNL     1       8.351  10.559   1.901  1.00  0.00     0.198 A 
ATOM     56  C   UNL     1       6.003  10.794   2.334  1.00  0.00     0.198 A 
ATOM     57  F   UNL     1       4.899   9.235   3.704  1.00  0.00    -0.203 F 
ATOM     58  F   UNL     1       9.481  11.016   1.345  1.00  0.00    -0.200 F 
ATOM     59  C   UNL     1       7.163  11.255   1.732  1.00  0.00     0.200 A 
ATOM     60  F   UNL     1       4.847  11.448   2.153  1.00  0.00    -0.200 F 
ATOM     61  F   UNL     1       7.139  12.374   0.996  1.00  0.00    -0.200 F 
ENDBRANCH  27  51
BRANCH  39  62
ATOM     62  C   UNL     1      10.435   7.149   9.215  1.00  0.00     0.064 A 
ATOM     63  C   UNL     1      10.036   8.253   9.983  1.00  0.00     0.173 A 
ATOM     64  C   UNL     1      11.776   6.743   9.298  1.00  0.00     0.173 A 
ATOM     65  F   UNL     1       8.769   8.694   9.926  1.00  0.00    -0.203 F 
ATOM     66  C   UNL     1      10.953   8.950  10.765  1.00  0.00     0.198 A 
ATOM     67  C   UNL     1      12.680   7.417  10.113  1.00  0.00     0.198 A 
ATOM     68  F   UNL     1      12.210   5.690   8.590  1.00  0.00    -0.203 F 
ATOM     69  F   UNL     1      10.565  10.046  11.432  1.00  0.00    -0.200 F 
ATOM     70  C   UNL     1      12.272   8.527  10.835  1.00  0.00     0.200 A 
ATOM     71  F   UNL     1      13.950   6.996  10.193  1.00  0.00    -0.200 F 
ATOM     72  F   UNL     1      13.153   9.198  11.590  1.00  0.00    -0.200 F 
ENDBRANCH  39  62
ENDBRANCH  13  14
ENDBRANCH   6   8
ENDBRANCH   3   4
ENDBRANCH   2   3
ENDBRANCH   1   2
BRANCH   1  73
ATOM     73  C   UNL     1       6.186  -2.521  -2.256  1.00  0.00     0.116 C 
BRANCH  73  74
ATOM     74  N   UNL     1       7.095  -3.534  -2.828  1.00  0.00    -0.352 N 
ATOM     75  C   UNL     1       7.250  -4.558  -3.738  1.00  0.00     0.252 C 
ATOM     76  H   UNL     1       7.957  -3.436  -2.362  1.00  0.00     0.163 HD
ATOM     77  O   UNL     1       8.443  -4.894  -3.738  1.00  0.00    -0.269 OA
BRANCH  75  78
ATOM     78  C   UNL     1       6.329  -5.307  -4.797  1.00  0.00     0.060 A 
ATOM     79  C   UNL     1       4.524  -5.071  -5.683  1.00  0.00     0.043 A 
ATOM     80  C   UNL     1       7.275  -6.742  -5.463  1.00  0.00     0.055 A 
ATOM     81  C   UNL     1       3.978  -5.960  -7.004  1.00  0.00     0.060 A 
ATOM     82  C   UNL     1       6.544  -7.710  -6.792  1.00  0.00     0.044 A 
ATOM     83  Cl  UNL     1       8.784  -7.356  -4.896  1.00  0.00    -0.083 Cl
ATOM     84  C   UNL     1       4.957  -7.304  -7.522  1.00  0.00     0.066 A 
ATOM     85  Cl  UNL     1       4.451  -8.201  -8.905  1.00  0.00    -0.082 Cl
BRANCH  81  86
ATOM     86  N   UNL     1       3.052  -5.176  -7.730  1.00  0.00    -0.331 N 
ATOM     87  H   UNL     1       2.597  -5.652  -8.461  1.00  0.00     0.169 HD
BRANCH  86  88
ATOM     88  C   UNL     1       2.677  -3.849  -7.586  1.00  0.00     0.177 C 
ATOM     89  S   UNL     1       1.423  -3.322  -8.577  1.00  0.00    -0.040 S 
BRANCH  88  90
ATOM     90  N   UNL     1       3.216  -2.837  -6.718  1.00  0.00    -0.299 N 
ATOM     91  C   UNL     1       4.133  -2.323  -5.663  1.00  0.00     0.258 C 
ATOM     92  H   UNL     1       2.683  -2.043  -6.949  1.00  0.00     0.172 HD
ATOM     93  O   UNL     1       3.990  -1.197  -5.196  1.00  0.00    -0.269 OA
BRANCH  91  94
ATOM     94  C   UNL     1       5.207  -3.197  -5.079  1.00  0.00     0.058 A 
ATOM     95  C   UNL     1       4.542  -4.246  -3.746  1.00  0.00     0.015 A 
ATOM     96  C   UNL     1       6.063  -3.819  -6.449  1.00  0.00     0.053 A 
ATOM     97  C   UNL     1       4.522  -6.022  -3.816  1.00  0.00     0.001 A 
ATOM     98  C   UNL     1       6.062  -5.563  -6.681  1.00  0.00     0.021 A 
ATOM     99  Cl  UNL     1       6.578  -2.813  -7.743  1.00  0.00    -0.083 Cl
ATOM    100  C   UNL     1       5.191  -6.775  -5.305  1.00  0.00     0.002 A 
ENDBRANCH  91  94
ENDBRANCH  88  90
ENDBRANCH  86  88
ENDBRANCH  81  86
ENDBRANCH  75  78
ENDBRANCH  73  74
ENDBRANCH   1  73
TORSDOF 15
