REMARK SMILES Cc1nn(C(C)C)cc1-c1cnccc1C(=O)NCCCCNC(=O)c1ccc(-c2c3nc(c(-c4c(F)c(F)c(F)c(F)c4F)c4ccc([nH]4)c(-c4c(F)c(F)c(F)c(F)c4F)c4nc(c(-c5c(F)c(F)c(F)c(F)c5F)c5ccc2[nH]5)C=C4)C=C3)cc1
REMARK SMILES IDX 20 1 19 2 18 3 16 4 17 5 15 7 10 8 11 9 12 10 14 11 13 12
REMARK SMILES IDX 9 13 1 14 2 15 3 16 4 17 8 18 5 19 6 20 7 21 21 22 22 23
REMARK SMILES IDX 23 24 24 25 25 27 26 28 27 29 88 30 28 31 87 32 29 33 30 34
REMARK SMILES IDX 31 35 81 36 32 37 86 38 80 39 82 40 33 41 85 42 79 43 78 44
REMARK SMILES IDX 34 46 66 47 46 48 65 49 47 50 50 51 64 52 83 53 48 54 49 55
REMARK SMILES IDX 63 57 84 58 51 59 35 60 36 61 44 62 37 63 38 64 42 65 45 66
REMARK SMILES IDX 39 67 40 68 43 69 41 70 67 71 68 72 76 73 69 74 70 75 74 76
REMARK SMILES IDX 77 77 71 78 72 79 75 80 73 81 52 82 53 83 61 84 54 85 55 86
REMARK SMILES IDX 59 87 62 88 56 89 57 90 60 91 58 92
REMARK H PARENT 18 6 23 26 82 45 50 56
REMARK Flexibility Score: inf
ROOT
ATOM      1  C   UNL     1       3.337  -0.459   2.318  1.00  0.00     0.023 C 
ENDROOT
BRANCH   1   2
ATOM      2  C   UNL     1       2.120   0.202   2.961  1.00  0.00     0.116 C 
BRANCH   2   3
ATOM      3  N   UNL     1       2.266   1.328   3.845  1.00  0.00    -0.352 N 
ATOM      4  C   UNL     1       1.440   2.437   3.952  1.00  0.00     0.252 C 
ATOM      5  O   UNL     1       1.617   3.170   4.930  1.00  0.00    -0.269 OA
ATOM      6  H   UNL     1       3.046   1.309   4.447  1.00  0.00     0.163 HD
BRANCH   4   7
ATOM      7  C   UNL     1       0.445   2.891   2.914  1.00  0.00     0.050 A 
ATOM      8  C   UNL     1      -0.522   2.154   2.207  1.00  0.00     0.016 A 
ATOM      9  C   UNL     1      -1.316   2.846   1.284  1.00  0.00     0.120 A 
ATOM     10  N   UNL     1      -1.245   4.170   1.028  1.00  0.00    -0.264 NA
ATOM     11  C   UNL     1       0.497   4.282   2.678  1.00  0.00     0.034 A 
ATOM     12  C   UNL     1      -0.346   4.863   1.744  1.00  0.00     0.112 A 
BRANCH   8  13
ATOM     13  C   UNL     1      -0.789   0.738   2.307  1.00  0.00     0.025 A 
ATOM     14  C   UNL     1       0.061  -0.212   0.006  1.00  0.00     0.069 C 
ATOM     15  C   UNL     1      -0.574  -0.298   1.350  1.00  0.00     0.067 A 
ATOM     16  N   UNL     1      -0.890  -1.493   1.855  1.00  0.00    -0.177 NA
ATOM     17  N   UNL     1      -1.384  -1.223   3.078  1.00  0.00    -0.269 N 
ATOM     18  C   UNL     1      -1.343   0.108   3.398  1.00  0.00     0.118 A 
BRANCH  17  19
ATOM     19  C   UNL     1      -1.760  -2.309   3.976  1.00  0.00     0.101 C 
ATOM     20  C   UNL     1      -2.081  -3.621   3.255  1.00  0.00     0.033 C 
ATOM     21  C   UNL     1      -0.650  -2.536   4.986  1.00  0.00     0.033 C 
ENDBRANCH  17  19
ENDBRANCH   8  13
ENDBRANCH   4   7
ENDBRANCH   2   3
ENDBRANCH   1   2
BRANCH   1  22
ATOM     22  C   UNL     1       4.226  -1.393   3.127  1.00  0.00     0.023 C 
BRANCH  22  23
ATOM     23  C   UNL     1       3.535  -2.398   4.026  1.00  0.00     0.116 C 
BRANCH  23  24
ATOM     24  N   UNL     1       2.981  -3.620   3.475  1.00  0.00    -0.352 N 
ATOM     25  C   UNL     1       2.411  -4.694   4.156  1.00  0.00     0.251 C 
ATOM     26  H   UNL     1       3.011  -3.701   2.494  1.00  0.00     0.163 HD
ATOM     27  O   UNL     1       2.142  -5.718   3.524  1.00  0.00    -0.269 OA
BRANCH  25  28
ATOM     28  C   UNL     1       1.997  -4.612   5.599  1.00  0.00     0.039 A 
ATOM     29  C   UNL     1       1.164  -5.600   6.158  1.00  0.00     0.014 A 
ATOM     30  C   UNL     1       2.259  -3.490   6.373  1.00  0.00     0.014 A 
ATOM     31  C   UNL     1       0.568  -5.401   7.415  1.00  0.00     0.010 A 
ATOM     32  C   UNL     1       1.492  -3.181   7.466  1.00  0.00     0.010 A 
ATOM     33  C   UNL     1       0.705  -4.161   8.040  1.00  0.00    -0.014 A 
BRANCH  33  34
ATOM     34  C   UNL     1       0.359  -3.891   9.432  1.00  0.00     0.031 A 
ATOM     35  C   UNL     1       1.498  -4.143  10.379  1.00  0.00     0.074 A 
ATOM     36  C   UNL     1      -0.668  -3.096   9.794  1.00  0.00     0.049 A 
ATOM     37  N   UNL     1       1.568  -5.013  11.334  1.00  0.00    -0.248 NA
ATOM     38  C   UNL     1       2.781  -3.441  10.146  1.00  0.00     0.031 C 
ATOM     39  C   UNL     1      -1.613  -2.384   8.931  1.00  0.00     0.029 A 
ATOM     40  N   UNL     1      -0.997  -2.652  11.040  1.00  0.00    -0.354 N 
ATOM     41  C   UNL     1       2.830  -4.841  11.907  1.00  0.00     0.074 A 
ATOM     42  C   UNL     1       3.599  -4.075  10.978  1.00  0.00     0.031 C 
ATOM     43  C   UNL     1      -2.281  -1.461   9.665  1.00  0.00     0.029 A 
ATOM     44  C   UNL     1      -1.892  -1.589  11.060  1.00  0.00     0.049 A 
ATOM     45  H   UNL     1      -0.628  -3.052  11.860  1.00  0.00     0.167 HD
ATOM     46  C   UNL     1       3.058  -5.074  13.229  1.00  0.00     0.037 A 
ATOM     47  C   UNL     1      -2.232  -0.843  12.143  1.00  0.00     0.037 A 
ATOM     48  C   UNL     1       2.002  -5.878  13.788  1.00  0.00     0.049 A 
ATOM     49  C   UNL     1      -1.807  -1.591  13.353  1.00  0.00     0.074 A 
ATOM     50  C   UNL     1       1.460  -7.114  13.488  1.00  0.00     0.029 A 
ATOM     51  N   UNL     1       1.076  -5.255  14.587  1.00  0.00    -0.354 N 
ATOM     52  N   UNL     1      -2.352  -2.703  13.759  1.00  0.00    -0.248 NA
ATOM     53  C   UNL     1      -0.484  -1.311  13.893  1.00  0.00     0.031 C 
ATOM     54  C   UNL     1       0.057  -6.962  13.702  1.00  0.00     0.029 A 
ATOM     55  C   UNL     1      -0.163  -5.668  14.175  1.00  0.00     0.049 A 
ATOM     56  H   UNL     1       1.267  -4.627  15.320  1.00  0.00     0.167 HD
ATOM     57  C   UNL     1      -1.293  -3.457  14.240  1.00  0.00     0.074 A 
ATOM     58  C   UNL     1      -0.191  -2.513  14.396  1.00  0.00     0.031 C 
ATOM     59  C   UNL     1      -1.329  -4.820  14.190  1.00  0.00     0.037 A 
BRANCH  46  60
ATOM     60  C   UNL     1       3.993  -4.248  14.098  1.00  0.00     0.064 A 
ATOM     61  C   UNL     1       4.149  -4.624  15.448  1.00  0.00     0.173 A 
ATOM     62  C   UNL     1       4.495  -2.964  13.777  1.00  0.00     0.173 A 
ATOM     63  F   UNL     1       3.725  -5.822  15.877  1.00  0.00    -0.203 F 
ATOM     64  C   UNL     1       4.642  -3.742  16.414  1.00  0.00     0.198 A 
ATOM     65  C   UNL     1       5.043  -2.110  14.734  1.00  0.00     0.198 A 
ATOM     66  F   UNL     1       4.391  -2.422  12.560  1.00  0.00    -0.203 F 
ATOM     67  F   UNL     1       4.621  -4.096  17.705  1.00  0.00    -0.200 F 
ATOM     68  C   UNL     1       5.076  -2.481  16.058  1.00  0.00     0.200 A 
ATOM     69  F   UNL     1       5.454  -0.888  14.365  1.00  0.00    -0.200 F 
ATOM     70  F   UNL     1       5.479  -1.608  16.990  1.00  0.00    -0.200 F 
ENDBRANCH  46  60
BRANCH  47  71
ATOM     71  C   UNL     1      -2.654   0.576  12.228  1.00  0.00     0.064 A 
ATOM     72  C   UNL     1      -3.285   1.077  13.381  1.00  0.00     0.173 A 
ATOM     73  C   UNL     1      -2.193   1.533  11.306  1.00  0.00     0.173 A 
ATOM     74  F   UNL     1      -3.717   0.236  14.333  1.00  0.00    -0.203 F 
ATOM     75  C   UNL     1      -3.417   2.450  13.612  1.00  0.00     0.198 A 
ATOM     76  C   UNL     1      -2.331   2.904  11.533  1.00  0.00     0.198 A 
ATOM     77  F   UNL     1      -1.511   1.159  10.214  1.00  0.00    -0.203 F 
ATOM     78  F   UNL     1      -3.962   2.888  14.756  1.00  0.00    -0.200 F 
ATOM     79  C   UNL     1      -2.929   3.363  12.693  1.00  0.00     0.200 A 
ATOM     80  F   UNL     1      -1.822   3.778  10.653  1.00  0.00    -0.200 F 
ATOM     81  F   UNL     1      -2.994   4.678  12.942  1.00  0.00    -0.200 F 
ENDBRANCH  47  71
BRANCH  59  82
ATOM     82  C   UNL     1      -2.646  -5.476  13.889  1.00  0.00     0.064 A 
ATOM     83  C   UNL     1      -3.357  -5.309  12.687  1.00  0.00     0.173 A 
ATOM     84  C   UNL     1      -3.136  -6.418  14.802  1.00  0.00     0.173 A 
ATOM     85  F   UNL     1      -2.901  -4.505  11.719  1.00  0.00    -0.203 F 
ATOM     86  C   UNL     1      -4.529  -6.019  12.437  1.00  0.00     0.198 A 
ATOM     87  C   UNL     1      -4.285  -7.155  14.533  1.00  0.00     0.198 A 
ATOM     88  F   UNL     1      -2.470  -6.658  15.943  1.00  0.00    -0.203 F 
ATOM     89  F   UNL     1      -5.197  -5.830  11.290  1.00  0.00    -0.200 F 
ATOM     90  C   UNL     1      -4.987  -6.948  13.357  1.00  0.00     0.200 A 
ATOM     91  F   UNL     1      -4.696  -8.088  15.403  1.00  0.00    -0.200 F 
ATOM     92  F   UNL     1      -6.091  -7.662  13.098  1.00  0.00    -0.200 F 
ENDBRANCH  59  82
ENDBRANCH  33  34
ENDBRANCH  25  28
ENDBRANCH  23  24
ENDBRANCH  22  23
ENDBRANCH   1  22
TORSDOF 13
