REMARK SMILES Cc1oc(C)c(S(=O)(=O)Nn2c(C)ccc2C)c1C(=O)NCCCCNC(=O)c1ccc(-c2c3nc(c(-c4c(F)c(F)c(F)c(F)c4F)c4ccc([nH]4)c(-c4c(F)c(F)c(F)c(F)c4F)c4nc(c(-c5c(F)c(F)c(F)c(F)c5F)c5ccc2[nH]5)C=C4)C=C3)cc1
REMARK SMILES IDX 23 1 22 2 21 3 19 4 20 5 18 7 1 8 2 9 3 10 4 11 6 12 5 13
REMARK SMILES IDX 7 14 8 15 9 16 10 17 11 19 12 20 16 21 13 22 14 23 15 24
REMARK SMILES IDX 17 25 24 26 25 27 26 28 27 29 28 31 29 32 30 33 91 34 31 35
REMARK SMILES IDX 90 36 32 37 33 38 34 39 84 40 35 41 89 42 83 43 85 44 36 45
REMARK SMILES IDX 88 46 82 47 81 48 37 50 69 51 49 52 68 53 50 54 53 55 67 56
REMARK SMILES IDX 86 57 51 58 52 59 66 61 87 62 54 63 38 64 39 65 47 66 40 67
REMARK SMILES IDX 41 68 45 69 48 70 42 71 43 72 46 73 44 74 70 75 71 76 79 77
REMARK SMILES IDX 72 78 73 79 77 80 80 81 74 82 75 83 78 84 76 85 55 86 56 87
REMARK SMILES IDX 64 88 57 89 58 90 62 91 65 92 59 93 60 94 63 95 61 96
REMARK H PARENT 21 6 10 18 26 30 85 49 53 60
REMARK Flexibility Score: inf
ROOT
ATOM      1  C   UNL     1       4.713   1.229  -1.397  1.00  0.00     0.023 C 
ENDROOT
BRANCH   1   2
ATOM      2  C   UNL     1       3.784   0.755  -0.280  1.00  0.00     0.116 C 
BRANCH   2   3
ATOM      3  N   UNL     1       3.029   1.750   0.453  1.00  0.00    -0.352 N 
ATOM      4  C   UNL     1       1.778   1.701   1.022  1.00  0.00     0.256 C 
ATOM      5  O   UNL     1       1.499   2.547   1.869  1.00  0.00    -0.269 OA
ATOM      6  H   UNL     1       3.492   2.612   0.563  1.00  0.00     0.163 HD
BRANCH   4   7
ATOM      7  C   UNL     1       0.776   0.746   0.600  1.00  0.00     0.101 A 
ATOM      8  C   UNL     1       1.945  -1.641   0.775  1.00  0.00     0.088 C 
ATOM      9  C   UNL     1       0.884  -0.639   0.537  1.00  0.00     0.115 A 
ATOM     10  O   UNL     1      -0.315  -1.198   0.227  1.00  0.00    -0.464 OA
ATOM     11  C   UNL     1      -1.223  -0.199   0.133  1.00  0.00     0.122 A 
ATOM     12  C   UNL     1      -0.604   1.025   0.303  1.00  0.00     0.143 A 
ATOM     13  C   UNL     1      -2.621  -0.634  -0.085  1.00  0.00     0.089 C 
BRANCH  12  14
ATOM     14  S   UNL     1      -1.494   2.495   0.214  1.00  0.00     0.279 S 
ATOM     15  O   UNL     1      -2.184   2.395  -1.066  1.00  0.00    -0.200 OA
ATOM     16  O   UNL     1      -2.255   2.470   1.439  1.00  0.00    -0.200 OA
BRANCH  14  17
ATOM     17  N   UNL     1      -0.721   3.943   0.241  1.00  0.00    -0.216 N 
ATOM     18  H   UNL     1      -1.216   4.675   0.675  1.00  0.00     0.202 HD
BRANCH  17  19
ATOM     19  N   UNL     1       0.526   4.286  -0.257  1.00  0.00    -0.256 N 
ATOM     20  C   UNL     1       1.184   3.847  -1.383  1.00  0.00     0.038 A 
ATOM     21  C   UNL     1       1.289   5.238   0.391  1.00  0.00     0.038 A 
ATOM     22  C   UNL     1       0.650   2.950  -2.439  1.00  0.00     0.067 C 
ATOM     23  C   UNL     1       2.431   4.455  -1.377  1.00  0.00     0.025 A 
ATOM     24  C   UNL     1       2.505   5.306  -0.259  1.00  0.00     0.025 A 
ATOM     25  C   UNL     1       0.881   5.955   1.634  1.00  0.00     0.067 C 
ENDBRANCH  17  19
ENDBRANCH  14  17
ENDBRANCH  12  14
ENDBRANCH   4   7
ENDBRANCH   2   3
ENDBRANCH   1   2
BRANCH   1  26
ATOM     26  C   UNL     1       5.735   2.357  -1.190  1.00  0.00     0.023 C 
BRANCH  26  27
ATOM     27  C   UNL     1       6.147   2.782   0.219  1.00  0.00     0.116 C 
BRANCH  27  28
ATOM     28  N   UNL     1       7.435   2.303   0.660  1.00  0.00    -0.352 N 
ATOM     29  C   UNL     1       8.236   2.902   1.618  1.00  0.00     0.251 C 
ATOM     30  H   UNL     1       7.774   1.478   0.243  1.00  0.00     0.163 HD
ATOM     31  O   UNL     1       9.289   2.365   1.948  1.00  0.00    -0.269 OA
BRANCH  29  32
ATOM     32  C   UNL     1       7.887   4.266   2.144  1.00  0.00     0.039 A 
ATOM     33  C   UNL     1       8.456   5.341   1.494  1.00  0.00     0.014 A 
ATOM     34  C   UNL     1       7.101   4.547   3.277  1.00  0.00     0.014 A 
ATOM     35  C   UNL     1       8.197   6.655   1.947  1.00  0.00     0.010 A 
ATOM     36  C   UNL     1       6.936   5.901   3.800  1.00  0.00     0.010 A 
ATOM     37  C   UNL     1       7.504   7.018   3.165  1.00  0.00    -0.014 A 
BRANCH  37  38
ATOM     38  C   UNL     1       7.854   8.482   3.763  1.00  0.00     0.031 A 
ATOM     39  C   UNL     1       9.311   8.605   3.457  1.00  0.00     0.074 A 
ATOM     40  C   UNL     1       7.381   9.535   4.549  1.00  0.00     0.049 A 
ATOM     41  N   UNL     1      10.122   7.696   3.927  1.00  0.00    -0.248 NA
ATOM     42  C   UNL     1       9.839   9.375   2.328  1.00  0.00     0.031 C 
ATOM     43  C   UNL     1       6.123   9.619   5.308  1.00  0.00     0.029 A 
ATOM     44  N   UNL     1       7.933  10.821   4.871  1.00  0.00    -0.354 N 
ATOM     45  C   UNL     1      11.340   7.920   3.341  1.00  0.00     0.074 A 
ATOM     46  C   UNL     1      11.049   8.808   2.223  1.00  0.00     0.031 C 
ATOM     47  C   UNL     1       5.936  10.860   5.852  1.00  0.00     0.029 A 
ATOM     48  C   UNL     1       7.067  11.744   5.570  1.00  0.00     0.049 A 
ATOM     49  H   UNL     1       8.856  11.062   4.628  1.00  0.00     0.167 HD
ATOM     50  C   UNL     1      12.393   7.960   4.206  1.00  0.00     0.037 A 
ATOM     51  C   UNL     1       7.259  13.072   5.958  1.00  0.00     0.037 A 
ATOM     52  C   UNL     1      12.732   9.316   4.531  1.00  0.00     0.049 A 
ATOM     53  C   UNL     1       8.709  13.242   6.073  1.00  0.00     0.074 A 
ATOM     54  C   UNL     1      12.895  10.444   3.750  1.00  0.00     0.029 A 
ATOM     55  N   UNL     1      12.421   9.754   5.798  1.00  0.00    -0.354 N 
ATOM     56  N   UNL     1       9.347  12.834   7.125  1.00  0.00    -0.248 NA
ATOM     57  C   UNL     1       9.501  13.968   5.090  1.00  0.00     0.031 C 
ATOM     58  C   UNL     1      12.152  11.441   4.417  1.00  0.00     0.029 A 
ATOM     59  C   UNL     1      11.951  11.047   5.732  1.00  0.00     0.049 A 
ATOM     60  H   UNL     1      12.520   9.225   6.623  1.00  0.00     0.167 HD
ATOM     61  C   UNL     1      10.628  12.774   6.694  1.00  0.00     0.074 A 
ATOM     62  C   UNL     1      10.710  13.718   5.596  1.00  0.00     0.031 C 
ATOM     63  C   UNL     1      11.240  11.579   6.863  1.00  0.00     0.037 A 
BRANCH  50  64
ATOM     64  C   UNL     1      12.393   6.799   5.166  1.00  0.00     0.064 A 
ATOM     65  C   UNL     1      13.301   5.758   4.954  1.00  0.00     0.173 A 
ATOM     66  C   UNL     1      11.386   6.592   6.134  1.00  0.00     0.173 A 
ATOM     67  F   UNL     1      14.320   5.920   4.096  1.00  0.00    -0.203 F 
ATOM     68  C   UNL     1      13.157   4.535   5.611  1.00  0.00     0.198 A 
ATOM     69  C   UNL     1      11.198   5.348   6.727  1.00  0.00     0.198 A 
ATOM     70  F   UNL     1      10.566   7.593   6.496  1.00  0.00    -0.203 F 
ATOM     71  F   UNL     1      14.051   3.558   5.405  1.00  0.00    -0.200 F 
ATOM     72  C   UNL     1      12.080   4.316   6.458  1.00  0.00     0.200 A 
ATOM     73  F   UNL     1      10.156   5.148   7.547  1.00  0.00    -0.200 F 
ATOM     74  F   UNL     1      11.903   3.117   7.031  1.00  0.00    -0.200 F 
ENDBRANCH  50  64
BRANCH  51  75
ATOM     75  C   UNL     1       6.583  14.369   6.500  1.00  0.00     0.064 A 
ATOM     76  C   UNL     1       7.303  15.291   7.344  1.00  0.00     0.173 A 
ATOM     77  C   UNL     1       5.465  14.948   5.883  1.00  0.00     0.173 A 
ATOM     78  F   UNL     1       8.364  14.903   8.065  1.00  0.00    -0.203 F 
ATOM     79  C   UNL     1       7.023  16.665   7.436  1.00  0.00     0.198 A 
ATOM     80  C   UNL     1       5.156  16.330   6.015  1.00  0.00     0.198 A 
ATOM     81  F   UNL     1       4.701  14.215   5.065  1.00  0.00    -0.203 F 
ATOM     82  F   UNL     1       7.838  17.477   8.131  1.00  0.00    -0.200 F 
ATOM     83  C   UNL     1       5.957  17.191   6.752  1.00  0.00     0.200 A 
ATOM     84  F   UNL     1       4.109  16.846   5.356  1.00  0.00    -0.200 F 
ATOM     85  F   UNL     1       5.721  18.513   6.777  1.00  0.00    -0.200 F 
ENDBRANCH  51  75
BRANCH  63  86
ATOM     86  C   UNL     1      11.003  10.860   8.181  1.00  0.00     0.064 A 
ATOM     87  C   UNL     1       9.763  10.603   8.816  1.00  0.00     0.173 A 
ATOM     88  C   UNL     1      12.147  10.464   8.892  1.00  0.00     0.173 A 
ATOM     89  F   UNL     1       8.587  10.809   8.206  1.00  0.00    -0.203 F 
ATOM     90  C   UNL     1       9.694  10.082  10.113  1.00  0.00     0.198 A 
ATOM     91  C   UNL     1      12.072   9.884  10.156  1.00  0.00     0.198 A 
ATOM     92  F   UNL     1      13.362  10.625   8.346  1.00  0.00    -0.203 F 
ATOM     93  F   UNL     1       8.504   9.922  10.712  1.00  0.00    -0.200 F 
ATOM     94  C   UNL     1      10.849   9.720  10.780  1.00  0.00     0.200 A 
ATOM     95  F   UNL     1      13.195   9.484  10.766  1.00  0.00    -0.200 F 
ATOM     96  F   UNL     1      10.786   9.198  12.012  1.00  0.00    -0.200 F 
ENDBRANCH  63  86
ENDBRANCH  37  38
ENDBRANCH  29  32
ENDBRANCH  27  28
ENDBRANCH  26  27
ENDBRANCH   1  26
TORSDOF 14
