REMARK SMILES O=C(NCCCCNC(=O)c1cccc(Nc2ccnc3ccc(F)cc23)c1)c1ccc(-c2c3nc(c(-c4c(F)c(F)c(F)c(F)c4F)c4ccc([nH]4)c(-c4c(F)c(F)c(F)c(F)c4F)c4nc(c(-c5c(F)c(F)c(F)c(F)c5F)c5ccc2[nH]5)C=C4)C=C3)cc1
REMARK SMILES IDX 5 1 4 2 3 3 1 4 2 5 29 7 30 8 91 9 31 10 90 11 32 12 33 13
REMARK SMILES IDX 34 14 84 15 35 16 89 17 83 18 85 19 36 20 88 21 82 22 81 23
REMARK SMILES IDX 37 25 69 26 49 27 68 28 50 29 53 30 67 31 86 32 51 33 52 34
REMARK SMILES IDX 66 36 87 37 54 38 38 39 39 40 47 41 40 42 41 43 45 44 48 45
REMARK SMILES IDX 42 46 43 47 46 48 44 49 70 50 71 51 79 52 72 53 73 54 77 55
REMARK SMILES IDX 80 56 74 57 75 58 78 59 76 60 55 61 56 62 64 63 57 64 58 65
REMARK SMILES IDX 62 66 65 67 59 68 60 69 63 70 61 71 6 72 7 73 8 74 9 75
REMARK SMILES IDX 10 77 11 78 12 79 28 80 13 81 15 82 14 83 16 84 17 86 18 87
REMARK SMILES IDX 27 88 19 89 21 90 26 91 20 92 22 93 24 94 23 95 25 96
REMARK H PARENT 3 6 85 24 53 35 8 76 16 85
REMARK Flexibility Score: inf
ROOT
ATOM      1  C   UNL     1       4.905  -1.538   2.153  1.00  0.00     0.023 C 
ENDROOT
BRANCH   1   2
ATOM      2  C   UNL     1       4.533  -1.122   0.733  1.00  0.00     0.116 C 
BRANCH   2   3
ATOM      3  N   UNL     1       3.099  -1.035   0.512  1.00  0.00    -0.352 N 
ATOM      4  O   UNL     1       1.116  -0.106   0.001  1.00  0.00    -0.269 OA
ATOM      5  C   UNL     1       2.335  -0.005   0.017  1.00  0.00     0.251 C 
ATOM      6  H   UNL     1       2.594  -1.844   0.757  1.00  0.00     0.163 HD
BRANCH   5   7
ATOM      7  C   UNL     1       2.975   1.240  -0.464  1.00  0.00     0.039 A 
ATOM      8  C   UNL     1       4.105   1.213  -1.283  1.00  0.00     0.014 A 
ATOM      9  C   UNL     1       2.408   2.465  -0.096  1.00  0.00     0.014 A 
ATOM     10  C   UNL     1       4.751   2.402  -1.614  1.00  0.00     0.010 A 
ATOM     11  C   UNL     1       3.014   3.660  -0.490  1.00  0.00     0.010 A 
ATOM     12  C   UNL     1       4.212   3.637  -1.221  1.00  0.00    -0.014 A 
BRANCH  12  13
ATOM     13  C   UNL     1       4.892   4.899  -1.605  1.00  0.00     0.031 A 
ATOM     14  C   UNL     1       5.497   5.795  -0.561  1.00  0.00     0.074 A 
ATOM     15  C   UNL     1       4.964   5.236  -2.906  1.00  0.00     0.049 A 
ATOM     16  N   UNL     1       6.102   6.948  -0.710  1.00  0.00    -0.248 NA
ATOM     17  C   UNL     1       5.407   5.342   0.835  1.00  0.00     0.031 C 
ATOM     18  C   UNL     1       4.409   4.452  -4.010  1.00  0.00     0.029 A 
ATOM     19  N   UNL     1       5.534   6.322  -3.522  1.00  0.00    -0.354 N 
ATOM     20  C   UNL     1       6.443   7.367   0.569  1.00  0.00     0.074 A 
ATOM     21  C   UNL     1       5.958   6.357   1.486  1.00  0.00     0.031 C 
ATOM     22  C   UNL     1       4.685   5.067  -5.168  1.00  0.00     0.029 A 
ATOM     23  C   UNL     1       5.389   6.314  -4.886  1.00  0.00     0.049 A 
ATOM     24  H   UNL     1       6.001   7.037  -3.032  1.00  0.00     0.167 HD
ATOM     25  C   UNL     1       7.108   8.488   0.941  1.00  0.00     0.037 A 
ATOM     26  C   UNL     1       5.762   7.221  -5.809  1.00  0.00     0.037 A 
ATOM     27  C   UNL     1       7.604   9.482   0.024  1.00  0.00     0.049 A 
ATOM     28  C   UNL     1       6.477   8.466  -5.368  1.00  0.00     0.074 A 
ATOM     29  C   UNL     1       8.323  10.631   0.301  1.00  0.00     0.029 A 
ATOM     30  N   UNL     1       7.426   9.445  -1.352  1.00  0.00    -0.354 N 
ATOM     31  N   UNL     1       6.822   8.835  -4.159  1.00  0.00    -0.248 NA
ATOM     32  C   UNL     1       6.853   9.420  -6.419  1.00  0.00     0.031 C 
ATOM     33  C   UNL     1       8.543  11.313  -0.901  1.00  0.00     0.029 A 
ATOM     34  C   UNL     1       8.003  10.563  -1.934  1.00  0.00     0.049 A 
ATOM     35  H   UNL     1       6.960   8.730  -1.843  1.00  0.00     0.167 HD
ATOM     36  C   UNL     1       7.472  10.052  -4.303  1.00  0.00     0.074 A 
ATOM     37  C   UNL     1       7.485  10.353  -5.721  1.00  0.00     0.031 C 
ATOM     38  C   UNL     1       8.010  10.847  -3.347  1.00  0.00     0.037 A 
BRANCH  25  39
ATOM     39  C   UNL     1       7.323   8.712   2.410  1.00  0.00     0.064 A 
ATOM     40  C   UNL     1       8.233   7.943   3.150  1.00  0.00     0.173 A 
ATOM     41  C   UNL     1       6.636   9.737   3.079  1.00  0.00     0.173 A 
ATOM     42  F   UNL     1       8.908   6.944   2.560  1.00  0.00    -0.203 F 
ATOM     43  C   UNL     1       8.427   8.172   4.510  1.00  0.00     0.198 A 
ATOM     44  C   UNL     1       6.851   9.981   4.433  1.00  0.00     0.198 A 
ATOM     45  F   UNL     1       5.759  10.507   2.418  1.00  0.00    -0.203 F 
ATOM     46  F   UNL     1       9.268   7.395   5.206  1.00  0.00    -0.200 F 
ATOM     47  C   UNL     1       7.741   9.194   5.149  1.00  0.00     0.200 A 
ATOM     48  F   UNL     1       6.197  10.977   5.046  1.00  0.00    -0.200 F 
ATOM     49  F   UNL     1       7.932   9.416   6.457  1.00  0.00    -0.200 F 
ENDBRANCH  25  39
BRANCH  26  50
ATOM     50  C   UNL     1       5.462   6.970  -7.240  1.00  0.00     0.064 A 
ATOM     51  C   UNL     1       6.482   6.657  -8.147  1.00  0.00     0.173 A 
ATOM     52  C   UNL     1       4.145   7.005  -7.722  1.00  0.00     0.173 A 
ATOM     53  F   UNL     1       7.758   6.629  -7.735  1.00  0.00    -0.203 F 
ATOM     54  C   UNL     1       6.198   6.394  -9.485  1.00  0.00     0.198 A 
ATOM     55  C   UNL     1       3.859   6.717  -9.054  1.00  0.00     0.198 A 
ATOM     56  F   UNL     1       3.133   7.295  -6.891  1.00  0.00    -0.203 F 
ATOM     57  F   UNL     1       7.195   6.126 -10.339  1.00  0.00    -0.200 F 
ATOM     58  C   UNL     1       4.886   6.416  -9.935  1.00  0.00     0.200 A 
ATOM     59  F   UNL     1       2.589   6.722  -9.481  1.00  0.00    -0.200 F 
ATOM     60  F   UNL     1       4.613   6.149 -11.220  1.00  0.00    -0.200 F 
ENDBRANCH  26  50
BRANCH  38  61
ATOM     61  C   UNL     1       8.687  12.106  -3.804  1.00  0.00     0.064 A 
ATOM     62  C   UNL     1       7.954  13.212  -4.257  1.00  0.00     0.173 A 
ATOM     63  C   UNL     1      10.084  12.218  -3.751  1.00  0.00     0.173 A 
ATOM     64  F   UNL     1       6.616  13.146  -4.341  1.00  0.00    -0.203 F 
ATOM     65  C   UNL     1       8.597  14.379  -4.661  1.00  0.00     0.198 A 
ATOM     66  C   UNL     1      10.723  13.395  -4.131  1.00  0.00     0.198 A 
ATOM     67  F   UNL     1      10.830  11.189  -3.321  1.00  0.00    -0.203 F 
ATOM     68  F   UNL     1       7.880  15.409  -5.130  1.00  0.00    -0.200 F 
ATOM     69  C   UNL     1       9.979  14.472  -4.591  1.00  0.00     0.200 A 
ATOM     70  F   UNL     1      12.057  13.487  -4.053  1.00  0.00    -0.200 F 
ATOM     71  F   UNL     1      10.597  15.598  -4.974  1.00  0.00    -0.200 F 
ENDBRANCH  38  61
ENDBRANCH  12  13
ENDBRANCH   5   7
ENDBRANCH   2   3
ENDBRANCH   1   2
BRANCH   1  72
ATOM     72  C   UNL     1       4.300  -2.852   2.647  1.00  0.00     0.023 C 
BRANCH  72  73
ATOM     73  C   UNL     1       4.435  -4.038   1.697  1.00  0.00     0.116 C 
BRANCH  73  74
ATOM     74  N   UNL     1       5.815  -4.376   1.410  1.00  0.00    -0.352 N 
ATOM     75  C   UNL     1       6.650  -5.307   1.970  1.00  0.00     0.251 C 
ATOM     76  H   UNL     1       6.224  -3.845   0.689  1.00  0.00     0.163 HD
ATOM     77  O   UNL     1       7.839  -5.300   1.661  1.00  0.00    -0.269 OA
BRANCH  75  78
ATOM     78  C   UNL     1       6.160  -6.315   2.936  1.00  0.00     0.041 A 
ATOM     79  C   UNL     1       6.974  -6.620   4.034  1.00  0.00     0.014 A 
ATOM     80  C   UNL     1       5.008  -7.070   2.693  1.00  0.00     0.039 A 
ATOM     81  C   UNL     1       6.617  -7.647   4.905  1.00  0.00     0.003 A 
ATOM     82  C   UNL     1       4.639  -8.099   3.567  1.00  0.00     0.039 A 
ATOM     83  C   UNL     1       5.458  -8.385   4.667  1.00  0.00     0.026 A 
BRANCH  82  84
ATOM     84  N   UNL     1       3.594  -8.989   3.225  1.00  0.00    -0.355 N 
ATOM     85  H   UNL     1       2.658  -8.717   3.359  1.00  0.00     0.167 HD
BRANCH  84  86
ATOM     86  C   UNL     1       3.887 -10.273   2.689  1.00  0.00     0.050 A 
ATOM     87  C   UNL     1       4.579 -10.353   1.478  1.00  0.00     0.047 A 
ATOM     88  C   UNL     1       3.480 -11.459   3.335  1.00  0.00     0.027 A 
ATOM     89  C   UNL     1       4.901 -11.597   0.985  1.00  0.00     0.114 A 
ATOM     90  C   UNL     1       3.874 -12.682   2.742  1.00  0.00     0.072 A 
ATOM     91  C   UNL     1       2.740 -11.481   4.537  1.00  0.00     0.051 A 
ATOM     92  N   UNL     1       4.567 -12.750   1.595  1.00  0.00    -0.256 NA
ATOM     93  C   UNL     1       3.539 -13.871   3.374  1.00  0.00     0.032 A 
ATOM     94  C   UNL     1       2.413 -12.692   5.133  1.00  0.00     0.124 A 
ATOM     95  C   UNL     1       2.812 -13.890   4.566  1.00  0.00     0.041 A 
ATOM     96  F   UNL     1       1.710 -12.702   6.273  1.00  0.00    -0.207 F 
ENDBRANCH  84  86
ENDBRANCH  82  84
ENDBRANCH  75  78
ENDBRANCH  73  74
ENDBRANCH  72  73
ENDBRANCH   1  72
TORSDOF 13
