REMARK SMILES O=C(COc1ccc(Br)cc1/C=N/Nc1ncccc1[N+](=O)[O-])NCCCCNC(=O)c1ccc(-c2c3nc(c(-c4c(F)c(F)c(F)c(F)c4F)c4ccc([nH]4)c(-c4c(F)c(F)c(F)c(F)c4F)c4nc(c(-c5c(F)c(F)c(F)c(F)c5F)c5ccc2[nH]5)C=C4)C=C3)cc1
REMARK SMILES IDX 1 1 2 2 24 3 3 5 4 6 5 7 6 8 11 9 7 10 10 11 8 12 9 13 12 14
REMARK SMILES IDX 13 15 14 16 15 18 16 19 20 20 17 21 19 22 18 23 21 24 22 25
REMARK SMILES IDX 23 26 25 27 26 28 27 29 28 30 29 31 30 32 31 34 32 35 33 36
REMARK SMILES IDX 94 37 34 38 93 39 35 40 36 41 37 42 87 43 38 44 92 45 86 46
REMARK SMILES IDX 88 47 39 48 91 49 85 50 84 51 40 53 72 54 52 55 71 56 53 57
REMARK SMILES IDX 56 58 70 59 89 60 54 61 55 62 69 64 90 65 57 66 41 67 42 68
REMARK SMILES IDX 50 69 43 70 44 71 48 72 51 73 45 74 46 75 49 76 47 77 73 78
REMARK SMILES IDX 74 79 82 80 75 81 76 82 80 83 83 84 77 85 78 86 81 87 79 88
REMARK SMILES IDX 58 89 59 90 67 91 60 92 61 93 65 94 68 95 62 96 63 97 66 98
REMARK SMILES IDX 64 99
REMARK H PARENT 24 4 14 17 29 33 88 52 56 63
REMARK Flexibility Score: inf
ROOT
ATOM      1  O   UNL     1       1.123   0.251   0.737  1.00  0.00    -0.271 OA
ATOM      2  C   UNL     1       2.245   0.122   0.258  1.00  0.00     0.257 C 
ATOM      3  N   UNL     1       2.874   1.108  -0.479  1.00  0.00    -0.353 N 
ATOM      4  H   UNL     1       3.836   1.023  -0.669  1.00  0.00     0.163 HD
ENDROOT
BRANCH   2   5
ATOM      5  C   UNL     1       3.060  -1.170   0.401  1.00  0.00     0.329 C 
BRANCH   5   6
ATOM      6  O   UNL     1       3.869  -1.509  -0.736  1.00  0.00    -0.483 OA
BRANCH   6   7
ATOM      7  C   UNL     1       3.173  -2.191  -1.705  1.00  0.00     0.129 A 
ATOM      8  C   UNL     1       2.147  -1.562  -2.418  1.00  0.00     0.048 A 
ATOM      9  C   UNL     1       3.540  -3.497  -2.057  1.00  0.00     0.038 A 
ATOM     10  C   UNL     1       1.474  -2.233  -3.441  1.00  0.00     0.019 A 
ATOM     11  C   UNL     1       2.857  -4.176  -3.076  1.00  0.00     0.029 A 
ATOM     12  C   UNL     1       1.830  -3.537  -3.764  1.00  0.00     0.018 A 
ATOM     13  Br  UNL     1       0.938  -4.428  -5.171  1.00  0.00    -0.051 Br
BRANCH   9  14
ATOM     14  C   UNL     1       4.667  -4.180  -1.395  1.00  0.00     0.145 C 
ATOM     15  N   UNL     1       4.743  -5.476  -1.378  1.00  0.00    -0.181 NA
BRANCH  15  16
ATOM     16  N   UNL     1       5.837  -6.034  -0.807  1.00  0.00    -0.256 N 
ATOM     17  H   UNL     1       6.303  -6.723  -1.333  1.00  0.00     0.192 HD
BRANCH  16  18
ATOM     18  C   UNL     1       6.374  -5.740   0.444  1.00  0.00     0.225 A 
ATOM     19  N   UNL     1       7.719  -5.922   0.517  1.00  0.00    -0.232 NA
ATOM     20  C   UNL     1       5.687  -5.220   1.533  1.00  0.00     0.313 A 
ATOM     21  C   UNL     1       8.373  -5.519   1.631  1.00  0.00     0.114 A 
ATOM     22  C   UNL     1       6.373  -4.783   2.674  1.00  0.00     0.091 A 
ATOM     23  C   UNL     1       7.753  -4.925   2.715  1.00  0.00     0.027 A 
BRANCH  20  24
ATOM     24  N   UNL     1       4.249  -5.163   1.552  1.00  0.00     0.066 N 
ATOM     25  O   UNL     1       3.627  -6.232   1.528  1.00  0.00    -0.258 OA
ATOM     26  O   UNL     1       3.744  -4.039   1.700  1.00  0.00    -0.258 OA
ENDBRANCH  20  24
ENDBRANCH  16  18
ENDBRANCH  15  16
ENDBRANCH   9  14
ENDBRANCH   6   7
ENDBRANCH   5   6
ENDBRANCH   2   5
BRANCH   3  27
ATOM     27  C   UNL     1       2.158   2.264  -0.980  1.00  0.00     0.116 C 
BRANCH  27  28
ATOM     28  C   UNL     1       2.556   3.571  -0.304  1.00  0.00     0.023 C 
BRANCH  28  29
ATOM     29  C   UNL     1       4.035   3.941  -0.431  1.00  0.00     0.023 C 
BRANCH  29  30
ATOM     30  C   UNL     1       4.575   4.021  -1.855  1.00  0.00     0.116 C 
BRANCH  30  31
ATOM     31  N   UNL     1       3.961   5.077  -2.644  1.00  0.00    -0.352 N 
ATOM     32  C   UNL     1       4.552   6.091  -3.361  1.00  0.00     0.251 C 
ATOM     33  H   UNL     1       2.977   5.065  -2.668  1.00  0.00     0.163 HD
ATOM     34  O   UNL     1       3.859   6.976  -3.857  1.00  0.00    -0.269 OA
BRANCH  32  35
ATOM     35  C   UNL     1       6.024   6.145  -3.511  1.00  0.00     0.039 A 
ATOM     36  C   UNL     1       6.673   7.371  -3.339  1.00  0.00     0.014 A 
ATOM     37  C   UNL     1       6.765   5.002  -3.821  1.00  0.00     0.014 A 
ATOM     38  C   UNL     1       8.068   7.434  -3.400  1.00  0.00     0.010 A 
ATOM     39  C   UNL     1       8.158   5.051  -3.802  1.00  0.00     0.010 A 
ATOM     40  C   UNL     1       8.826   6.267  -3.588  1.00  0.00    -0.014 A 
BRANCH  40  41
ATOM     41  C   UNL     1      10.313   6.298  -3.551  1.00  0.00     0.031 A 
ATOM     42  C   UNL     1      11.114   5.914  -4.764  1.00  0.00     0.074 A 
ATOM     43  C   UNL     1      10.945   6.613  -2.402  1.00  0.00     0.049 A 
ATOM     44  N   UNL     1      12.413   5.811  -4.902  1.00  0.00    -0.248 NA
ATOM     45  C   UNL     1      10.355   5.576  -5.978  1.00  0.00     0.031 C 
ATOM     46  C   UNL     1      10.286   6.961  -1.143  1.00  0.00     0.029 A 
ATOM     47  N   UNL     1      12.284   6.679  -2.104  1.00  0.00    -0.354 N 
ATOM     48  C   UNL     1      12.623   5.392  -6.209  1.00  0.00     0.074 A 
ATOM     49  C   UNL     1      11.319   5.199  -6.805  1.00  0.00     0.031 C 
ATOM     50  C   UNL     1      11.219   7.224  -0.215  1.00  0.00     0.029 A 
ATOM     51  C   UNL     1      12.542   7.021  -0.798  1.00  0.00     0.049 A 
ATOM     52  H   UNL     1      12.993   6.500  -2.764  1.00  0.00     0.167 HD
ATOM     53  C   UNL     1      13.797   5.208  -6.861  1.00  0.00     0.037 A 
ATOM     54  C   UNL     1      13.711   7.142  -0.139  1.00  0.00     0.037 A 
ATOM     55  C   UNL     1      15.094   5.412  -6.270  1.00  0.00     0.049 A 
ATOM     56  C   UNL     1      15.001   6.906  -0.880  1.00  0.00     0.074 A 
ATOM     57  C   UNL     1      16.340   5.297  -6.863  1.00  0.00     0.029 A 
ATOM     58  N   UNL     1      15.314   5.767  -4.947  1.00  0.00    -0.354 N 
ATOM     59  N   UNL     1      15.187   6.573  -2.134  1.00  0.00    -0.248 NA
ATOM     60  C   UNL     1      16.244   7.070  -0.114  1.00  0.00     0.031 C 
ATOM     61  C   UNL     1      17.313   5.526  -5.886  1.00  0.00     0.029 A 
ATOM     62  C   UNL     1      16.675   5.849  -4.699  1.00  0.00     0.049 A 
ATOM     63  H   UNL     1      14.607   5.936  -4.283  1.00  0.00     0.167 HD
ATOM     64  C   UNL     1      16.562   6.519  -2.316  1.00  0.00     0.074 A 
ATOM     65  C   UNL     1      17.164   6.870  -1.047  1.00  0.00     0.031 C 
ATOM     66  C   UNL     1      17.264   6.207  -3.433  1.00  0.00     0.037 A 
BRANCH  53  67
ATOM     67  C   UNL     1      13.733   4.763  -8.296  1.00  0.00     0.064 A 
ATOM     68  C   UNL     1      13.252   5.607  -9.308  1.00  0.00     0.173 A 
ATOM     69  C   UNL     1      14.199   3.493  -8.670  1.00  0.00     0.173 A 
ATOM     70  F   UNL     1      12.785   6.828  -9.005  1.00  0.00    -0.203 F 
ATOM     71  C   UNL     1      13.209   5.185 -10.635  1.00  0.00     0.198 A 
ATOM     72  C   UNL     1      14.188   3.088 -10.002  1.00  0.00     0.198 A 
ATOM     73  F   UNL     1      14.678   2.647  -7.745  1.00  0.00    -0.203 F 
ATOM     74  F   UNL     1      12.696   5.990 -11.575  1.00  0.00    -0.200 F 
ATOM     75  C   UNL     1      13.685   3.930 -10.982  1.00  0.00     0.200 A 
ATOM     76  F   UNL     1      14.663   1.881 -10.338  1.00  0.00    -0.200 F 
ATOM     77  F   UNL     1      13.653   3.530 -12.260  1.00  0.00    -0.200 F 
ENDBRANCH  53  67
BRANCH  54  78
ATOM     78  C   UNL     1      13.719   7.515   1.301  1.00  0.00     0.064 A 
ATOM     79  C   UNL     1      14.229   8.750   1.725  1.00  0.00     0.173 A 
ATOM     80  C   UNL     1      13.234   6.639   2.284  1.00  0.00     0.173 A 
ATOM     81  F   UNL     1      14.726   9.614   0.827  1.00  0.00    -0.203 F 
ATOM     82  C   UNL     1      14.278   9.084   3.078  1.00  0.00     0.198 A 
ATOM     83  C   UNL     1      13.251   6.988   3.632  1.00  0.00     0.198 A 
ATOM     84  F   UNL     1      12.730   5.447   1.932  1.00  0.00    -0.203 F 
ATOM     85  F   UNL     1      14.822  10.248   3.459  1.00  0.00    -0.200 F 
ATOM     86  C   UNL     1      13.783   8.206   4.029  1.00  0.00     0.200 A 
ATOM     87  F   UNL     1      12.757   6.143   4.547  1.00  0.00    -0.200 F 
ATOM     88  F   UNL     1      13.828   8.527   5.329  1.00  0.00    -0.200 F 
ENDBRANCH  54  78
BRANCH  66  89
ATOM     89  C   UNL     1      18.763   6.270  -3.350  1.00  0.00     0.064 A 
ATOM     90  C   UNL     1      19.503   5.338  -2.608  1.00  0.00     0.173 A 
ATOM     91  C   UNL     1      19.471   7.257  -4.055  1.00  0.00     0.173 A 
ATOM     92  F   UNL     1      18.876   4.384  -1.904  1.00  0.00    -0.203 F 
ATOM     93  C   UNL     1      20.893   5.409  -2.551  1.00  0.00     0.198 A 
ATOM     94  C   UNL     1      20.861   7.303  -4.025  1.00  0.00     0.198 A 
ATOM     95  F   UNL     1      18.812   8.169  -4.786  1.00  0.00    -0.203 F 
ATOM     96  F   UNL     1      21.576   4.541  -1.792  1.00  0.00    -0.200 F 
ATOM     97  C   UNL     1      21.571   6.385  -3.266  1.00  0.00     0.200 A 
ATOM     98  F   UNL     1      21.515   8.237  -4.730  1.00  0.00    -0.200 F 
ATOM     99  F   UNL     1      22.909   6.446  -3.217  1.00  0.00    -0.200 F 
ENDBRANCH  66  89
ENDBRANCH  40  41
ENDBRANCH  32  35
ENDBRANCH  30  31
ENDBRANCH  29  30
ENDBRANCH  28  29
ENDBRANCH  27  28
ENDBRANCH   3  27
TORSDOF 17
