REMARK SMILES Cc1ccccc1CNc1ccc(C(=O)NCCCCNC(=O)c2ccc(-c3c4nc(c(-c5c(F)c(F)c(F)c(F)c5F)c5ccc([nH]5)c(-c5c(F)c(F)c(F)c(F)c5F)c5nc(c(-c6c(F)c(F)c(F)c(F)c6F)c6ccc3[nH]6)C=C5)C=C4)cc2)c(F)c1F
REMARK SMILES IDX 18 1 17 2 16 3 14 4 15 5 13 7 10 8 11 9 89 10 12 11 87 12
REMARK SMILES IDX 90 13 88 14 9 15 8 17 7 18 1 19 2 20 3 21 4 22 6 23 5 24
REMARK SMILES IDX 19 25 20 26 21 27 22 28 23 30 24 31 25 32 86 33 26 34 85 35
REMARK SMILES IDX 27 36 28 37 29 38 79 39 30 40 84 41 78 42 80 43 31 44 83 45
REMARK SMILES IDX 77 46 76 47 32 49 64 50 44 51 63 52 45 53 48 54 62 55 81 56
REMARK SMILES IDX 46 57 47 58 61 60 82 61 49 62 33 63 34 64 42 65 35 66 36 67
REMARK SMILES IDX 40 68 43 69 37 70 38 71 41 72 39 73 65 74 66 75 74 76 67 77
REMARK SMILES IDX 68 78 72 79 75 80 69 81 70 82 73 83 71 84 50 85 51 86 59 87
REMARK SMILES IDX 52 88 53 89 57 90 60 91 54 92 55 93 58 94 56 95
REMARK H PARENT 16 6 9 16 21 29 80 48 48 59
REMARK Flexibility Score: inf
ROOT
ATOM      1  C   UNL     1       1.307  10.305   0.109  1.00  0.00     0.023 C 
ENDROOT
BRANCH   1   2
ATOM      2  C   UNL     1       0.350   9.320   0.781  1.00  0.00     0.116 C 
BRANCH   2   3
ATOM      3  N   UNL     1      -0.981   9.280   0.186  1.00  0.00    -0.352 N 
ATOM      4  C   UNL     1      -1.676   8.291  -0.473  1.00  0.00     0.254 C 
ATOM      5  O   UNL     1      -2.800   8.551  -0.894  1.00  0.00    -0.269 OA
ATOM      6  H   UNL     1      -1.479  10.125   0.272  1.00  0.00     0.163 HD
BRANCH   4   7
ATOM      7  C   UNL     1      -1.117   6.936  -0.663  1.00  0.00     0.078 A 
ATOM      8  C   UNL     1      -0.028   4.348  -1.050  1.00  0.00     0.074 A 
ATOM      9  C   UNL     1       0.184   5.053   0.136  1.00  0.00     0.030 A 
ATOM     10  C   UNL     1      -0.820   4.968  -2.032  1.00  0.00     0.182 A 
ATOM     11  C   UNL     1      -0.404   6.300   0.352  1.00  0.00     0.019 A 
ATOM     12  C   UNL     1      -1.353   6.245  -1.851  1.00  0.00     0.173 A 
ATOM     13  F   UNL     1      -1.077   4.308  -3.175  1.00  0.00    -0.201 F 
ATOM     14  F   UNL     1      -2.083   6.785  -2.838  1.00  0.00    -0.203 F 
BRANCH   8  15
ATOM     15  N   UNL     1       0.479   3.081  -1.266  1.00  0.00    -0.379 N 
ATOM     16  H   UNL     1       0.434   2.728  -2.183  1.00  0.00     0.161 HD
BRANCH  15  17
ATOM     17  C   UNL     1       1.072   2.227  -0.252  1.00  0.00     0.149 C 
BRANCH  17  18
ATOM     18  C   UNL     1       0.357   0.894  -0.191  1.00  0.00    -0.026 A 
ATOM     19  C   UNL     1       2.531  -0.478  -0.076  1.00  0.00     0.044 C 
ATOM     20  C   UNL     1       1.033  -0.337  -0.083  1.00  0.00    -0.046 A 
ATOM     21  C   UNL     1       0.279  -1.523  -0.002  1.00  0.00     0.004 A 
ATOM     22  C   UNL     1      -1.115  -1.497   0.016  1.00  0.00     0.000 A 
ATOM     23  C   UNL     1      -1.055   0.899  -0.143  1.00  0.00     0.006 A 
ATOM     24  C   UNL     1      -1.784  -0.283  -0.046  1.00  0.00     0.000 A 
ENDBRANCH  17  18
ENDBRANCH  15  17
ENDBRANCH   8  15
ENDBRANCH   4   7
ENDBRANCH   2   3
ENDBRANCH   1   2
BRANCH   1  25
ATOM     25  C   UNL     1       0.873  11.767   0.113  1.00  0.00     0.023 C 
BRANCH  25  26
ATOM     26  C   UNL     1       0.713  12.382   1.495  1.00  0.00     0.116 C 
BRANCH  26  27
ATOM     27  N   UNL     1       1.950  12.786   2.137  1.00  0.00    -0.352 N 
ATOM     28  C   UNL     1       2.175  13.343   3.392  1.00  0.00     0.251 C 
ATOM     29  H   UNL     1       2.761  12.643   1.598  1.00  0.00     0.163 HD
ATOM     30  O   UNL     1       3.282  13.747   3.668  1.00  0.00    -0.269 OA
BRANCH  28  31
ATOM     31  C   UNL     1       1.114  13.308   4.444  1.00  0.00     0.039 A 
ATOM     32  C   UNL     1       1.526  13.166   5.780  1.00  0.00     0.014 A 
ATOM     33  C   UNL     1      -0.239  13.228   4.141  1.00  0.00     0.014 A 
ATOM     34  C   UNL     1       0.628  12.696   6.738  1.00  0.00     0.010 A 
ATOM     35  C   UNL     1      -1.100  12.652   5.048  1.00  0.00     0.010 A 
ATOM     36  C   UNL     1      -0.647  12.325   6.325  1.00  0.00    -0.014 A 
BRANCH  36  37
ATOM     37  C   UNL     1      -1.561  11.509   7.108  1.00  0.00     0.031 A 
ATOM     38  C   UNL     1      -2.749  12.120   7.732  1.00  0.00     0.074 A 
ATOM     39  C   UNL     1      -1.399  10.169   7.072  1.00  0.00     0.049 A 
ATOM     40  N   UNL     1      -3.455  11.565   8.655  1.00  0.00    -0.248 NA
ATOM     41  C   UNL     1      -3.224  13.450   7.371  1.00  0.00     0.031 C 
ATOM     42  C   UNL     1      -2.355   9.139   7.466  1.00  0.00     0.029 A 
ATOM     43  N   UNL     1      -0.210   9.461   6.822  1.00  0.00    -0.354 N 
ATOM     44  C   UNL     1      -4.599  12.313   8.826  1.00  0.00     0.074 A 
ATOM     45  C   UNL     1      -4.379  13.505   8.041  1.00  0.00     0.031 C 
ATOM     46  C   UNL     1      -1.684   8.006   7.730  1.00  0.00     0.029 A 
ATOM     47  C   UNL     1      -0.269   8.328   7.665  1.00  0.00     0.049 A 
ATOM     48  H   UNL     1       0.509   9.703   6.194  1.00  0.00     0.167 HD
ATOM     49  C   UNL     1      -5.643  11.767   9.517  1.00  0.00     0.037 A 
ATOM     50  C   UNL     1       0.607   8.187   8.704  1.00  0.00     0.037 A 
ATOM     51  C   UNL     1      -5.261  10.471  10.078  1.00  0.00     0.049 A 
ATOM     52  C   UNL     1      -0.062   8.129  10.057  1.00  0.00     0.074 A 
ATOM     53  C   UNL     1      -5.452   9.168   9.646  1.00  0.00     0.029 A 
ATOM     54  N   UNL     1      -4.283  10.419  11.066  1.00  0.00    -0.354 N 
ATOM     55  N   UNL     1      -1.263   8.579  10.295  1.00  0.00    -0.248 NA
ATOM     56  C   UNL     1       0.576   7.580  11.250  1.00  0.00     0.031 C 
ATOM     57  C   UNL     1      -4.525   8.341  10.328  1.00  0.00     0.029 A 
ATOM     58  C   UNL     1      -3.793   9.134  11.196  1.00  0.00     0.049 A 
ATOM     59  H   UNL     1      -3.982  11.190  11.599  1.00  0.00     0.167 HD
ATOM     60  C   UNL     1      -1.560   8.410  11.621  1.00  0.00     0.074 A 
ATOM     61  C   UNL     1      -0.384   7.764  12.173  1.00  0.00     0.031 C 
ATOM     62  C   UNL     1      -2.745   8.828  12.157  1.00  0.00     0.037 A 
BRANCH  49  63
ATOM     63  C   UNL     1      -7.077  12.259   9.455  1.00  0.00     0.064 A 
ATOM     64  C   UNL     1      -8.153  11.367   9.670  1.00  0.00     0.173 A 
ATOM     65  C   UNL     1      -7.470  13.571   9.132  1.00  0.00     0.173 A 
ATOM     66  F   UNL     1      -7.950  10.112  10.091  1.00  0.00    -0.203 F 
ATOM     67  C   UNL     1      -9.489  11.728   9.461  1.00  0.00     0.198 A 
ATOM     68  C   UNL     1      -8.800  13.920   8.871  1.00  0.00     0.198 A 
ATOM     69  F   UNL     1      -6.594  14.581   9.124  1.00  0.00    -0.203 F 
ATOM     70  F   UNL     1     -10.462  10.831   9.675  1.00  0.00    -0.200 F 
ATOM     71  C   UNL     1      -9.810  12.995   9.024  1.00  0.00     0.200 A 
ATOM     72  F   UNL     1      -9.093  15.168   8.476  1.00  0.00    -0.200 F 
ATOM     73  F   UNL     1     -11.084  13.332   8.784  1.00  0.00    -0.200 F 
ENDBRANCH  49  63
BRANCH  50  74
ATOM     74  C   UNL     1       1.936   8.800   8.427  1.00  0.00     0.064 A 
ATOM     75  C   UNL     1       2.691   8.290   7.351  1.00  0.00     0.173 A 
ATOM     76  C   UNL     1       2.275  10.071   8.907  1.00  0.00     0.173 A 
ATOM     77  F   UNL     1       2.406   7.077   6.850  1.00  0.00    -0.203 F 
ATOM     78  C   UNL     1       3.649   9.066   6.703  1.00  0.00     0.198 A 
ATOM     79  C   UNL     1       3.252  10.839   8.265  1.00  0.00     0.198 A 
ATOM     80  F   UNL     1       1.586  10.622   9.916  1.00  0.00    -0.203 F 
ATOM     81  F   UNL     1       4.258   8.595   5.605  1.00  0.00    -0.200 F 
ATOM     82  C   UNL     1       3.908  10.352   7.144  1.00  0.00     0.200 A 
ATOM     83  F   UNL     1       3.486  12.094   8.674  1.00  0.00    -0.200 F 
ATOM     84  F   UNL     1       4.758  11.136   6.465  1.00  0.00    -0.200 F 
ENDBRANCH  50  74
BRANCH  62  85
ATOM     85  C   UNL     1      -3.066   8.917  13.629  1.00  0.00     0.064 A 
ATOM     86  C   UNL     1      -2.105   9.159  14.625  1.00  0.00     0.173 A 
ATOM     87  C   UNL     1      -4.413   8.919  14.068  1.00  0.00     0.173 A 
ATOM     88  F   UNL     1      -0.807   9.298  14.322  1.00  0.00    -0.203 F 
ATOM     89  C   UNL     1      -2.458   9.329  15.966  1.00  0.00     0.198 A 
ATOM     90  C   UNL     1      -4.765   9.151  15.396  1.00  0.00     0.198 A 
ATOM     91  F   UNL     1      -5.428   8.725  13.214  1.00  0.00    -0.203 F 
ATOM     92  F   UNL     1      -1.500   9.516  16.884  1.00  0.00    -0.200 F 
ATOM     93  C   UNL     1      -3.787   9.340  16.349  1.00  0.00     0.200 A 
ATOM     94  F   UNL     1      -6.059   9.213  15.741  1.00  0.00    -0.200 F 
ATOM     95  F   UNL     1      -4.122   9.555  17.628  1.00  0.00    -0.200 F 
ENDBRANCH  62  85
ENDBRANCH  36  37
ENDBRANCH  28  31
ENDBRANCH  26  27
ENDBRANCH  25  26
ENDBRANCH   1  25
TORSDOF 14
