REMARK SMILES COC(=O)c1c(NC(=O)[C@@H]2C[C@@H]2C(=O)NCCCCNC(=O)c2ccc(-c3c4nc(c(-c5c(F)c(F)c(F)c(F)c5F)c5ccc([nH]5)c(-c5c(F)c(F)c(F)c(F)c5F)c5nc(c(-c6c(F)c(F)c(F)c(F)c6F)c6ccc3[nH]6)C=C5)C=C4)cc2)sc2c1CC[N@@H+](Cc1ccccc1)C2
REMARK SMILES IDX 16 1 15 2 13 3 14 4 12 6 10 7 11 8 8 9 7 10 9 12 6 13 5 14
REMARK SMILES IDX 88 15 86 16 87 17 89 18 99 19 90 20 91 21 3 23 4 24 2 25
REMARK SMILES IDX 1 26 92 27 93 28 94 29 98 30 95 31 97 32 96 33 17 34 18 35
REMARK SMILES IDX 19 36 20 37 21 38 22 40 23 41 24 42 85 43 25 44 84 45 26 46
REMARK SMILES IDX 27 47 28 48 78 49 29 50 83 51 77 52 79 53 30 54 82 55 76 56
REMARK SMILES IDX 75 57 31 59 63 60 43 61 62 62 44 63 47 64 61 65 80 66 45 67
REMARK SMILES IDX 46 68 60 70 81 71 48 72 32 73 33 74 41 75 34 76 35 77 39 78
REMARK SMILES IDX 42 79 36 80 37 81 40 82 38 83 64 84 65 85 73 86 66 87 67 88
REMARK SMILES IDX 71 89 74 90 68 91 69 92 72 93 70 94 49 95 50 96 58 97 51 98
REMARK SMILES IDX 52 99 56 100 59 101 53 102 54 103 57 104 55 105
REMARK H PARENT 15 5 7 11 91 22 20 39 79 58 47 69
REMARK Flexibility Score: inf
ROOT
ATOM      1  C   UNL     1      -3.332   0.484  -2.803  1.00  0.00     0.116 C 
ENDROOT
BRANCH   1   2
ATOM      2  N   UNL     1      -1.982  -0.011  -2.647  1.00  0.00    -0.356 N 
ATOM      3  C   UNL     1      -1.176  -0.082  -1.546  1.00  0.00     0.223 C 
ATOM      4  O   UNL     1      -0.121  -0.701  -1.651  1.00  0.00    -0.275 OA
ATOM      5  H   UNL     1      -1.574  -0.355  -3.475  1.00  0.00     0.163 HD
BRANCH   3   6
ATOM      6  C   UNL     1      -1.634   0.349  -0.205  1.00  0.00     0.091 C 
ATOM      7  C   UNL     1      -2.182   1.676   0.243  1.00  0.00     0.092 C 
ATOM      8  C   UNL     1      -0.823   1.300   0.667  1.00  0.00     0.028 C 
BRANCH   7   9
ATOM      9  C   UNL     1      -2.570   2.782  -0.638  1.00  0.00     0.228 C 
ATOM     10  N   UNL     1      -1.858   3.542  -1.511  1.00  0.00    -0.317 N 
ATOM     11  H   UNL     1      -2.504   4.139  -1.954  1.00  0.00     0.170 HD
ATOM     12  O   UNL     1      -3.780   3.040  -0.630  1.00  0.00    -0.274 OA
BRANCH  10  13
ATOM     13  C   UNL     1      -0.627   3.835  -2.039  1.00  0.00     0.110 A 
ATOM     14  C   UNL     1       0.746   3.659  -1.923  1.00  0.00     0.098 A 
ATOM     15  C   UNL     1       1.449   4.465  -2.911  1.00  0.00    -0.006 A 
ATOM     16  S   UNL     1      -0.999   4.853  -3.407  1.00  0.00    -0.116 S 
ATOM     17  C   UNL     1       0.609   4.981  -3.868  1.00  0.00     0.065 A 
ATOM     18  C   UNL     1       2.937   4.643  -3.038  1.00  0.00     0.099 C 
ATOM     19  C   UNL     1       1.043   5.612  -5.158  1.00  0.00     0.310 C 
ATOM     20  C   UNL     1       3.313   5.479  -4.286  1.00  0.00     0.267 C 
ATOM     21  N   UNL     1       2.453   5.319  -5.472  1.00  0.00    -0.326 N 
ATOM     22  H   UNL     1       2.745   6.039  -6.132  1.00  0.00     0.348 HD
BRANCH  14  23
ATOM     23  C   UNL     1       1.512   2.883  -0.972  1.00  0.00     0.341 C 
ATOM     24  O   UNL     1       2.148   3.403  -0.046  1.00  0.00    -0.246 OA
BRANCH  23  25
ATOM     25  O   UNL     1       1.540   1.561  -1.268  1.00  0.00    -0.465 OA
ATOM     26  C   UNL     1       2.279   0.740  -0.357  1.00  0.00     0.282 C 
ENDBRANCH  23  25
ENDBRANCH  14  23
BRANCH  21  27
ATOM     27  C   UNL     1       2.694   4.107  -6.273  1.00  0.00     0.299 C 
BRANCH  27  28
ATOM     28  C   UNL     1       2.425   2.758  -5.640  1.00  0.00     0.006 A 
ATOM     29  C   UNL     1       3.477   1.989  -5.116  1.00  0.00     0.009 A 
ATOM     30  C   UNL     1       1.119   2.260  -5.536  1.00  0.00     0.009 A 
ATOM     31  C   UNL     1       3.219   0.798  -4.434  1.00  0.00     0.001 A 
ATOM     32  C   UNL     1       0.862   1.078  -4.844  1.00  0.00     0.001 A 
ATOM     33  C   UNL     1       1.909   0.353  -4.283  1.00  0.00     0.000 A 
ENDBRANCH  27  28
ENDBRANCH  21  27
ENDBRANCH  10  13
ENDBRANCH   7   9
ENDBRANCH   3   6
ENDBRANCH   1   2
BRANCH   1  34
ATOM     34  C   UNL     1      -3.372   1.739  -3.679  1.00  0.00     0.023 C 
BRANCH  34  35
ATOM     35  C   UNL     1      -3.594   1.563  -5.183  1.00  0.00     0.023 C 
BRANCH  35  36
ATOM     36  C   UNL     1      -4.915   0.928  -5.583  1.00  0.00     0.116 C 
BRANCH  36  37
ATOM     37  N   UNL     1      -6.094   1.608  -5.035  1.00  0.00    -0.352 N 
ATOM     38  C   UNL     1      -7.390   1.122  -4.951  1.00  0.00     0.251 C 
ATOM     39  H   UNL     1      -5.948   2.517  -4.687  1.00  0.00     0.163 HD
ATOM     40  O   UNL     1      -8.358   1.864  -4.858  1.00  0.00    -0.269 OA
BRANCH  38  41
ATOM     41  C   UNL     1      -7.565  -0.338  -4.939  1.00  0.00     0.039 A 
ATOM     42  C   UNL     1      -8.522  -1.003  -5.706  1.00  0.00     0.014 A 
ATOM     43  C   UNL     1      -6.632  -1.040  -4.187  1.00  0.00     0.014 A 
ATOM     44  C   UNL     1      -8.461  -2.394  -5.770  1.00  0.00     0.010 A 
ATOM     45  C   UNL     1      -6.418  -2.357  -4.457  1.00  0.00     0.010 A 
ATOM     46  C   UNL     1      -7.384  -3.058  -5.158  1.00  0.00    -0.014 A 
BRANCH  46  47
ATOM     47  C   UNL     1      -7.175  -4.488  -5.282  1.00  0.00     0.031 A 
ATOM     48  C   UNL     1      -7.097  -4.980  -6.677  1.00  0.00     0.074 A 
ATOM     49  C   UNL     1      -6.865  -5.267  -4.222  1.00  0.00     0.049 A 
ATOM     50  N   UNL     1      -7.996  -5.661  -7.300  1.00  0.00    -0.248 NA
ATOM     51  C   UNL     1      -5.983  -4.543  -7.531  1.00  0.00     0.031 C 
ATOM     52  C   UNL     1      -6.591  -4.884  -2.831  1.00  0.00     0.029 A 
ATOM     53  N   UNL     1      -6.645  -6.607  -4.202  1.00  0.00    -0.354 N 
ATOM     54  C   UNL     1      -7.482  -5.918  -8.566  1.00  0.00     0.074 A 
ATOM     55  C   UNL     1      -6.340  -5.054  -8.713  1.00  0.00     0.031 C 
ATOM     56  C   UNL     1      -6.027  -5.921  -2.173  1.00  0.00     0.029 A 
ATOM     57  C   UNL     1      -6.062  -7.086  -3.035  1.00  0.00     0.049 A 
ATOM     58  H   UNL     1      -6.881  -7.194  -4.956  1.00  0.00     0.167 HD
ATOM     59  C   UNL     1      -7.917  -6.996  -9.277  1.00  0.00     0.037 A 
ATOM     60  C   UNL     1      -5.623  -8.353  -2.827  1.00  0.00     0.037 A 
ATOM     61  C   UNL     1      -9.109  -7.553  -8.679  1.00  0.00     0.049 A 
ATOM     62  C   UNL     1      -6.329  -9.216  -3.814  1.00  0.00     0.074 A 
ATOM     63  C   UNL     1     -10.375  -7.064  -8.415  1.00  0.00     0.029 A 
ATOM     64  N   UNL     1      -8.960  -8.654  -7.869  1.00  0.00    -0.354 N 
ATOM     65  N   UNL     1      -7.615  -9.439  -3.780  1.00  0.00    -0.248 NA
ATOM     66  C   UNL     1      -5.698  -9.403  -5.114  1.00  0.00     0.031 C 
ATOM     67  C   UNL     1     -10.702  -7.575  -7.124  1.00  0.00     0.029 A 
ATOM     68  C   UNL     1      -9.668  -8.419  -6.718  1.00  0.00     0.049 A 
ATOM     69  H   UNL     1      -8.440  -9.464  -8.078  1.00  0.00     0.167 HD
ATOM     70  C   UNL     1      -8.023  -9.353  -5.103  1.00  0.00     0.074 A 
ATOM     71  C   UNL     1      -6.788  -9.397  -5.887  1.00  0.00     0.031 C 
ATOM     72  C   UNL     1      -9.285  -8.943  -5.428  1.00  0.00     0.037 A 
BRANCH  59  73
ATOM     73  C   UNL     1      -7.094  -7.785 -10.263  1.00  0.00     0.064 A 
ATOM     74  C   UNL     1      -7.723  -8.811 -11.000  1.00  0.00     0.173 A 
ATOM     75  C   UNL     1      -5.684  -7.795 -10.289  1.00  0.00     0.173 A 
ATOM     76  F   UNL     1      -9.061  -8.898 -11.047  1.00  0.00    -0.203 F 
ATOM     77  C   UNL     1      -6.995  -9.828 -11.621  1.00  0.00     0.198 A 
ATOM     78  C   UNL     1      -4.960  -8.783 -10.956  1.00  0.00     0.198 A 
ATOM     79  F   UNL     1      -4.949  -6.929  -9.584  1.00  0.00    -0.203 F 
ATOM     80  F   UNL     1      -7.639 -10.856 -12.188  1.00  0.00    -0.200 F 
ATOM     81  C   UNL     1      -5.613  -9.819 -11.589  1.00  0.00     0.200 A 
ATOM     82  F   UNL     1      -3.621  -8.764 -10.901  1.00  0.00    -0.200 F 
ATOM     83  F   UNL     1      -4.913 -10.828 -12.122  1.00  0.00    -0.200 F 
ENDBRANCH  59  73
BRANCH  60  84
ATOM     84  C   UNL     1      -4.403  -8.795  -2.106  1.00  0.00     0.064 A 
ATOM     85  C   UNL     1      -4.189 -10.154  -1.818  1.00  0.00     0.173 A 
ATOM     86  C   UNL     1      -3.290  -7.944  -1.951  1.00  0.00     0.173 A 
ATOM     87  F   UNL     1      -5.184 -11.040  -1.972  1.00  0.00    -0.203 F 
ATOM     88  C   UNL     1      -2.930 -10.638  -1.444  1.00  0.00     0.198 A 
ATOM     89  C   UNL     1      -2.036  -8.428  -1.573  1.00  0.00     0.198 A 
ATOM     90  F   UNL     1      -3.370  -6.641  -2.257  1.00  0.00    -0.203 F 
ATOM     91  F   UNL     1      -2.750 -11.952  -1.249  1.00  0.00    -0.200 F 
ATOM     92  C   UNL     1      -1.851  -9.777  -1.337  1.00  0.00     0.200 A 
ATOM     93  F   UNL     1      -0.992  -7.588  -1.507  1.00  0.00    -0.200 F 
ATOM     94  F   UNL     1      -0.630 -10.250  -1.051  1.00  0.00    -0.200 F 
ENDBRANCH  60  84
BRANCH  72  95
ATOM     95  C   UNL     1     -10.299  -8.824  -4.323  1.00  0.00     0.064 A 
ATOM     96  C   UNL     1     -10.189  -7.941  -3.234  1.00  0.00     0.173 A 
ATOM     97  C   UNL     1     -11.505  -9.524  -4.458  1.00  0.00     0.173 A 
ATOM     98  F   UNL     1      -9.115  -7.157  -3.085  1.00  0.00    -0.203 F 
ATOM     99  C   UNL     1     -11.219  -7.803  -2.304  1.00  0.00     0.198 A 
ATOM    100  C   UNL     1     -12.547  -9.357  -3.551  1.00  0.00     0.198 A 
ATOM    101  F   UNL     1     -11.693 -10.339  -5.509  1.00  0.00    -0.203 F 
ATOM    102  F   UNL     1     -11.083  -6.961  -1.268  1.00  0.00    -0.200 F 
ATOM    103  C   UNL     1     -12.400  -8.506  -2.468  1.00  0.00     0.200 A 
ATOM    104  F   UNL     1     -13.706 -10.002  -3.744  1.00  0.00    -0.200 F 
ATOM    105  F   UNL     1     -13.407  -8.345  -1.598  1.00  0.00    -0.200 F 
ENDBRANCH  72  95
ENDBRANCH  46  47
ENDBRANCH  38  41
ENDBRANCH  36  37
ENDBRANCH  35  36
ENDBRANCH  34  35
ENDBRANCH   1  34
TORSDOF 17
