REMARK SMILES CC1(C)Cc2c(-c3ccccc3)c(-c3ccc(Cl)cc3)c(CC(=O)NCCCCNC(=O)c3ccc(-c4c5nc(c(-c6c(F)c(F)c(F)c(F)c6F)c6ccc([nH]6)c(-c6c(F)c(F)c(F)c(F)c6F)c6nc(c(-c7c(F)c(F)c(F)c(F)c7F)c7ccc4[nH]7)C=C6)C=C5)cc3)n2C1
REMARK SMILES IDX 27 1 26 2 25 3 23 4 24 5 22 7 21 8 1 9 2 10 3 11 4 12 97 13
REMARK SMILES IDX 5 14 96 15 6 16 13 17 7 18 8 19 12 20 9 21 11 22 10 23 14 24
REMARK SMILES IDX 15 25 20 26 16 27 19 28 17 29 18 30 28 31 29 32 30 33 31 34
REMARK SMILES IDX 32 36 33 37 34 38 95 39 35 40 94 41 36 42 37 43 38 44 88 45
REMARK SMILES IDX 39 46 93 47 87 48 89 49 40 50 92 51 86 52 85 53 41 55 73 56
REMARK SMILES IDX 53 57 72 58 54 59 57 60 71 61 90 62 55 63 56 64 70 66 91 67
REMARK SMILES IDX 58 68 42 69 43 70 51 71 44 72 45 73 49 74 52 75 46 76 47 77
REMARK SMILES IDX 50 78 48 79 74 80 75 81 83 82 76 83 77 84 81 85 84 86 78 87
REMARK SMILES IDX 79 88 82 89 80 90 59 91 60 92 68 93 61 94 62 95 66 96 69 97
REMARK SMILES IDX 63 98 64 99 67 100 65 101
REMARK H PARENT 25 6 30 35 89 54 57 65
REMARK Flexibility Score: inf
ROOT
ATOM      1  C   UNL     1      -1.980   3.090   3.923  1.00  0.00     0.023 C 
ENDROOT
BRANCH   1   2
ATOM      2  C   UNL     1      -2.091   4.045   2.731  1.00  0.00     0.116 C 
BRANCH   2   3
ATOM      3  N   UNL     1      -1.698   5.403   3.029  1.00  0.00    -0.356 N 
ATOM      4  C   UNL     1      -0.530   6.051   2.732  1.00  0.00     0.225 C 
ATOM      5  O   UNL     1      -0.470   7.253   3.007  1.00  0.00    -0.275 OA
ATOM      6  H   UNL     1      -2.365   5.939   3.516  1.00  0.00     0.163 HD
BRANCH   4   7
ATOM      7  C   UNL     1       0.621   5.348   2.021  1.00  0.00     0.154 C 
BRANCH   7   8
ATOM      8  C   UNL     1       1.131   4.128   2.732  1.00  0.00     0.036 A 
ATOM      9  C   UNL     1       1.208   0.019  -0.098  1.00  0.00     0.013 C 
ATOM     10  C   UNL     1       0.699   0.820   1.101  1.00  0.00    -0.012 C 
ATOM     11  C   UNL     1      -0.747   0.380   1.389  1.00  0.00     0.013 C 
ATOM     12  C   UNL     1       1.587   0.591   2.366  1.00  0.00     0.063 C 
ATOM     13  C   UNL     1       0.787   2.354   0.837  1.00  0.00     0.129 C 
ATOM     14  C   UNL     1       1.631   1.939   2.980  1.00  0.00     0.027 A 
ATOM     15  N   UNL     1       1.166   2.899   2.135  1.00  0.00    -0.346 N 
ATOM     16  C   UNL     1       1.990   2.539   4.158  1.00  0.00     0.011 A 
ATOM     17  C   UNL     1       1.690   3.942   4.006  1.00  0.00     0.011 A 
BRANCH  16  18
ATOM     18  C   UNL     1       2.506   1.810   5.301  1.00  0.00    -0.016 A 
ATOM     19  C   UNL     1       3.628   0.985   5.168  1.00  0.00     0.009 A 
ATOM     20  C   UNL     1       1.885   1.934   6.549  1.00  0.00     0.009 A 
ATOM     21  C   UNL     1       4.116   0.283   6.270  1.00  0.00     0.001 A 
ATOM     22  C   UNL     1       2.376   1.234   7.651  1.00  0.00     0.001 A 
ATOM     23  C   UNL     1       3.489   0.406   7.510  1.00  0.00     0.000 A 
ENDBRANCH  16  18
BRANCH  17  24
ATOM     24  C   UNL     1       1.917   4.980   5.009  1.00  0.00    -0.016 A 
ATOM     25  C   UNL     1       3.215   5.194   5.497  1.00  0.00     0.010 A 
ATOM     26  C   UNL     1       0.851   5.653   5.616  1.00  0.00     0.010 A 
ATOM     27  C   UNL     1       3.439   6.060   6.572  1.00  0.00     0.021 A 
ATOM     28  C   UNL     1       1.075   6.540   6.674  1.00  0.00     0.021 A 
ATOM     29  C   UNL     1       2.368   6.731   7.155  1.00  0.00     0.041 A 
ATOM     30  Cl  UNL     1       2.634   7.771   8.499  1.00  0.00    -0.084 Cl
ENDBRANCH  17  24
ENDBRANCH   7   8
ENDBRANCH   4   7
ENDBRANCH   2   3
ENDBRANCH   1   2
BRANCH   1  31
ATOM     31  C   UNL     1      -3.019   3.223   5.037  1.00  0.00     0.023 C 
BRANCH  31  32
ATOM     32  C   UNL     1      -4.457   3.026   4.583  1.00  0.00     0.116 C 
BRANCH  32  33
ATOM     33  N   UNL     1      -4.727   1.711   3.980  1.00  0.00    -0.352 N 
ATOM     34  C   UNL     1      -5.901   1.275   3.369  1.00  0.00     0.251 C 
ATOM     35  H   UNL     1      -3.988   1.061   4.011  1.00  0.00     0.163 HD
ATOM     36  O   UNL     1      -6.159   0.095   3.229  1.00  0.00    -0.269 OA
BRANCH  34  37
ATOM     37  C   UNL     1      -6.815   2.309   2.853  1.00  0.00     0.039 A 
ATOM     38  C   UNL     1      -8.204   2.278   3.010  1.00  0.00     0.014 A 
ATOM     39  C   UNL     1      -6.190   3.396   2.266  1.00  0.00     0.014 A 
ATOM     40  C   UNL     1      -8.936   3.401   2.622  1.00  0.00     0.010 A 
ATOM     41  C   UNL     1      -6.856   4.577   2.200  1.00  0.00     0.010 A 
ATOM     42  C   UNL     1      -8.239   4.551   2.223  1.00  0.00    -0.014 A 
BRANCH  42  43
ATOM     43  C   UNL     1      -8.877   5.805   1.861  1.00  0.00     0.031 A 
ATOM     44  C   UNL     1      -9.669   6.424   2.951  1.00  0.00     0.074 A 
ATOM     45  C   UNL     1      -8.509   6.466   0.737  1.00  0.00     0.049 A 
ATOM     46  N   UNL     1     -10.945   6.612   2.987  1.00  0.00    -0.248 NA
ATOM     47  C   UNL     1      -8.987   6.736   4.219  1.00  0.00     0.031 C 
ATOM     48  C   UNL     1      -7.473   6.111  -0.247  1.00  0.00     0.029 A 
ATOM     49  N   UNL     1      -8.922   7.680   0.289  1.00  0.00    -0.354 N 
ATOM     50  C   UNL     1     -11.204   7.256   4.194  1.00  0.00     0.074 A 
ATOM     51  C   UNL     1     -10.012   7.114   4.985  1.00  0.00     0.031 C 
ATOM     52  C   UNL     1      -7.185   7.179  -1.023  1.00  0.00     0.029 A 
ATOM     53  C   UNL     1      -8.132   8.231  -0.718  1.00  0.00     0.049 A 
ATOM     54  H   UNL     1      -9.717   8.136   0.648  1.00  0.00     0.167 HD
ATOM     55  C   UNL     1     -12.286   8.074   4.326  1.00  0.00     0.037 A 
ATOM     56  C   UNL     1      -8.251   9.482  -1.231  1.00  0.00     0.037 A 
ATOM     57  C   UNL     1     -13.219   7.855   3.247  1.00  0.00     0.049 A 
ATOM     58  C   UNL     1      -9.614   9.959  -0.878  1.00  0.00     0.074 A 
ATOM     59  C   UNL     1     -13.956   6.771   2.810  1.00  0.00     0.029 A 
ATOM     60  N   UNL     1     -13.186   8.733   2.189  1.00  0.00    -0.354 N 
ATOM     61  N   UNL     1     -10.707   9.420  -1.349  1.00  0.00    -0.248 NA
ATOM     62  C   UNL     1      -9.760  10.677   0.380  1.00  0.00     0.031 C 
ATOM     63  C   UNL     1     -13.888   6.833   1.386  1.00  0.00     0.029 A 
ATOM     64  C   UNL     1     -13.197   7.994   1.035  1.00  0.00     0.049 A 
ATOM     65  H   UNL     1     -13.160   9.715   2.251  1.00  0.00     0.167 HD
ATOM     66  C   UNL     1     -11.570   9.364  -0.264  1.00  0.00     0.074 A 
ATOM     67  C   UNL     1     -10.951  10.205   0.761  1.00  0.00     0.031 C 
ATOM     68  C   UNL     1     -12.540   8.406  -0.184  1.00  0.00     0.037 A 
BRANCH  55  69
ATOM     69  C   UNL     1     -12.333   9.329   5.170  1.00  0.00     0.064 A 
ATOM     70  C   UNL     1     -13.544  10.050   5.237  1.00  0.00     0.173 A 
ATOM     71  C   UNL     1     -11.197  10.016   5.648  1.00  0.00     0.173 A 
ATOM     72  F   UNL     1     -14.694   9.497   4.819  1.00  0.00    -0.203 F 
ATOM     73  C   UNL     1     -13.590  11.387   5.637  1.00  0.00     0.198 A 
ATOM     74  C   UNL     1     -11.256  11.335   6.096  1.00  0.00     0.198 A 
ATOM     75  F   UNL     1      -9.967   9.494   5.605  1.00  0.00    -0.203 F 
ATOM     76  F   UNL     1     -14.740  12.069   5.545  1.00  0.00    -0.200 F 
ATOM     77  C   UNL     1     -12.443  12.033   6.054  1.00  0.00     0.200 A 
ATOM     78  F   UNL     1     -10.129  11.946   6.488  1.00  0.00    -0.200 F 
ATOM     79  F   UNL     1     -12.468  13.334   6.368  1.00  0.00    -0.200 F 
ENDBRANCH  55  69
BRANCH  56  80
ATOM     80  C   UNL     1      -7.173  10.400  -1.676  1.00  0.00     0.064 A 
ATOM     81  C   UNL     1      -7.451  11.524  -2.472  1.00  0.00     0.173 A 
ATOM     82  C   UNL     1      -5.891  10.353  -1.092  1.00  0.00     0.173 A 
ATOM     83  F   UNL     1      -8.663  11.671  -3.027  1.00  0.00    -0.203 F 
ATOM     84  C   UNL     1      -6.512  12.548  -2.655  1.00  0.00     0.198 A 
ATOM     85  C   UNL     1      -4.955  11.373  -1.275  1.00  0.00     0.198 A 
ATOM     86  F   UNL     1      -5.557   9.360  -0.255  1.00  0.00    -0.203 F 
ATOM     87  F   UNL     1      -6.834  13.631  -3.375  1.00  0.00    -0.200 F 
ATOM     88  C   UNL     1      -5.270  12.477  -2.046  1.00  0.00     0.200 A 
ATOM     89  F   UNL     1      -3.772  11.311  -0.649  1.00  0.00    -0.200 F 
ATOM     90  F   UNL     1      -4.395  13.485  -2.168  1.00  0.00    -0.200 F 
ENDBRANCH  56  80
BRANCH  68  91
ATOM     91  C   UNL     1     -12.800   7.554  -1.397  1.00  0.00     0.064 A 
ATOM     92  C   UNL     1     -11.884   6.623  -1.918  1.00  0.00     0.173 A 
ATOM     93  C   UNL     1     -14.096   7.545  -1.925  1.00  0.00     0.173 A 
ATOM     94  F   UNL     1     -10.654   6.505  -1.409  1.00  0.00    -0.203 F 
ATOM     95  C   UNL     1     -12.248   5.739  -2.934  1.00  0.00     0.198 A 
ATOM     96  C   UNL     1     -14.467   6.639  -2.915  1.00  0.00     0.198 A 
ATOM     97  F   UNL     1     -15.027   8.375  -1.429  1.00  0.00    -0.203 F 
ATOM     98  F   UNL     1     -11.357   4.854  -3.407  1.00  0.00    -0.200 F 
ATOM     99  C   UNL     1     -13.543   5.740  -3.422  1.00  0.00     0.200 A 
ATOM    100  F   UNL     1     -15.735   6.612  -3.348  1.00  0.00    -0.200 F 
ATOM    101  F   UNL     1     -13.910   4.855  -4.360  1.00  0.00    -0.200 F 
ENDBRANCH  68  91
ENDBRANCH  42  43
ENDBRANCH  34  37
ENDBRANCH  32  33
ENDBRANCH  31  32
ENDBRANCH   1  31
TORSDOF 14
