REMARK SMILES CCc1ccnc(C(=O)c2[nH]c3ccc(OC(F)(F)F)cc3c2CC(=O)NCCCCNC(=O)c2ccc(-c3c4nc(c(-c5c(F)c(F)c(F)c(F)c5F)c5ccc([nH]5)c(-c5c(F)c(F)c(F)c(F)c5F)c5nc(c(-c6c(F)c(F)c(F)c(F)c6F)c6ccc3[nH]6)C=C5)C=C4)cc2)c1
REMARK SMILES IDX 28 1 27 2 25 3 26 4 24 6 23 7 10 8 11 9 12 10 22 12 13 13
REMARK SMILES IDX 21 14 14 15 15 16 8 17 9 18 7 19 3 20 4 21 98 22 5 23 6 24
REMARK SMILES IDX 2 25 1 26 16 27 17 28 18 29 19 30 20 31 29 32 30 33 31 34
REMARK SMILES IDX 32 35 33 36 34 38 35 39 36 40 97 41 37 42 96 43 38 44 39 45
REMARK SMILES IDX 40 46 90 47 41 48 95 49 89 50 91 51 42 52 94 53 88 54 87 55
REMARK SMILES IDX 43 57 75 58 55 59 74 60 56 61 59 62 73 63 92 64 57 65 58 66
REMARK SMILES IDX 72 68 93 69 60 70 44 71 45 72 53 73 46 74 47 75 51 76 54 77
REMARK SMILES IDX 48 78 49 79 52 80 50 81 76 82 77 83 85 84 78 85 79 86 83 87
REMARK SMILES IDX 86 88 80 89 81 90 84 91 82 92 61 93 62 94 70 95 63 96 64 97
REMARK SMILES IDX 68 98 71 99 65 100 66 101 69 102 67 103
REMARK H PARENT 27 5 11 11 32 37 91 56 59 67
REMARK Flexibility Score: inf
ROOT
ATOM      1  C   UNL     1       6.116  -2.579   6.554  1.00  0.00     0.116 C 
ENDROOT
BRANCH   1   2
ATOM      2  N   UNL     1       6.083  -3.765   5.726  1.00  0.00    -0.356 N 
ATOM      3  C   UNL     1       6.068  -3.868   4.364  1.00  0.00     0.224 C 
ATOM      4  O   UNL     1       6.244  -4.986   3.872  1.00  0.00    -0.275 OA
ATOM      5  H   UNL     1       6.070  -4.620   6.214  1.00  0.00     0.163 HD
BRANCH   3   6
ATOM      6  C   UNL     1       5.976  -2.633   3.480  1.00  0.00     0.138 C 
BRANCH   6   7
ATOM      7  C   UNL     1       4.740  -1.795   3.657  1.00  0.00    -0.002 A 
ATOM      8  C   UNL     1       3.418  -2.176   3.440  1.00  0.00     0.093 A 
ATOM      9  N   UNL     1       2.621  -1.108   3.787  1.00  0.00    -0.352 N 
ATOM     10  C   UNL     1       3.382  -0.022   4.136  1.00  0.00     0.046 A 
ATOM     11  H   UNL     1       1.636  -1.123   3.785  1.00  0.00     0.167 HD
ATOM     12  C   UNL     1       4.715  -0.409   4.040  1.00  0.00     0.008 A 
ATOM     13  C   UNL     1       2.992   1.258   4.541  1.00  0.00     0.030 A 
ATOM     14  C   UNL     1       5.707   0.547   4.347  1.00  0.00     0.057 A 
ATOM     15  C   UNL     1       3.999   2.180   4.856  1.00  0.00     0.049 A 
ATOM     16  C   UNL     1       5.346   1.837   4.762  1.00  0.00     0.130 A 
BRANCH   8  17
ATOM     17  C   UNL     1       2.883  -3.463   3.018  1.00  0.00     0.227 C 
ATOM     18  O   UNL     1       3.131  -4.489   3.639  1.00  0.00    -0.285 OA
BRANCH  17  19
ATOM     19  C   UNL     1       1.972  -3.500   1.814  1.00  0.00     0.113 A 
ATOM     20  C   UNL     1       0.991  -2.491  -0.147  1.00  0.00    -0.044 A 
ATOM     21  C   UNL     1       0.250  -3.666  -0.310  1.00  0.00     0.024 A 
ATOM     22  C   UNL     1       1.898  -2.432   0.917  1.00  0.00     0.036 A 
ATOM     23  C   UNL     1       0.405  -4.692   0.609  1.00  0.00     0.112 A 
ATOM     24  N   UNL     1       1.228  -4.626   1.673  1.00  0.00    -0.253 NA
BRANCH  20  25
ATOM     25  C   UNL     1       0.834  -1.369  -1.146  1.00  0.00     0.032 C 
ATOM     26  C   UNL     1       0.987   0.035  -0.569  1.00  0.00     0.009 C 
ENDBRANCH  20  25
ENDBRANCH  17  19
ENDBRANCH   8  17
BRANCH  16  27
ATOM     27  O   UNL     1       6.411   2.647   5.045  1.00  0.00    -0.406 OA
BRANCH  27  28
ATOM     28  C   UNL     1       6.143   3.947   5.541  1.00  0.00     0.573 C 
ATOM     29  F   UNL     1       5.459   4.681   4.638  1.00  0.00    -0.132 F 
ATOM     30  F   UNL     1       5.449   3.893   6.698  1.00  0.00    -0.132 F 
ATOM     31  F   UNL     1       7.318   4.568   5.784  1.00  0.00    -0.132 F 
ENDBRANCH  27  28
ENDBRANCH  16  27
ENDBRANCH   6   7
ENDBRANCH   3   6
ENDBRANCH   1   2
BRANCH   1  32
ATOM     32  C   UNL     1       4.750  -2.211   7.130  1.00  0.00     0.023 C 
BRANCH  32  33
ATOM     33  C   UNL     1       4.174  -3.195   8.153  1.00  0.00     0.023 C 
BRANCH  33  34
ATOM     34  C   UNL     1       5.059  -3.501   9.357  1.00  0.00     0.116 C 
BRANCH  34  35
ATOM     35  N   UNL     1       5.489  -2.312  10.072  1.00  0.00    -0.352 N 
ATOM     36  C   UNL     1       5.742  -2.132  11.408  1.00  0.00     0.251 C 
ATOM     37  H   UNL     1       5.618  -1.512   9.512  1.00  0.00     0.163 HD
ATOM     38  O   UNL     1       6.023  -1.012  11.825  1.00  0.00    -0.269 OA
BRANCH  36  39
ATOM     39  C   UNL     1       5.647  -3.260  12.362  1.00  0.00     0.039 A 
ATOM     40  C   UNL     1       5.030  -3.025  13.597  1.00  0.00     0.014 A 
ATOM     41  C   UNL     1       6.189  -4.518  12.084  1.00  0.00     0.014 A 
ATOM     42  C   UNL     1       4.907  -4.058  14.527  1.00  0.00     0.010 A 
ATOM     43  C   UNL     1       6.037  -5.561  12.999  1.00  0.00     0.010 A 
ATOM     44  C   UNL     1       5.391  -5.338  14.224  1.00  0.00    -0.014 A 
BRANCH  44  45
ATOM     45  C   UNL     1       5.222  -6.456  15.180  1.00  0.00     0.031 A 
ATOM     46  C   UNL     1       6.390  -6.960  15.973  1.00  0.00     0.074 A 
ATOM     47  C   UNL     1       4.020  -7.048  15.298  1.00  0.00     0.049 A 
ATOM     48  N   UNL     1       6.450  -7.973  16.800  1.00  0.00    -0.248 NA
ATOM     49  C   UNL     1       7.663  -6.243  15.800  1.00  0.00     0.031 C 
ATOM     50  C   UNL     1       2.815  -6.670  14.558  1.00  0.00     0.029 A 
ATOM     51  N   UNL     1       3.618  -8.101  16.079  1.00  0.00    -0.354 N 
ATOM     52  C   UNL     1       7.770  -8.036  17.222  1.00  0.00     0.074 A 
ATOM     53  C   UNL     1       8.478  -6.957  16.564  1.00  0.00     0.031 C 
ATOM     54  C   UNL     1       1.806  -7.476  14.926  1.00  0.00     0.029 A 
ATOM     55  C   UNL     1       2.297  -8.432  15.915  1.00  0.00     0.049 A 
ATOM     56  H   UNL     1       4.220  -8.574  16.698  1.00  0.00     0.167 HD
ATOM     57  C   UNL     1       8.338  -8.916  18.078  1.00  0.00     0.037 A 
ATOM     58  C   UNL     1       1.567  -9.400  16.496  1.00  0.00     0.037 A 
ATOM     59  C   UNL     1       7.635  -9.965  18.766  1.00  0.00     0.049 A 
ATOM     60  C   UNL     1       2.205 -10.315  17.498  1.00  0.00     0.074 A 
ATOM     61  C   UNL     1       8.124 -10.880  19.682  1.00  0.00     0.029 A 
ATOM     62  N   UNL     1       6.283 -10.230  18.618  1.00  0.00    -0.354 N 
ATOM     63  N   UNL     1       3.450 -10.355  17.901  1.00  0.00    -0.248 NA
ATOM     64  C   UNL     1       1.334 -11.319  18.127  1.00  0.00     0.031 C 
ATOM     65  C   UNL     1       7.066 -11.703  20.087  1.00  0.00     0.029 A 
ATOM     66  C   UNL     1       5.919 -11.293  19.428  1.00  0.00     0.049 A 
ATOM     67  H   UNL     1       5.672  -9.736  18.025  1.00  0.00     0.167 HD
ATOM     68  C   UNL     1       3.515 -11.381  18.831  1.00  0.00     0.074 A 
ATOM     69  C   UNL     1       2.181 -11.936  18.940  1.00  0.00     0.031 C 
ATOM     70  C   UNL     1       4.587 -11.825  19.528  1.00  0.00     0.037 A 
BRANCH  57  71
ATOM     71  C   UNL     1       9.809  -8.784  18.311  1.00  0.00     0.064 A 
ATOM     72  C   UNL     1      10.318  -7.869  19.241  1.00  0.00     0.173 A 
ATOM     73  C   UNL     1      10.712  -9.598  17.612  1.00  0.00     0.173 A 
ATOM     74  F   UNL     1       9.488  -7.063  19.919  1.00  0.00    -0.203 F 
ATOM     75  C   UNL     1      11.689  -7.766  19.458  1.00  0.00     0.198 A 
ATOM     76  C   UNL     1      12.082  -9.498  17.839  1.00  0.00     0.198 A 
ATOM     77  F   UNL     1      10.266 -10.483  16.709  1.00  0.00    -0.203 F 
ATOM     78  F   UNL     1      12.162  -6.871  20.337  1.00  0.00    -0.200 F 
ATOM     79  C   UNL     1      12.569  -8.582  18.760  1.00  0.00     0.200 A 
ATOM     80  F   UNL     1      12.931 -10.283  17.162  1.00  0.00    -0.200 F 
ATOM     81  F   UNL     1      13.889  -8.479  18.969  1.00  0.00    -0.200 F 
ENDBRANCH  57  71
BRANCH  58  82
ATOM     82  C   UNL     1       0.134  -9.535  16.151  1.00  0.00     0.064 A 
ATOM     83  C   UNL     1      -0.852  -8.961  16.963  1.00  0.00     0.173 A 
ATOM     84  C   UNL     1      -0.271 -10.218  14.998  1.00  0.00     0.173 A 
ATOM     85  F   UNL     1      -0.503  -8.313  18.084  1.00  0.00    -0.203 F 
ATOM     86  C   UNL     1      -2.200  -9.068  16.632  1.00  0.00     0.198 A 
ATOM     87  C   UNL     1      -1.619 -10.317  14.664  1.00  0.00     0.198 A 
ATOM     88  F   UNL     1       0.644 -10.783  14.197  1.00  0.00    -0.203 F 
ATOM     89  F   UNL     1      -3.129  -8.523  17.430  1.00  0.00    -0.200 F 
ATOM     90  C   UNL     1      -2.582  -9.743  15.482  1.00  0.00     0.200 A 
ATOM     91  F   UNL     1      -1.986 -10.969  13.553  1.00  0.00    -0.200 F 
ATOM     92  F   UNL     1      -3.880  -9.844  15.163  1.00  0.00    -0.200 F 
ENDBRANCH  58  82
BRANCH  70  93
ATOM     93  C   UNL     1       4.357 -12.958  20.474  1.00  0.00     0.064 A 
ATOM     94  C   UNL     1       4.389 -14.287  20.030  1.00  0.00     0.173 A 
ATOM     95  C   UNL     1       4.135 -12.716  21.837  1.00  0.00     0.173 A 
ATOM     96  F   UNL     1       4.585 -14.559  18.732  1.00  0.00    -0.203 F 
ATOM     97  C   UNL     1       4.199 -15.339  20.921  1.00  0.00     0.198 A 
ATOM     98  C   UNL     1       3.951 -13.771  22.725  1.00  0.00     0.198 A 
ATOM     99  F   UNL     1       4.090 -11.458  22.300  1.00  0.00    -0.203 F 
ATOM    100  F   UNL     1       4.215 -16.603  20.476  1.00  0.00    -0.200 F 
ATOM    101  C   UNL     1       3.983 -15.080  22.267  1.00  0.00     0.200 A 
ATOM    102  F   UNL     1       3.737 -13.521  24.025  1.00  0.00    -0.200 F 
ATOM    103  F   UNL     1       3.796 -16.094  23.123  1.00  0.00    -0.200 F 
ENDBRANCH  70  93
ENDBRANCH  44  45
ENDBRANCH  36  39
ENDBRANCH  34  35
ENDBRANCH  33  34
ENDBRANCH  32  33
ENDBRANCH   1  32
TORSDOF 17
