REMARK SMILES CC1=C(C(=O)NCCCCNC(=O)c2ccc(-c3c4nc(c(-c5c(F)c(F)c(F)c(F)c5F)c5ccc([nH]5)c(-c5c(F)c(F)c(F)c(F)c5F)c5nc(c(-c6c(F)c(F)c(F)c(F)c6F)c6ccc3[nH]6)C=C5)C=C4)cc2)N2C(=O)[C@H](NC(=O)c3c(Cl)c(C(F)(F)F)nn3C)[C@@H]2SC1
REMARK SMILES IDX 8 1 7 2 6 3 4 4 5 5 3 7 1 8 2 9 97 10 77 11 96 12 78 13
REMARK SMILES IDX 95 14 79 15 80 16 81 17 82 18 83 20 84 21 85 22 93 23 86 24
REMARK SMILES IDX 87 25 92 26 94 27 88 28 89 29 90 30 91 31 9 32 10 33 11 34
REMARK SMILES IDX 12 35 13 37 14 38 15 39 76 40 16 41 75 42 17 43 18 44 19 45
REMARK SMILES IDX 69 46 20 47 74 48 68 49 70 50 21 51 73 52 67 53 66 54 22 56
REMARK SMILES IDX 54 57 34 58 53 59 35 60 38 61 52 62 71 63 36 64 37 65 51 67
REMARK SMILES IDX 72 68 39 69 23 70 24 71 32 72 25 73 26 74 30 75 33 76 27 77
REMARK SMILES IDX 28 78 31 79 29 80 55 81 56 82 64 83 57 84 58 85 62 86 65 87
REMARK SMILES IDX 59 88 60 89 63 90 61 91 40 92 41 93 49 94 42 95 43 96 47 97
REMARK SMILES IDX 50 98 44 99 45 100 48 101 46 102
REMARK H PARENT 6 6 81 19 11 36 70 55 38 66
REMARK Flexibility Score: inf
ROOT
ATOM      1  C   UNL     1      -1.235  -2.247   0.803  1.00  0.00     0.023 C 
ENDROOT
BRANCH   1   2
ATOM      2  C   UNL     1      -0.290  -1.274   0.104  1.00  0.00     0.116 C 
BRANCH   2   3
ATOM      3  N   UNL     1       0.030  -1.579  -1.281  1.00  0.00    -0.351 N 
ATOM      4  C   UNL     1       0.547  -0.767  -2.268  1.00  0.00     0.268 C 
ATOM      5  O   UNL     1       0.979  -1.298  -3.286  1.00  0.00    -0.268 OA
ATOM      6  H   UNL     1      -0.151  -2.506  -1.556  1.00  0.00     0.163 HD
BRANCH   4   7
ATOM      7  C   UNL     1       0.501   0.736  -2.100  1.00  0.00     0.110 C 
ATOM      8  C   UNL     1       2.117   0.698  -0.151  1.00  0.00     0.043 C 
ATOM      9  C   UNL     1       1.105   1.357  -1.056  1.00  0.00    -0.034 C 
ATOM     10  C   UNL     1       0.924   2.823  -0.747  1.00  0.00     0.104 C 
ATOM     11  N   UNL     1      -0.070   1.483  -3.100  1.00  0.00    -0.290 N 
ATOM     12  S   UNL     1       0.914   3.836  -2.232  1.00  0.00    -0.129 SA
ATOM     13  C   UNL     1      -0.180   1.369  -4.447  1.00  0.00     0.253 C 
ATOM     14  C   UNL     1      -0.417   2.885  -3.020  1.00  0.00     0.181 C 
ATOM     15  O   UNL     1      -0.013   0.471  -5.240  1.00  0.00    -0.272 OA
ATOM     16  C   UNL     1      -0.428   2.911  -4.586  1.00  0.00     0.206 C 
BRANCH  16  17
ATOM     17  N   UNL     1       0.673   3.688  -5.223  1.00  0.00    -0.336 N 
ATOM     18  C   UNL     1       0.643   4.824  -5.992  1.00  0.00     0.271 C 
ATOM     19  H   UNL     1       1.574   3.324  -5.066  1.00  0.00     0.164 HD
ATOM     20  O   UNL     1       1.715   5.317  -6.332  1.00  0.00    -0.267 OA
BRANCH  18  21
ATOM     21  C   UNL     1      -0.619   5.374  -6.394  1.00  0.00     0.145 A 
ATOM     22  C   UNL     1      -1.044   5.654  -7.680  1.00  0.00     0.104 A 
ATOM     23  N   UNL     1      -1.603   5.884  -5.590  1.00  0.00    -0.261 N 
ATOM     24  Cl  UNL     1      -0.206   5.387  -9.134  1.00  0.00    -0.079 Cl
ATOM     25  C   UNL     1      -2.344   6.202  -7.560  1.00  0.00     0.185 A 
ATOM     26  N   UNL     1      -2.698   6.291  -6.261  1.00  0.00    -0.166 NA
ATOM     27  C   UNL     1      -1.575   6.084  -4.160  1.00  0.00     0.174 C 
BRANCH  25  28
ATOM     28  C   UNL     1      -3.229   6.647  -8.688  1.00  0.00     0.436 C 
ATOM     29  F   UNL     1      -2.738   7.753  -9.310  1.00  0.00    -0.164 F 
ATOM     30  F   UNL     1      -3.358   5.688  -9.644  1.00  0.00    -0.164 F 
ATOM     31  F   UNL     1      -4.492   6.958  -8.289  1.00  0.00    -0.164 F 
ENDBRANCH  25  28
ENDBRANCH  18  21
ENDBRANCH  16  17
ENDBRANCH   4   7
ENDBRANCH   2   3
ENDBRANCH   1   2
BRANCH   1  32
ATOM     32  C   UNL     1      -0.845  -3.727   0.784  1.00  0.00     0.023 C 
BRANCH  32  33
ATOM     33  C   UNL     1       0.614  -4.068   1.080  1.00  0.00     0.116 C 
BRANCH  33  34
ATOM     34  N   UNL     1       1.049  -3.715   2.423  1.00  0.00    -0.352 N 
ATOM     35  C   UNL     1       1.484  -4.505   3.463  1.00  0.00     0.251 C 
ATOM     36  H   UNL     1       1.028  -2.750   2.621  1.00  0.00     0.163 HD
ATOM     37  O   UNL     1       1.742  -3.990   4.548  1.00  0.00    -0.269 OA
BRANCH  35  38
ATOM     38  C   UNL     1       1.600  -5.973   3.308  1.00  0.00     0.039 A 
ATOM     39  C   UNL     1       1.087  -6.796   4.317  1.00  0.00     0.014 A 
ATOM     40  C   UNL     1       2.201  -6.547   2.187  1.00  0.00     0.014 A 
ATOM     41  C   UNL     1       1.079  -8.185   4.150  1.00  0.00     0.010 A 
ATOM     42  C   UNL     1       2.121  -7.923   1.984  1.00  0.00     0.010 A 
ATOM     43  C   UNL     1       1.544  -8.757   2.956  1.00  0.00    -0.014 A 
BRANCH  43  44
ATOM     44  C   UNL     1       1.419 -10.215   2.685  1.00  0.00     0.031 A 
ATOM     45  C   UNL     1       2.647 -11.053   2.465  1.00  0.00     0.074 A 
ATOM     46  C   UNL     1       0.197 -10.765   2.538  1.00  0.00     0.049 A 
ATOM     47  N   UNL     1       2.743 -12.300   2.075  1.00  0.00    -0.248 NA
ATOM     48  C   UNL     1       3.942 -10.391   2.683  1.00  0.00     0.031 C 
ATOM     49  C   UNL     1      -1.075 -10.056   2.681  1.00  0.00     0.029 A 
ATOM     50  N   UNL     1      -0.174 -12.047   2.211  1.00  0.00    -0.354 N 
ATOM     51  C   UNL     1       4.103 -12.561   1.974  1.00  0.00     0.074 A 
ATOM     52  C   UNL     1       4.794 -11.333   2.304  1.00  0.00     0.031 C 
ATOM     53  C   UNL     1      -2.085 -10.912   2.458  1.00  0.00     0.029 A 
ATOM     54  C   UNL     1      -1.534 -12.219   2.113  1.00  0.00     0.049 A 
ATOM     55  H   UNL     1       0.472 -12.774   2.062  1.00  0.00     0.167 HD
ATOM     56  C   UNL     1       4.720 -13.723   1.652  1.00  0.00     0.037 A 
ATOM     57  C   UNL     1      -2.256 -13.303   1.769  1.00  0.00     0.037 A 
ATOM     58  C   UNL     1       4.033 -14.954   1.360  1.00  0.00     0.049 A 
ATOM     59  C   UNL     1      -1.547 -14.585   1.425  1.00  0.00     0.074 A 
ATOM     60  C   UNL     1       4.573 -16.199   1.083  1.00  0.00     0.029 A 
ATOM     61  N   UNL     1       2.655 -15.097   1.310  1.00  0.00    -0.354 N 
ATOM     62  N   UNL     1      -0.261 -14.833   1.385  1.00  0.00    -0.248 NA
ATOM     63  C   UNL     1      -2.391 -15.738   1.083  1.00  0.00     0.031 C 
ATOM     64  C   UNL     1       3.521 -17.086   0.832  1.00  0.00     0.029 A 
ATOM     65  C   UNL     1       2.326 -16.405   0.995  1.00  0.00     0.049 A 
ATOM     66  H   UNL     1       2.006 -14.375   1.474  1.00  0.00     0.167 HD
ATOM     67  C   UNL     1      -0.142 -16.173   1.044  1.00  0.00     0.074 A 
ATOM     68  C   UNL     1      -1.486 -16.689   0.898  1.00  0.00     0.031 C 
ATOM     69  C   UNL     1       0.983 -16.909   0.870  1.00  0.00     0.037 A 
BRANCH  56  70
ATOM     70  C   UNL     1       6.220 -13.720   1.602  1.00  0.00     0.064 A 
ATOM     71  C   UNL     1       6.994 -13.621   2.768  1.00  0.00     0.173 A 
ATOM     72  C   UNL     1       6.892 -13.854   0.378  1.00  0.00     0.173 A 
ATOM     73  F   UNL     1       6.399 -13.480   3.962  1.00  0.00    -0.203 F 
ATOM     74  C   UNL     1       8.385 -13.624   2.707  1.00  0.00     0.198 A 
ATOM     75  C   UNL     1       8.283 -13.886   0.324  1.00  0.00     0.198 A 
ATOM     76  F   UNL     1       6.200 -13.960  -0.767  1.00  0.00    -0.203 F 
ATOM     77  F   UNL     1       9.102 -13.477   3.830  1.00  0.00    -0.200 F 
ATOM     78  C   UNL     1       9.028 -13.764   1.487  1.00  0.00     0.200 A 
ATOM     79  F   UNL     1       8.904 -14.034  -0.855  1.00  0.00    -0.200 F 
ATOM     80  F   UNL     1      10.367 -13.772   1.431  1.00  0.00    -0.200 F 
ENDBRANCH  56  70
BRANCH  57  81
ATOM     81  C   UNL     1      -3.740 -13.231   1.752  1.00  0.00     0.064 A 
ATOM     82  C   UNL     1      -4.501 -13.902   2.720  1.00  0.00     0.173 A 
ATOM     83  C   UNL     1      -4.428 -12.500   0.773  1.00  0.00     0.173 A 
ATOM     84  F   UNL     1      -3.888 -14.632   3.664  1.00  0.00    -0.203 F 
ATOM     85  C   UNL     1      -5.893 -13.860   2.699  1.00  0.00     0.198 A 
ATOM     86  C   UNL     1      -5.820 -12.437   0.768  1.00  0.00     0.198 A 
ATOM     87  F   UNL     1      -3.747 -11.837  -0.172  1.00  0.00    -0.203 F 
ATOM     88  F   UNL     1      -6.596 -14.546   3.611  1.00  0.00    -0.200 F 
ATOM     89  C   UNL     1      -6.552 -13.123   1.726  1.00  0.00     0.200 A 
ATOM     90  F   UNL     1      -6.453 -11.713  -0.165  1.00  0.00    -0.200 F 
ATOM     91  F   UNL     1      -7.891 -13.080   1.708  1.00  0.00    -0.200 F 
ENDBRANCH  57  81
BRANCH  69  92
ATOM     92  C   UNL     1       0.811 -18.364   0.548  1.00  0.00     0.064 A 
ATOM     93  C   UNL     1       0.385 -18.794  -0.716  1.00  0.00     0.173 A 
ATOM     94  C   UNL     1       1.122 -19.342   1.506  1.00  0.00     0.173 A 
ATOM     95  F   UNL     1       0.060 -17.898  -1.660  1.00  0.00    -0.203 F 
ATOM     96  C   UNL     1       0.258 -20.151  -1.004  1.00  0.00     0.198 A 
ATOM     97  C   UNL     1       1.019 -20.697   1.206  1.00  0.00     0.198 A 
ATOM     98  F   UNL     1       1.538 -18.981   2.729  1.00  0.00    -0.203 F 
ATOM     99  F   UNL     1      -0.190 -20.539  -2.206  1.00  0.00    -0.200 F 
ATOM    100  C   UNL     1       0.582 -21.100  -0.046  1.00  0.00     0.200 A 
ATOM    101  F   UNL     1       1.343 -21.613   2.130  1.00  0.00    -0.200 F 
ATOM    102  F   UNL     1       0.466 -22.405  -0.328  1.00  0.00    -0.200 F 
ENDBRANCH  69  92
ENDBRANCH  43  44
ENDBRANCH  35  38
ENDBRANCH  33  34
ENDBRANCH  32  33
ENDBRANCH   1  32
TORSDOF 14
