REMARK SMILES NC(=O)c1ccccc1NC(=O)[C@@H]1CC=CC[C@@H]1C(=O)NCCCCNC(=O)c1ccc(-c2c3nc(c(-c4c(F)c(F)c(F)c(F)c4F)c4ccc([nH]4)c(-c4c(F)c(F)c(F)c(F)c4F)c4nc(c(-c5c(F)c(F)c(F)c(F)c5F)c5ccc2[nH]5)C=C4)C=C3)cc1
REMARK SMILES IDX 23 1 22 2 21 3 19 4 20 5 18 7 13 8 14 9 15 10 17 11 16 12
REMARK SMILES IDX 11 13 10 14 12 16 9 17 4 18 5 19 6 20 8 21 7 22 2 23 1 24
REMARK SMILES IDX 3 27 24 28 25 29 26 30 27 31 28 33 29 34 30 35 91 36 31 37
REMARK SMILES IDX 90 38 32 39 33 40 34 41 84 42 35 43 89 44 83 45 85 46 36 47
REMARK SMILES IDX 88 48 82 49 81 50 37 52 69 53 49 54 68 55 50 56 53 57 67 58
REMARK SMILES IDX 86 59 51 60 52 61 66 63 87 64 54 65 38 66 39 67 47 68 40 69
REMARK SMILES IDX 41 70 45 71 48 72 42 73 43 74 46 75 44 76 70 77 71 78 79 79
REMARK SMILES IDX 72 80 73 81 77 82 80 83 74 84 75 85 78 86 76 87 55 88 56 89
REMARK SMILES IDX 64 90 57 91 58 92 62 93 65 94 59 95 60 96 63 97 61 98
REMARK H PARENT 21 6 10 15 1 25 1 26 26 32 85 51 53 62
REMARK Flexibility Score: inf
ROOT
ATOM      1  C   UNL     1       5.689   3.575  -4.311  1.00  0.00     0.023 C 
ENDROOT
BRANCH   1   2
ATOM      2  C   UNL     1       4.509   3.401  -5.254  1.00  0.00     0.116 C 
BRANCH   2   3
ATOM      3  N   UNL     1       4.867   2.447  -6.271  1.00  0.00    -0.356 N 
ATOM      4  C   UNL     1       4.686   1.103  -6.310  1.00  0.00     0.224 C 
ATOM      5  O   UNL     1       5.280   0.524  -7.223  1.00  0.00    -0.275 OA
ATOM      6  H   UNL     1       5.312   2.829  -7.061  1.00  0.00     0.163 HD
BRANCH   4   7
ATOM      7  C   UNL     1       3.751   0.378  -5.312  1.00  0.00     0.095 C 
ATOM      8  C   UNL     1       4.404  -0.094  -3.964  1.00  0.00     0.095 C 
ATOM      9  C   UNL     1       5.625  -0.955  -4.278  1.00  0.00     0.041 C 
ATOM     10  C   UNL     1       5.343  -1.994  -5.335  1.00  0.00    -0.030 C 
ATOM     11  C   UNL     1       3.215  -0.886  -6.036  1.00  0.00     0.041 C 
ATOM     12  C   UNL     1       4.230  -1.999  -6.085  1.00  0.00    -0.030 C 
BRANCH   8  13
ATOM     13  C   UNL     1       4.337   0.996  -2.877  1.00  0.00     0.228 C 
ATOM     14  N   UNL     1       5.310   1.466  -2.054  1.00  0.00    -0.325 N 
ATOM     15  H   UNL     1       5.016   2.262  -1.554  1.00  0.00     0.169 HD
ATOM     16  O   UNL     1       3.255   1.595  -2.740  1.00  0.00    -0.274 OA
BRANCH  14  17
ATOM     17  C   UNL     1       6.629   1.106  -1.737  1.00  0.00     0.053 A 
ATOM     18  C   UNL     1       7.606   2.091  -1.472  1.00  0.00     0.063 A 
ATOM     19  C   UNL     1       8.961   1.730  -1.399  1.00  0.00     0.016 A 
ATOM     20  C   UNL     1       9.337   0.392  -1.467  1.00  0.00     0.001 A 
ATOM     21  C   UNL     1       7.009  -0.228  -1.639  1.00  0.00     0.027 A 
ATOM     22  C   UNL     1       8.355  -0.589  -1.538  1.00  0.00     0.002 A 
BRANCH  18  23
ATOM     23  C   UNL     1       7.323   3.541  -1.307  1.00  0.00     0.250 C 
ATOM     24  N   UNL     1       6.214   3.895  -0.589  1.00  0.00    -0.366 N 
ATOM     25  H   UNL     1       5.995   4.846  -0.459  1.00  0.00     0.159 HD
ATOM     26  H   UNL     1       5.635   3.199  -0.202  1.00  0.00     0.159 HD
ATOM     27  O   UNL     1       8.087   4.396  -1.738  1.00  0.00    -0.269 OA
ENDBRANCH  18  23
ENDBRANCH  14  17
ENDBRANCH   8  13
ENDBRANCH   4   7
ENDBRANCH   2   3
ENDBRANCH   1   2
BRANCH   1  28
ATOM     28  C   UNL     1       6.744   4.565  -4.784  1.00  0.00     0.023 C 
BRANCH  28  29
ATOM     29  C   UNL     1       6.293   6.014  -4.756  1.00  0.00     0.116 C 
BRANCH  29  30
ATOM     30  N   UNL     1       5.777   6.464  -3.468  1.00  0.00    -0.352 N 
ATOM     31  C   UNL     1       5.937   7.684  -2.852  1.00  0.00     0.251 C 
ATOM     32  H   UNL     1       5.240   5.804  -2.972  1.00  0.00     0.163 HD
ATOM     33  O   UNL     1       5.523   7.870  -1.719  1.00  0.00    -0.269 OA
BRANCH  31  34
ATOM     34  C   UNL     1       6.663   8.750  -3.578  1.00  0.00     0.039 A 
ATOM     35  C   UNL     1       7.680   9.446  -2.924  1.00  0.00     0.014 A 
ATOM     36  C   UNL     1       6.401   8.985  -4.929  1.00  0.00     0.014 A 
ATOM     37  C   UNL     1       8.503  10.306  -3.655  1.00  0.00     0.010 A 
ATOM     38  C   UNL     1       7.287   9.751  -5.674  1.00  0.00     0.010 A 
ATOM     39  C   UNL     1       8.349  10.418  -5.047  1.00  0.00    -0.014 A 
BRANCH  39  40
ATOM     40  C   UNL     1       9.286  11.217  -5.879  1.00  0.00     0.031 A 
ATOM     41  C   UNL     1       8.759  12.351  -6.717  1.00  0.00     0.074 A 
ATOM     42  C   UNL     1      10.582  10.854  -5.967  1.00  0.00     0.049 A 
ATOM     43  N   UNL     1       9.381  13.080  -7.608  1.00  0.00    -0.248 NA
ATOM     44  C   UNL     1       7.332  12.679  -6.568  1.00  0.00     0.031 C 
ATOM     45  C   UNL     1      11.198   9.722  -5.271  1.00  0.00     0.029 A 
ATOM     46  N   UNL     1      11.613  11.390  -6.699  1.00  0.00    -0.354 N 
ATOM     47  C   UNL     1       8.414  13.916  -8.151  1.00  0.00     0.074 A 
ATOM     48  C   UNL     1       7.156  13.577  -7.525  1.00  0.00     0.031 C 
ATOM     49  C   UNL     1      12.500   9.660  -5.593  1.00  0.00     0.029 A 
ATOM     50  C   UNL     1      12.805  10.723  -6.546  1.00  0.00     0.049 A 
ATOM     51  H   UNL     1      11.508  12.178  -7.280  1.00  0.00     0.167 HD
ATOM     52  C   UNL     1       8.568  14.897  -9.070  1.00  0.00     0.037 A 
ATOM     53  C   UNL     1      14.005  10.940  -7.117  1.00  0.00     0.037 A 
ATOM     54  C   UNL     1       9.834  15.284  -9.632  1.00  0.00     0.049 A 
ATOM     55  C   UNL     1      14.159  12.085  -8.083  1.00  0.00     0.074 A 
ATOM     56  C   UNL     1      10.111  16.340 -10.481  1.00  0.00     0.029 A 
ATOM     57  N   UNL     1      11.034  14.633  -9.392  1.00  0.00    -0.354 N 
ATOM     58  N   UNL     1      13.256  12.932  -8.514  1.00  0.00    -0.248 NA
ATOM     59  C   UNL     1      15.503  12.311  -8.636  1.00  0.00     0.031 C 
ATOM     60  C   UNL     1      11.476  16.308 -10.784  1.00  0.00     0.029 A 
ATOM     61  C   UNL     1      12.053  15.257 -10.090  1.00  0.00     0.049 A 
ATOM     62  H   UNL     1      11.145  13.846  -8.811  1.00  0.00     0.167 HD
ATOM     63  C   UNL     1      13.925  13.805  -9.360  1.00  0.00     0.074 A 
ATOM     64  C   UNL     1      15.313  13.397  -9.371  1.00  0.00     0.031 C 
ATOM     65  C   UNL     1      13.433  14.850 -10.068  1.00  0.00     0.037 A 
BRANCH  52  66
ATOM     66  C   UNL     1       7.346  15.643  -9.514  1.00  0.00     0.064 A 
ATOM     67  C   UNL     1       6.691  16.552  -8.670  1.00  0.00     0.173 A 
ATOM     68  C   UNL     1       6.864  15.498 -10.824  1.00  0.00     0.173 A 
ATOM     69  F   UNL     1       7.105  16.718  -7.405  1.00  0.00    -0.203 F 
ATOM     70  C   UNL     1       5.588  17.275  -9.115  1.00  0.00     0.198 A 
ATOM     71  C   UNL     1       5.778  16.244 -11.274  1.00  0.00     0.198 A 
ATOM     72  F   UNL     1       7.457  14.645 -11.672  1.00  0.00    -0.203 F 
ATOM     73  F   UNL     1       4.955  18.111  -8.280  1.00  0.00    -0.200 F 
ATOM     74  C   UNL     1       5.139  17.128 -10.419  1.00  0.00     0.200 A 
ATOM     75  F   UNL     1       5.353  16.110 -12.539  1.00  0.00    -0.200 F 
ATOM     76  F   UNL     1       4.087  17.838 -10.851  1.00  0.00    -0.200 F 
ENDBRANCH  52  66
BRANCH  53  77
ATOM     77  C   UNL     1      15.166  10.075  -6.782  1.00  0.00     0.064 A 
ATOM     78  C   UNL     1      16.251  10.578  -6.048  1.00  0.00     0.173 A 
ATOM     79  C   UNL     1      15.236   8.743  -7.216  1.00  0.00     0.173 A 
ATOM     80  F   UNL     1      16.241  11.852  -5.630  1.00  0.00    -0.203 F 
ATOM     81  C   UNL     1      17.374   9.794  -5.793  1.00  0.00     0.198 A 
ATOM     82  C   UNL     1      16.347   7.951  -6.934  1.00  0.00     0.198 A 
ATOM     83  F   UNL     1      14.223   8.211  -7.916  1.00  0.00    -0.203 F 
ATOM     84  F   UNL     1      18.422  10.321  -5.144  1.00  0.00    -0.200 F 
ATOM     85  C   UNL     1      17.420   8.480  -6.233  1.00  0.00     0.200 A 
ATOM     86  F   UNL     1      16.384   6.678  -7.351  1.00  0.00    -0.200 F 
ATOM     87  F   UNL     1      18.504   7.730  -5.995  1.00  0.00    -0.200 F 
ENDBRANCH  53  77
BRANCH  65  88
ATOM     88  C   UNL     1      14.407  15.653 -10.878  1.00  0.00     0.064 A 
ATOM     89  C   UNL     1      14.964  15.154 -12.064  1.00  0.00     0.173 A 
ATOM     90  C   UNL     1      14.746  16.957 -10.487  1.00  0.00     0.173 A 
ATOM     91  F   UNL     1      14.680  13.907 -12.470  1.00  0.00    -0.203 F 
ATOM     92  C   UNL     1      15.844  15.924 -12.818  1.00  0.00     0.198 A 
ATOM     93  C   UNL     1      15.603  17.735 -11.259  1.00  0.00     0.198 A 
ATOM     94  F   UNL     1      14.232  17.482  -9.364  1.00  0.00    -0.203 F 
ATOM     95  F   UNL     1      16.398  15.413 -13.926  1.00  0.00    -0.200 F 
ATOM     96  C   UNL     1      16.156  17.216 -12.420  1.00  0.00     0.200 A 
ATOM     97  F   UNL     1      15.893  18.987 -10.880  1.00  0.00    -0.200 F 
ATOM     98  F   UNL     1      16.996  17.959 -13.153  1.00  0.00    -0.200 F 
ENDBRANCH  65  88
ENDBRANCH  39  40
ENDBRANCH  31  34
ENDBRANCH  29  30
ENDBRANCH  28  29
ENDBRANCH   1  28
TORSDOF 14
