REMARK SMILES COc1cc(OC)cc(C(=O)C[C@H](C)CC(=O)NCCCCNC(=O)c2ccc(-c3c4nc(c(-c5c(F)c(F)c(F)c(F)c5F)c5ccc([nH]5)c(-c5c(F)c(F)c(F)c(F)c5F)c5nc(c(-c6c(F)c(F)c(F)c(F)c6F)c6ccc3[nH]6)C=C5)C=C4)cc2)c1
REMARK SMILES IDX 19 1 18 2 16 3 17 4 15 6 13 7 14 8 12 9 10 10 11 11 9 12
REMARK SMILES IDX 3 13 4 14 89 15 5 16 8 17 2 18 1 19 6 20 7 21 20 22 21 23
REMARK SMILES IDX 22 24 23 25 24 26 25 28 26 29 27 30 88 31 28 32 87 33 29 34
REMARK SMILES IDX 30 35 31 36 81 37 32 38 86 39 80 40 82 41 33 42 85 43 79 44
REMARK SMILES IDX 78 45 34 47 66 48 46 49 65 50 47 51 50 52 64 53 83 54 48 55
REMARK SMILES IDX 49 56 63 58 84 59 51 60 35 61 36 62 44 63 37 64 38 65 42 66
REMARK SMILES IDX 45 67 39 68 40 69 43 70 41 71 67 72 68 73 76 74 69 75 70 76
REMARK SMILES IDX 74 77 77 78 71 79 72 80 75 81 73 82 52 83 53 84 61 85 54 86
REMARK SMILES IDX 55 87 59 88 62 89 56 90 57 91 60 92 58 93
REMARK H PARENT 18 5 23 27 82 46 50 57
REMARK Flexibility Score: inf
ROOT
ATOM      1  C   UNL     1       7.446  -0.236   2.719  1.00  0.00     0.116 C 
ENDROOT
BRANCH   1   2
ATOM      2  N   UNL     1       7.579  -1.502   2.030  1.00  0.00    -0.356 N 
ATOM      3  C   UNL     1       6.658  -2.156   1.272  1.00  0.00     0.220 C 
ATOM      4  O   UNL     1       6.904  -3.303   0.894  1.00  0.00    -0.275 OA
ATOM      5  H   UNL     1       8.452  -1.948   2.122  1.00  0.00     0.163 HD
BRANCH   3   6
ATOM      6  C   UNL     1       5.355  -1.479   0.890  1.00  0.00     0.103 C 
BRANCH   6   7
ATOM      7  C   UNL     1       4.173  -1.911   1.776  1.00  0.00     0.003 C 
ATOM      8  C   UNL     1       3.985  -1.028   3.015  1.00  0.00     0.008 C 
BRANCH   7   9
ATOM      9  C   UNL     1       2.870  -1.913   0.957  1.00  0.00     0.085 C 
BRANCH   9  10
ATOM     10  C   UNL     1       1.893  -2.932   1.514  1.00  0.00     0.163 C 
ATOM     11  O   UNL     1       0.935  -2.575   2.197  1.00  0.00    -0.294 OA
BRANCH  10  12
ATOM     12  C   UNL     1       2.121  -4.388   1.250  1.00  0.00     0.025 A 
ATOM     13  C   UNL     1       3.362  -6.214   0.252  1.00  0.00     0.123 A 
ATOM     14  C   UNL     1       2.455  -7.116   0.807  1.00  0.00     0.092 A 
ATOM     15  C   UNL     1       3.183  -4.848   0.459  1.00  0.00     0.058 A 
ATOM     16  C   UNL     1       1.389  -6.672   1.593  1.00  0.00     0.123 A 
ATOM     17  C   UNL     1       1.234  -5.307   1.827  1.00  0.00     0.058 A 
BRANCH  13  18
ATOM     18  O   UNL     1       4.355  -6.765  -0.512  1.00  0.00    -0.497 OA
ATOM     19  C   UNL     1       5.568  -6.019  -0.590  1.00  0.00     0.278 C 
ENDBRANCH  13  18
BRANCH  16  20
ATOM     20  O   UNL     1       0.577  -7.660   2.078  1.00  0.00    -0.497 OA
ATOM     21  C   UNL     1      -0.645  -7.241   2.676  1.00  0.00     0.278 C 
ENDBRANCH  16  20
ENDBRANCH  10  12
ENDBRANCH   9  10
ENDBRANCH   7   9
ENDBRANCH   6   7
ENDBRANCH   3   6
ENDBRANCH   1   2
BRANCH   1  22
ATOM     22  C   UNL     1       7.082  -0.461   4.184  1.00  0.00     0.023 C 
BRANCH  22  23
ATOM     23  C   UNL     1       8.264  -0.643   5.125  1.00  0.00     0.023 C 
BRANCH  23  24
ATOM     24  C   UNL     1       9.236   0.522   5.165  1.00  0.00     0.116 C 
BRANCH  24  25
ATOM     25  N   UNL     1       8.612   1.807   5.445  1.00  0.00    -0.352 N 
ATOM     26  C   UNL     1       9.147   2.871   6.132  1.00  0.00     0.251 C 
ATOM     27  H   UNL     1       7.697   1.929   5.102  1.00  0.00     0.163 HD
ATOM     28  O   UNL     1       8.483   3.876   6.360  1.00  0.00    -0.269 OA
BRANCH  26  29
ATOM     29  C   UNL     1      10.528   2.755   6.637  1.00  0.00     0.039 A 
ATOM     30  C   UNL     1      10.770   2.974   7.994  1.00  0.00     0.014 A 
ATOM     31  C   UNL     1      11.552   2.330   5.787  1.00  0.00     0.014 A 
ATOM     32  C   UNL     1      12.031   2.689   8.518  1.00  0.00     0.010 A 
ATOM     33  C   UNL     1      12.778   1.964   6.326  1.00  0.00     0.010 A 
ATOM     34  C   UNL     1      13.030   2.141   7.696  1.00  0.00    -0.014 A 
BRANCH  34  35
ATOM     35  C   UNL     1      14.352   1.751   8.242  1.00  0.00     0.031 A 
ATOM     36  C   UNL     1      15.592   2.440   7.747  1.00  0.00     0.074 A 
ATOM     37  C   UNL     1      14.441   0.722   9.107  1.00  0.00     0.049 A 
ATOM     38  N   UNL     1      16.846   2.183   8.019  1.00  0.00    -0.248 NA
ATOM     39  C   UNL     1      15.401   3.539   6.786  1.00  0.00     0.031 C 
ATOM     40  C   UNL     1      13.315  -0.074   9.599  1.00  0.00     0.029 A 
ATOM     41  N   UNL     1      15.535   0.155   9.711  1.00  0.00    -0.354 N 
ATOM     42  C   UNL     1      17.587   3.060   7.239  1.00  0.00     0.074 A 
ATOM     43  C   UNL     1      16.649   3.828   6.450  1.00  0.00     0.031 C 
ATOM     44  C   UNL     1      13.774  -1.016  10.440  1.00  0.00     0.029 A 
ATOM     45  C   UNL     1      15.228  -0.910  10.523  1.00  0.00     0.049 A 
ATOM     46  H   UNL     1      16.454   0.480   9.575  1.00  0.00     0.167 HD
ATOM     47  C   UNL     1      18.929   3.226   7.204  1.00  0.00     0.037 A 
ATOM     48  C   UNL     1      16.031  -1.711  11.248  1.00  0.00     0.037 A 
ATOM     49  C   UNL     1      19.851   2.508   8.041  1.00  0.00     0.049 A 
ATOM     50  C   UNL     1      17.515  -1.457  11.241  1.00  0.00     0.074 A 
ATOM     51  C   UNL     1      21.218   2.681   8.163  1.00  0.00     0.029 A 
ATOM     52  N   UNL     1      19.496   1.485   8.906  1.00  0.00    -0.354 N 
ATOM     53  N   UNL     1      18.197  -0.558  10.572  1.00  0.00    -0.248 NA
ATOM     54  C   UNL     1      18.341  -2.320  12.097  1.00  0.00     0.031 C 
ATOM     55  C   UNL     1      21.697   1.737   9.077  1.00  0.00     0.029 A 
ATOM     56  C   UNL     1      20.621   1.004   9.553  1.00  0.00     0.049 A 
ATOM     57  H   UNL     1      18.580   1.150   9.041  1.00  0.00     0.167 HD
ATOM     58  C   UNL     1      19.522  -0.729  10.946  1.00  0.00     0.074 A 
ATOM     59  C   UNL     1      19.549  -1.806  11.913  1.00  0.00     0.031 C 
ATOM     60  C   UNL     1      20.621  -0.058  10.525  1.00  0.00     0.037 A 
BRANCH  47  61
ATOM     61  C   UNL     1      19.486   4.234   6.244  1.00  0.00     0.064 A 
ATOM     62  C   UNL     1      19.337   5.612   6.456  1.00  0.00     0.173 A 
ATOM     63  C   UNL     1      20.228   3.816   5.130  1.00  0.00     0.173 A 
ATOM     64  F   UNL     1      18.623   6.062   7.499  1.00  0.00    -0.203 F 
ATOM     65  C   UNL     1      19.895   6.535   5.576  1.00  0.00     0.198 A 
ATOM     66  C   UNL     1      20.808   4.742   4.267  1.00  0.00     0.198 A 
ATOM     67  F   UNL     1      20.401   2.508   4.884  1.00  0.00    -0.203 F 
ATOM     68  F   UNL     1      19.708   7.847   5.777  1.00  0.00    -0.200 F 
ATOM     69  C   UNL     1      20.637   6.100   4.489  1.00  0.00     0.200 A 
ATOM     70  F   UNL     1      21.533   4.320   3.222  1.00  0.00    -0.200 F 
ATOM     71  F   UNL     1      21.186   6.991   3.651  1.00  0.00    -0.200 F 
ENDBRANCH  47  61
BRANCH  48  72
ATOM     72  C   UNL     1      15.456  -2.814  12.060  1.00  0.00     0.064 A 
ATOM     73  C   UNL     1      15.460  -2.756  13.461  1.00  0.00     0.173 A 
ATOM     74  C   UNL     1      14.915  -3.958  11.457  1.00  0.00     0.173 A 
ATOM     75  F   UNL     1      15.985  -1.691  14.085  1.00  0.00    -0.203 F 
ATOM     76  C   UNL     1      14.974  -3.814  14.228  1.00  0.00     0.198 A 
ATOM     77  C   UNL     1      14.404  -5.003  12.224  1.00  0.00     0.198 A 
ATOM     78  F   UNL     1      14.880  -4.060  10.120  1.00  0.00    -0.203 F 
ATOM     79  F   UNL     1      15.042  -3.755  15.565  1.00  0.00    -0.200 F 
ATOM     80  C   UNL     1      14.444  -4.935  13.609  1.00  0.00     0.200 A 
ATOM     81  F   UNL     1      13.880  -6.080  11.622  1.00  0.00    -0.200 F 
ATOM     82  F   UNL     1      13.981  -5.954  14.346  1.00  0.00    -0.200 F 
ENDBRANCH  48  72
BRANCH  60  83
ATOM     83  C   UNL     1      21.936  -0.443  11.131  1.00  0.00     0.064 A 
ATOM     84  C   UNL     1      22.580  -1.639  10.784  1.00  0.00     0.173 A 
ATOM     85  C   UNL     1      22.581   0.417  12.032  1.00  0.00     0.173 A 
ATOM     86  F   UNL     1      21.995  -2.500   9.938  1.00  0.00    -0.203 F 
ATOM     87  C   UNL     1      23.814  -1.971  11.335  1.00  0.00     0.198 A 
ATOM     88  C   UNL     1      23.828   0.095  12.560  1.00  0.00     0.198 A 
ATOM     89  F   UNL     1      22.008   1.577  12.388  1.00  0.00    -0.203 F 
ATOM     90  F   UNL     1      24.393  -3.138  11.023  1.00  0.00    -0.200 F 
ATOM     91  C   UNL     1      24.440  -1.100  12.216  1.00  0.00     0.200 A 
ATOM     92  F   UNL     1      24.437   0.943  13.400  1.00  0.00    -0.200 F 
ATOM     93  F   UNL     1      25.632  -1.418  12.739  1.00  0.00    -0.200 F 
ENDBRANCH  60  83
ENDBRANCH  34  35
ENDBRANCH  26  29
ENDBRANCH  24  25
ENDBRANCH  23  24
ENDBRANCH  22  23
ENDBRANCH   1  22
TORSDOF 17
