REMARK SMILES C[C@]12CC[C@H]3[C@@H](CCC4=CC(=O)C=C[C@@]43C)[C@@H]1CC[C@H]2O[C@@H]1O[C@H](C(=O)NCCCCNC(=O)c2ccc(-c3c4nc(c(-c5c(F)c(F)c(F)c(F)c5F)c5ccc([nH]5)c(-c5c(F)c(F)c(F)c(F)c5F)c5nc(c(-c6c(F)c(F)c(F)c(F)c6F)c6ccc3[nH]6)C=C5)C=C4)cc2)[C@@H](O)[C@H](O)[C@H]1O
REMARK SMILES IDX 29 1 28 2 27 3 25 4 26 5 24 7 22 8 23 9 102 10 100 11 98 12
REMARK SMILES IDX 21 13 20 14 1 15 2 16 3 17 17 18 4 19 6 20 18 21 19 22 5 23
REMARK SMILES IDX 7 24 15 25 8 26 9 27 14 28 16 29 10 30 13 31 11 32 12 33
REMARK SMILES IDX 103 34 101 36 99 38 30 40 31 41 32 42 33 43 34 45 35 46
REMARK SMILES IDX 36 47 97 48 37 49 96 50 38 51 39 52 40 53 90 54 41 55 95 56
REMARK SMILES IDX 89 57 91 58 42 59 94 60 88 61 87 62 43 64 75 65 55 66 74 67
REMARK SMILES IDX 56 68 59 69 73 70 92 71 57 72 58 73 72 75 93 76 60 77 44 78
REMARK SMILES IDX 45 79 53 80 46 81 47 82 51 83 54 84 48 85 49 86 52 87 50 88
REMARK SMILES IDX 76 89 77 90 85 91 78 92 79 93 83 94 86 95 80 96 81 97 84 98
REMARK SMILES IDX 82 99 61 100 62 101 70 102 63 103 64 104 68 105 71 106
REMARK SMILES IDX 65 107 66 108 69 109 67 110
REMARK H PARENT 27 6 103 35 101 37 99 39 32 44 91 63 59 74
REMARK Flexibility Score: inf
ROOT
ATOM      1  C   UNL     1       1.953  -5.301  -4.395  1.00  0.00     0.023 C 
ENDROOT
BRANCH   1   2
ATOM      2  C   UNL     1       2.647  -4.429  -2.607  1.00  0.00     0.116 C 
BRANCH   2   3
ATOM      3  N   UNL     1       3.966  -4.127  -1.901  1.00  0.00    -0.354 N 
ATOM      4  C   UNL     1       4.548  -3.015  -1.338  1.00  0.00     0.252 C 
ATOM      5  O   UNL     1       5.656  -3.203  -0.815  1.00  0.00    -0.272 OA
ATOM      6  H   UNL     1       4.541  -4.923  -1.832  1.00  0.00     0.163 HD
BRANCH   4   7
ATOM      7  C   UNL     1       3.934  -1.581  -1.307  1.00  0.00     0.241 C 
ATOM      8  C   UNL     1       3.174   0.341  -2.599  1.00  0.00     0.282 C 
ATOM      9  O   UNL     1       3.728  -0.984  -2.586  1.00  0.00    -0.334 OA
ATOM     10  C   UNL     1       1.967   0.545  -1.642  1.00  0.00     0.202 C 
ATOM     11  C   UNL     1       2.192  -0.116  -0.281  1.00  0.00     0.180 C 
ATOM     12  C   UNL     1       2.674  -1.557  -0.437  1.00  0.00     0.184 C 
BRANCH   8  13
ATOM     13  O   UNL     1       2.941   0.841  -3.938  1.00  0.00    -0.346 OA
BRANCH  13  14
ATOM     14  C   UNL     1       2.007   0.338  -4.913  1.00  0.00     0.127 C 
ATOM     15  C   UNL     1       1.450  -1.387  -6.724  1.00  0.00     0.014 C 
ATOM     16  C   UNL     1       2.204  -1.128  -5.372  1.00  0.00    -0.003 C 
ATOM     17  C   UNL     1       3.675  -1.554  -5.657  1.00  0.00     0.010 C 
ATOM     18  C   UNL     1       1.457  -1.780  -4.178  1.00  0.00     0.001 C 
ATOM     19  C   UNL     1       3.924  -3.081  -5.772  1.00  0.00     0.006 C 
ATOM     20  C   UNL     1       1.556  -3.258  -4.206  1.00  0.00    -0.003 C 
ATOM     21  C   UNL     1       0.113  -1.071  -4.125  1.00  0.00     0.007 C 
ATOM     22  C   UNL     1       0.504   0.381  -4.507  1.00  0.00     0.033 C 
ATOM     23  C   UNL     1       3.486  -3.707  -4.451  1.00  0.00     0.006 C 
ATOM     24  C   UNL     1       0.516  -4.321  -2.931  1.00  0.00     0.009 C 
ATOM     25  C   UNL     1       4.115  -5.524  -4.023  1.00  0.00     0.010 C 
ATOM     26  C   UNL     1       1.192  -6.123  -2.538  1.00  0.00     0.032 C 
ATOM     27  C   UNL     1       3.003  -6.586  -2.913  1.00  0.00    -0.056 C 
ATOM     28  C   UNL     1       5.529  -5.535  -3.392  1.00  0.00    -0.012 C 
ATOM     29  C   UNL     1       4.582  -6.413  -5.242  1.00  0.00     0.021 C 
ATOM     30  C   UNL     1       3.619  -7.432  -2.063  1.00  0.00     0.052 C 
ATOM     31  C   UNL     1       5.960  -6.479  -2.534  1.00  0.00     0.048 C 
ATOM     32  C   UNL     1       5.101  -7.556  -1.968  1.00  0.00     0.178 C 
ATOM     33  O   UNL     1       5.602  -8.479  -1.335  1.00  0.00    -0.290 OA
ENDBRANCH  13  14
ENDBRANCH   8  13
BRANCH  10  34
ATOM     34  O   UNL     1       1.629   1.927  -1.469  1.00  0.00    -0.385 OA
ATOM     35  H   UNL     1       2.366   2.389  -1.040  1.00  0.00     0.211 HD
ENDBRANCH  10  34
BRANCH  11  36
ATOM     36  O   UNL     1       0.986  -0.157   0.508  1.00  0.00    -0.387 OA
ATOM     37  H   UNL     1       0.322  -0.701   0.056  1.00  0.00     0.211 HD
ENDBRANCH  11  36
BRANCH  12  38
ATOM     38  O   UNL     1       2.910  -2.088   0.870  1.00  0.00    -0.387 OA
ATOM     39  H   UNL     1       3.575  -1.547   1.324  1.00  0.00     0.211 HD
ENDBRANCH  12  38
ENDBRANCH   4   7
ENDBRANCH   2   3
ENDBRANCH   1   2
BRANCH   1  40
ATOM     40  C   UNL     1       1.841  -6.342  -5.612  1.00  0.00     0.023 C 
BRANCH  40  41
ATOM     41  C   UNL     1       1.002  -7.565  -5.519  1.00  0.00     0.116 C 
BRANCH  41  42
ATOM     42  N   UNL     1      -0.426  -7.250  -5.638  1.00  0.00    -0.352 N 
ATOM     43  C   UNL     1      -1.397  -8.160  -5.983  1.00  0.00     0.251 C 
ATOM     44  H   UNL     1      -0.709  -6.324  -5.459  1.00  0.00     0.163 HD
ATOM     45  O   UNL     1      -2.545  -7.847  -6.258  1.00  0.00    -0.269 OA
BRANCH  43  46
ATOM     46  C   UNL     1      -0.926  -9.550  -6.034  1.00  0.00     0.039 A 
ATOM     47  C   UNL     1      -0.771 -10.170  -7.273  1.00  0.00     0.014 A 
ATOM     48  C   UNL     1      -0.320 -10.044  -4.875  1.00  0.00     0.014 A 
ATOM     49  C   UNL     1       0.022 -11.309  -7.348  1.00  0.00     0.010 A 
ATOM     50  C   UNL     1       0.581 -11.082  -4.986  1.00  0.00     0.010 A 
ATOM     51  C   UNL     1       0.710 -11.759  -6.208  1.00  0.00    -0.014 A 
BRANCH  51  52
ATOM     52  C   UNL     1       1.444 -13.039  -6.222  1.00  0.00     0.031 A 
ATOM     53  C   UNL     1       0.909 -14.160  -5.376  1.00  0.00     0.074 A 
ATOM     54  C   UNL     1       2.565 -13.182  -6.950  1.00  0.00     0.049 A 
ATOM     55  N   UNL     1       1.372 -15.371  -5.216  1.00  0.00    -0.248 NA
ATOM     56  C   UNL     1      -0.287 -13.867  -4.565  1.00  0.00     0.031 C 
ATOM     57  C   UNL     1       3.203 -12.134  -7.749  1.00  0.00     0.029 A 
ATOM     58  N   UNL     1       3.365 -14.278  -7.135  1.00  0.00    -0.354 N 
ATOM     59  C   UNL     1       0.538 -15.962  -4.277  1.00  0.00     0.074 A 
ATOM     60  C   UNL     1      -0.396 -14.959  -3.831  1.00  0.00     0.031 C 
ATOM     61  C   UNL     1       4.276 -12.652  -8.371  1.00  0.00     0.029 A 
ATOM     62  C   UNL     1       4.409 -14.058  -7.998  1.00  0.00     0.049 A 
ATOM     63  H   UNL     1       3.205 -15.143  -6.692  1.00  0.00     0.167 HD
ATOM     64  C   UNL     1       0.518 -17.247  -3.861  1.00  0.00     0.037 A 
ATOM     65  C   UNL     1       5.351 -14.912  -8.443  1.00  0.00     0.037 A 
ATOM     66  C   UNL     1       1.418 -18.247  -4.355  1.00  0.00     0.049 A 
ATOM     67  C   UNL     1       5.294 -16.347  -7.989  1.00  0.00     0.074 A 
ATOM     68  C   UNL     1       1.452 -19.597  -4.066  1.00  0.00     0.029 A 
ATOM     69  N   UNL     1       2.447 -17.996  -5.252  1.00  0.00    -0.354 N 
ATOM     70  N   UNL     1       4.445 -16.925  -7.172  1.00  0.00    -0.248 NA
ATOM     71  C   UNL     1       6.315 -17.253  -8.531  1.00  0.00     0.031 C 
ATOM     72  C   UNL     1       2.531 -20.157  -4.757  1.00  0.00     0.029 A 
ATOM     73  C   UNL     1       3.136 -19.165  -5.515  1.00  0.00     0.049 A 
ATOM     74  H   UNL     1       2.654 -17.116  -5.644  1.00  0.00     0.167 HD
ATOM     75  C   UNL     1       4.811 -18.263  -7.121  1.00  0.00     0.074 A 
ATOM     76  C   UNL     1       5.950 -18.414  -8.005  1.00  0.00     0.031 C 
ATOM     77  C   UNL     1       4.259 -19.278  -6.410  1.00  0.00     0.037 A 
BRANCH  64  78
ATOM     78  C   UNL     1      -0.516 -17.622  -2.842  1.00  0.00     0.064 A 
ATOM     79  C   UNL     1      -1.887 -17.631  -3.150  1.00  0.00     0.173 A 
ATOM     80  C   UNL     1      -0.135 -17.956  -1.536  1.00  0.00     0.173 A 
ATOM     81  F   UNL     1      -2.307 -17.293  -4.379  1.00  0.00    -0.203 F 
ATOM     82  C   UNL     1      -2.838 -17.922  -2.176  1.00  0.00     0.198 A 
ATOM     83  C   UNL     1      -1.088 -18.281  -0.574  1.00  0.00     0.198 A 
ATOM     84  F   UNL     1       1.160 -17.957  -1.188  1.00  0.00    -0.203 F 
ATOM     85  F   UNL     1      -4.143 -17.854  -2.475  1.00  0.00    -0.200 F 
ATOM     86  C   UNL     1      -2.438 -18.253  -0.891  1.00  0.00     0.200 A 
ATOM     87  F   UNL     1      -0.699 -18.608   0.667  1.00  0.00    -0.200 F 
ATOM     88  F   UNL     1      -3.354 -18.533   0.046  1.00  0.00    -0.200 F 
ENDBRANCH  64  78
BRANCH  65  89
ATOM     89  C   UNL     1       6.383 -14.446  -9.405  1.00  0.00     0.064 A 
ATOM     90  C   UNL     1       6.373 -14.879 -10.739  1.00  0.00     0.173 A 
ATOM     91  C   UNL     1       7.395 -13.557  -9.018  1.00  0.00     0.173 A 
ATOM     92  F   UNL     1       5.434 -15.741 -11.156  1.00  0.00    -0.203 F 
ATOM     93  C   UNL     1       7.346 -14.455 -11.643  1.00  0.00     0.198 A 
ATOM     94  C   UNL     1       8.353 -13.114  -9.928  1.00  0.00     0.198 A 
ATOM     95  F   UNL     1       7.445 -13.106  -7.756  1.00  0.00    -0.203 F 
ATOM     96  F   UNL     1       7.335 -14.915 -12.901  1.00  0.00    -0.200 F 
ATOM     97  C   UNL     1       8.332 -13.569 -11.238  1.00  0.00     0.200 A 
ATOM     98  F   UNL     1       9.295 -12.245  -9.537  1.00  0.00    -0.200 F 
ATOM     99  F   UNL     1       9.264 -13.157 -12.108  1.00  0.00    -0.200 F 
ENDBRANCH  65  89
BRANCH  77 100
ATOM    100  C   UNL     1       4.858 -20.642  -6.581  1.00  0.00     0.064 A 
ATOM    101  C   UNL     1       6.105 -20.969  -6.032  1.00  0.00     0.173 A 
ATOM    102  C   UNL     1       4.142 -21.650  -7.244  1.00  0.00     0.173 A 
ATOM    103  F   UNL     1       6.830 -20.035  -5.398  1.00  0.00    -0.203 F 
ATOM    104  C   UNL     1       6.625 -22.253  -6.160  1.00  0.00     0.198 A 
ATOM    105  C   UNL     1       4.651 -22.940  -7.342  1.00  0.00     0.198 A 
ATOM    106  F   UNL     1       2.938 -21.387  -7.776  1.00  0.00    -0.203 F 
ATOM    107  F   UNL     1       7.838 -22.535  -5.664  1.00  0.00    -0.200 F 
ATOM    108  C   UNL     1       5.894 -23.239  -6.806  1.00  0.00     0.200 A 
ATOM    109  F   UNL     1       3.936 -23.896  -7.952  1.00  0.00    -0.200 F 
ATOM    110  F   UNL     1       6.391 -24.479  -6.916  1.00  0.00    -0.200 F 
ENDBRANCH  77 100
ENDBRANCH  51  52
ENDBRANCH  43  46
ENDBRANCH  41  42
ENDBRANCH  40  41
ENDBRANCH   1  40
TORSDOF 16
