REMARK SMILES O=C(NCCCCNC(=O)[C@@H](CCCCl)[P@TB4](=O)(c1ccccc1)c1ccccc1)c1ccc(-c2c3nc(c(-c4c(F)c(F)c(F)c(F)c4F)c4ccc([nH]4)c(-c4c(F)c(F)c(F)c(F)c4F)c4nc(c(-c5c(F)c(F)c(F)c(F)c5F)c5ccc2[nH]5)C=C4)C=C3)cc1
REMARK SMILES IDX 6 1 5 2 4 3 3 4 1 5 2 6 30 8 31 9 92 10 32 11 91 12 33 13
REMARK SMILES IDX 34 14 35 15 85 16 36 17 90 18 84 19 86 20 37 21 89 22 83 23
REMARK SMILES IDX 82 24 38 26 70 27 50 28 69 29 51 30 54 31 68 32 87 33 52 34
REMARK SMILES IDX 53 35 67 37 88 38 55 39 39 40 40 41 48 42 41 43 42 44 46 45
REMARK SMILES IDX 49 46 43 47 44 48 47 49 45 50 71 51 72 52 80 53 73 54 74 55
REMARK SMILES IDX 78 56 81 57 75 58 76 59 79 60 77 61 56 62 57 63 65 64 58 65
REMARK SMILES IDX 59 66 63 67 66 68 60 69 61 70 64 71 62 72 7 73 8 74 9 75
REMARK SMILES IDX 10 77 11 78 12 79 13 80 14 81 15 82 16 83 17 84 18 85 19 86
REMARK SMILES IDX 23 87 20 88 22 89 21 90 24 91 25 92 29 93 26 94 28 95 27 96
REMARK H PARENT 3 7 86 25 54 36 8 76
REMARK Flexibility Score: inf
ROOT
ATOM      1  C   UNL     1       5.524   1.125  -2.981  1.00  0.00       nan C 
ENDROOT
BRANCH   1   2
ATOM      2  C   UNL     1       5.691   0.007  -1.971  1.00  0.00       nan C 
BRANCH   2   3
ATOM      3  C   UNL     1       4.915   0.189  -0.683  1.00  0.00       nan C 
BRANCH   3   4
ATOM      4  N   UNL     1       3.463   0.265  -0.810  1.00  0.00       nan N 
ATOM      5  O   UNL     1       1.326  -0.097  -0.112  1.00  0.00       nan OA
ATOM      6  C   UNL     1       2.519  -0.212   0.090  1.00  0.00       nan C 
ATOM      7  H   UNL     1       3.115   0.702  -1.621  1.00  0.00       nan HD
BRANCH   6   8
ATOM      8  C   UNL     1       3.024  -0.929   1.284  1.00  0.00       nan A 
ATOM      9  C   UNL     1       4.044  -0.351   2.032  1.00  0.00       nan A 
ATOM     10  C   UNL     1       2.638  -2.253   1.507  1.00  0.00       nan A 
ATOM     11  C   UNL     1       4.860  -1.175   2.788  1.00  0.00       inf A 
ATOM     12  C   UNL     1       3.370  -3.040   2.405  1.00  0.00       inf A 
ATOM     13  C   UNL     1       4.532  -2.528   3.001  1.00  0.00    -0.014 A 
BRANCH  13  14
ATOM     14  C   UNL     1       5.429  -3.337   3.873  1.00  0.00     0.031 A 
ATOM     15  C   UNL     1       6.126  -4.579   3.379  1.00  0.00     0.074 A 
ATOM     16  C   UNL     1       5.695  -2.864   5.107  1.00  0.00     0.049 A 
ATOM     17  N   UNL     1       6.983  -5.345   4.012  1.00  0.00    -0.248 NA
ATOM     18  C   UNL     1       5.823  -5.034   2.014  1.00  0.00     0.031 C 
ATOM     19  C   UNL     1       5.066  -1.680   5.701  1.00  0.00     0.029 A 
ATOM     20  N   UNL     1       6.597  -3.267   6.057  1.00  0.00    -0.354 N 
ATOM     21  C   UNL     1       7.288  -6.386   3.143  1.00  0.00     0.074 A 
ATOM     22  C   UNL     1       6.521  -6.161   1.937  1.00  0.00     0.031 C 
ATOM     23  C   UNL     1       5.676  -1.388   6.855  1.00  0.00     0.029 A 
ATOM     24  C   UNL     1       6.661  -2.423   7.139  1.00  0.00     0.049 A 
ATOM     25  H   UNL     1       7.144  -4.081   5.972  1.00  0.00     0.167 HD
ATOM     26  C   UNL     1       8.132  -7.429   3.339  1.00  0.00     0.037 A 
ATOM     27  C   UNL     1       7.411  -2.480   8.253  1.00  0.00     0.037 A 
ATOM     28  C   UNL     1       8.918  -7.627   4.532  1.00  0.00     0.049 A 
ATOM     29  C   UNL     1       8.360  -3.626   8.423  1.00  0.00     0.074 A 
ATOM     30  C   UNL     1       9.798  -8.656   4.829  1.00  0.00     0.029 A 
ATOM     31  N   UNL     1       8.930  -6.769   5.623  1.00  0.00    -0.354 N 
ATOM     32  N   UNL     1       8.610  -4.617   7.603  1.00  0.00    -0.248 NA
ATOM     33  C   UNL     1       9.117  -3.673   9.679  1.00  0.00     0.031 C 
ATOM     34  C   UNL     1      10.318  -8.435   6.109  1.00  0.00     0.029 A 
ATOM     35  C   UNL     1       9.797  -7.248   6.594  1.00  0.00     0.049 A 
ATOM     36  H   UNL     1       8.401  -5.942   5.696  1.00  0.00     0.167 HD
ATOM     37  C   UNL     1       9.539  -5.416   8.248  1.00  0.00     0.074 A 
ATOM     38  C   UNL     1       9.846  -4.766   9.507  1.00  0.00     0.031 C 
ATOM     39  C   UNL     1      10.073  -6.595   7.847  1.00  0.00     0.037 A 
BRANCH  26  40
ATOM     40  C   UNL     1       8.246  -8.459   2.249  1.00  0.00     0.064 A 
ATOM     41  C   UNL     1       8.937  -8.199   1.057  1.00  0.00     0.173 A 
ATOM     42  C   UNL     1       7.723  -9.749   2.434  1.00  0.00     0.173 A 
ATOM     43  F   UNL     1       9.447  -6.981   0.825  1.00  0.00    -0.203 F 
ATOM     44  C   UNL     1       9.089  -9.188   0.086  1.00  0.00     0.198 A 
ATOM     45  C   UNL     1       7.898 -10.742   1.473  1.00  0.00     0.198 A 
ATOM     46  F   UNL     1       7.060 -10.054   3.560  1.00  0.00    -0.203 F 
ATOM     47  F   UNL     1       9.729  -8.908  -1.058  1.00  0.00    -0.200 F 
ATOM     48  C   UNL     1       8.578 -10.459   0.298  1.00  0.00     0.200 A 
ATOM     49  F   UNL     1       7.415 -11.973   1.686  1.00  0.00    -0.200 F 
ATOM     50  F   UNL     1       8.739 -11.412  -0.631  1.00  0.00    -0.200 F 
ENDBRANCH  26  40
BRANCH  27  51
ATOM     51  C   UNL     1       7.257  -1.433   9.294  1.00  0.00     0.064 A 
ATOM     52  C   UNL     1       8.286  -0.522   9.568  1.00  0.00     0.173 A 
ATOM     53  C   UNL     1       6.058  -1.299  10.012  1.00  0.00     0.173 A 
ATOM     54  F   UNL     1       9.456  -0.619   8.920  1.00  0.00    -0.203 F 
ATOM     55  C   UNL     1       8.123   0.478  10.524  1.00  0.00     0.198 A 
ATOM     56  C   UNL     1       5.883  -0.277  10.940  1.00  0.00     0.198 A 
ATOM     57  F   UNL     1       5.040  -2.140   9.780  1.00  0.00    -0.203 F 
ATOM     58  F   UNL     1       9.134   1.315  10.793  1.00  0.00    -0.200 F 
ATOM     59  C   UNL     1       6.919   0.607  11.201  1.00  0.00     0.200 A 
ATOM     60  F   UNL     1       4.709  -0.142  11.570  1.00  0.00    -0.200 F 
ATOM     61  F   UNL     1       6.756   1.581  12.106  1.00  0.00    -0.200 F 
ENDBRANCH  27  51
BRANCH  39  62
ATOM     62  C   UNL     1      11.037  -7.246   8.792  1.00  0.00     0.064 A 
ATOM     63  C   UNL     1      10.596  -7.850   9.979  1.00  0.00     0.173 A 
ATOM     64  C   UNL     1      12.411  -7.256   8.516  1.00  0.00     0.173 A 
ATOM     65  F   UNL     1       9.291  -7.846  10.293  1.00  0.00    -0.203 F 
ATOM     66  C   UNL     1      11.502  -8.408  10.875  1.00  0.00     0.198 A 
ATOM     67  C   UNL     1      13.312  -7.839   9.403  1.00  0.00     0.198 A 
ATOM     68  F   UNL     1      12.880  -6.694   7.393  1.00  0.00    -0.203 F 
ATOM     69  F   UNL     1      11.065  -8.926  12.031  1.00  0.00    -0.200 F 
ATOM     70  C   UNL     1      12.858  -8.405  10.585  1.00  0.00     0.200 A 
ATOM     71  F   UNL     1      14.622  -7.842   9.120  1.00  0.00    -0.200 F 
ATOM     72  F   UNL     1      13.730  -8.935  11.454  1.00  0.00    -0.200 F 
ENDBRANCH  39  62
ENDBRANCH  13  14
ENDBRANCH   6   8
ENDBRANCH   3   4
ENDBRANCH   2   3
ENDBRANCH   1   2
BRANCH   1  73
ATOM     73  C   UNL     1       5.951   2.526  -2.523  1.00  0.00       nan C 
BRANCH  73  74
ATOM     74  N   UNL     1       7.227   2.946  -3.073  1.00  0.00       nan N 
ATOM     75  C   UNL     1       7.549   3.688  -4.178  1.00  0.00       nan C 
ATOM     76  H   UNL     1       8.006   2.640  -2.555  1.00  0.00       nan HD
ATOM     77  O   UNL     1       8.750   3.835  -4.419  1.00  0.00       nan OA
BRANCH  75  78
ATOM     78  C   UNL     1       6.475   4.184  -5.159  1.00  0.00       nan C 
BRANCH  78  79
ATOM     79  C   UNL     1       5.898   2.871  -5.795  1.00  0.00       nan C 
BRANCH  79  80
ATOM     80  C   UNL     1       4.420   2.394  -5.862  1.00  0.00       nan C 
BRANCH  80  81
ATOM     81  C   UNL     1       3.308   2.963  -4.990  1.00  0.00       nan C 
ATOM     82  Cl  UNL     1       1.763   2.149  -5.362  1.00  0.00       nan Cl
ENDBRANCH  80  81
ENDBRANCH  79  80
ENDBRANCH  78  79
BRANCH  78  83
ATOM     83  P   UNL     1       5.423   5.408  -4.297  1.00  0.00       nan P 
ATOM     84  O   UNL     1       6.667   6.318  -4.189  1.00  0.00       nan OA
BRANCH  83  85
ATOM     85  C   UNL     1       4.392   5.967  -6.060  1.00  0.00       nan A 
ATOM     86  C   UNL     1       3.412   6.991  -6.030  1.00  0.00       nan A 
ATOM     87  C   UNL     1       4.426   5.198  -7.231  1.00  0.00       nan A 
ATOM     88  C   UNL     1       2.418   7.108  -7.008  1.00  0.00       nan A 
ATOM     89  C   UNL     1       3.396   5.278  -8.186  1.00  0.00       nan A 
ATOM     90  C   UNL     1       2.373   6.209  -8.057  1.00  0.00       nan A 
ENDBRANCH  83  85
BRANCH  83  91
ATOM     91  C   UNL     1       4.371   6.632  -3.434  1.00  0.00       nan A 
ATOM     92  C   UNL     1       4.730   7.991  -3.289  1.00  0.00       nan A 
ATOM     93  C   UNL     1       3.276   6.158  -2.690  1.00  0.00       nan A 
ATOM     94  C   UNL     1       3.976   8.859  -2.498  1.00  0.00       nan A 
ATOM     95  C   UNL     1       2.537   7.025  -1.878  1.00  0.00       nan A 
ATOM     96  C   UNL     1       2.881   8.374  -1.791  1.00  0.00       nan A 
ENDBRANCH  83  91
ENDBRANCH  78  83
ENDBRANCH  75  78
ENDBRANCH  73  74
ENDBRANCH   1  73
TORSDOF 17
