REMARK SMILES O=C(NCCCCNC(=O)c1cc(F)c(F)cc1NS(=O)(=O)c1ccc2c(c1)CCC2)c1ccc(-c2c3nc(c(-c4c(F)c(F)c(F)c(F)c4F)c4ccc([nH]4)c(-c4c(F)c(F)c(F)c(F)c4F)c4nc(c(-c5c(F)c(F)c(F)c(F)c5F)c5ccc2[nH]5)C=C4)C=C3)cc1
REMARK SMILES IDX 6 1 5 2 4 3 3 4 1 5 2 6 32 8 33 9 94 10 34 11 93 12 35 13
REMARK SMILES IDX 36 14 37 15 87 16 38 17 92 18 86 19 88 20 39 21 91 22 85 23
REMARK SMILES IDX 84 24 40 26 72 27 52 28 71 29 53 30 56 31 70 32 89 33 54 34
REMARK SMILES IDX 55 35 69 37 90 38 57 39 41 40 42 41 50 42 43 43 44 44 48 45
REMARK SMILES IDX 51 46 45 47 46 48 49 49 47 50 73 51 74 52 82 53 75 54 76 55
REMARK SMILES IDX 80 56 83 57 77 58 78 59 81 60 79 61 58 62 59 63 67 64 60 65
REMARK SMILES IDX 61 66 65 67 68 68 62 69 63 70 66 71 64 72 7 73 8 74 9 75
REMARK SMILES IDX 10 77 11 78 12 79 18 80 13 81 17 82 14 83 15 84 16 85 19 86
REMARK SMILES IDX 20 88 21 89 22 90 23 91 24 92 28 93 25 94 27 95 26 96 29 97
REMARK SMILES IDX 31 98 30 99
REMARK H PARENT 3 7 88 25 56 36 8 76 19 87
REMARK Flexibility Score: inf
ROOT
ATOM      1  C   UNL     1       4.487   0.799   3.712  1.00  0.00     0.023 C 
ENDROOT
BRANCH   1   2
ATOM      2  C   UNL     1       4.948   1.066   2.282  1.00  0.00     0.023 C 
BRANCH   2   3
ATOM      3  C   UNL     1       4.582  -0.016   1.275  1.00  0.00     0.116 C 
BRANCH   3   4
ATOM      4  N   UNL     1       3.145  -0.183   1.113  1.00  0.00    -0.352 N 
ATOM      5  O   UNL     1       1.161  -0.144   0.037  1.00  0.00    -0.269 OA
ATOM      6  C   UNL     1       2.385  -0.108  -0.030  1.00  0.00     0.251 C 
ATOM      7  H   UNL     1       2.647  -0.378   1.939  1.00  0.00     0.163 HD
BRANCH   6   8
ATOM      8  C   UNL     1       3.048   0.046  -1.343  1.00  0.00     0.039 A 
ATOM      9  C   UNL     1       4.161  -0.731  -1.671  1.00  0.00     0.014 A 
ATOM     10  C   UNL     1       2.554   0.986  -2.252  1.00  0.00     0.014 A 
ATOM     11  C   UNL     1       4.871  -0.460  -2.834  1.00  0.00     0.010 A 
ATOM     12  C   UNL     1       3.215   1.190  -3.467  1.00  0.00     0.010 A 
ATOM     13  C   UNL     1       4.396   0.489  -3.755  1.00  0.00    -0.014 A 
BRANCH  13  14
ATOM     14  C   UNL     1       5.111   0.672  -5.043  1.00  0.00     0.031 A 
ATOM     15  C   UNL     1       5.775   1.975  -5.391  1.00  0.00     0.074 A 
ATOM     16  C   UNL     1       5.187  -0.375  -5.888  1.00  0.00     0.049 A 
ATOM     17  N   UNL     1       6.439   2.296  -6.474  1.00  0.00    -0.248 NA
ATOM     18  C   UNL     1       5.685   3.060  -4.401  1.00  0.00     0.031 C 
ATOM     19  C   UNL     1       4.589  -1.690  -5.649  1.00  0.00     0.029 A 
ATOM     20  N   UNL     1       5.812  -0.512  -7.101  1.00  0.00    -0.354 N 
ATOM     21  C   UNL     1       6.839   3.614  -6.300  1.00  0.00     0.074 A 
ATOM     22  C   UNL     1       6.317   4.048  -5.021  1.00  0.00     0.031 C 
ATOM     23  C   UNL     1       4.924  -2.516  -6.650  1.00  0.00     0.029 A 
ATOM     24  C   UNL     1       5.694  -1.771  -7.638  1.00  0.00     0.049 A 
ATOM     25  H   UNL     1       6.299   0.220  -7.543  1.00  0.00     0.167 HD
ATOM     26  C   UNL     1       7.587   4.381  -7.128  1.00  0.00     0.037 A 
ATOM     27  C   UNL     1       6.138  -2.268  -8.807  1.00  0.00     0.037 A 
ATOM     28  C   UNL     1       8.110   3.937  -8.396  1.00  0.00     0.049 A 
ATOM     29  C   UNL     1       6.905  -1.370  -9.734  1.00  0.00     0.074 A 
ATOM     30  C   UNL     1       8.881   4.641  -9.304  1.00  0.00     0.029 A 
ATOM     31  N   UNL     1       7.917   2.672  -8.934  1.00  0.00    -0.354 N 
ATOM     32  N   UNL     1       7.282  -0.128  -9.555  1.00  0.00    -0.248 NA
ATOM     33  C   UNL     1       7.301  -1.938 -11.029  1.00  0.00     0.031 C 
ATOM     34  C   UNL     1       9.113   3.822 -10.412  1.00  0.00     0.029 A 
ATOM     35  C   UNL     1       8.537   2.586 -10.171  1.00  0.00     0.049 A 
ATOM     36  H   UNL     1       7.414   1.944  -8.502  1.00  0.00     0.167 HD
ATOM     37  C   UNL     1       7.976   0.229 -10.702  1.00  0.00     0.074 A 
ATOM     38  C   UNL     1       7.986  -0.936 -11.563  1.00  0.00     0.031 C 
ATOM     39  C   UNL     1       8.549   1.416 -11.013  1.00  0.00     0.037 A 
BRANCH  26  40
ATOM     40  C   UNL     1       7.902   5.788  -6.704  1.00  0.00     0.064 A 
ATOM     41  C   UNL     1       7.359   6.881  -7.399  1.00  0.00     0.173 A 
ATOM     42  C   UNL     1       8.825   6.054  -5.683  1.00  0.00     0.173 A 
ATOM     43  F   UNL     1       6.478   6.682  -8.391  1.00  0.00    -0.203 F 
ATOM     44  C   UNL     1       7.747   8.185  -7.101  1.00  0.00     0.198 A 
ATOM     45  C   UNL     1       9.190   7.361  -5.369  1.00  0.00     0.198 A 
ATOM     46  F   UNL     1       9.366   5.046  -4.982  1.00  0.00    -0.203 F 
ATOM     47  F   UNL     1       7.248   9.209  -7.807  1.00  0.00    -0.200 F 
ATOM     48  C   UNL     1       8.661   8.424  -6.087  1.00  0.00     0.200 A 
ATOM     49  F   UNL     1      10.059   7.593  -4.375  1.00  0.00    -0.200 F 
ATOM     50  F   UNL     1       9.034   9.679  -5.801  1.00  0.00    -0.200 F 
ENDBRANCH  26  40
BRANCH  27  51
ATOM     51  C   UNL     1       5.871  -3.688  -9.153  1.00  0.00     0.064 A 
ATOM     52  C   UNL     1       4.568  -4.153  -9.389  1.00  0.00     0.173 A 
ATOM     53  C   UNL     1       6.918  -4.617  -9.230  1.00  0.00     0.173 A 
ATOM     54  F   UNL     1       3.530  -3.306  -9.323  1.00  0.00    -0.203 F 
ATOM     55  C   UNL     1       4.321  -5.496  -9.662  1.00  0.00     0.198 A 
ATOM     56  C   UNL     1       6.672  -5.954  -9.536  1.00  0.00     0.198 A 
ATOM     57  F   UNL     1       8.183  -4.218  -9.031  1.00  0.00    -0.203 F 
ATOM     58  F   UNL     1       3.062  -5.920  -9.839  1.00  0.00    -0.200 F 
ATOM     59  C   UNL     1       5.373  -6.394  -9.742  1.00  0.00     0.200 A 
ATOM     60  F   UNL     1       7.695  -6.813  -9.639  1.00  0.00    -0.200 F 
ATOM     61  F   UNL     1       5.137  -7.683 -10.022  1.00  0.00    -0.200 F 
ENDBRANCH  27  51
BRANCH  39  62
ATOM     62  C   UNL     1       9.261   1.518 -12.330  1.00  0.00     0.064 A 
ATOM     63  C   UNL     1      10.658   1.649 -12.373  1.00  0.00     0.173 A 
ATOM     64  C   UNL     1       8.559   1.555 -13.543  1.00  0.00     0.173 A 
ATOM     65  F   UNL     1      11.375   1.627 -11.240  1.00  0.00    -0.203 F 
ATOM     66  C   UNL     1      11.323   1.832 -13.582  1.00  0.00     0.198 A 
ATOM     67  C   UNL     1       9.231   1.706 -14.753  1.00  0.00     0.198 A 
ATOM     68  F   UNL     1       7.225   1.418 -13.556  1.00  0.00    -0.203 F 
ATOM     69  F   UNL     1      12.653   1.994 -13.595  1.00  0.00    -0.200 F 
ATOM     70  C   UNL     1      10.610   1.856 -14.771  1.00  0.00     0.200 A 
ATOM     71  F   UNL     1       8.543   1.702 -15.904  1.00  0.00    -0.200 F 
ATOM     72  F   UNL     1      11.252   2.020 -15.935  1.00  0.00    -0.200 F 
ENDBRANCH  39  62
ENDBRANCH  13  14
ENDBRANCH   6   8
ENDBRANCH   3   4
ENDBRANCH   2   3
ENDBRANCH   1   2
BRANCH   1  73
ATOM     73  C   UNL     1       4.929  -0.543   4.289  1.00  0.00     0.116 C 
BRANCH  73  74
ATOM     74  N   UNL     1       6.379  -0.647   4.411  1.00  0.00    -0.352 N 
ATOM     75  C   UNL     1       7.130  -0.786   5.554  1.00  0.00     0.253 C 
ATOM     76  H   UNL     1       6.884  -0.614   3.567  1.00  0.00     0.163 HD
ATOM     77  O   UNL     1       8.344  -0.629   5.544  1.00  0.00    -0.269 OA
BRANCH  75  78
ATOM     78  C   UNL     1       6.436  -1.051   6.824  1.00  0.00     0.067 A 
ATOM     79  C   UNL     1       5.638  -2.205   6.903  1.00  0.00     0.058 A 
ATOM     80  C   UNL     1       6.442  -0.086   7.847  1.00  0.00     0.065 A 
ATOM     81  C   UNL     1       4.747  -2.336   7.955  1.00  0.00     0.159 A 
ATOM     82  C   UNL     1       5.454  -0.198   8.827  1.00  0.00     0.070 A 
ATOM     83  F   UNL     1       3.936  -3.400   8.004  1.00  0.00    -0.204 F 
ATOM     84  C   UNL     1       4.635  -1.325   8.895  1.00  0.00     0.160 A 
ATOM     85  F   UNL     1       3.715  -1.406   9.866  1.00  0.00    -0.204 F 
BRANCH  80  86
ATOM     86  N   UNL     1       7.298   1.087   7.801  1.00  0.00    -0.279 N 
ATOM     87  H   UNL     1       7.219   1.727   7.058  1.00  0.00     0.180 HD
BRANCH  86  88
ATOM     88  S   UNL     1       8.452   1.354   9.054  1.00  0.00     0.261 S 
ATOM     89  O   UNL     1       9.445   0.305   8.945  1.00  0.00    -0.201 OA
ATOM     90  O   UNL     1       8.835   2.746   8.964  1.00  0.00    -0.201 OA
BRANCH  88  91
ATOM     91  C   UNL     1       7.593   1.121  10.588  1.00  0.00     0.088 A 
ATOM     92  C   UNL     1       6.889   2.195  11.167  1.00  0.00     0.022 A 
ATOM     93  C   UNL     1       7.562  -0.162  11.149  1.00  0.00     0.026 A 
ATOM     94  C   UNL     1       6.056   1.967  12.266  1.00  0.00     0.005 A 
ATOM     95  C   UNL     1       6.686  -0.379  12.195  1.00  0.00    -0.043 A 
ATOM     96  C   UNL     1       5.934   0.669  12.740  1.00  0.00    -0.045 A 
ATOM     97  C   UNL     1       6.359  -1.679  12.861  1.00  0.00     0.036 C 
ATOM     98  C   UNL     1       5.047   0.162  13.835  1.00  0.00     0.036 C 
ATOM     99  C   UNL     1       5.009  -1.339  13.507  1.00  0.00     0.010 C 
ENDBRANCH  88  91
ENDBRANCH  86  88
ENDBRANCH  80  86
ENDBRANCH  75  78
ENDBRANCH  73  74
ENDBRANCH   1  73
TORSDOF 14
