REMARK SMILES O=C(NCCCCNC(=O)[C@H]1CC2(CCN(C(=O)C3CC3)CC2)CN1C(=O)CCn1cccn1)c1ccc(-c2c3nc(c(-c4c(F)c(F)c(F)c(F)c4F)c4ccc([nH]4)c(-c4c(F)c(F)c(F)c(F)c4F)c4nc(c(-c5c(F)c(F)c(F)c(F)c5F)c5ccc2[nH]5)C=C4)C=C3)cc1
REMARK SMILES IDX 6 1 5 2 4 3 3 4 1 5 2 6 35 8 36 9 97 10 37 11 96 12 38 13
REMARK SMILES IDX 39 14 40 15 90 16 41 17 95 18 89 19 91 20 42 21 94 22 88 23
REMARK SMILES IDX 87 24 43 26 75 27 55 28 74 29 56 30 59 31 73 32 92 33 57 34
REMARK SMILES IDX 58 35 72 37 93 38 60 39 44 40 45 41 53 42 46 43 47 44 51 45
REMARK SMILES IDX 54 46 48 47 49 48 52 49 50 50 76 51 77 52 85 53 78 54 79 55
REMARK SMILES IDX 83 56 86 57 80 58 81 59 84 60 82 61 61 62 62 63 70 64 63 65
REMARK SMILES IDX 64 66 68 67 71 68 65 69 66 70 69 71 67 72 7 73 8 74 9 75
REMARK SMILES IDX 10 77 11 78 12 79 25 80 13 81 24 82 14 83 23 84 15 85 22 86
REMARK SMILES IDX 16 87 17 88 18 89 26 90 27 91 28 92 29 93 30 94 31 95 34 96
REMARK SMILES IDX 32 97 33 98 19 99 20 100 21 101
REMARK H PARENT 3 7 91 25 59 36 8 76
REMARK Flexibility Score: inf
ROOT
ATOM      1  C   UNL     1       6.970  -7.397   3.142  1.00  0.00     0.023 C 
ENDROOT
BRANCH   1   2
ATOM      2  C   UNL     1       5.657  -7.979   2.601  1.00  0.00     0.023 C 
BRANCH   2   3
ATOM      3  C   UNL     1       5.412  -7.765   1.111  1.00  0.00     0.116 C 
BRANCH   3   4
ATOM      4  N   UNL     1       6.537  -8.106   0.265  1.00  0.00    -0.352 N 
ATOM      5  O   UNL     1       8.090  -9.121  -0.922  1.00  0.00    -0.269 OA
ATOM      6  C   UNL     1       7.119  -9.261  -0.173  1.00  0.00     0.251 C 
ATOM      7  H   UNL     1       6.997  -7.307  -0.080  1.00  0.00     0.163 HD
BRANCH   6   8
ATOM      8  C   UNL     1       6.717 -10.642   0.211  1.00  0.00     0.039 A 
ATOM      9  C   UNL     1       5.503 -11.015   0.789  1.00  0.00     0.014 A 
ATOM     10  C   UNL     1       7.658 -11.652  -0.081  1.00  0.00     0.014 A 
ATOM     11  C   UNL     1       5.263 -12.352   1.119  1.00  0.00     0.010 A 
ATOM     12  C   UNL     1       7.419 -12.985   0.234  1.00  0.00     0.010 A 
ATOM     13  C   UNL     1       6.226 -13.335   0.855  1.00  0.00    -0.014 A 
BRANCH  13  14
ATOM     14  C   UNL     1       5.867 -14.744   1.038  1.00  0.00     0.031 A 
ATOM     15  C   UNL     1       4.792 -15.220   0.116  1.00  0.00     0.074 A 
ATOM     16  C   UNL     1       6.537 -15.613   1.823  1.00  0.00     0.049 A 
ATOM     17  N   UNL     1       3.622 -15.679   0.425  1.00  0.00    -0.248 NA
ATOM     18  C   UNL     1       5.007 -15.070  -1.333  1.00  0.00     0.031 C 
ATOM     19  C   UNL     1       7.793 -15.394   2.542  1.00  0.00     0.029 A 
ATOM     20  N   UNL     1       6.273 -16.932   2.070  1.00  0.00    -0.354 N 
ATOM     21  C   UNL     1       3.010 -16.026  -0.779  1.00  0.00     0.074 A 
ATOM     22  C   UNL     1       3.846 -15.503  -1.827  1.00  0.00     0.031 C 
ATOM     23  C   UNL     1       8.286 -16.584   2.958  1.00  0.00     0.029 A 
ATOM     24  C   UNL     1       7.325 -17.631   2.653  1.00  0.00     0.049 A 
ATOM     25  H   UNL     1       5.410 -17.352   1.853  1.00  0.00     0.167 HD
ATOM     26  C   UNL     1       1.966 -16.900  -0.821  1.00  0.00     0.037 A 
ATOM     27  C   UNL     1       7.420 -18.977   2.821  1.00  0.00     0.037 A 
ATOM     28  C   UNL     1       1.369 -17.063   0.477  1.00  0.00     0.049 A 
ATOM     29  C   UNL     1       6.053 -19.541   2.718  1.00  0.00     0.074 A 
ATOM     30  C   UNL     1       0.721 -16.232   1.368  1.00  0.00     0.029 A 
ATOM     31  N   UNL     1       1.698 -18.189   1.189  1.00  0.00    -0.354 N 
ATOM     32  N   UNL     1       5.117 -19.355   3.604  1.00  0.00    -0.248 NA
ATOM     33  C   UNL     1       5.597 -19.974   1.406  1.00  0.00     0.031 C 
ATOM     34  C   UNL     1       1.126 -16.686   2.657  1.00  0.00     0.029 A 
ATOM     35  C   UNL     1       1.946 -17.800   2.477  1.00  0.00     0.049 A 
ATOM     36  H   UNL     1       1.745 -19.107   0.838  1.00  0.00     0.167 HD
ATOM     37  C   UNL     1       3.961 -19.202   2.857  1.00  0.00     0.074 A 
ATOM     38  C   UNL     1       4.298 -19.693   1.524  1.00  0.00     0.031 C 
ATOM     39  C   UNL     1       2.935 -18.430   3.317  1.00  0.00     0.037 A 
BRANCH  26  40
ATOM     40  C   UNL     1       1.713 -17.892  -1.933  1.00  0.00     0.064 A 
ATOM     41  C   UNL     1       0.531 -18.663  -1.909  1.00  0.00     0.173 A 
ATOM     42  C   UNL     1       2.714 -18.345  -2.818  1.00  0.00     0.173 A 
ATOM     43  F   UNL     1      -0.484 -18.334  -1.095  1.00  0.00    -0.203 F 
ATOM     44  C   UNL     1       0.405 -19.847  -2.641  1.00  0.00     0.198 A 
ATOM     45  C   UNL     1       2.563 -19.497  -3.587  1.00  0.00     0.198 A 
ATOM     46  F   UNL     1       3.918 -17.765  -2.888  1.00  0.00    -0.203 F 
ATOM     47  F   UNL     1      -0.678 -20.618  -2.478  1.00  0.00    -0.200 F 
ATOM     48  C   UNL     1       1.425 -20.268  -3.473  1.00  0.00     0.200 A 
ATOM     49  F   UNL     1       3.571 -19.900  -4.374  1.00  0.00    -0.200 F 
ATOM     50  F   UNL     1       1.338 -21.437  -4.121  1.00  0.00    -0.200 F 
ENDBRANCH  26  40
BRANCH  27  51
ATOM     51  C   UNL     1       8.619 -19.852   2.779  1.00  0.00     0.064 A 
ATOM     52  C   UNL     1       8.576 -21.174   3.261  1.00  0.00     0.173 A 
ATOM     53  C   UNL     1       9.738 -19.513   1.995  1.00  0.00     0.173 A 
ATOM     54  F   UNL     1       7.525 -21.598   3.978  1.00  0.00    -0.203 F 
ATOM     55  C   UNL     1       9.574 -22.105   2.950  1.00  0.00     0.198 A 
ATOM     56  C   UNL     1      10.736 -20.441   1.690  1.00  0.00     0.198 A 
ATOM     57  F   UNL     1       9.833 -18.305   1.423  1.00  0.00    -0.203 F 
ATOM     58  F   UNL     1       9.463 -23.373   3.370  1.00  0.00    -0.200 F 
ATOM     59  C   UNL     1      10.647 -21.740   2.154  1.00  0.00     0.200 A 
ATOM     60  F   UNL     1      11.749 -20.086   0.887  1.00  0.00    -0.200 F 
ATOM     61  F   UNL     1      11.569 -22.647   1.799  1.00  0.00    -0.200 F 
ENDBRANCH  27  51
BRANCH  39  62
ATOM     62  C   UNL     1       2.963 -18.014   4.759  1.00  0.00     0.064 A 
ATOM     63  C   UNL     1       3.962 -17.208   5.333  1.00  0.00     0.173 A 
ATOM     64  C   UNL     1       1.857 -18.336   5.556  1.00  0.00     0.173 A 
ATOM     65  F   UNL     1       5.001 -16.772   4.608  1.00  0.00    -0.203 F 
ATOM     66  C   UNL     1       3.874 -16.786   6.658  1.00  0.00     0.198 A 
ATOM     67  C   UNL     1       1.752 -17.880   6.866  1.00  0.00     0.198 A 
ATOM     68  F   UNL     1       0.847 -19.057   5.044  1.00  0.00    -0.203 F 
ATOM     69  F   UNL     1       4.846 -16.028   7.188  1.00  0.00    -0.200 F 
ATOM     70  C   UNL     1       2.766 -17.116   7.420  1.00  0.00     0.200 A 
ATOM     71  F   UNL     1       0.653 -18.157   7.581  1.00  0.00    -0.200 F 
ATOM     72  F   UNL     1       2.659 -16.672   8.681  1.00  0.00    -0.200 F 
ENDBRANCH  39  62
ENDBRANCH  13  14
ENDBRANCH   6   8
ENDBRANCH   3   4
ENDBRANCH   2   3
ENDBRANCH   1   2
BRANCH   1  73
ATOM     73  C   UNL     1       7.159  -5.872   3.072  1.00  0.00     0.116 C 
BRANCH  73  74
ATOM     74  N   UNL     1       6.016  -5.076   3.491  1.00  0.00    -0.354 N 
ATOM     75  C   UNL     1       5.936  -4.039   4.383  1.00  0.00     0.242 C 
ATOM     76  H   UNL     1       5.163  -5.322   3.066  1.00  0.00     0.163 HD
ATOM     77  O   UNL     1       5.023  -3.232   4.172  1.00  0.00    -0.273 OA
BRANCH  75  78
ATOM     78  C   UNL     1       7.036  -3.744   5.440  1.00  0.00     0.175 C 
ATOM     79  C   UNL     1       6.752  -2.505   6.320  1.00  0.00     0.044 C 
ATOM     80  N   UNL     1       7.700  -4.642   6.392  1.00  0.00    -0.330 N 
ATOM     81  C   UNL     1       7.841  -2.511   7.439  1.00  0.00    -0.006 C 
ATOM     82  C   UNL     1       8.658  -3.790   7.112  1.00  0.00     0.127 C 
ATOM     83  C   UNL     1       7.272  -2.645   8.874  1.00  0.00     0.030 C 
ATOM     84  C   UNL     1       8.653  -1.203   7.386  1.00  0.00     0.030 C 
ATOM     85  C   UNL     1       6.529  -1.415   9.388  1.00  0.00     0.120 C 
ATOM     86  C   UNL     1       7.806  -0.003   7.844  1.00  0.00     0.120 C 
ATOM     87  N   UNL     1       7.299  -0.190   9.205  1.00  0.00    -0.342 N 
ATOM     88  C   UNL     1       7.463   0.878  10.100  1.00  0.00     0.225 C 
ATOM     89  O   UNL     1       8.005   1.913   9.736  1.00  0.00    -0.275 OA
BRANCH  80  90
ATOM     90  C   UNL     1       7.070  -5.646   7.138  1.00  0.00     0.225 C 
ATOM     91  O   UNL     1       7.389  -5.906   8.301  1.00  0.00    -0.275 OA
BRANCH  90  92
ATOM     92  C   UNL     1       6.119  -6.583   6.429  1.00  0.00     0.124 C 
BRANCH  92  93
ATOM     93  C   UNL     1       4.713  -6.701   6.988  1.00  0.00     0.154 C 
BRANCH  93  94
ATOM     94  N   UNL     1       3.874  -5.546   6.737  1.00  0.00    -0.272 N 
ATOM     95  C   UNL     1       2.708  -5.506   6.024  1.00  0.00     0.108 A 
ATOM     96  N   UNL     1       4.210  -4.357   7.260  1.00  0.00    -0.182 NA
ATOM     97  C   UNL     1       2.300  -4.192   6.032  1.00  0.00     0.042 A 
ATOM     98  C   UNL     1       3.270  -3.527   6.796  1.00  0.00     0.135 A 
ENDBRANCH  93  94
ENDBRANCH  92  93
ENDBRANCH  90  92
ENDBRANCH  80  90
BRANCH  88  99
ATOM     99  C   UNL     1       7.059   0.860  11.543  1.00  0.00     0.079 C 
ATOM    100  C   UNL     1       5.986   0.099  12.261  1.00  0.00     0.014 C 
ATOM    101  C   UNL     1       7.431  -0.281  12.456  1.00  0.00     0.014 C 
ENDBRANCH  88  99
ENDBRANCH  75  78
ENDBRANCH  73  74
ENDBRANCH   1  73
TORSDOF 16
