REMARK SMILES COc1cc(/C=N/NC(=O)c2cccnc2)ccc1OCC(=O)NCCCCNC(=O)c1ccc(-c2c3nc(c(-c4c(F)c(F)c(F)c(F)c4F)c4ccc([nH]4)c(-c4c(F)c(F)c(F)c(F)c4F)c4nc(c(-c5c(F)c(F)c(F)c(F)c5F)c5ccc2[nH]5)C=C4)C=C3)cc1
REMARK SMILES IDX 25 1 24 2 22 3 23 4 21 6 20 7 19 8 3 9 4 10 5 11 18 12 17 13
REMARK SMILES IDX 2 14 1 15 6 16 7 17 8 18 9 19 10 21 11 22 12 23 16 24 13 25
REMARK SMILES IDX 15 26 14 27 26 28 27 29 28 30 29 31 30 32 31 34 32 35 33 36
REMARK SMILES IDX 94 37 34 38 93 39 35 40 36 41 37 42 87 43 38 44 92 45 86 46
REMARK SMILES IDX 88 47 39 48 91 49 85 50 84 51 40 53 72 54 52 55 71 56 53 57
REMARK SMILES IDX 56 58 70 59 89 60 54 61 55 62 69 64 90 65 57 66 41 67 42 68
REMARK SMILES IDX 50 69 43 70 44 71 48 72 51 73 45 74 46 75 49 76 47 77 73 78
REMARK SMILES IDX 74 79 82 80 75 81 76 82 80 83 83 84 77 85 78 86 81 87 79 88
REMARK SMILES IDX 58 89 59 90 67 91 60 92 61 93 65 94 68 95 62 96 63 97 66 98
REMARK SMILES IDX 64 99
REMARK H PARENT 24 5 8 20 29 33 88 52 56 63
REMARK Flexibility Score: inf
ROOT
ATOM      1  C   UNL     1       3.535   2.471  -1.556  1.00  0.00     0.116 C 
ENDROOT
BRANCH   1   2
ATOM      2  N   UNL     1       2.464   2.204  -0.619  1.00  0.00    -0.353 N 
ATOM      3  C   UNL     1       2.236   1.072   0.109  1.00  0.00     0.257 C 
ATOM      4  O   UNL     1       1.414   1.140   1.026  1.00  0.00    -0.271 OA
ATOM      5  H   UNL     1       1.817   2.934  -0.489  1.00  0.00     0.163 HD
BRANCH   3   6
ATOM      6  C   UNL     1       3.042  -0.203  -0.176  1.00  0.00     0.329 C 
BRANCH   6   7
ATOM      7  O   UNL     1       3.192  -0.603  -1.528  1.00  0.00    -0.480 OA
BRANCH   7   8
ATOM      8  C   UNL     1       2.092  -0.942  -2.265  1.00  0.00     0.161 A 
ATOM      9  C   UNL     1       0.851  -1.407  -1.812  1.00  0.00     0.161 A 
ATOM     10  C   UNL     1      -0.141  -1.769  -2.736  1.00  0.00     0.060 A 
ATOM     11  C   UNL     1       0.090  -1.615  -4.105  1.00  0.00    -0.002 A 
ATOM     12  C   UNL     1       2.311  -0.820  -3.646  1.00  0.00     0.051 A 
ATOM     13  C   UNL     1       1.309  -1.126  -4.566  1.00  0.00     0.014 A 
BRANCH   9  14
ATOM     14  O   UNL     1       0.647  -1.636  -0.478  1.00  0.00    -0.493 OA
ATOM     15  C   UNL     1      -0.501  -0.958   0.036  1.00  0.00     0.278 C 
ENDBRANCH   9  14
BRANCH  11  16
ATOM     16  C   UNL     1      -0.899  -2.057  -5.104  1.00  0.00     0.141 C 
ATOM     17  N   UNL     1      -1.724  -3.022  -4.848  1.00  0.00    -0.180 NA
BRANCH  17  18
ATOM     18  N   UNL     1      -2.502  -3.494  -5.867  1.00  0.00    -0.243 N 
ATOM     19  C   UNL     1      -2.167  -3.793  -7.178  1.00  0.00     0.272 C 
ATOM     20  H   UNL     1      -3.447  -3.646  -5.634  1.00  0.00     0.194 HD
ATOM     21  O   UNL     1      -3.029  -4.162  -7.975  1.00  0.00    -0.267 OA
BRANCH  19  22
ATOM     22  C   UNL     1      -0.779  -3.674  -7.657  1.00  0.00     0.059 A 
ATOM     23  C   UNL     1       0.322  -4.162  -6.952  1.00  0.00     0.017 A 
ATOM     24  C   UNL     1      -0.553  -3.022  -8.861  1.00  0.00     0.124 A 
ATOM     25  C   UNL     1       1.604  -3.916  -7.441  1.00  0.00     0.021 A 
ATOM     26  N   UNL     1       0.683  -2.763  -9.354  1.00  0.00    -0.264 NA
ATOM     27  C   UNL     1       1.732  -3.212  -8.629  1.00  0.00     0.111 A 
ENDBRANCH  19  22
ENDBRANCH  17  18
ENDBRANCH  11  16
ENDBRANCH   7   8
ENDBRANCH   6   7
ENDBRANCH   3   6
ENDBRANCH   1   2
BRANCH   1  28
ATOM     28  C   UNL     1       3.032   2.812  -2.957  1.00  0.00     0.023 C 
BRANCH  28  29
ATOM     29  C   UNL     1       2.060   3.989  -3.049  1.00  0.00     0.023 C 
BRANCH  29  30
ATOM     30  C   UNL     1       2.471   5.250  -2.300  1.00  0.00     0.116 C 
BRANCH  30  31
ATOM     31  N   UNL     1       3.778   5.750  -2.693  1.00  0.00    -0.352 N 
ATOM     32  C   UNL     1       4.161   7.025  -3.027  1.00  0.00     0.251 C 
ATOM     33  H   UNL     1       4.494   5.075  -2.723  1.00  0.00     0.163 HD
ATOM     34  O   UNL     1       5.300   7.238  -3.434  1.00  0.00    -0.269 OA
BRANCH  32  35
ATOM     35  C   UNL     1       3.192   8.136  -2.937  1.00  0.00     0.039 A 
ATOM     36  C   UNL     1       3.095   9.028  -4.008  1.00  0.00     0.014 A 
ATOM     37  C   UNL     1       2.372   8.292  -1.816  1.00  0.00     0.014 A 
ATOM     38  C   UNL     1       2.128  10.033  -3.986  1.00  0.00     0.010 A 
ATOM     39  C   UNL     1       1.356   9.243  -1.830  1.00  0.00     0.010 A 
ATOM     40  C   UNL     1       1.224  10.124  -2.915  1.00  0.00    -0.014 A 
BRANCH  40  41
ATOM     41  C   UNL     1       0.130  11.128  -2.918  1.00  0.00     0.031 A 
ATOM     42  C   UNL     1       0.083  12.203  -1.870  1.00  0.00     0.074 A 
ATOM     43  C   UNL     1      -0.863  11.025  -3.822  1.00  0.00     0.049 A 
ATOM     44  N   UNL     1      -0.821  13.129  -1.673  1.00  0.00    -0.248 NA
ATOM     45  C   UNL     1       1.182  12.219  -0.894  1.00  0.00     0.031 C 
ATOM     46  C   UNL     1      -0.962   9.990  -4.852  1.00  0.00     0.029 A 
ATOM     47  N   UNL     1      -1.986  11.792  -4.011  1.00  0.00    -0.354 N 
ATOM     48  C   UNL     1      -0.409  13.823  -0.543  1.00  0.00     0.074 A 
ATOM     49  C   UNL     1       0.793  13.175  -0.065  1.00  0.00     0.031 C 
ATOM     50  C   UNL     1      -2.074  10.197  -5.576  1.00  0.00     0.029 A 
ATOM     51  C   UNL     1      -2.784  11.353  -5.038  1.00  0.00     0.049 A 
ATOM     52  H   UNL     1      -2.198  12.581  -3.462  1.00  0.00     0.167 HD
ATOM     53  C   UNL     1      -0.971  14.914   0.031  1.00  0.00     0.037 A 
ATOM     54  C   UNL     1      -3.962  11.823  -5.491  1.00  0.00     0.037 A 
ATOM     55  C   UNL     1      -2.157  15.565  -0.462  1.00  0.00     0.049 A 
ATOM     56  C   UNL     1      -4.566  13.039  -4.844  1.00  0.00     0.074 A 
ATOM     57  C   UNL     1      -2.762  16.722  -0.002  1.00  0.00     0.029 A 
ATOM     58  N   UNL     1      -2.928  15.106  -1.521  1.00  0.00    -0.354 N 
ATOM     59  N   UNL     1      -4.122  13.742  -3.830  1.00  0.00    -0.248 NA
ATOM     60  C   UNL     1      -5.828  13.533  -5.410  1.00  0.00     0.031 C 
ATOM     61  C   UNL     1      -3.930  16.929  -0.743  1.00  0.00     0.029 A 
ATOM     62  C   UNL     1      -4.022  15.938  -1.707  1.00  0.00     0.049 A 
ATOM     63  H   UNL     1      -2.728  14.307  -2.061  1.00  0.00     0.167 HD
ATOM     64  C   UNL     1      -5.035  14.772  -3.650  1.00  0.00     0.074 A 
ATOM     65  C   UNL     1      -6.051  14.611  -4.670  1.00  0.00     0.031 C 
ATOM     66  C   UNL     1      -5.030  15.763  -2.724  1.00  0.00     0.037 A 
BRANCH  53  67
ATOM     67  C   UNL     1      -0.312  15.462   1.266  1.00  0.00     0.064 A 
ATOM     68  C   UNL     1       0.960  16.055   1.226  1.00  0.00     0.173 A 
ATOM     69  C   UNL     1      -0.964  15.398   2.507  1.00  0.00     0.173 A 
ATOM     70  F   UNL     1       1.633  16.135   0.069  1.00  0.00    -0.203 F 
ATOM     71  C   UNL     1       1.572  16.520   2.388  1.00  0.00     0.198 A 
ATOM     72  C   UNL     1      -0.364  15.897   3.660  1.00  0.00     0.198 A 
ATOM     73  F   UNL     1      -2.184  14.849   2.603  1.00  0.00    -0.203 F 
ATOM     74  F   UNL     1       2.815  17.019   2.335  1.00  0.00    -0.200 F 
ATOM     75  C   UNL     1       0.908  16.445   3.603  1.00  0.00     0.200 A 
ATOM     76  F   UNL     1      -1.014  15.837   4.831  1.00  0.00    -0.200 F 
ATOM     77  F   UNL     1       1.498  16.892   4.720  1.00  0.00    -0.200 F 
ENDBRANCH  53  67
BRANCH  54  78
ATOM     78  C   UNL     1      -4.628  11.148  -6.635  1.00  0.00     0.064 A 
ATOM     79  C   UNL     1      -4.688  11.756  -7.896  1.00  0.00     0.173 A 
ATOM     80  C   UNL     1      -5.186   9.868  -6.500  1.00  0.00     0.173 A 
ATOM     81  F   UNL     1      -4.185  12.987  -8.070  1.00  0.00    -0.203 F 
ATOM     82  C   UNL     1      -5.289  11.114  -8.976  1.00  0.00     0.198 A 
ATOM     83  C   UNL     1      -5.762   9.216  -7.587  1.00  0.00     0.198 A 
ATOM     84  F   UNL     1      -5.147   9.240  -5.315  1.00  0.00    -0.203 F 
ATOM     85  F   UNL     1      -5.361  11.731 -10.164  1.00  0.00    -0.200 F 
ATOM     86  C   UNL     1      -5.817   9.841  -8.824  1.00  0.00     0.200 A 
ATOM     87  F   UNL     1      -6.255   7.978  -7.439  1.00  0.00    -0.200 F 
ATOM     88  F   UNL     1      -6.381   9.217  -9.867  1.00  0.00    -0.200 F 
ENDBRANCH  54  78
BRANCH  66  89
ATOM     89  C   UNL     1      -6.144  16.770  -2.784  1.00  0.00     0.064 A 
ATOM     90  C   UNL     1      -7.459  16.438  -2.426  1.00  0.00     0.173 A 
ATOM     91  C   UNL     1      -5.882  18.095  -3.164  1.00  0.00     0.173 A 
ATOM     92  F   UNL     1      -7.765  15.182  -2.070  1.00  0.00    -0.203 F 
ATOM     93  C   UNL     1      -8.475  17.390  -2.470  1.00  0.00     0.198 A 
ATOM     94  C   UNL     1      -6.893  19.052  -3.175  1.00  0.00     0.198 A 
ATOM     95  F   UNL     1      -4.640  18.467  -3.510  1.00  0.00    -0.203 F 
ATOM     96  F   UNL     1      -9.733  17.039  -2.171  1.00  0.00    -0.200 F 
ATOM     97  C   UNL     1      -8.189  18.697  -2.836  1.00  0.00     0.200 A 
ATOM     98  F   UNL     1      -6.612  20.318  -3.514  1.00  0.00    -0.200 F 
ATOM     99  F   UNL     1      -9.166  19.614  -2.869  1.00  0.00    -0.200 F 
ENDBRANCH  66  89
ENDBRANCH  40  41
ENDBRANCH  32  35
ENDBRANCH  30  31
ENDBRANCH  29  30
ENDBRANCH  28  29
ENDBRANCH   1  28
TORSDOF 17
