REMARK SMILES C[C@H]1CCCN(C(=O)NC[C@H]2CC[C@H](C(=O)NCCCCNC(=O)c3ccc(-c4c5nc(c(-c6c(F)c(F)c(F)c(F)c6F)c6ccc([nH]6)c(-c6c(F)c(F)c(F)c(F)c6F)c6nc(c(-c7c(F)c(F)c(F)c(F)c7F)c7ccc4[nH]7)C=C6)C=C5)cc3)O2)CC1
REMARK SMILES IDX 15 1 16 2 17 3 14 5 11 6 12 7 88 8 13 9 10 10 9 11 7 12 8 13
REMARK SMILES IDX 6 15 89 16 90 17 2 18 1 19 3 20 5 22 4 23 18 25 19 26 20 27
REMARK SMILES IDX 21 28 22 29 23 30 24 32 25 33 26 34 87 35 27 36 86 37 28 38
REMARK SMILES IDX 29 39 30 40 80 41 31 42 85 43 79 44 81 45 32 46 84 47 78 48
REMARK SMILES IDX 77 49 33 51 65 52 45 53 64 54 46 55 49 56 63 57 82 58 47 59
REMARK SMILES IDX 48 60 62 62 83 63 50 64 34 65 35 66 43 67 36 68 37 69 41 70
REMARK SMILES IDX 44 71 38 72 39 73 42 74 40 75 66 76 67 77 75 78 68 79 69 80
REMARK SMILES IDX 73 81 76 82 70 83 71 84 74 85 72 86 51 87 52 88 60 89 53 90
REMARK SMILES IDX 54 91 58 92 61 93 55 94 56 95 59 96 57 97
REMARK H PARENT 17 4 9 14 22 31 81 50 49 61
REMARK Flexibility Score: 80.00
ROOT
ATOM      1  C   UNL     1       2.974   5.766  -7.288  1.00  0.00     0.249 C 
ATOM      2  O   UNL     1       2.530   6.799  -7.799  1.00  0.00    -0.272 OA
ATOM      3  N   UNL     1       3.659   5.900  -6.115  1.00  0.00    -0.354 N 
ATOM      4  H   UNL     1       3.723   6.821  -5.773  1.00  0.00     0.163 HD
ENDROOT
BRANCH   1   5
ATOM      5  C   UNL     1       2.812   4.401  -7.997  1.00  0.00     0.207 C 
ATOM      6  C   UNL     1       3.288   2.192  -7.348  1.00  0.00     0.138 C 
ATOM      7  C   UNL     1       4.516   2.717  -8.064  1.00  0.00     0.037 C 
ATOM      8  O   UNL     1       2.398   3.312  -7.172  1.00  0.00    -0.363 OA
ATOM      9  C   UNL     1       4.066   3.984  -8.745  1.00  0.00     0.045 C 
BRANCH   6  10
ATOM     10  C   UNL     1       2.537   1.026  -8.004  1.00  0.00     0.149 C 
BRANCH  10  11
ATOM     11  N   UNL     1       2.220   1.231  -9.404  1.00  0.00    -0.335 N 
ATOM     12  C   UNL     1       2.705   0.929 -10.614  1.00  0.00     0.317 C 
ATOM     13  O   UNL     1       2.001   1.345 -11.543  1.00  0.00    -0.249 OA
ATOM     14  H   UNL     1       1.390   1.754  -9.492  1.00  0.00     0.165 HD
BRANCH  12  15
ATOM     15  N   UNL     1       3.867   0.243 -10.851  1.00  0.00    -0.325 N 
BRANCH  15  16
ATOM     16  C   UNL     1       4.230   0.093 -12.264  1.00  0.00     0.121 C 
BRANCH  16  17
ATOM     17  C   UNL     1       3.606  -1.167 -12.867  1.00  0.00     0.025 C 
BRANCH  17  18
ATOM     18  C   UNL     1       4.272  -2.491 -12.458  1.00  0.00    -0.012 C 
ATOM     19  C   UNL     1       5.590  -2.701 -13.213  1.00  0.00     0.008 C 
BRANCH  18  20
ATOM     20  C   UNL     1       4.436  -2.666 -10.938  1.00  0.00     0.005 CG0
ATOM     21  G   UNL     1       5.415  -1.696 -10.282  1.00  0.00     0.000 G0
ENDBRANCH  18  20
ENDBRANCH  17  18
ENDBRANCH  16  17
ENDBRANCH  15  16
BRANCH  15  22
ATOM     22  C   UNL     1       4.813  -0.340  -9.906  1.00  0.00     0.121 C 
BRANCH  22  23
ATOM     23  C   UNL     1       5.415  -1.696 -10.282  1.00  0.00     0.022 CG0
ATOM     24  G   UNL     1       4.436  -2.666 -10.938  1.00  0.00     0.000 G0
ENDBRANCH  22  23
ENDBRANCH  15  22
ENDBRANCH  12  15
ENDBRANCH  10  11
ENDBRANCH   6  10
ENDBRANCH   1   5
BRANCH   3  25
ATOM     25  C   UNL     1       4.305   4.898  -5.299  1.00  0.00     0.116 C 
BRANCH  25  26
ATOM     26  C   UNL     1       5.815   4.867  -5.534  1.00  0.00     0.023 C 
BRANCH  26  27
ATOM     27  C   UNL     1       6.608   5.842  -4.668  1.00  0.00     0.023 C 
BRANCH  27  28
ATOM     28  C   UNL     1       6.481   5.608  -3.168  1.00  0.00     0.116 C 
BRANCH  28  29
ATOM     29  N   UNL     1       6.859   4.268  -2.745  1.00  0.00    -0.352 N 
ATOM     30  C   UNL     1       7.356   3.874  -1.525  1.00  0.00     0.251 C 
ATOM     31  H   UNL     1       6.745   3.556  -3.416  1.00  0.00     0.163 HD
ATOM     32  O   UNL     1       7.715   2.720  -1.337  1.00  0.00    -0.269 OA
BRANCH  30  33
ATOM     33  C   UNL     1       7.497   4.885  -0.458  1.00  0.00     0.039 A 
ATOM     34  C   UNL     1       8.730   5.016   0.184  1.00  0.00     0.014 A 
ATOM     35  C   UNL     1       6.435   5.736  -0.140  1.00  0.00     0.014 A 
ATOM     36  C   UNL     1       8.918   6.051   1.100  1.00  0.00     0.010 A 
ATOM     37  C   UNL     1       6.649   6.814   0.711  1.00  0.00     0.010 A 
ATOM     38  C   UNL     1       7.890   6.978   1.343  1.00  0.00    -0.014 A 
BRANCH  38  39
ATOM     39  C   UNL     1       8.101   8.123   2.261  1.00  0.00     0.031 A 
ATOM     40  C   UNL     1       7.309   8.225   3.533  1.00  0.00     0.074 A 
ATOM     41  C   UNL     1       8.964   9.098   1.919  1.00  0.00     0.049 A 
ATOM     42  N   UNL     1       7.344   9.151   4.458  1.00  0.00    -0.248 NA
ATOM     43  C   UNL     1       6.322   7.164   3.784  1.00  0.00     0.031 C 
ATOM     44  C   UNL     1       9.731   9.151   0.673  1.00  0.00     0.029 A 
ATOM     45  N   UNL     1       9.337  10.236   2.588  1.00  0.00    -0.354 N 
ATOM     46  C   UNL     1       6.378   8.791   5.388  1.00  0.00     0.074 A 
ATOM     47  C   UNL     1       5.730   7.599   4.886  1.00  0.00     0.031 C 
ATOM     48  C   UNL     1      10.505  10.248   0.680  1.00  0.00     0.029 A 
ATOM     49  C   UNL     1      10.274  10.985   1.919  1.00  0.00     0.049 A 
ATOM     50  H   UNL     1       8.969  10.492   3.465  1.00  0.00     0.167 HD
ATOM     51  C   UNL     1       6.077   9.385   6.567  1.00  0.00     0.037 A 
ATOM     52  C   UNL     1      10.883  12.132   2.272  1.00  0.00     0.037 A 
ATOM     53  C   UNL     1       6.746  10.553   7.075  1.00  0.00     0.049 A 
ATOM     54  C   UNL     1      10.566  12.747   3.608  1.00  0.00     0.074 A 
ATOM     55  C   UNL     1       6.571  11.190   8.291  1.00  0.00     0.029 A 
ATOM     56  N   UNL     1       7.721  11.263   6.389  1.00  0.00    -0.354 N 
ATOM     57  N   UNL     1       9.717  12.347   4.523  1.00  0.00    -0.248 NA
ATOM     58  C   UNL     1      11.307  13.964   3.966  1.00  0.00     0.031 C 
ATOM     59  C   UNL     1       7.412  12.308   8.324  1.00  0.00     0.029 A 
ATOM     60  C   UNL     1       8.145  12.342   7.149  1.00  0.00     0.049 A 
ATOM     61  H   UNL     1       8.061  11.034   5.494  1.00  0.00     0.167 HD
ATOM     62  C   UNL     1       9.835  13.248   5.573  1.00  0.00     0.074 A 
ATOM     63  C   UNL     1      10.856  14.202   5.189  1.00  0.00     0.031 C 
ATOM     64  C   UNL     1       9.159  13.283   6.748  1.00  0.00     0.037 A 
BRANCH  51  65
ATOM     65  C   UNL     1       4.981   8.770   7.387  1.00  0.00     0.064 A 
ATOM     66  C   UNL     1       5.137   7.521   8.008  1.00  0.00     0.173 A 
ATOM     67  C   UNL     1       3.761   9.441   7.564  1.00  0.00     0.173 A 
ATOM     68  F   UNL     1       6.278   6.831   7.857  1.00  0.00    -0.203 F 
ATOM     69  C   UNL     1       4.102   6.950   8.743  1.00  0.00     0.198 A 
ATOM     70  C   UNL     1       2.739   8.881   8.327  1.00  0.00     0.198 A 
ATOM     71  F   UNL     1       3.559  10.639   6.996  1.00  0.00    -0.203 F 
ATOM     72  F   UNL     1       4.255   5.729   9.275  1.00  0.00    -0.200 F 
ATOM     73  C   UNL     1       2.906   7.632   8.906  1.00  0.00     0.200 A 
ATOM     74  F   UNL     1       1.588   9.546   8.493  1.00  0.00    -0.200 F 
ATOM     75  F   UNL     1       1.911   7.082   9.615  1.00  0.00    -0.200 F 
ENDBRANCH  51  65
BRANCH  52  76
ATOM     76  C   UNL     1      11.892  12.742   1.369  1.00  0.00     0.064 A 
ATOM     77  C   UNL     1      13.255  12.717   1.693  1.00  0.00     0.173 A 
ATOM     78  C   UNL     1      11.518  13.351   0.163  1.00  0.00     0.173 A 
ATOM     79  F   UNL     1      13.659  12.161   2.845  1.00  0.00    -0.203 F 
ATOM     80  C   UNL     1      14.205  13.297   0.856  1.00  0.00     0.198 A 
ATOM     81  C   UNL     1      12.472  13.908  -0.687  1.00  0.00     0.198 A 
ATOM     82  F   UNL     1      10.227  13.393  -0.197  1.00  0.00    -0.203 F 
ATOM     83  F   UNL     1      15.498  13.296   1.210  1.00  0.00    -0.200 F 
ATOM     84  C   UNL     1      13.813  13.887  -0.337  1.00  0.00     0.200 A 
ATOM     85  F   UNL     1      12.091  14.464  -1.845  1.00  0.00    -0.200 F 
ATOM     86  F   UNL     1      14.728  14.439  -1.145  1.00  0.00    -0.200 F 
ENDBRANCH  52  76
BRANCH  64  87
ATOM     87  C   UNL     1       9.521  14.379   7.708  1.00  0.00     0.064 A 
ATOM     88  C   UNL     1       9.177  15.716   7.461  1.00  0.00     0.173 A 
ATOM     89  C   UNL     1      10.204  14.084   8.897  1.00  0.00     0.173 A 
ATOM     90  F   UNL     1       8.536  16.051   6.331  1.00  0.00    -0.203 F 
ATOM     91  C   UNL     1       9.534  16.723   8.354  1.00  0.00     0.198 A 
ATOM     92  C   UNL     1      10.533  15.089   9.802  1.00  0.00     0.198 A 
ATOM     93  F   UNL     1      10.550  12.820   9.184  1.00  0.00    -0.203 F 
ATOM     94  F   UNL     1       9.246  18.000   8.070  1.00  0.00    -0.200 F 
ATOM     95  C   UNL     1      10.207  16.408   9.525  1.00  0.00     0.200 A 
ATOM     96  F   UNL     1      11.172  14.782  10.939  1.00  0.00    -0.200 F 
ATOM     97  F   UNL     1      10.551  17.379  10.383  1.00  0.00    -0.200 F 
ENDBRANCH  64  87
ENDBRANCH  38  39
ENDBRANCH  30  33
ENDBRANCH  28  29
ENDBRANCH  27  28
ENDBRANCH  26  27
ENDBRANCH  25  26
ENDBRANCH   3  25
TORSDOF 14
