REMARK SMILES O=C(NCCCCNC(=O)c1cc(C2CC2)nc2c(-c3ccc(Cl)cc3)cnn12)c1ccc(-c2c3nc(c(-c4c(F)c(F)c(F)c(F)c4F)c4ccc([nH]4)c(-c4c(F)c(F)c(F)c(F)c4F)c4nc(c(-c5c(F)c(F)c(F)c(F)c5F)c5ccc2[nH]5)C=C4)C=C3)cc1
REMARK SMILES IDX 5 1 4 2 3 3 1 4 2 5 30 7 31 8 92 9 32 10 91 11 33 12 34 13
REMARK SMILES IDX 35 14 85 15 36 16 90 17 84 18 86 19 37 20 89 21 83 22 82 23
REMARK SMILES IDX 38 25 70 26 50 27 69 28 51 29 54 30 68 31 87 32 52 33 53 34
REMARK SMILES IDX 67 36 88 37 55 38 39 39 40 40 48 41 41 42 42 43 46 44 49 45
REMARK SMILES IDX 43 46 44 47 47 48 45 49 71 50 72 51 80 52 73 53 74 54 78 55
REMARK SMILES IDX 81 56 75 57 76 58 79 59 77 60 56 61 57 62 65 63 58 64 59 65
REMARK SMILES IDX 63 66 66 67 60 68 61 69 64 70 62 71 6 72 7 73 8 74 9 75
REMARK SMILES IDX 10 77 11 78 12 79 29 80 13 81 18 82 28 83 17 84 19 85 27 86
REMARK SMILES IDX 14 87 15 88 16 89 20 90 21 91 26 92 22 93 25 94 23 95 24 96
REMARK H PARENT 3 6 86 24 54 35 8 76
REMARK Flexibility Score: inf
ROOT
ATOM      1  C   UNL     1       5.008   1.284   2.226  1.00  0.00     0.023 C 
ENDROOT
BRANCH   1   2
ATOM      2  C   UNL     1       4.647   0.175   1.246  1.00  0.00     0.116 C 
BRANCH   2   3
ATOM      3  N   UNL     1       3.212  -0.001   1.080  1.00  0.00    -0.352 N 
ATOM      4  O   UNL     1       1.230  -0.013   0.001  1.00  0.00    -0.269 OA
ATOM      5  C   UNL     1       2.455   0.038  -0.067  1.00  0.00     0.251 C 
ATOM      6  H   UNL     1       2.711  -0.173   1.909  1.00  0.00     0.163 HD
BRANCH   5   7
ATOM      7  C   UNL     1       3.115   0.172  -1.383  1.00  0.00     0.039 A 
ATOM      8  C   UNL     1       4.237  -0.596  -1.702  1.00  0.00     0.014 A 
ATOM      9  C   UNL     1       2.605   1.086  -2.310  1.00  0.00     0.014 A 
ATOM     10  C   UNL     1       4.937  -0.342  -2.876  1.00  0.00     0.010 A 
ATOM     11  C   UNL     1       3.259   1.276  -3.531  1.00  0.00     0.010 A 
ATOM     12  C   UNL     1       4.450   0.588  -3.808  1.00  0.00    -0.014 A 
BRANCH  12  13
ATOM     13  C   UNL     1       5.171   0.773  -5.093  1.00  0.00     0.031 A 
ATOM     14  C   UNL     1       5.821   2.082  -5.442  1.00  0.00     0.074 A 
ATOM     15  C   UNL     1       5.248  -0.269  -5.943  1.00  0.00     0.049 A 
ATOM     16  N   UNL     1       6.495   2.406  -6.518  1.00  0.00    -0.248 NA
ATOM     17  C   UNL     1       5.692   3.172  -4.465  1.00  0.00     0.031 C 
ATOM     18  C   UNL     1       4.638  -1.581  -5.718  1.00  0.00     0.029 A 
ATOM     19  N   UNL     1       5.875  -0.396  -7.155  1.00  0.00    -0.354 N 
ATOM     20  C   UNL     1       6.854   3.737  -6.357  1.00  0.00     0.074 A 
ATOM     21  C   UNL     1       6.301   4.171  -5.091  1.00  0.00     0.031 C 
ATOM     22  C   UNL     1       4.948  -2.390  -6.740  1.00  0.00     0.029 A 
ATOM     23  C   UNL     1       5.726  -1.639  -7.718  1.00  0.00     0.049 A 
ATOM     24  H   UNL     1       6.382   0.333  -7.580  1.00  0.00     0.167 HD
ATOM     25  C   UNL     1       7.583   4.521  -7.189  1.00  0.00     0.037 A 
ATOM     26  C   UNL     1       6.149  -2.118  -8.902  1.00  0.00     0.037 A 
ATOM     27  C   UNL     1       8.143   4.076  -8.440  1.00  0.00     0.049 A 
ATOM     28  C   UNL     1       6.944  -1.224  -9.809  1.00  0.00     0.074 A 
ATOM     29  C   UNL     1       8.941   4.779  -9.327  1.00  0.00     0.029 A 
ATOM     30  N   UNL     1       7.957   2.814  -8.987  1.00  0.00    -0.354 N 
ATOM     31  N   UNL     1       7.317   0.018  -9.623  1.00  0.00    -0.248 NA
ATOM     32  C   UNL     1       7.376  -1.798 -11.089  1.00  0.00     0.031 C 
ATOM     33  C   UNL     1       9.196   3.959 -10.433  1.00  0.00     0.029 A 
ATOM     34  C   UNL     1       8.601   2.728 -10.212  1.00  0.00     0.049 A 
ATOM     35  H   UNL     1       7.444   2.087  -8.566  1.00  0.00     0.167 HD
ATOM     36  C   UNL     1       8.036   0.373 -10.755  1.00  0.00     0.074 A 
ATOM     37  C   UNL     1       8.067  -0.795 -11.612  1.00  0.00     0.031 C 
ATOM     38  C   UNL     1       8.615   1.560 -11.057  1.00  0.00     0.037 A 
BRANCH  25  39
ATOM     39  C   UNL     1       7.804   5.951  -6.786  1.00  0.00     0.064 A 
ATOM     40  C   UNL     1       8.657   6.298  -5.728  1.00  0.00     0.173 A 
ATOM     41  C   UNL     1       7.190   6.992  -7.500  1.00  0.00     0.173 A 
ATOM     42  F   UNL     1       9.262   5.342  -5.007  1.00  0.00    -0.203 F 
ATOM     43  C   UNL     1       8.866   7.632  -5.383  1.00  0.00     0.198 A 
ATOM     44  C   UNL     1       7.422   8.325  -7.170  1.00  0.00     0.198 A 
ATOM     45  F   UNL     1       6.371   6.717  -8.526  1.00  0.00    -0.203 F 
ATOM     46  F   UNL     1       9.651   7.938  -4.340  1.00  0.00    -0.200 F 
ATOM     47  C   UNL     1       8.254   8.644  -6.108  1.00  0.00     0.200 A 
ATOM     48  F   UNL     1       6.840   9.301  -7.880  1.00  0.00    -0.200 F 
ATOM     49  F   UNL     1       8.462   9.926  -5.779  1.00  0.00    -0.200 F 
ENDBRANCH  25  39
BRANCH  26  50
ATOM     50  C   UNL     1       5.814  -3.512  -9.287  1.00  0.00     0.064 A 
ATOM     51  C   UNL     1       6.801  -4.504  -9.348  1.00  0.00     0.173 A 
ATOM     52  C   UNL     1       4.491  -3.885  -9.570  1.00  0.00     0.173 A 
ATOM     53  F   UNL     1       8.081  -4.190  -9.102  1.00  0.00    -0.203 F 
ATOM     54  C   UNL     1       6.479  -5.816  -9.686  1.00  0.00     0.198 A 
ATOM     55  C   UNL     1       4.166  -5.203  -9.879  1.00  0.00     0.198 A 
ATOM     56  F   UNL     1       3.510  -2.973  -9.517  1.00  0.00    -0.203 F 
ATOM     57  F   UNL     1       7.446  -6.740  -9.770  1.00  0.00    -0.200 F 
ATOM     58  C   UNL     1       5.161  -6.167  -9.943  1.00  0.00     0.200 A 
ATOM     59  F   UNL     1       2.890  -5.541 -10.106  1.00  0.00    -0.200 F 
ATOM     60  F   UNL     1       4.851  -7.432 -10.254  1.00  0.00    -0.200 F 
ENDBRANCH  26  50
BRANCH  38  61
ATOM     61  C   UNL     1       9.345   1.648 -12.365  1.00  0.00     0.064 A 
ATOM     62  C   UNL     1       8.658   1.687 -13.587  1.00  0.00     0.173 A 
ATOM     63  C   UNL     1      10.746   1.720 -12.394  1.00  0.00     0.173 A 
ATOM     64  F   UNL     1       7.319   1.602 -13.612  1.00  0.00    -0.203 F 
ATOM     65  C   UNL     1       9.349   1.770 -14.793  1.00  0.00     0.198 A 
ATOM     66  C   UNL     1      11.432   1.832 -13.600  1.00  0.00     0.198 A 
ATOM     67  F   UNL     1      11.449   1.690 -11.252  1.00  0.00    -0.203 F 
ATOM     68  F   UNL     1       8.675   1.757 -15.951  1.00  0.00    -0.200 F 
ATOM     69  C   UNL     1      10.734   1.849 -14.798  1.00  0.00     0.200 A 
ATOM     70  F   UNL     1      12.769   1.919 -13.603  1.00  0.00    -0.200 F 
ATOM     71  F   UNL     1      11.397   1.933 -15.960  1.00  0.00    -0.200 F 
ENDBRANCH  38  61
ENDBRANCH  12  13
ENDBRANCH   5   7
ENDBRANCH   2   3
ENDBRANCH   1   2
BRANCH   1  72
ATOM     72  C   UNL     1       4.535   1.069   3.659  1.00  0.00     0.023 C 
BRANCH  72  73
ATOM     73  C   UNL     1       4.903  -0.275   4.274  1.00  0.00     0.116 C 
BRANCH  73  74
ATOM     74  N   UNL     1       6.337  -0.522   4.322  1.00  0.00    -0.351 N 
ATOM     75  C   UNL     1       7.124  -0.881   5.386  1.00  0.00     0.270 C 
ATOM     76  H   UNL     1       6.811  -0.415   3.465  1.00  0.00     0.163 HD
ATOM     77  O   UNL     1       8.318  -1.106   5.222  1.00  0.00    -0.268 OA
BRANCH  75  78
ATOM     78  C   UNL     1       6.475  -1.031   6.700  1.00  0.00     0.134 A 
ATOM     79  C   UNL     1       5.534  -1.983   6.812  1.00  0.00     0.058 A 
ATOM     80  N   UNL     1       6.805  -0.227   7.787  1.00  0.00    -0.209 N 
ATOM     81  C   UNL     1       4.745  -1.934   8.067  1.00  0.00     0.048 A 
ATOM     82  C   UNL     1       6.113  -0.380   9.000  1.00  0.00     0.164 A 
ATOM     83  N   UNL     1       7.725   0.771   7.867  1.00  0.00    -0.174 NA
ATOM     84  N   UNL     1       5.032  -1.218   9.111  1.00  0.00    -0.233 NA
ATOM     85  C   UNL     1       6.710   0.489   9.894  1.00  0.00     0.047 A 
ATOM     86  C   UNL     1       7.683   1.168   9.138  1.00  0.00     0.146 A 
BRANCH  81  87
ATOM     87  C   UNL     1       3.455  -2.677   8.123  1.00  0.00     0.038 C 
ATOM     88  C   UNL     1       2.739  -3.215   6.904  1.00  0.00     0.010 C 
ATOM     89  C   UNL     1       3.375  -4.160   7.883  1.00  0.00     0.010 C 
ENDBRANCH  81  87
BRANCH  85  90
ATOM     90  C   UNL     1       6.319   0.660  11.277  1.00  0.00    -0.013 A 
ATOM     91  C   UNL     1       6.261  -0.441  12.142  1.00  0.00     0.010 A 
ATOM     92  C   UNL     1       6.018   1.937  11.768  1.00  0.00     0.010 A 
ATOM     93  C   UNL     1       5.910  -0.267  13.483  1.00  0.00     0.021 A 
ATOM     94  C   UNL     1       5.657   2.109  13.108  1.00  0.00     0.021 A 
ATOM     95  C   UNL     1       5.609   1.007  13.959  1.00  0.00     0.041 A 
ATOM     96  Cl  UNL     1       5.173   1.221  15.610  1.00  0.00    -0.084 Cl
ENDBRANCH  85  90
ENDBRANCH  75  78
ENDBRANCH  73  74
ENDBRANCH  72  73
ENDBRANCH   1  72
TORSDOF 13
