REMARK SMILES CCc1c(C(=O)NCC(=O)NCCCCNC(=O)c2ccc(-c3c4nc(c(-c5c(F)c(F)c(F)c(F)c5F)c5ccc([nH]5)c(-c5c(F)c(F)c(F)c(F)c5F)c5nc(c(-c6c(F)c(F)c(F)c(F)c6F)c6ccc3[nH]6)C=C5)C=C4)cc2)nnn1-c1ccc(Cl)cc1Cl
REMARK SMILES IDX 13 1 12 2 11 3 9 4 10 5 8 7 7 8 5 9 6 10 4 12 3 13 84 14
REMARK SMILES IDX 82 15 83 16 2 17 1 18 85 19 86 20 91 21 87 22 90 23 92 24
REMARK SMILES IDX 88 25 89 26 14 27 15 28 16 29 17 30 18 32 19 33 20 34 81 35
REMARK SMILES IDX 21 36 80 37 22 38 23 39 24 40 74 41 25 42 79 43 73 44 75 45
REMARK SMILES IDX 26 46 78 47 72 48 71 49 27 51 59 52 39 53 58 54 40 55 43 56
REMARK SMILES IDX 57 57 76 58 41 59 42 60 56 62 77 63 44 64 28 65 29 66 37 67
REMARK SMILES IDX 30 68 31 69 35 70 38 71 32 72 33 73 36 74 34 75 60 76 61 77
REMARK SMILES IDX 69 78 62 79 63 80 67 81 70 82 64 83 65 84 68 85 66 86 45 87
REMARK SMILES IDX 46 88 54 89 47 90 48 91 52 92 55 93 49 94 50 95 53 96 51 97
REMARK H PARENT 11 6 7 11 16 31 75 50 43 61
REMARK Flexibility Score: inf
ROOT
ATOM      1  C   UNL     1      -3.355   2.640   2.421  1.00  0.00     0.023 C 
ENDROOT
BRANCH   1   2
ATOM      2  C   UNL     1      -2.647   1.332   2.079  1.00  0.00     0.116 C 
BRANCH   2   3
ATOM      3  N   UNL     1      -2.845   0.944   0.702  1.00  0.00    -0.355 N 
ATOM      4  C   UNL     1      -2.105   1.194  -0.407  1.00  0.00     0.239 C 
ATOM      5  O   UNL     1      -2.522   0.712  -1.466  1.00  0.00    -0.273 OA
ATOM      6  H   UNL     1      -3.655   0.407   0.541  1.00  0.00     0.163 HD
BRANCH   4   7
ATOM      7  C   UNL     1      -0.716   1.843  -0.369  1.00  0.00     0.216 C 
BRANCH   7   8
ATOM      8  N   UNL     1      -0.349   2.850   0.596  1.00  0.00    -0.342 N 
ATOM      9  C   UNL     1       0.419   2.906   1.726  1.00  0.00     0.274 C 
ATOM     10  O   UNL     1       0.583   4.063   2.133  1.00  0.00    -0.267 OA
ATOM     11  H   UNL     1      -0.757   3.722   0.387  1.00  0.00     0.164 HD
BRANCH   9  12
ATOM     12  C   UNL     1       0.946   1.776   2.514  1.00  0.00     0.174 A 
ATOM     13  C   UNL     1       1.188   0.405   2.352  1.00  0.00     0.077 A 
ATOM     14  N   UNL     1       1.693   0.011   3.601  1.00  0.00    -0.215 N 
ATOM     15  N   UNL     1       1.196   2.084   3.843  1.00  0.00    -0.124 NA
ATOM     16  N   UNL     1       1.514   0.991   4.499  1.00  0.00    -0.061 NA
BRANCH  13  17
ATOM     17  C   UNL     1       0.888  -0.603   1.285  1.00  0.00     0.055 C 
ATOM     18  C   UNL     1       1.746  -0.491   0.032  1.00  0.00     0.011 C 
ENDBRANCH  13  17
BRANCH  14  19
ATOM     19  C   UNL     1       2.121  -1.260   4.047  1.00  0.00     0.085 A 
ATOM     20  C   UNL     1       1.506  -1.808   5.186  1.00  0.00     0.031 A 
ATOM     21  C   UNL     1       3.144  -1.966   3.404  1.00  0.00     0.068 A 
ATOM     22  C   UNL     1       1.838  -3.098   5.605  1.00  0.00     0.023 A 
ATOM     23  C   UNL     1       3.457  -3.265   3.815  1.00  0.00     0.043 A 
ATOM     24  Cl  UNL     1       4.199  -1.240   2.248  1.00  0.00    -0.082 Cl
ATOM     25  C   UNL     1       2.792  -3.830   4.901  1.00  0.00     0.042 A 
ATOM     26  Cl  UNL     1       3.179  -5.431   5.396  1.00  0.00    -0.084 Cl
ENDBRANCH  14  19
ENDBRANCH   9  12
ENDBRANCH   7   8
ENDBRANCH   4   7
ENDBRANCH   2   3
ENDBRANCH   1   2
BRANCH   1  27
ATOM     27  C   UNL     1      -4.887   2.587   2.326  1.00  0.00     0.023 C 
BRANCH  27  28
ATOM     28  C   UNL     1      -5.546   1.546   3.224  1.00  0.00     0.116 C 
BRANCH  28  29
ATOM     29  N   UNL     1      -5.324   1.796   4.646  1.00  0.00    -0.352 N 
ATOM     30  C   UNL     1      -5.680   0.990   5.704  1.00  0.00     0.251 C 
ATOM     31  H   UNL     1      -4.866   2.638   4.874  1.00  0.00     0.163 HD
ATOM     32  O   UNL     1      -5.851   1.458   6.831  1.00  0.00    -0.269 OA
BRANCH  30  33
ATOM     33  C   UNL     1      -5.846  -0.454   5.475  1.00  0.00     0.039 A 
ATOM     34  C   UNL     1      -6.898  -1.165   6.053  1.00  0.00     0.014 A 
ATOM     35  C   UNL     1      -4.929  -1.093   4.641  1.00  0.00     0.014 A 
ATOM     36  C   UNL     1      -7.064  -2.504   5.714  1.00  0.00     0.010 A 
ATOM     37  C   UNL     1      -5.173  -2.370   4.198  1.00  0.00     0.010 A 
ATOM     38  C   UNL     1      -6.213  -3.096   4.761  1.00  0.00    -0.014 A 
BRANCH  38  39
ATOM     39  C   UNL     1      -6.511  -4.428   4.239  1.00  0.00     0.031 A 
ATOM     40  C   UNL     1      -7.914  -4.584   3.771  1.00  0.00     0.074 A 
ATOM     41  C   UNL     1      -5.590  -5.393   4.025  1.00  0.00     0.049 A 
ATOM     42  N   UNL     1      -8.831  -5.316   4.308  1.00  0.00    -0.248 NA
ATOM     43  C   UNL     1      -8.401  -3.723   2.680  1.00  0.00     0.031 C 
ATOM     44  C   UNL     1      -4.133  -5.309   4.157  1.00  0.00     0.029 A 
ATOM     45  N   UNL     1      -5.769  -6.660   3.551  1.00  0.00    -0.354 N 
ATOM     46  C   UNL     1      -9.955  -5.174   3.504  1.00  0.00     0.074 A 
ATOM     47  C   UNL     1      -9.693  -4.058   2.632  1.00  0.00     0.031 C 
ATOM     48  C   UNL     1      -3.557  -6.378   3.563  1.00  0.00     0.029 A 
ATOM     49  C   UNL     1      -4.599  -7.304   3.159  1.00  0.00     0.049 A 
ATOM     50  H   UNL     1      -6.655  -7.084   3.491  1.00  0.00     0.167 HD
ATOM     51  C   UNL     1     -10.890  -6.161   3.453  1.00  0.00     0.037 A 
ATOM     52  C   UNL     1      -4.494  -8.508   2.539  1.00  0.00     0.037 A 
ATOM     53  C   UNL     1     -10.784  -7.038   4.594  1.00  0.00     0.049 A 
ATOM     54  C   UNL     1      -5.753  -9.247   2.795  1.00  0.00     0.074 A 
ATOM     55  C   UNL     1     -10.826  -6.850   5.963  1.00  0.00     0.029 A 
ATOM     56  N   UNL     1     -10.191  -8.264   4.414  1.00  0.00    -0.354 N 
ATOM     57  N   UNL     1      -6.101  -9.697   3.967  1.00  0.00    -0.248 NA
ATOM     58  C   UNL     1      -6.836  -9.080   1.840  1.00  0.00     0.031 C 
ATOM     59  C   UNL     1      -9.812  -7.707   6.485  1.00  0.00     0.029 A 
ATOM     60  C   UNL     1      -9.276  -8.433   5.422  1.00  0.00     0.049 A 
ATOM     61  H   UNL     1     -10.388  -8.905   3.693  1.00  0.00     0.167 HD
ATOM     62  C   UNL     1      -7.454  -9.416   4.054  1.00  0.00     0.074 A 
ATOM     63  C   UNL     1      -7.871  -9.124   2.683  1.00  0.00     0.031 C 
ATOM     64  C   UNL     1      -8.041  -9.162   5.260  1.00  0.00     0.037 A 
BRANCH  51  65
ATOM     65  C   UNL     1     -11.607  -6.561   2.187  1.00  0.00     0.064 A 
ATOM     66  C   UNL     1     -12.658  -7.497   2.258  1.00  0.00     0.173 A 
ATOM     67  C   UNL     1     -11.108  -6.304   0.891  1.00  0.00     0.173 A 
ATOM     68  F   UNL     1     -13.183  -7.845   3.442  1.00  0.00    -0.203 F 
ATOM     69  C   UNL     1     -13.121  -8.171   1.124  1.00  0.00     0.198 A 
ATOM     70  C   UNL     1     -11.611  -6.937  -0.243  1.00  0.00     0.198 A 
ATOM     71  F   UNL     1     -10.039  -5.528   0.678  1.00  0.00    -0.203 F 
ATOM     72  F   UNL     1     -14.029  -9.148   1.257  1.00  0.00    -0.200 F 
ATOM     73  C   UNL     1     -12.595  -7.893  -0.124  1.00  0.00     0.200 A 
ATOM     74  F   UNL     1     -11.066  -6.673  -1.439  1.00  0.00    -0.200 F 
ATOM     75  F   UNL     1     -12.994  -8.581  -1.201  1.00  0.00    -0.200 F 
ENDBRANCH  51  65
BRANCH  52  76
ATOM     76  C   UNL     1      -3.516  -8.963   1.519  1.00  0.00     0.064 A 
ATOM     77  C   UNL     1      -3.405 -10.323   1.177  1.00  0.00     0.173 A 
ATOM     78  C   UNL     1      -2.897  -8.049   0.646  1.00  0.00     0.173 A 
ATOM     79  F   UNL     1      -3.999 -11.259   1.931  1.00  0.00    -0.203 F 
ATOM     80  C   UNL     1      -2.752 -10.738   0.011  1.00  0.00     0.198 A 
ATOM     81  C   UNL     1      -2.241  -8.465  -0.515  1.00  0.00     0.198 A 
ATOM     82  F   UNL     1      -3.002  -6.727   0.848  1.00  0.00    -0.203 F 
ATOM     83  F   UNL     1      -2.732 -12.038  -0.318  1.00  0.00    -0.200 F 
ATOM     84  C   UNL     1      -2.184  -9.807  -0.841  1.00  0.00     0.200 A 
ATOM     85  F   UNL     1      -1.726  -7.551  -1.350  1.00  0.00    -0.200 F 
ATOM     86  F   UNL     1      -1.620 -10.197  -1.993  1.00  0.00    -0.200 F 
ENDBRANCH  52  76
BRANCH  64  87
ATOM     87  C   UNL     1      -7.255  -9.480   6.505  1.00  0.00     0.064 A 
ATOM     88  C   UNL     1      -6.006  -8.920   6.833  1.00  0.00     0.173 A 
ATOM     89  C   UNL     1      -7.848 -10.319   7.459  1.00  0.00     0.173 A 
ATOM     90  F   UNL     1      -5.413  -8.027   6.030  1.00  0.00    -0.203 F 
ATOM     91  C   UNL     1      -5.361  -9.237   8.028  1.00  0.00     0.198 A 
ATOM     92  C   UNL     1      -7.222 -10.600   8.670  1.00  0.00     0.198 A 
ATOM     93  F   UNL     1      -9.062 -10.843   7.230  1.00  0.00    -0.203 F 
ATOM     94  F   UNL     1      -4.157  -8.712   8.303  1.00  0.00    -0.200 F 
ATOM     95  C   UNL     1      -5.972 -10.073   8.948  1.00  0.00     0.200 A 
ATOM     96  F   UNL     1      -7.840 -11.370   9.575  1.00  0.00    -0.200 F 
ATOM     97  F   UNL     1      -5.367 -10.354  10.110  1.00  0.00    -0.200 F 
ENDBRANCH  64  87
ENDBRANCH  38  39
ENDBRANCH  30  33
ENDBRANCH  28  29
ENDBRANCH  27  28
ENDBRANCH   1  27
TORSDOF 15
