REMARK SMILES Cc1cc(C)c(OCC(=O)Nc2ccc(Cl)c(C(=O)NCCCCNC(=O)c3ccc(-c4c5nc(c(-c6c(F)c(F)c(F)c(F)c6F)c6ccc([nH]6)c(-c6c(F)c(F)c(F)c(F)c6F)c6nc(c(-c7c(F)c(F)c(F)c(F)c7F)c7ccc4[nH]7)C=C6)C=C5)cc3)c2)c(Cl)c1
REMARK SMILES IDX 21 1 20 2 18 3 19 4 17 6 12 7 13 8 91 9 14 10 15 11 16 12
REMARK SMILES IDX 11 13 9 14 10 15 8 17 7 18 6 19 1 20 2 21 3 22 94 23 4 24
REMARK SMILES IDX 92 25 5 26 93 27 22 28 23 29 24 30 25 31 26 32 27 34 28 35
REMARK SMILES IDX 29 36 90 37 30 38 89 39 31 40 32 41 33 42 83 43 34 44 88 45
REMARK SMILES IDX 82 46 84 47 35 48 87 49 81 50 80 51 36 53 68 54 48 55 67 56
REMARK SMILES IDX 49 57 52 58 66 59 85 60 50 61 51 62 65 64 86 65 53 66 37 67
REMARK SMILES IDX 38 68 46 69 39 70 40 71 44 72 47 73 41 74 42 75 45 76 43 77
REMARK SMILES IDX 69 78 70 79 78 80 71 81 72 82 76 83 79 84 73 85 74 86 77 87
REMARK SMILES IDX 75 88 54 89 55 90 63 91 56 92 57 93 61 94 64 95 58 96 59 97
REMARK SMILES IDX 62 98 60 99
REMARK H PARENT 20 5 11 16 25 33 84 52 52 63
REMARK Flexibility Score: inf
ROOT
ATOM      1  C   UNL     1      -6.435   3.491   4.357  1.00  0.00     0.116 C 
ENDROOT
BRANCH   1   2
ATOM      2  N   UNL     1      -5.707   4.703   4.685  1.00  0.00    -0.352 N 
ATOM      3  C   UNL     1      -4.533   5.188   4.146  1.00  0.00     0.252 C 
ATOM      4  O   UNL     1      -4.111   6.282   4.517  1.00  0.00    -0.269 OA
ATOM      5  H   UNL     1      -6.107   5.258   5.393  1.00  0.00     0.163 HD
BRANCH   3   6
ATOM      6  C   UNL     1      -3.704   4.366   3.233  1.00  0.00     0.060 A 
ATOM      7  C   UNL     1      -1.494   3.567   2.679  1.00  0.00     0.042 A 
ATOM      8  C   UNL     1      -2.067   2.571   1.909  1.00  0.00     0.028 A 
ATOM      9  C   UNL     1      -2.316   4.373   3.461  1.00  0.00     0.041 A 
ATOM     10  C   UNL     1      -3.415   2.627   1.597  1.00  0.00     0.023 A 
ATOM     11  C   UNL     1      -4.203   3.621   2.161  1.00  0.00     0.053 A 
ATOM     12  Cl  UNL     1      -5.693   3.966   1.359  1.00  0.00    -0.083 Cl
BRANCH   7  13
ATOM     13  N   UNL     1      -0.126   3.839   2.613  1.00  0.00    -0.323 N 
ATOM     14  C   UNL     1       0.660   3.892   1.484  1.00  0.00     0.262 C 
ATOM     15  O   UNL     1       1.811   4.321   1.625  1.00  0.00    -0.271 OA
ATOM     16  H   UNL     1       0.328   4.011   3.470  1.00  0.00     0.170 HD
BRANCH  14  17
ATOM     17  C   UNL     1       0.082   3.650   0.055  1.00  0.00     0.329 C 
BRANCH  17  18
ATOM     18  O   UNL     1      -0.325   2.428  -0.521  1.00  0.00    -0.482 OA
BRANCH  18  19
ATOM     19  C   UNL     1       0.363   1.254  -0.416  1.00  0.00     0.141 A 
ATOM     20  C   UNL     1       2.018  -2.731   0.050  1.00  0.00     0.044 C 
ATOM     21  C   UNL     1       1.445  -1.358  -0.131  1.00  0.00    -0.049 A 
ATOM     22  C   UNL     1       2.256  -0.221  -0.080  1.00  0.00     0.010 A 
ATOM     23  C   UNL     1       0.087  -1.192  -0.374  1.00  0.00     0.027 A 
ATOM     24  C   UNL     1       1.744   1.086  -0.260  1.00  0.00    -0.007 A 
ATOM     25  C   UNL     1      -0.441   0.092  -0.533  1.00  0.00     0.083 A 
ATOM     26  C   UNL     1       2.770   2.179  -0.295  1.00  0.00     0.048 C 
ATOM     27  Cl  UNL     1      -2.138   0.185  -0.891  1.00  0.00    -0.080 Cl
ENDBRANCH  18  19
ENDBRANCH  17  18
ENDBRANCH  14  17
ENDBRANCH   7  13
ENDBRANCH   3   6
ENDBRANCH   1   2
BRANCH   1  28
ATOM     28  C   UNL     1      -7.182   2.835   5.506  1.00  0.00     0.023 C 
BRANCH  28  29
ATOM     29  C   UNL     1      -8.269   3.674   6.166  1.00  0.00     0.023 C 
BRANCH  29  30
ATOM     30  C   UNL     1      -9.219   4.422   5.236  1.00  0.00     0.116 C 
BRANCH  30  31
ATOM     31  N   UNL     1      -9.918   3.574   4.282  1.00  0.00    -0.352 N 
ATOM     32  C   UNL     1     -11.262   3.453   4.019  1.00  0.00     0.251 C 
ATOM     33  H   UNL     1      -9.337   2.995   3.738  1.00  0.00     0.163 HD
ATOM     34  O   UNL     1     -11.652   2.624   3.200  1.00  0.00    -0.269 OA
BRANCH  32  35
ATOM     35  C   UNL     1     -12.251   4.274   4.753  1.00  0.00     0.039 A 
ATOM     36  C   UNL     1     -13.396   3.647   5.253  1.00  0.00     0.014 A 
ATOM     37  C   UNL     1     -12.054   5.639   4.972  1.00  0.00     0.014 A 
ATOM     38  C   UNL     1     -14.289   4.366   6.051  1.00  0.00     0.010 A 
ATOM     39  C   UNL     1     -12.895   6.331   5.841  1.00  0.00     0.010 A 
ATOM     40  C   UNL     1     -14.018   5.700   6.397  1.00  0.00    -0.014 A 
BRANCH  40  41
ATOM     41  C   UNL     1     -14.891   6.430   7.354  1.00  0.00     0.031 A 
ATOM     42  C   UNL     1     -15.647   7.655   6.919  1.00  0.00     0.074 A 
ATOM     43  C   UNL     1     -14.972   6.008   8.632  1.00  0.00     0.049 A 
ATOM     44  N   UNL     1     -16.442   8.428   7.617  1.00  0.00    -0.248 NA
ATOM     45  C   UNL     1     -15.471   8.086   5.523  1.00  0.00     0.031 C 
ATOM     46  C   UNL     1     -14.237   4.874   9.198  1.00  0.00     0.029 A 
ATOM     47  N   UNL     1     -15.706   6.485   9.691  1.00  0.00    -0.354 N 
ATOM     48  C   UNL     1     -16.859   9.427   6.747  1.00  0.00     0.074 A 
ATOM     49  C   UNL     1     -16.178   9.205   5.490  1.00  0.00     0.031 C 
ATOM     50  C   UNL     1     -14.581   4.724  10.487  1.00  0.00     0.029 A 
ATOM     51  C   UNL     1     -15.533   5.768  10.851  1.00  0.00     0.049 A 
ATOM     52  H   UNL     1     -16.300   7.267   9.625  1.00  0.00     0.167 HD
ATOM     53  C   UNL     1     -17.756  10.419   6.964  1.00  0.00     0.037 A 
ATOM     54  C   UNL     1     -16.081   5.933  12.069  1.00  0.00     0.037 A 
ATOM     55  C   UNL     1     -18.445  10.633   8.209  1.00  0.00     0.049 A 
ATOM     56  C   UNL     1     -17.076   7.045  12.279  1.00  0.00     0.074 A 
ATOM     57  C   UNL     1     -19.392  11.594   8.519  1.00  0.00     0.029 A 
ATOM     58  N   UNL     1     -18.265   9.868   9.352  1.00  0.00    -0.354 N 
ATOM     59  N   UNL     1     -17.512   7.939  11.426  1.00  0.00    -0.248 NA
ATOM     60  C   UNL     1     -17.664   7.160  13.621  1.00  0.00     0.031 C 
ATOM     61  C   UNL     1     -19.760  11.432   9.859  1.00  0.00     0.029 A 
ATOM     62  C   UNL     1     -19.077  10.342  10.370  1.00  0.00     0.049 A 
ATOM     63  H   UNL     1     -17.651   9.102   9.429  1.00  0.00     0.167 HD
ATOM     64  C   UNL     1     -18.443   8.702  12.117  1.00  0.00     0.074 A 
ATOM     65  C   UNL     1     -18.529   8.149  13.452  1.00  0.00     0.031 C 
ATOM     66  C   UNL     1     -19.159   9.771  11.689  1.00  0.00     0.037 A 
BRANCH  53  67
ATOM     67  C   UNL     1     -18.070  11.335   5.817  1.00  0.00     0.064 A 
ATOM     68  C   UNL     1     -18.810  10.888   4.712  1.00  0.00     0.173 A 
ATOM     69  C   UNL     1     -17.685  12.683   5.847  1.00  0.00     0.173 A 
ATOM     70  F   UNL     1     -19.192   9.604   4.629  1.00  0.00    -0.203 F 
ATOM     71  C   UNL     1     -19.137  11.752   3.671  1.00  0.00     0.198 A 
ATOM     72  C   UNL     1     -18.038  13.552   4.817  1.00  0.00     0.198 A 
ATOM     73  F   UNL     1     -16.980  13.163   6.883  1.00  0.00    -0.203 F 
ATOM     74  F   UNL     1     -19.813  11.293   2.608  1.00  0.00    -0.200 F 
ATOM     75  C   UNL     1     -18.760  13.085   3.729  1.00  0.00     0.200 A 
ATOM     76  F   UNL     1     -17.685  14.843   4.880  1.00  0.00    -0.200 F 
ATOM     77  F   UNL     1     -19.089  13.920   2.733  1.00  0.00    -0.200 F 
ENDBRANCH  53  67
BRANCH  54  78
ATOM     78  C   UNL     1     -15.726   5.018  13.187  1.00  0.00     0.064 A 
ATOM     79  C   UNL     1     -16.675   4.139  13.730  1.00  0.00     0.173 A 
ATOM     80  C   UNL     1     -14.448   5.033  13.764  1.00  0.00     0.173 A 
ATOM     81  F   UNL     1     -17.918   4.101  13.228  1.00  0.00    -0.203 F 
ATOM     82  C   UNL     1     -16.371   3.341  14.832  1.00  0.00     0.198 A 
ATOM     83  C   UNL     1     -14.135   4.210  14.843  1.00  0.00     0.198 A 
ATOM     84  F   UNL     1     -13.501   5.849  13.278  1.00  0.00    -0.203 F 
ATOM     85  F   UNL     1     -17.317   2.561  15.372  1.00  0.00    -0.200 F 
ATOM     86  C   UNL     1     -15.100   3.375  15.385  1.00  0.00     0.200 A 
ATOM     87  F   UNL     1     -12.902   4.235  15.366  1.00  0.00    -0.200 F 
ATOM     88  F   UNL     1     -14.810   2.613  16.449  1.00  0.00    -0.200 F 
ENDBRANCH  54  78
BRANCH  66  89
ATOM     89  C   UNL     1     -20.120  10.385  12.665  1.00  0.00     0.064 A 
ATOM     90  C   UNL     1     -19.675  11.109  13.781  1.00  0.00     0.173 A 
ATOM     91  C   UNL     1     -21.505  10.259  12.473  1.00  0.00     0.173 A 
ATOM     92  F   UNL     1     -18.361  11.245  14.017  1.00  0.00    -0.203 F 
ATOM     93  C   UNL     1     -20.580  11.651  14.689  1.00  0.00     0.198 A 
ATOM     94  C   UNL     1     -22.407  10.831  13.365  1.00  0.00     0.198 A 
ATOM     95  F   UNL     1     -21.983   9.583  11.417  1.00  0.00    -0.203 F 
ATOM     96  F   UNL     1     -20.131  12.286  15.781  1.00  0.00    -0.200 F 
ATOM     97  C   UNL     1     -21.944  11.517  14.478  1.00  0.00     0.200 A 
ATOM     98  F   UNL     1     -23.724  10.711  13.152  1.00  0.00    -0.200 F 
ATOM     99  F   UNL     1     -22.814  12.039  15.354  1.00  0.00    -0.200 F 
ENDBRANCH  66  89
ENDBRANCH  40  41
ENDBRANCH  32  35
ENDBRANCH  30  31
ENDBRANCH  29  30
ENDBRANCH  28  29
ENDBRANCH   1  28
TORSDOF 15
