REMARK SMILES CCCCCCNC(=O)Oc1cccc(-c2ccc([C@H](C)C(=O)NCCCCNC(=O)c3ccc(-c4c5nc(c(-c6c(F)c(F)c(F)c(F)c6F)c6ccc([nH]6)c(-c6c(F)c(F)c(F)c(F)c6F)c6nc(c(-c7c(F)c(F)c(F)c(F)c7F)c7ccc4[nH]7)C=C6)C=C5)cc3)cc2F)c1
REMARK SMILES IDX 20 1 21 2 19 3 16 4 17 5 96 6 18 7 95 8 97 9 15 10 11 11
REMARK SMILES IDX 12 12 98 13 13 14 14 15 10 16 8 17 7 18 9 20 6 21 5 22 4 23
REMARK SMILES IDX 3 24 2 25 1 26 22 27 23 28 24 29 25 31 26 32 27 33 28 34
REMARK SMILES IDX 29 35 30 36 31 38 32 39 33 40 94 41 34 42 93 43 35 44 36 45
REMARK SMILES IDX 37 46 87 47 38 48 92 49 86 50 88 51 39 52 91 53 85 54 84 55
REMARK SMILES IDX 40 57 72 58 52 59 71 60 53 61 56 62 70 63 89 64 54 65 55 66
REMARK SMILES IDX 69 68 90 69 57 70 41 71 42 72 50 73 43 74 44 75 48 76 51 77
REMARK SMILES IDX 45 78 46 79 49 80 47 81 73 82 74 83 82 84 75 85 76 86 80 87
REMARK SMILES IDX 83 88 77 89 78 90 81 91 79 92 58 93 59 94 67 95 60 96 61 97
REMARK SMILES IDX 65 98 68 99 62 100 63 101 66 102 64 103
REMARK H PARENT 7 19 24 30 29 37 88 56 56 67
REMARK Flexibility Score: inf
ROOT
ATOM      1  C   UNL     1      -4.369   3.429 -13.396  1.00  0.00     0.105 C 
ATOM      2  C   UNL     1      -4.668   3.208 -11.906  1.00  0.00     0.023 C 
ENDROOT
BRANCH   1   3
ATOM      3  C   UNL     1      -5.581   3.880 -14.203  1.00  0.00    -0.033 A 
ATOM      4  C   UNL     1      -7.960   4.732 -15.553  1.00  0.00     0.018 A 
ATOM      5  C   UNL     1      -6.770   5.472 -15.620  1.00  0.00     0.012 A 
ATOM      6  C   UNL     1      -7.902   3.517 -14.854  1.00  0.00     0.131 A 
ATOM      7  C   UNL     1      -5.597   5.037 -14.990  1.00  0.00     0.005 A 
ATOM      8  C   UNL     1      -6.747   3.101 -14.186  1.00  0.00     0.044 A 
ATOM      9  F   UNL     1      -8.972   2.709 -14.799  1.00  0.00    -0.206 F 
BRANCH   4  10
ATOM     10  C   UNL     1      -9.205   5.245 -16.162  1.00  0.00    -0.012 A 
ATOM     11  C   UNL     1     -11.607   5.628 -16.071  1.00  0.00     0.133 A 
ATOM     12  C   UNL     1     -11.579   6.312 -17.281  1.00  0.00     0.047 A 
ATOM     13  C   UNL     1     -10.444   5.089 -15.517  1.00  0.00     0.056 A 
ATOM     14  C   UNL     1     -10.365   6.474 -17.939  1.00  0.00     0.004 A 
ATOM     15  C   UNL     1      -9.194   5.942 -17.387  1.00  0.00     0.009 A 
BRANCH  11  16
ATOM     16  O   UNL     1     -12.863   5.401 -15.491  1.00  0.00    -0.410 OA
BRANCH  16  17
ATOM     17  C   UNL     1     -13.046   5.763 -14.168  1.00  0.00     0.412 C 
ATOM     18  N   UNL     1     -14.273   5.413 -13.680  1.00  0.00    -0.321 N 
ATOM     19  H   UNL     1     -14.466   5.662 -12.747  1.00  0.00     0.167 HD
ATOM     20  O   UNL     1     -12.230   6.350 -13.457  1.00  0.00    -0.224 OA
BRANCH  18  21
ATOM     21  C   UNL     1     -15.319   4.712 -14.398  1.00  0.00     0.119 C 
BRANCH  21  22
ATOM     22  C   UNL     1     -15.676   3.383 -13.733  1.00  0.00     0.021 C 
BRANCH  22  23
ATOM     23  C   UNL     1     -16.288   3.509 -12.333  1.00  0.00     0.002 C 
BRANCH  23  24
ATOM     24  C   UNL     1     -17.567   4.349 -12.244  1.00  0.00    -0.000 C 
BRANCH  24  25
ATOM     25  C   UNL     1     -18.722   3.884 -13.134  1.00  0.00    -0.003 C 
ATOM     26  C   UNL     1     -19.228   2.493 -12.786  1.00  0.00     0.004 C 
ENDBRANCH  24  25
ENDBRANCH  23  24
ENDBRANCH  22  23
ENDBRANCH  21  22
ENDBRANCH  18  21
ENDBRANCH  16  17
ENDBRANCH  11  16
ENDBRANCH   4  10
ENDBRANCH   1   3
BRANCH   1  27
ATOM     27  C   UNL     1      -3.084   4.242 -13.575  1.00  0.00     0.227 C 
ATOM     28  O   UNL     1      -2.105   3.752 -14.146  1.00  0.00    -0.274 OA
ATOM     29  N   UNL     1      -2.944   5.514 -13.103  1.00  0.00    -0.356 N 
ATOM     30  H   UNL     1      -2.025   5.866 -13.132  1.00  0.00     0.163 HD
BRANCH  29  31
ATOM     31  C   UNL     1      -3.930   6.434 -12.565  1.00  0.00     0.116 C 
BRANCH  31  32
ATOM     32  C   UNL     1      -3.396   7.231 -11.381  1.00  0.00     0.023 C 
BRANCH  32  33
ATOM     33  C   UNL     1      -2.237   8.176 -11.712  1.00  0.00     0.023 C 
BRANCH  33  34
ATOM     34  C   UNL     1      -2.481   9.140 -12.869  1.00  0.00     0.116 C 
BRANCH  34  35
ATOM     35  N   UNL     1      -3.632  10.007 -12.663  1.00  0.00    -0.352 N 
ATOM     36  C   UNL     1      -3.724  11.371 -12.805  1.00  0.00     0.251 C 
ATOM     37  H   UNL     1      -4.459   9.552 -12.384  1.00  0.00     0.163 HD
ATOM     38  O   UNL     1      -4.746  11.964 -12.479  1.00  0.00    -0.269 OA
BRANCH  36  39
ATOM     39  C   UNL     1      -2.565  12.128 -13.320  1.00  0.00     0.039 A 
ATOM     40  C   UNL     1      -2.116  13.241 -12.606  1.00  0.00     0.014 A 
ATOM     41  C   UNL     1      -1.905  11.719 -14.482  1.00  0.00     0.014 A 
ATOM     42  C   UNL     1      -0.953  13.898 -13.013  1.00  0.00     0.010 A 
ATOM     43  C   UNL     1      -0.711  12.332 -14.847  1.00  0.00     0.010 A 
ATOM     44  C   UNL     1      -0.219  13.423 -14.112  1.00  0.00    -0.014 A 
BRANCH  44  45
ATOM     45  C   UNL     1       1.071  14.046 -14.506  1.00  0.00     0.031 A 
ATOM     46  C   UNL     1       1.200  14.724 -15.841  1.00  0.00     0.074 A 
ATOM     47  C   UNL     1       2.142  13.935 -13.697  1.00  0.00     0.049 A 
ATOM     48  N   UNL     1       2.261  15.238 -16.410  1.00  0.00    -0.248 NA
ATOM     49  C   UNL     1      -0.022  14.815 -16.656  1.00  0.00     0.031 C 
ATOM     50  C   UNL     1       2.155  13.264 -12.396  1.00  0.00     0.029 A 
ATOM     51  N   UNL     1       3.433  14.374 -13.856  1.00  0.00    -0.354 N 
ATOM     52  C   UNL     1       1.839  15.696 -17.650  1.00  0.00     0.074 A 
ATOM     53  C   UNL     1       0.438  15.357 -17.774  1.00  0.00     0.031 C 
ATOM     54  C   UNL     1       3.388  13.350 -11.869  1.00  0.00     0.029 A 
ATOM     55  C   UNL     1       4.260  14.047 -12.808  1.00  0.00     0.049 A 
ATOM     56  H   UNL     1       3.738  14.876 -14.646  1.00  0.00     0.167 HD
ATOM     57  C   UNL     1       2.550  16.362 -18.591  1.00  0.00     0.037 A 
ATOM     58  C   UNL     1       5.576  14.276 -12.632  1.00  0.00     0.037 A 
ATOM     59  C   UNL     1       3.936  16.724 -18.455  1.00  0.00     0.049 A 
ATOM     60  C   UNL     1       6.342  15.014 -13.697  1.00  0.00     0.074 A 
ATOM     61  C   UNL     1       4.732  17.439 -19.333  1.00  0.00     0.029 A 
ATOM     62  N   UNL     1       4.732  16.401 -17.365  1.00  0.00    -0.354 N 
ATOM     63  N   UNL     1       5.918  15.493 -14.841  1.00  0.00    -0.248 NA
ATOM     64  C   UNL     1       7.771  15.248 -13.443  1.00  0.00     0.031 C 
ATOM     65  C   UNL     1       6.019  17.518 -18.791  1.00  0.00     0.029 A 
ATOM     66  C   UNL     1       6.013  16.892 -17.555  1.00  0.00     0.049 A 
ATOM     67  H   UNL     1       4.431  15.898 -16.575  1.00  0.00     0.167 HD
ATOM     68  C   UNL     1       7.014  16.113 -15.425  1.00  0.00     0.074 A 
ATOM     69  C   UNL     1       8.121  15.959 -14.505  1.00  0.00     0.031 C 
ATOM     70  C   UNL     1       7.097  16.750 -16.618  1.00  0.00     0.037 A 
BRANCH  57  71
ATOM     71  C   UNL     1       1.837  16.756 -19.851  1.00  0.00     0.064 A 
ATOM     72  C   UNL     1       0.869  17.772 -19.857  1.00  0.00     0.173 A 
ATOM     73  C   UNL     1       2.158  16.148 -21.074  1.00  0.00     0.173 A 
ATOM     74  F   UNL     1       0.518  18.376 -18.711  1.00  0.00    -0.203 F 
ATOM     75  C   UNL     1       0.233  18.148 -21.036  1.00  0.00     0.198 A 
ATOM     76  C   UNL     1       1.540  16.547 -22.256  1.00  0.00     0.198 A 
ATOM     77  F   UNL     1       3.081  15.175 -21.124  1.00  0.00    -0.203 F 
ATOM     78  F   UNL     1      -0.719  19.091 -21.010  1.00  0.00    -0.200 F 
ATOM     79  C   UNL     1       0.574  17.541 -22.235  1.00  0.00     0.200 A 
ATOM     80  F   UNL     1       1.880  15.968 -23.416  1.00  0.00    -0.200 F 
ATOM     81  F   UNL     1      -0.032  17.913 -23.372  1.00  0.00    -0.200 F 
ENDBRANCH  57  71
BRANCH  58  82
ATOM     82  C   UNL     1       6.255  13.823 -11.390  1.00  0.00     0.064 A 
ATOM     83  C   UNL     1       6.720  14.750 -10.446  1.00  0.00     0.173 A 
ATOM     84  C   UNL     1       6.476  12.463 -11.132  1.00  0.00     0.173 A 
ATOM     85  F   UNL     1       6.551  16.063 -10.659  1.00  0.00    -0.203 F 
ATOM     86  C   UNL     1       7.405  14.335  -9.306  1.00  0.00     0.198 A 
ATOM     87  C   UNL     1       7.136  12.047  -9.977  1.00  0.00     0.198 A 
ATOM     88  F   UNL     1       6.048  11.535 -12.000  1.00  0.00    -0.203 F 
ATOM     89  F   UNL     1       7.886  15.245  -8.448  1.00  0.00    -0.200 F 
ATOM     90  C   UNL     1       7.609  12.984  -9.070  1.00  0.00     0.200 A 
ATOM     91  F   UNL     1       7.321  10.740  -9.746  1.00  0.00    -0.200 F 
ATOM     92  F   UNL     1       8.271  12.586  -7.975  1.00  0.00    -0.200 F 
ENDBRANCH  58  82
BRANCH  70  93
ATOM     93  C   UNL     1       8.413  17.375 -16.976  1.00  0.00     0.064 A 
ATOM     94  C   UNL     1       9.520  16.599 -17.350  1.00  0.00     0.173 A 
ATOM     95  C   UNL     1       8.553  18.771 -16.989  1.00  0.00     0.173 A 
ATOM     96  F   UNL     1       9.440  15.259 -17.338  1.00  0.00    -0.203 F 
ATOM     97  C   UNL     1      10.726  17.198 -17.702  1.00  0.00     0.198 A 
ATOM     98  C   UNL     1       9.752  19.367 -17.370  1.00  0.00     0.198 A 
ATOM     99  F   UNL     1       7.521  19.557 -16.647  1.00  0.00    -0.203 F 
ATOM    100  F   UNL     1      11.784  16.436 -18.013  1.00  0.00    -0.200 F 
ATOM    101  C   UNL     1      10.839  18.580 -17.719  1.00  0.00     0.200 A 
ATOM    102  F   UNL     1       9.855  20.703 -17.398  1.00  0.00    -0.200 F 
ATOM    103  F   UNL     1      11.998  19.155 -18.067  1.00  0.00    -0.200 F 
ENDBRANCH  70  93
ENDBRANCH  44  45
ENDBRANCH  36  39
ENDBRANCH  34  35
ENDBRANCH  33  34
ENDBRANCH  32  33
ENDBRANCH  31  32
ENDBRANCH  29  31
ENDBRANCH   1  27
TORSDOF 20
