REMARK SMILES Cc1nsc(N(C)C(=O)Nc2cccc(Cl)c2)c1C(=O)NCCCCNC(=O)c1ccc(-c2c3nc(c(-c4c(F)c(F)c(F)c(F)c4F)c4ccc([nH]4)c(-c4c(F)c(F)c(F)c(F)c4F)c4nc(c(-c5c(F)c(F)c(F)c(F)c5F)c5ccc2[nH]5)C=C4)C=C3)cc1
REMARK SMILES IDX 23 1 22 2 21 3 19 4 20 5 18 7 1 8 2 9 3 10 4 11 5 12 6 13
REMARK SMILES IDX 7 14 8 15 9 16 10 17 11 19 12 20 17 21 13 22 15 23 14 24
REMARK SMILES IDX 16 25 24 26 25 27 26 28 27 29 28 31 29 32 30 33 91 34 31 35
REMARK SMILES IDX 90 36 32 37 33 38 34 39 84 40 35 41 89 42 83 43 85 44 36 45
REMARK SMILES IDX 88 46 82 47 81 48 37 50 69 51 49 52 68 53 50 54 53 55 67 56
REMARK SMILES IDX 86 57 51 58 52 59 66 61 87 62 54 63 38 64 39 65 47 66 40 67
REMARK SMILES IDX 41 68 45 69 48 70 42 71 43 72 46 73 44 74 70 75 71 76 79 77
REMARK SMILES IDX 72 78 73 79 77 80 80 81 74 82 75 83 78 84 76 85 55 86 56 87
REMARK SMILES IDX 64 88 57 89 58 90 62 91 65 92 59 93 60 94 63 95 61 96
REMARK H PARENT 21 6 10 18 26 30 85 49 53 60
REMARK Flexibility Score: inf
ROOT
ATOM      1  C   UNL     1       3.223   2.397   0.513  1.00  0.00     0.023 C 
ENDROOT
BRANCH   1   2
ATOM      2  C   UNL     1       1.871   1.787   0.135  1.00  0.00     0.116 C 
BRANCH   2   3
ATOM      3  N   UNL     1       0.890   2.600  -0.552  1.00  0.00    -0.352 N 
ATOM      4  C   UNL     1      -0.133   2.192  -1.403  1.00  0.00     0.256 C 
ATOM      5  O   UNL     1      -1.116   2.929  -1.506  1.00  0.00    -0.269 OA
ATOM      6  H   UNL     1       0.955   3.570  -0.397  1.00  0.00     0.163 HD
BRANCH   4   7
ATOM      7  C   UNL     1      -0.069   0.915  -2.126  1.00  0.00     0.097 A 
ATOM      8  C   UNL     1       0.134  -0.770  -0.058  1.00  0.00     0.069 C 
ATOM      9  C   UNL     1       0.036  -0.410  -1.502  1.00  0.00     0.066 A 
ATOM     10  N   UNL     1       0.028  -1.455  -2.320  1.00  0.00    -0.195 NA
ATOM     11  S   UNL     1      -0.259  -0.946  -3.834  1.00  0.00    -0.017 S 
ATOM     12  C   UNL     1      -0.238   0.756  -3.519  1.00  0.00     0.133 A 
BRANCH  12  13
ATOM     13  N   UNL     1      -0.403   1.593  -4.676  1.00  0.00    -0.286 N 
ATOM     14  C   UNL     1      -0.498   0.987  -6.019  1.00  0.00     0.156 C 
BRANCH  13  15
ATOM     15  C   UNL     1      -0.237   2.966  -4.544  1.00  0.00     0.326 C 
ATOM     16  O   UNL     1       0.462   3.478  -3.663  1.00  0.00    -0.248 OA
ATOM     17  N   UNL     1      -0.676   3.848  -5.497  1.00  0.00    -0.307 N 
ATOM     18  H   UNL     1      -0.344   4.762  -5.341  1.00  0.00     0.171 HD
BRANCH  17  19
ATOM     19  C   UNL     1      -1.484   3.763  -6.643  1.00  0.00     0.044 A 
ATOM     20  C   UNL     1      -2.605   2.939  -6.758  1.00  0.00     0.026 A 
ATOM     21  C   UNL     1      -1.050   4.490  -7.759  1.00  0.00     0.046 A 
ATOM     22  C   UNL     1      -3.190   2.724  -8.013  1.00  0.00     0.004 A 
ATOM     23  C   UNL     1      -1.623   4.256  -9.009  1.00  0.00     0.043 A 
ATOM     24  C   UNL     1      -2.675   3.356  -9.146  1.00  0.00     0.020 A 
ATOM     25  Cl  UNL     1      -0.968   5.027 -10.402  1.00  0.00    -0.084 Cl
ENDBRANCH  17  19
ENDBRANCH  13  15
ENDBRANCH  12  13
ENDBRANCH   4   7
ENDBRANCH   2   3
ENDBRANCH   1   2
BRANCH   1  26
ATOM     26  C   UNL     1       3.276   3.677   1.347  1.00  0.00     0.023 C 
BRANCH  26  27
ATOM     27  C   UNL     1       2.416   3.702   2.599  1.00  0.00     0.116 C 
BRANCH  27  28
ATOM     28  N   UNL     1       2.833   2.784   3.656  1.00  0.00    -0.352 N 
ATOM     29  C   UNL     1       2.380   2.762   4.970  1.00  0.00     0.251 C 
ATOM     30  H   UNL     1       3.507   2.110   3.412  1.00  0.00     0.163 HD
ATOM     31  O   UNL     1       2.996   2.184   5.845  1.00  0.00    -0.269 OA
BRANCH  29  32
ATOM     32  C   UNL     1       1.116   3.465   5.288  1.00  0.00     0.039 A 
ATOM     33  C   UNL     1       0.978   4.233   6.448  1.00  0.00     0.014 A 
ATOM     34  C   UNL     1       0.066   3.365   4.378  1.00  0.00     0.014 A 
ATOM     35  C   UNL     1      -0.191   4.972   6.631  1.00  0.00     0.010 A 
ATOM     36  C   UNL     1      -1.020   4.197   4.485  1.00  0.00     0.010 A 
ATOM     37  C   UNL     1      -1.177   4.968   5.629  1.00  0.00    -0.014 A 
BRANCH  37  38
ATOM     38  C   UNL     1      -2.318   5.876   5.694  1.00  0.00     0.031 A 
ATOM     39  C   UNL     1      -1.941   7.314   5.776  1.00  0.00     0.074 A 
ATOM     40  C   UNL     1      -3.590   5.478   5.463  1.00  0.00     0.049 A 
ATOM     41  N   UNL     1      -2.144   8.123   6.761  1.00  0.00    -0.248 NA
ATOM     42  C   UNL     1      -1.117   7.891   4.699  1.00  0.00     0.031 C 
ATOM     43  C   UNL     1      -4.062   4.154   5.043  1.00  0.00     0.029 A 
ATOM     44  N   UNL     1      -4.737   6.213   5.455  1.00  0.00    -0.354 N 
ATOM     45  C   UNL     1      -1.652   9.363   6.357  1.00  0.00     0.074 A 
ATOM     46  C   UNL     1      -0.875   9.116   5.171  1.00  0.00     0.031 C 
ATOM     47  C   UNL     1      -5.335   4.244   4.599  1.00  0.00     0.029 A 
ATOM     48  C   UNL     1      -5.825   5.585   4.853  1.00  0.00     0.049 A 
ATOM     49  H   UNL     1      -4.792   7.116   5.843  1.00  0.00     0.167 HD
ATOM     50  C   UNL     1      -2.139  10.513   6.903  1.00  0.00     0.037 A 
ATOM     51  C   UNL     1      -7.029   6.143   4.562  1.00  0.00     0.037 A 
ATOM     52  C   UNL     1      -2.878  10.224   8.108  1.00  0.00     0.049 A 
ATOM     53  C   UNL     1      -7.152   7.374   5.380  1.00  0.00     0.074 A 
ATOM     54  C   UNL     1      -2.573   9.659   9.330  1.00  0.00     0.029 A 
ATOM     55  N   UNL     1      -4.246  10.183   8.007  1.00  0.00    -0.354 N 
ATOM     56  N   UNL     1      -7.292   7.374   6.675  1.00  0.00    -0.248 NA
ATOM     57  C   UNL     1      -6.664   8.616   4.802  1.00  0.00     0.031 C 
ATOM     58  C   UNL     1      -3.721   8.887   9.677  1.00  0.00     0.029 A 
ATOM     59  C   UNL     1      -4.692   9.088   8.696  1.00  0.00     0.049 A 
ATOM     60  H   UNL     1      -4.809  10.830   7.523  1.00  0.00     0.167 HD
ATOM     61  C   UNL     1      -6.484   8.412   7.108  1.00  0.00     0.074 A 
ATOM     62  C   UNL     1      -6.205   9.203   5.911  1.00  0.00     0.031 C 
ATOM     63  C   UNL     1      -5.880   8.355   8.332  1.00  0.00     0.037 A 
BRANCH  50  64
ATOM     64  C   UNL     1      -2.319  11.825   6.168  1.00  0.00     0.064 A 
ATOM     65  C   UNL     1      -2.819  12.936   6.883  1.00  0.00     0.173 A 
ATOM     66  C   UNL     1      -2.339  11.958   4.763  1.00  0.00     0.173 A 
ATOM     67  F   UNL     1      -2.849  12.930   8.225  1.00  0.00    -0.203 F 
ATOM     68  C   UNL     1      -3.397  14.034   6.241  1.00  0.00     0.198 A 
ATOM     69  C   UNL     1      -2.869  13.080   4.126  1.00  0.00     0.198 A 
ATOM     70  F   UNL     1      -1.955  10.974   3.944  1.00  0.00    -0.203 F 
ATOM     71  F   UNL     1      -3.990  14.992   6.967  1.00  0.00    -0.200 F 
ATOM     72  C   UNL     1      -3.433  14.099   4.862  1.00  0.00     0.200 A 
ATOM     73  F   UNL     1      -2.907  13.118   2.787  1.00  0.00    -0.200 F 
ATOM     74  F   UNL     1      -4.050  15.114   4.243  1.00  0.00    -0.200 F 
ENDBRANCH  50  64
BRANCH  51  75
ATOM     75  C   UNL     1      -7.968   5.862   3.447  1.00  0.00     0.064 A 
ATOM     76  C   UNL     1      -9.289   6.344   3.479  1.00  0.00     0.173 A 
ATOM     77  C   UNL     1      -7.506   5.391   2.204  1.00  0.00     0.173 A 
ATOM     78  F   UNL     1      -9.798   6.845   4.614  1.00  0.00    -0.203 F 
ATOM     79  C   UNL     1     -10.082   6.395   2.328  1.00  0.00     0.198 A 
ATOM     80  C   UNL     1      -8.301   5.437   1.057  1.00  0.00     0.198 A 
ATOM     81  F   UNL     1      -6.241   4.972   2.057  1.00  0.00    -0.203 F 
ATOM     82  F   UNL     1     -11.309   6.933   2.384  1.00  0.00    -0.200 F 
ATOM     83  C   UNL     1      -9.582   5.956   1.114  1.00  0.00     0.200 A 
ATOM     84  F   UNL     1      -7.794   5.042  -0.120  1.00  0.00    -0.200 F 
ATOM     85  F   UNL     1     -10.313   6.073  -0.003  1.00  0.00    -0.200 F 
ENDBRANCH  51  75
BRANCH  63  86
ATOM     86  C   UNL     1      -6.365   7.313   9.302  1.00  0.00     0.064 A 
ATOM     87  C   UNL     1      -6.321   5.925   9.079  1.00  0.00     0.173 A 
ATOM     88  C   UNL     1      -6.793   7.747  10.564  1.00  0.00     0.173 A 
ATOM     89  F   UNL     1      -5.828   5.420   7.941  1.00  0.00    -0.203 F 
ATOM     90  C   UNL     1      -6.743   5.023  10.055  1.00  0.00     0.198 A 
ATOM     91  C   UNL     1      -7.172   6.843  11.551  1.00  0.00     0.198 A 
ATOM     92  F   UNL     1      -6.807   9.058  10.855  1.00  0.00    -0.203 F 
ATOM     93  F   UNL     1      -6.717   3.704   9.808  1.00  0.00    -0.200 F 
ATOM     94  C   UNL     1      -7.162   5.483  11.292  1.00  0.00     0.200 A 
ATOM     95  F   UNL     1      -7.527   7.293  12.762  1.00  0.00    -0.200 F 
ATOM     96  F   UNL     1      -7.535   4.615  12.243  1.00  0.00    -0.200 F 
ENDBRANCH  63  86
ENDBRANCH  37  38
ENDBRANCH  29  32
ENDBRANCH  27  28
ENDBRANCH  26  27
ENDBRANCH   1  26
TORSDOF 14
