REMARK SMILES C[C@H](C(=O)NCCCCNC(=O)c1ccc(-c2c3nc(c(-c4c(F)c(F)c(F)c(F)c4F)c4ccc([nH]4)c(-c4c(F)c(F)c(F)c(F)c4F)c4nc(c(-c5c(F)c(F)c(F)c(F)c5F)c5ccc2[nH]5)C=C4)C=C3)cc1)c1cccc(C(=O)c2ccccc2)c1
REMARK SMILES IDX 7 1 6 2 5 3 3 4 4 5 2 7 1 8 76 9 77 10 89 11 78 12 80 13
REMARK SMILES IDX 79 14 81 15 82 16 83 17 84 18 88 19 85 20 87 21 86 22 8 23
REMARK SMILES IDX 9 24 10 25 11 26 12 28 13 29 14 30 75 31 15 32 74 33 16 34
REMARK SMILES IDX 17 35 18 36 68 37 19 38 73 39 67 40 69 41 20 42 72 43 66 44
REMARK SMILES IDX 65 45 21 47 53 48 33 49 52 50 34 51 37 52 51 53 70 54 35 55
REMARK SMILES IDX 36 56 50 58 71 59 38 60 22 61 23 62 31 63 24 64 25 65 29 66
REMARK SMILES IDX 32 67 26 68 27 69 30 70 28 71 54 72 55 73 63 74 56 75 57 76
REMARK SMILES IDX 61 77 64 78 58 79 59 80 62 81 60 82 39 83 40 84 48 85 41 86
REMARK SMILES IDX 42 87 46 88 49 89 43 90 44 91 47 92 45 93
REMARK H PARENT 5 6 10 27 69 46 37 57
REMARK Flexibility Score: inf
ROOT
ATOM      1  C   UNL     1      -0.269  -2.882   0.214  1.00  0.00     0.023 C 
ENDROOT
BRANCH   1   2
ATOM      2  C   UNL     1       1.019  -2.140   0.555  1.00  0.00     0.116 C 
BRANCH   2   3
ATOM      3  N   UNL     1       1.193  -0.993  -0.309  1.00  0.00    -0.356 N 
ATOM      4  C   UNL     1       0.877   0.318  -0.095  1.00  0.00     0.227 C 
ATOM      5  O   UNL     1       0.989   1.087  -1.053  1.00  0.00    -0.274 OA
ATOM      6  H   UNL     1       1.600  -1.187  -1.185  1.00  0.00     0.163 HD
BRANCH   4   7
ATOM      7  C   UNL     1       0.426   0.801   1.295  1.00  0.00     0.105 C 
ATOM      8  C   UNL     1       1.150   2.126   1.586  1.00  0.00     0.023 C 
BRANCH   7   9
ATOM      9  C   UNL     1      -1.097   0.878   1.407  1.00  0.00    -0.035 A 
ATOM     10  C   UNL     1      -1.807   2.058   1.149  1.00  0.00     0.004 A 
ATOM     11  C   UNL     1      -1.836  -0.279   1.732  1.00  0.00     0.016 A 
ATOM     12  C   UNL     1      -3.202   2.080   1.208  1.00  0.00     0.001 A 
ATOM     13  C   UNL     1      -3.239  -0.289   1.720  1.00  0.00     0.023 A 
ATOM     14  C   UNL     1      -3.913   0.911   1.475  1.00  0.00     0.012 A 
BRANCH  13  15
ATOM     15  C   UNL     1      -4.061  -1.532   1.853  1.00  0.00     0.193 C 
ATOM     16  O   UNL     1      -5.282  -1.476   1.713  1.00  0.00    -0.289 OA
BRANCH  15  17
ATOM     17  C   UNL     1      -3.471  -2.872   2.053  1.00  0.00     0.022 A 
ATOM     18  C   UNL     1      -3.763  -3.872   1.114  1.00  0.00     0.012 A 
ATOM     19  C   UNL     1      -2.707  -3.174   3.184  1.00  0.00     0.012 A 
ATOM     20  C   UNL     1      -3.262  -5.162   1.289  1.00  0.00     0.001 A 
ATOM     21  C   UNL     1      -2.208  -4.469   3.354  1.00  0.00     0.001 A 
ATOM     22  C   UNL     1      -2.484  -5.459   2.408  1.00  0.00     0.000 A 
ENDBRANCH  15  17
ENDBRANCH  13  15
ENDBRANCH   7   9
ENDBRANCH   4   7
ENDBRANCH   2   3
ENDBRANCH   1   2
BRANCH   1  23
ATOM     23  C   UNL     1      -0.179  -3.841  -0.962  1.00  0.00     0.023 C 
BRANCH  23  24
ATOM     24  C   UNL     1       0.792  -4.992  -0.764  1.00  0.00     0.116 C 
BRANCH  24  25
ATOM     25  N   UNL     1       0.523  -5.787   0.428  1.00  0.00    -0.352 N 
ATOM     26  C   UNL     1       0.459  -7.155   0.560  1.00  0.00     0.251 C 
ATOM     27  H   UNL     1       0.366  -5.274   1.254  1.00  0.00     0.163 HD
ATOM     28  O   UNL     1       0.128  -7.670   1.619  1.00  0.00    -0.269 OA
BRANCH  26  29
ATOM     29  C   UNL     1       0.753  -7.995  -0.616  1.00  0.00     0.039 A 
ATOM     30  C   UNL     1      -0.148  -8.999  -0.975  1.00  0.00     0.014 A 
ATOM     31  C   UNL     1       1.879  -7.733  -1.398  1.00  0.00     0.014 A 
ATOM     32  C   UNL     1       0.041  -9.692  -2.171  1.00  0.00     0.010 A 
ATOM     33  C   UNL     1       2.010  -8.351  -2.632  1.00  0.00     0.010 A 
ATOM     34  C   UNL     1       1.097  -9.342  -3.026  1.00  0.00    -0.014 A 
BRANCH  34  35
ATOM     35  C   UNL     1       1.312 -10.018  -4.327  1.00  0.00     0.031 A 
ATOM     36  C   UNL     1       2.590 -10.774  -4.554  1.00  0.00     0.074 A 
ATOM     37  C   UNL     1       0.420  -9.866  -5.324  1.00  0.00     0.049 A 
ATOM     38  N   UNL     1       3.066 -11.291  -5.657  1.00  0.00    -0.248 NA
ATOM     39  C   UNL     1       3.477 -10.925  -3.389  1.00  0.00     0.031 C 
ATOM     40  C   UNL     1      -0.832  -9.112  -5.236  1.00  0.00     0.029 A 
ATOM     41  N   UNL     1       0.443 -10.322  -6.618  1.00  0.00    -0.354 N 
ATOM     42  C   UNL     1       4.318 -11.790  -5.326  1.00  0.00     0.074 A 
ATOM     43  C   UNL     1       4.553 -11.466  -3.937  1.00  0.00     0.031 C 
ATOM     44  C   UNL     1      -1.466  -9.174  -6.419  1.00  0.00     0.029 A 
ATOM     45  C   UNL     1      -0.648  -9.935  -7.357  1.00  0.00     0.049 A 
ATOM     46  H   UNL     1       1.172 -10.874  -6.981  1.00  0.00     0.167 HD
ATOM     47  C   UNL     1       5.184 -12.479  -6.106  1.00  0.00     0.037 A 
ATOM     48  C   UNL     1      -0.943 -10.163  -8.651  1.00  0.00     0.037 A 
ATOM     49  C   UNL     1       4.916 -12.844  -7.470  1.00  0.00     0.049 A 
ATOM     50  C   UNL     1       0.019 -10.961  -9.488  1.00  0.00     0.074 A 
ATOM     51  C   UNL     1       5.687 -13.605  -8.329  1.00  0.00     0.029 A 
ATOM     52  N   UNL     1       3.776 -12.476  -8.171  1.00  0.00    -0.354 N 
ATOM     53  N   UNL     1       1.178 -11.475  -9.153  1.00  0.00    -0.248 NA
ATOM     54  C   UNL     1      -0.368 -11.213 -10.883  1.00  0.00     0.031 C 
ATOM     55  C   UNL     1       5.029 -13.672  -9.561  1.00  0.00     0.029 A 
ATOM     56  C   UNL     1       3.828 -12.987  -9.457  1.00  0.00     0.049 A 
ATOM     57  H   UNL     1       3.039 -11.934  -7.808  1.00  0.00     0.167 HD
ATOM     58  C   UNL     1       1.646 -12.132 -10.283  1.00  0.00     0.074 A 
ATOM     59  C   UNL     1       0.638 -11.963 -11.310  1.00  0.00     0.031 C 
ATOM     60  C   UNL     1       2.806 -12.812 -10.457  1.00  0.00     0.037 A 
BRANCH  47  61
ATOM     61  C   UNL     1       6.493 -12.885  -5.493  1.00  0.00     0.064 A 
ATOM     62  C   UNL     1       6.564 -13.855  -4.482  1.00  0.00     0.173 A 
ATOM     63  C   UNL     1       7.692 -12.301  -5.926  1.00  0.00     0.173 A 
ATOM     64  F   UNL     1       5.444 -14.432  -4.019  1.00  0.00    -0.203 F 
ATOM     65  C   UNL     1       7.782 -14.198  -3.901  1.00  0.00     0.198 A 
ATOM     66  C   UNL     1       8.913 -12.671  -5.366  1.00  0.00     0.198 A 
ATOM     67  F   UNL     1       7.682 -11.370  -6.892  1.00  0.00    -0.203 F 
ATOM     68  F   UNL     1       7.816 -15.081  -2.893  1.00  0.00    -0.200 F 
ATOM     69  C   UNL     1       8.955 -13.610  -4.347  1.00  0.00     0.200 A 
ATOM     70  F   UNL     1      10.047 -12.109  -5.806  1.00  0.00    -0.200 F 
ATOM     71  F   UNL     1      10.127 -13.942  -3.788  1.00  0.00    -0.200 F 
ENDBRANCH  47  61
BRANCH  48  72
ATOM     72  C   UNL     1      -2.218  -9.658  -9.222  1.00  0.00     0.064 A 
ATOM     73  C   UNL     1      -3.256 -10.543  -9.547  1.00  0.00     0.173 A 
ATOM     74  C   UNL     1      -2.432  -8.291  -9.448  1.00  0.00     0.173 A 
ATOM     75  F   UNL     1      -3.091 -11.861  -9.367  1.00  0.00    -0.203 F 
ATOM     76  C   UNL     1      -4.452 -10.082 -10.092  1.00  0.00     0.198 A 
ATOM     77  C   UNL     1      -3.639  -7.828  -9.970  1.00  0.00     0.198 A 
ATOM     78  F   UNL     1      -1.474  -7.402  -9.148  1.00  0.00    -0.203 F 
ATOM     79  F   UNL     1      -5.412 -10.954 -10.430  1.00  0.00    -0.200 F 
ATOM     80  C   UNL     1      -4.646  -8.724 -10.297  1.00  0.00     0.200 A 
ATOM     81  F   UNL     1      -3.827  -6.514 -10.154  1.00  0.00    -0.200 F 
ATOM     82  F   UNL     1      -5.798  -8.281 -10.817  1.00  0.00    -0.200 F 
ENDBRANCH  48  72
BRANCH  60  83
ATOM     83  C   UNL     1       3.030 -13.451 -11.795  1.00  0.00     0.064 A 
ATOM     84  C   UNL     1       3.351 -12.689 -12.927  1.00  0.00     0.173 A 
ATOM     85  C   UNL     1       2.970 -14.845 -11.932  1.00  0.00     0.173 A 
ATOM     86  F   UNL     1       3.406 -11.351 -12.847  1.00  0.00    -0.203 F 
ATOM     87  C   UNL     1       3.584 -13.300 -14.155  1.00  0.00     0.198 A 
ATOM     88  C   UNL     1       3.230 -15.455 -13.156  1.00  0.00     0.198 A 
ATOM     89  F   UNL     1       2.674 -15.617 -10.876  1.00  0.00    -0.203 F 
ATOM     90  F   UNL     1       3.849 -12.551 -15.235  1.00  0.00    -0.200 F 
ATOM     91  C   UNL     1       3.531 -14.682 -14.267  1.00  0.00     0.200 A 
ATOM     92  F   UNL     1       3.191 -16.790 -13.259  1.00  0.00    -0.200 F 
ATOM     93  F   UNL     1       3.764 -15.268 -15.449  1.00  0.00    -0.200 F 
ENDBRANCH  60  83
ENDBRANCH  34  35
ENDBRANCH  26  29
ENDBRANCH  24  25
ENDBRANCH  23  24
ENDBRANCH   1  23
TORSDOF 14
