REMARK SMILES O=C(NCCCCNC(=O)c1nc(/N=C/c2cccc([N+](=O)[O-])c2)n[nH]1)c1ccc(-c2c3nc(c(-c4c(F)c(F)c(F)c(F)c4F)c4ccc([nH]4)c(-c4c(F)c(F)c(F)c(F)c4F)c4nc(c(-c5c(F)c(F)c(F)c(F)c5F)c5ccc2[nH]5)C=C4)C=C3)cc1
REMARK SMILES IDX 6 1 5 2 4 3 3 4 1 5 2 6 27 8 28 9 89 10 29 11 88 12 30 13
REMARK SMILES IDX 31 14 32 15 82 16 33 17 87 18 81 19 83 20 34 21 86 22 80 23
REMARK SMILES IDX 79 24 35 26 67 27 47 28 66 29 48 30 51 31 65 32 84 33 49 34
REMARK SMILES IDX 50 35 64 37 85 38 52 39 36 40 37 41 45 42 38 43 39 44 43 45
REMARK SMILES IDX 46 46 40 47 41 48 44 49 42 50 68 51 69 52 77 53 70 54 71 55
REMARK SMILES IDX 75 56 78 57 72 58 73 59 76 60 74 61 53 62 54 63 62 64 55 65
REMARK SMILES IDX 56 66 60 67 63 68 57 69 58 70 61 71 59 72 7 73 8 74 9 75
REMARK SMILES IDX 10 77 11 78 12 79 26 80 13 81 25 82 14 84 15 85 16 86 17 87
REMARK SMILES IDX 24 88 18 89 20 90 19 91 21 92 22 93 23 94
REMARK H PARENT 3 7 83 25 51 36 8 76 26 83
REMARK Flexibility Score: inf
ROOT
ATOM      1  C   UNL     1       4.312  -3.815  -0.660  1.00  0.00     0.023 C 
ENDROOT
BRANCH   1   2
ATOM      2  C   UNL     1       4.791  -2.620   0.158  1.00  0.00     0.023 C 
BRANCH   2   3
ATOM      3  C   UNL     1       4.455  -1.259  -0.437  1.00  0.00     0.116 C 
BRANCH   3   4
ATOM      4  N   UNL     1       3.024  -1.024  -0.569  1.00  0.00    -0.352 N 
ATOM      5  O   UNL     1       1.042  -0.006  -0.201  1.00  0.00    -0.269 OA
ATOM      6  C   UNL     1       2.264   0.021  -0.099  1.00  0.00     0.251 C 
ATOM      7  H   UNL     1       2.529  -1.714  -1.067  1.00  0.00     0.163 HD
BRANCH   6   8
ATOM      8  C   UNL     1       2.924   1.163   0.571  1.00  0.00     0.039 A 
ATOM      9  C   UNL     1       4.084   1.724   0.039  1.00  0.00     0.014 A 
ATOM     10  C   UNL     1       2.396   1.649   1.770  1.00  0.00     0.014 A 
ATOM     11  C   UNL     1       4.821   2.625   0.797  1.00  0.00     0.010 A 
ATOM     12  C   UNL     1       3.083   2.638   2.479  1.00  0.00     0.010 A 
ATOM     13  C   UNL     1       4.330   3.096   2.026  1.00  0.00    -0.014 A 
BRANCH  13  14
ATOM     14  C   UNL     1       5.136   4.076   2.801  1.00  0.00     0.031 A 
ATOM     15  C   UNL     1       5.667   3.740   4.169  1.00  0.00     0.074 A 
ATOM     16  C   UNL     1       5.425   5.267   2.242  1.00  0.00     0.049 A 
ATOM     17  N   UNL     1       6.421   4.462   4.963  1.00  0.00    -0.248 NA
ATOM     18  C   UNL     1       5.301   2.429   4.725  1.00  0.00     0.031 C 
ATOM     19  C   UNL     1       4.963   5.711   0.925  1.00  0.00     0.029 A 
ATOM     20  N   UNL     1       6.191   6.311   2.693  1.00  0.00    -0.354 N 
ATOM     21  C   UNL     1       6.595   3.707   6.117  1.00  0.00     0.074 A 
ATOM     22  C   UNL     1       5.845   2.483   5.933  1.00  0.00     0.031 C 
ATOM     23  C   UNL     1       5.500   6.908   0.651  1.00  0.00     0.029 A 
ATOM     24  C   UNL     1       6.287   7.347   1.798  1.00  0.00     0.049 A 
ATOM     25  H   UNL     1       6.630   6.316   3.574  1.00  0.00     0.167 HD
ATOM     26  C   UNL     1       7.320   4.005   7.223  1.00  0.00     0.037 A 
ATOM     27  C   UNL     1       6.925   8.527   1.892  1.00  0.00     0.037 A 
ATOM     28  C   UNL     1       8.080   5.219   7.392  1.00  0.00     0.049 A 
ATOM     29  C   UNL     1       7.698   8.841   3.142  1.00  0.00     0.074 A 
ATOM     30  C   UNL     1       8.883   5.594   8.456  1.00  0.00     0.029 A 
ATOM     31  N   UNL     1       8.123   6.262   6.476  1.00  0.00    -0.354 N 
ATOM     32  N   UNL     1       7.892   8.100   4.205  1.00  0.00    -0.248 NA
ATOM     33  C   UNL     1       8.342  10.159   3.200  1.00  0.00     0.031 C 
ATOM     34  C   UNL     1       9.359   6.887   8.213  1.00  0.00     0.029 A 
ATOM     35  C   UNL     1       8.914   7.291   6.965  1.00  0.00     0.049 A 
ATOM     36  H   UNL     1       7.659   6.269   5.608  1.00  0.00     0.167 HD
ATOM     37  C   UNL     1       8.710   8.845   5.043  1.00  0.00     0.074 A 
ATOM     38  C   UNL     1       8.985  10.090   4.357  1.00  0.00     0.031 C 
ATOM     39  C   UNL     1       9.193   8.522   6.269  1.00  0.00     0.037 A 
BRANCH  26  40
ATOM     40  C   UNL     1       7.305   3.017   8.357  1.00  0.00     0.064 A 
ATOM     41  C   UNL     1       7.923   1.760   8.259  1.00  0.00     0.173 A 
ATOM     42  C   UNL     1       6.693   3.349   9.577  1.00  0.00     0.173 A 
ATOM     43  F   UNL     1       8.516   1.386   7.116  1.00  0.00    -0.203 F 
ATOM     44  C   UNL     1       7.897   0.863   9.325  1.00  0.00     0.198 A 
ATOM     45  C   UNL     1       6.700   2.463  10.651  1.00  0.00     0.198 A 
ATOM     46  F   UNL     1       6.096   4.541   9.731  1.00  0.00    -0.203 F 
ATOM     47  F   UNL     1       8.445  -0.353   9.188  1.00  0.00    -0.200 F 
ATOM     48  C   UNL     1       7.292   1.217  10.522  1.00  0.00     0.200 A 
ATOM     49  F   UNL     1       6.130   2.816  11.812  1.00  0.00    -0.200 F 
ATOM     50  F   UNL     1       7.274   0.355  11.547  1.00  0.00    -0.200 F 
ENDBRANCH  26  40
BRANCH  27  51
ATOM     51  C   UNL     1       6.871   9.491   0.762  1.00  0.00     0.064 A 
ATOM     52  C   UNL     1       8.019   9.794   0.019  1.00  0.00     0.173 A 
ATOM     53  C   UNL     1       5.673  10.125   0.401  1.00  0.00     0.173 A 
ATOM     54  F   UNL     1       9.192   9.226   0.336  1.00  0.00    -0.203 F 
ATOM     55  C   UNL     1       7.976  10.713  -1.028  1.00  0.00     0.198 A 
ATOM     56  C   UNL     1       5.624  11.016  -0.668  1.00  0.00     0.198 A 
ATOM     57  F   UNL     1       4.543   9.863   1.075  1.00  0.00    -0.203 F 
ATOM     58  F   UNL     1       9.099  11.021  -1.691  1.00  0.00    -0.200 F 
ATOM     59  C   UNL     1       6.778  11.317  -1.375  1.00  0.00     0.200 A 
ATOM     60  F   UNL     1       4.459  11.583  -1.012  1.00  0.00    -0.200 F 
ATOM     61  F   UNL     1       6.736  12.195  -2.386  1.00  0.00    -0.200 F 
ENDBRANCH  27  51
BRANCH  39  62
ATOM     62  C   UNL     1      10.122   9.507   6.921  1.00  0.00     0.064 A 
ATOM     63  C   UNL     1       9.678  10.752   7.391  1.00  0.00     0.173 A 
ATOM     64  C   UNL     1      11.479   9.189   7.089  1.00  0.00     0.173 A 
ATOM     65  F   UNL     1       8.395  11.113   7.240  1.00  0.00    -0.203 F 
ATOM     66  C   UNL     1      10.566  11.657   7.969  1.00  0.00     0.198 A 
ATOM     67  C   UNL     1      12.355  10.080   7.702  1.00  0.00     0.198 A 
ATOM     68  F   UNL     1      11.956   8.009   6.665  1.00  0.00    -0.203 F 
ATOM     69  F   UNL     1      10.132  12.867   8.350  1.00  0.00    -0.200 F 
ATOM     70  C   UNL     1      11.901  11.318   8.130  1.00  0.00     0.200 A 
ATOM     71  F   UNL     1      13.641   9.744   7.871  1.00  0.00    -0.200 F 
ATOM     72  F   UNL     1      12.752  12.189   8.689  1.00  0.00    -0.200 F 
ENDBRANCH  39  62
ENDBRANCH  13  14
ENDBRANCH   6   8
ENDBRANCH   3   4
ENDBRANCH   2   3
ENDBRANCH   1   2
BRANCH   1  73
ATOM     73  C   UNL     1       4.763  -3.811  -2.120  1.00  0.00     0.116 C 
BRANCH  73  74
ATOM     74  N   UNL     1       6.210  -3.908  -2.235  1.00  0.00    -0.349 N 
ATOM     75  C   UNL     1       6.964  -4.958  -2.704  1.00  0.00     0.288 C 
ATOM     76  H   UNL     1       6.716  -3.117  -1.938  1.00  0.00     0.163 HD
ATOM     77  O   UNL     1       8.179  -4.941  -2.487  1.00  0.00    -0.266 OA
BRANCH  75  78
ATOM     78  C   UNL     1       6.325  -6.043  -3.398  1.00  0.00     0.216 A 
ATOM     79  N   UNL     1       5.204  -5.993  -4.092  1.00  0.00    -0.185 NA
ATOM     80  N   UNL     1       6.816  -7.313  -3.458  1.00  0.00    -0.253 N 
ATOM     81  C   UNL     1       5.017  -7.285  -4.482  1.00  0.00     0.268 A 
ATOM     82  N   UNL     1       5.976  -8.132  -4.110  1.00  0.00    -0.132 NA
ATOM     83  H   UNL     1       7.677  -7.594  -3.073  1.00  0.00     0.192 HD
BRANCH  81  84
ATOM     84  N   UNL     1       3.886  -7.773  -5.126  1.00  0.00    -0.218 NA
ATOM     85  C   UNL     1       3.360  -6.895  -5.914  1.00  0.00     0.123 C 
BRANCH  85  86
ATOM     86  C   UNL     1       2.124  -7.196  -6.664  1.00  0.00    -0.000 A 
ATOM     87  C   UNL     1       1.752  -6.358  -7.721  1.00  0.00     0.010 A 
ATOM     88  C   UNL     1       1.340  -8.301  -6.320  1.00  0.00     0.095 A 
ATOM     89  C   UNL     1       0.599  -6.637  -8.457  1.00  0.00     0.008 A 
ATOM     90  C   UNL     1       0.179  -8.564  -7.054  1.00  0.00     0.270 A 
ATOM     91  C   UNL     1      -0.191  -7.740  -8.128  1.00  0.00     0.085 A 
BRANCH  90  92
ATOM     92  N   UNL     1      -0.665  -9.710  -6.693  1.00  0.00     0.062 N 
ATOM     93  O   UNL     1      -1.650  -9.945  -7.407  1.00  0.00    -0.258 OA
ATOM     94  O   UNL     1      -0.349 -10.368  -5.693  1.00  0.00    -0.258 OA
ENDBRANCH  90  92
ENDBRANCH  85  86
ENDBRANCH  81  84
ENDBRANCH  75  78
ENDBRANCH  73  74
ENDBRANCH   1  73
TORSDOF 14
