REMARK SMILES C/C=C/C[C@@H](C(=O)NCCCCNC(=O)c1ccc(-c2c3nc(c(-c4c(F)c(F)c(F)c(F)c4F)c4ccc([nH]4)c(-c4c(F)c(F)c(F)c(F)c4F)c4nc(c(-c5c(F)c(F)c(F)c(F)c5F)c5ccc2[nH]5)C=C4)C=C3)cc1)c1cccc(Cl)c1
REMARK SMILES IDX 10 1 9 2 8 3 6 4 7 5 5 7 4 8 3 9 1 10 2 11 79 12 80 13 85 14
REMARK SMILES IDX 81 15 83 16 82 17 84 18 11 19 12 20 13 21 14 22 15 24 16 25
REMARK SMILES IDX 17 26 78 27 18 28 77 29 19 30 20 31 21 32 71 33 22 34 76 35
REMARK SMILES IDX 70 36 72 37 23 38 75 39 69 40 68 41 24 43 56 44 36 45 55 46
REMARK SMILES IDX 37 47 40 48 54 49 73 50 38 51 39 52 53 54 74 55 41 56 25 57
REMARK SMILES IDX 26 58 34 59 27 60 28 61 32 62 35 63 29 64 30 65 33 66 31 67
REMARK SMILES IDX 57 68 58 69 66 70 59 71 60 72 64 73 67 74 61 75 62 76 65 77
REMARK SMILES IDX 63 78 42 79 43 80 51 81 44 82 45 83 49 84 52 85 46 86 47 87
REMARK SMILES IDX 50 88 48 89
REMARK H PARENT 8 6 13 23 72 42 40 53
REMARK Flexibility Score: inf
ROOT
ATOM      1  C   UNL     1      -0.372  -2.486   0.151  1.00  0.00     0.023 C 
ENDROOT
BRANCH   1   2
ATOM      2  C   UNL     1       0.356  -3.173  -1.009  1.00  0.00     0.116 C 
BRANCH   2   3
ATOM      3  N   UNL     1      -0.624  -3.776  -1.887  1.00  0.00    -0.356 N 
ATOM      4  C   UNL     1      -1.278  -3.180  -2.931  1.00  0.00     0.227 C 
ATOM      5  O   UNL     1      -2.420  -3.580  -3.166  1.00  0.00    -0.274 OA
ATOM      6  H   UNL     1      -0.844  -4.719  -1.714  1.00  0.00     0.163 HD
BRANCH   4   7
ATOM      7  C   UNL     1      -0.555  -2.142  -3.825  1.00  0.00     0.112 C 
BRANCH   7   8
ATOM      8  C   UNL     1      -0.904  -0.685  -3.423  1.00  0.00     0.045 C 
BRANCH   8   9
ATOM      9  C   UNL     1      -0.478  -0.166  -2.079  1.00  0.00    -0.030 C 
ATOM     10  C   UNL     1       1.075   1.004  -0.496  1.00  0.00     0.035 C 
ATOM     11  C   UNL     1       0.691   0.448  -1.831  1.00  0.00    -0.035 C 
ENDBRANCH   8   9
ENDBRANCH   7   8
BRANCH   7  12
ATOM     12  C   UNL     1      -0.893  -2.436  -5.311  1.00  0.00    -0.034 A 
ATOM     13  C   UNL     1      -1.361  -1.451  -6.202  1.00  0.00     0.004 A 
ATOM     14  C   UNL     1      -0.778  -3.752  -5.805  1.00  0.00     0.025 A 
ATOM     15  C   UNL     1      -1.739  -1.769  -7.510  1.00  0.00     0.002 A 
ATOM     16  C   UNL     1      -1.179  -4.068  -7.107  1.00  0.00     0.041 A 
ATOM     17  C   UNL     1      -1.662  -3.082  -7.960  1.00  0.00     0.020 A 
ATOM     18  Cl  UNL     1      -1.100  -5.698  -7.655  1.00  0.00    -0.084 Cl
ENDBRANCH   7  12
ENDBRANCH   4   7
ENDBRANCH   2   3
ENDBRANCH   1   2
BRANCH   1  19
ATOM     19  C   UNL     1      -0.819  -3.413   1.274  1.00  0.00     0.023 C 
BRANCH  19  20
ATOM     20  C   UNL     1       0.318  -4.050   2.051  1.00  0.00     0.116 C 
BRANCH  20  21
ATOM     21  N   UNL     1       1.248  -3.084   2.618  1.00  0.00    -0.352 N 
ATOM     22  C   UNL     1       1.860  -3.091   3.848  1.00  0.00     0.251 C 
ATOM     23  H   UNL     1       1.470  -2.320   2.038  1.00  0.00     0.163 HD
ATOM     24  O   UNL     1       2.544  -2.142   4.206  1.00  0.00    -0.269 OA
BRANCH  22  25
ATOM     25  C   UNL     1       1.650  -4.242   4.751  1.00  0.00     0.039 A 
ATOM     26  C   UNL     1       1.389  -4.002   6.102  1.00  0.00     0.014 A 
ATOM     27  C   UNL     1       1.676  -5.548   4.258  1.00  0.00     0.014 A 
ATOM     28  C   UNL     1       1.096  -5.075   6.945  1.00  0.00     0.010 A 
ATOM     29  C   UNL     1       1.275  -6.599   5.069  1.00  0.00     0.010 A 
ATOM     30  C   UNL     1       1.008  -6.377   6.427  1.00  0.00    -0.014 A 
BRANCH  30  31
ATOM     31  C   UNL     1       0.695  -7.535   7.299  1.00  0.00     0.031 A 
ATOM     32  C   UNL     1       1.707  -8.637   7.459  1.00  0.00     0.074 A 
ATOM     33  C   UNL     1      -0.510  -7.624   7.892  1.00  0.00     0.049 A 
ATOM     34  N   UNL     1       1.612  -9.762   8.122  1.00  0.00    -0.248 NA
ATOM     35  C   UNL     1       2.982  -8.475   6.739  1.00  0.00     0.031 C 
ATOM     36  C   UNL     1      -1.599  -6.655   7.753  1.00  0.00     0.029 A 
ATOM     37  N   UNL     1      -1.022  -8.580   8.731  1.00  0.00    -0.354 N 
ATOM     38  C   UNL     1       2.796 -10.444   7.875  1.00  0.00     0.074 A 
ATOM     39  C   UNL     1       3.563  -9.646   6.947  1.00  0.00     0.031 C 
ATOM     40  C   UNL     1      -2.636  -7.048   8.511  1.00  0.00     0.029 A 
ATOM     41  C   UNL     1      -2.295  -8.306   9.166  1.00  0.00     0.049 A 
ATOM     42  H   UNL     1      -0.524  -9.387   8.996  1.00  0.00     0.167 HD
ATOM     43  C   UNL     1       3.225 -11.613   8.406  1.00  0.00     0.037 A 
ATOM     44  C   UNL     1      -3.089  -8.993  10.008  1.00  0.00     0.037 A 
ATOM     45  C   UNL     1       2.481 -12.375   9.371  1.00  0.00     0.049 A 
ATOM     46  C   UNL     1      -2.569 -10.264  10.625  1.00  0.00     0.074 A 
ATOM     47  C   UNL     1       2.850 -13.535  10.028  1.00  0.00     0.029 A 
ATOM     48  N   UNL     1       1.214 -12.040   9.827  1.00  0.00    -0.354 N 
ATOM     49  N   UNL     1      -1.416 -10.862  10.445  1.00  0.00    -0.248 NA
ATOM     50  C   UNL     1      -3.457 -10.946  11.576  1.00  0.00     0.031 C 
ATOM     51  C   UNL     1       1.792 -13.920  10.859  1.00  0.00     0.029 A 
ATOM     52  C   UNL     1       0.782 -12.977  10.751  1.00  0.00     0.049 A 
ATOM     53  H   UNL     1       0.698 -11.254   9.536  1.00  0.00     0.167 HD
ATOM     54  C   UNL     1      -1.429 -11.974  11.275  1.00  0.00     0.074 A 
ATOM     55  C   UNL     1      -2.696 -11.954  11.977  1.00  0.00     0.031 C 
ATOM     56  C   UNL     1      -0.481 -12.930  11.441  1.00  0.00     0.037 A 
BRANCH  43  57
ATOM     57  C   UNL     1       4.568 -12.120   7.965  1.00  0.00     0.064 A 
ATOM     58  C   UNL     1       5.755 -11.463   8.326  1.00  0.00     0.173 A 
ATOM     59  C   UNL     1       4.672 -13.276   7.179  1.00  0.00     0.173 A 
ATOM     60  F   UNL     1       5.711 -10.343   9.062  1.00  0.00    -0.203 F 
ATOM     61  C   UNL     1       6.993 -11.925   7.885  1.00  0.00     0.198 A 
ATOM     62  C   UNL     1       5.914 -13.754   6.767  1.00  0.00     0.198 A 
ATOM     63  F   UNL     1       3.569 -13.944   6.807  1.00  0.00    -0.203 F 
ATOM     64  F   UNL     1       8.107 -11.245   8.190  1.00  0.00    -0.200 F 
ATOM     65  C   UNL     1       7.072 -13.072   7.111  1.00  0.00     0.200 A 
ATOM     66  F   UNL     1       5.990 -14.869   6.028  1.00  0.00    -0.200 F 
ATOM     67  F   UNL     1       8.263 -13.516   6.688  1.00  0.00    -0.200 F 
ENDBRANCH  43  57
BRANCH  44  68
ATOM     68  C   UNL     1      -4.433  -8.468  10.363  1.00  0.00     0.064 A 
ATOM     69  C   UNL     1      -4.689  -7.965  11.646  1.00  0.00     0.173 A 
ATOM     70  C   UNL     1      -5.486  -8.463   9.437  1.00  0.00     0.173 A 
ATOM     71  F   UNL     1      -3.718  -7.966  12.571  1.00  0.00    -0.203 F 
ATOM     72  C   UNL     1      -5.955  -7.503  11.999  1.00  0.00     0.198 A 
ATOM     73  C   UNL     1      -6.744  -7.975   9.783  1.00  0.00     0.198 A 
ATOM     74  F   UNL     1      -5.289  -8.925   8.194  1.00  0.00    -0.203 F 
ATOM     75  F   UNL     1      -6.184  -7.073  13.248  1.00  0.00    -0.200 F 
ATOM     76  C   UNL     1      -6.981  -7.504  11.066  1.00  0.00     0.200 A 
ATOM     77  F   UNL     1      -7.730  -7.965   8.875  1.00  0.00    -0.200 F 
ATOM     78  F   UNL     1      -8.198  -7.059  11.406  1.00  0.00    -0.200 F 
ENDBRANCH  44  68
BRANCH  56  79
ATOM     79  C   UNL     1      -0.771 -14.010  12.441  1.00  0.00     0.064 A 
ATOM     80  C   UNL     1      -1.726 -15.005  12.190  1.00  0.00     0.173 A 
ATOM     81  C   UNL     1      -0.066 -14.063  13.652  1.00  0.00     0.173 A 
ATOM     82  F   UNL     1      -2.436 -14.988  11.051  1.00  0.00    -0.203 F 
ATOM     83  C   UNL     1      -1.990 -15.996  13.131  1.00  0.00     0.198 A 
ATOM     84  C   UNL     1      -0.310 -15.073  14.578  1.00  0.00     0.198 A 
ATOM     85  F   UNL     1       0.864 -13.138  13.935  1.00  0.00    -0.203 F 
ATOM     86  F   UNL     1      -2.945 -16.905  12.894  1.00  0.00    -0.200 F 
ATOM     87  C   UNL     1      -1.278 -16.032  14.321  1.00  0.00     0.200 A 
ATOM     88  F   UNL     1       0.387 -15.114  15.722  1.00  0.00    -0.200 F 
ATOM     89  F   UNL     1      -1.532 -16.988  15.225  1.00  0.00    -0.200 F 
ENDBRANCH  56  79
ENDBRANCH  30  31
ENDBRANCH  22  25
ENDBRANCH  20  21
ENDBRANCH  19  20
ENDBRANCH   1  19
TORSDOF 14
