REMARK SMILES CCCCCCNC(=O)Oc1cccc(-c2ccc([C@@H](C)C(=O)NCCCCNC(=O)c3ccc(-c4c5nc(c(-c6c(F)c(F)c(F)c(F)c6F)c6ccc([nH]6)c(-c6c(F)c(F)c(F)c(F)c6F)c6nc(c(-c7c(F)c(F)c(F)c(F)c7F)c7ccc4[nH]7)C=C6)C=C5)cc3)cc2N)c1
REMARK SMILES IDX 20 1 21 2 19 3 16 4 17 5 96 6 18 7 95 8 15 9 11 10 12 11
REMARK SMILES IDX 98 12 13 13 14 14 10 15 8 16 7 17 9 19 6 20 5 21 4 22 3 23
REMARK SMILES IDX 2 24 1 25 97 26 22 29 23 30 24 31 25 33 26 34 27 35 28 36
REMARK SMILES IDX 29 37 30 38 31 40 32 41 33 42 94 43 34 44 93 45 35 46 36 47
REMARK SMILES IDX 37 48 87 49 38 50 92 51 86 52 88 53 39 54 91 55 85 56 84 57
REMARK SMILES IDX 40 59 72 60 52 61 71 62 53 63 56 64 70 65 89 66 54 67 55 68
REMARK SMILES IDX 69 70 90 71 57 72 41 73 42 74 50 75 43 76 44 77 48 78 51 79
REMARK SMILES IDX 45 80 46 81 49 82 47 83 73 84 74 85 82 86 75 87 76 88 80 89
REMARK SMILES IDX 83 90 77 91 78 92 81 93 79 94 58 95 59 96 67 97 60 98 61 99
REMARK SMILES IDX 65 100 68 101 62 102 63 103 66 104 64 105
REMARK H PARENT 7 18 97 27 97 28 24 32 29 39 88 58 56 69
REMARK Flexibility Score: inf
ROOT
ATOM      1  C   UNL     1      -4.452   0.043 -13.537  1.00  0.00     0.105 C 
ATOM      2  C   UNL     1      -5.544   0.107 -14.604  1.00  0.00     0.023 C 
ENDROOT
BRANCH   1   3
ATOM      3  C   UNL     1      -4.821   0.607 -12.174  1.00  0.00    -0.034 A 
ATOM      4  C   UNL     1      -5.190   1.720  -9.571  1.00  0.00     0.005 A 
ATOM      5  C   UNL     1      -5.601   2.395 -10.736  1.00  0.00     0.011 A 
ATOM      6  C   UNL     1      -4.721   0.396  -9.723  1.00  0.00     0.040 A 
ATOM      7  C   UNL     1      -5.474   1.826 -12.006  1.00  0.00     0.005 A 
ATOM      8  C   UNL     1      -4.464  -0.101 -11.015  1.00  0.00     0.030 A 
BRANCH   4   9
ATOM      9  C   UNL     1      -5.253   2.430  -8.267  1.00  0.00    -0.013 A 
ATOM     10  C   UNL     1      -4.263   3.045  -6.127  1.00  0.00     0.133 A 
ATOM     11  C   UNL     1      -5.371   3.818  -5.799  1.00  0.00     0.047 A 
ATOM     12  C   UNL     1      -4.190   2.368  -7.346  1.00  0.00     0.056 A 
ATOM     13  C   UNL     1      -6.419   3.921  -6.707  1.00  0.00     0.004 A 
ATOM     14  C   UNL     1      -6.364   3.224  -7.919  1.00  0.00     0.009 A 
BRANCH  10  15
ATOM     15  O   UNL     1      -3.303   2.854  -5.119  1.00  0.00    -0.410 OA
BRANCH  15  16
ATOM     16  C   UNL     1      -1.962   3.050  -5.412  1.00  0.00     0.412 C 
ATOM     17  N   UNL     1      -1.136   2.707  -4.376  1.00  0.00    -0.321 N 
ATOM     18  H   UNL     1      -0.171   2.836  -4.521  1.00  0.00     0.167 HD
ATOM     19  O   UNL     1      -1.511   3.493  -6.461  1.00  0.00    -0.224 OA
BRANCH  17  20
ATOM     20  C   UNL     1      -1.534   2.175  -3.088  1.00  0.00     0.119 C 
BRANCH  20  21
ATOM     21  C   UNL     1      -0.930   0.795  -2.823  1.00  0.00     0.021 C 
BRANCH  21  22
ATOM     22  C   UNL     1       0.599   0.769  -2.713  1.00  0.00     0.002 C 
BRANCH  22  23
ATOM     23  C   UNL     1       1.200   1.670  -1.628  1.00  0.00    -0.000 C 
BRANCH  23  24
ATOM     24  C   UNL     1       0.713   1.398  -0.202  1.00  0.00    -0.003 C 
ATOM     25  C   UNL     1       1.074   0.010   0.304  1.00  0.00     0.004 C 
ENDBRANCH  23  24
ENDBRANCH  22  23
ENDBRANCH  21  22
ENDBRANCH  20  21
ENDBRANCH  17  20
ENDBRANCH  15  16
ENDBRANCH  10  15
ENDBRANCH   4   9
BRANCH   6  26
ATOM     26  N   UNL     1      -4.378  -0.410  -8.634  1.00  0.00    -0.398 N 
ATOM     27  H   UNL     1      -4.543  -0.094  -7.716  1.00  0.00     0.156 HD
ATOM     28  H   UNL     1      -3.970  -1.294  -8.784  1.00  0.00     0.156 HD
ENDBRANCH   6  26
ENDBRANCH   1   3
BRANCH   1  29
ATOM     29  C   UNL     1      -3.065   0.483 -14.037  1.00  0.00     0.227 C 
ATOM     30  O   UNL     1      -2.128  -0.325 -14.047  1.00  0.00    -0.274 OA
ATOM     31  N   UNL     1      -2.785   1.730 -14.509  1.00  0.00    -0.356 N 
ATOM     32  H   UNL     1      -1.872   1.833 -14.861  1.00  0.00     0.163 HD
BRANCH  31  33
ATOM     33  C   UNL     1      -3.590   2.930 -14.586  1.00  0.00     0.116 C 
BRANCH  33  34
ATOM     34  C   UNL     1      -3.358   3.855 -13.390  1.00  0.00     0.023 C 
BRANCH  34  35
ATOM     35  C   UNL     1      -2.204   4.841 -13.549  1.00  0.00     0.023 C 
BRANCH  35  36
ATOM     36  C   UNL     1      -2.355   5.835 -14.694  1.00  0.00     0.116 C 
BRANCH  36  37
ATOM     37  N   UNL     1      -3.561   6.648 -14.627  1.00  0.00    -0.352 N 
ATOM     38  C   UNL     1      -3.736   7.939 -15.072  1.00  0.00     0.251 C 
ATOM     39  H   UNL     1      -4.347   6.223 -14.214  1.00  0.00     0.163 HD
ATOM     40  O   UNL     1      -4.793   8.532 -14.890  1.00  0.00    -0.269 OA
BRANCH  38  41
ATOM     41  C   UNL     1      -2.604   8.621 -15.730  1.00  0.00     0.039 A 
ATOM     42  C   UNL     1      -2.188   9.863 -15.245  1.00  0.00     0.014 A 
ATOM     43  C   UNL     1      -1.908   7.992 -16.765  1.00  0.00     0.014 A 
ATOM     44  C   UNL     1      -1.018  10.437 -15.744  1.00  0.00     0.010 A 
ATOM     45  C   UNL     1      -0.702   8.526 -17.202  1.00  0.00     0.010 A 
ATOM     46  C   UNL     1      -0.242   9.751 -16.694  1.00  0.00    -0.014 A 
BRANCH  46  47
ATOM     47  C   UNL     1       1.053  10.291 -17.174  1.00  0.00     0.031 A 
ATOM     48  C   UNL     1       1.222  10.643 -18.625  1.00  0.00     0.074 A 
ATOM     49  C   UNL     1       2.098  10.381 -16.328  1.00  0.00     0.049 A 
ATOM     50  N   UNL     1       2.297  11.025 -19.267  1.00  0.00    -0.248 NA
ATOM     51  C   UNL     1       0.029  10.515 -19.477  1.00  0.00     0.031 C 
ATOM     52  C   UNL     1       2.075  10.016 -14.911  1.00  0.00     0.029 A 
ATOM     53  N   UNL     1       3.390  10.793 -16.544  1.00  0.00    -0.354 N 
ATOM     54  C   UNL     1       1.915  11.158 -20.594  1.00  0.00     0.074 A 
ATOM     55  C   UNL     1       0.525  10.765 -20.678  1.00  0.00     0.031 C 
ATOM     56  C   UNL     1       3.288  10.240 -14.379  1.00  0.00     0.029 A 
ATOM     57  C   UNL     1       4.183  10.728 -15.424  1.00  0.00     0.049 A 
ATOM     58  H   UNL     1       3.717  11.105 -17.418  1.00  0.00     0.167 HD
ATOM     59  C   UNL     1       2.650  11.594 -21.645  1.00  0.00     0.037 A 
ATOM     60  C   UNL     1       5.487  11.023 -15.262  1.00  0.00     0.037 A 
ATOM     61  C   UNL     1       4.020  12.021 -21.549  1.00  0.00     0.049 A 
ATOM     62  C   UNL     1       6.277  11.521 -16.443  1.00  0.00     0.074 A 
ATOM     63  C   UNL     1       4.833  12.542 -22.540  1.00  0.00     0.029 A 
ATOM     64  N   UNL     1       4.779  11.977 -20.388  1.00  0.00    -0.354 N 
ATOM     65  N   UNL     1       5.888  11.708 -17.680  1.00  0.00    -0.248 NA
ATOM     66  C   UNL     1       7.688  11.854 -16.202  1.00  0.00     0.031 C 
ATOM     67  C   UNL     1       6.096  12.780 -21.988  1.00  0.00     0.029 A 
ATOM     68  C   UNL     1       6.056  12.449 -20.642  1.00  0.00     0.049 A 
ATOM     69  H   UNL     1       4.457  11.659 -19.514  1.00  0.00     0.167 HD
ATOM     70  C   UNL     1       6.992  12.208 -18.357  1.00  0.00     0.074 A 
ATOM     71  C   UNL     1       8.065  12.306 -17.390  1.00  0.00     0.031 C 
ATOM     72  C   UNL     1       7.106  12.554 -19.662  1.00  0.00     0.037 A 
BRANCH  59  73
ATOM     73  C   UNL     1       1.980  11.640 -22.986  1.00  0.00     0.064 A 
ATOM     74  C   UNL     1       0.971  12.573 -23.272  1.00  0.00     0.173 A 
ATOM     75  C   UNL     1       2.369  10.761 -24.008  1.00  0.00     0.173 A 
ATOM     76  F   UNL     1       0.553  13.427 -22.325  1.00  0.00    -0.203 F 
ATOM     77  C   UNL     1       0.355  12.604 -24.520  1.00  0.00     0.198 A 
ATOM     78  C   UNL     1       1.772  10.815 -25.265  1.00  0.00     0.198 A 
ATOM     79  F   UNL     1       3.331   9.853 -23.790  1.00  0.00    -0.203 F 
ATOM     80  F   UNL     1      -0.642  13.469 -24.752  1.00  0.00    -0.200 F 
ATOM     81  C   UNL     1       0.761  11.730 -25.517  1.00  0.00     0.200 A 
ATOM     82  F   UNL     1       2.173   9.978 -26.232  1.00  0.00    -0.200 F 
ATOM     83  F   UNL     1       0.171  11.764 -26.720  1.00  0.00    -0.200 F 
ENDBRANCH  59  73
BRANCH  60  84
ATOM     84  C   UNL     1       6.121  10.887 -13.925  1.00  0.00     0.064 A 
ATOM     85  C   UNL     1       6.504  12.021 -13.195  1.00  0.00     0.173 A 
ATOM     86  C   UNL     1       6.364   9.630 -13.354  1.00  0.00     0.173 A 
ATOM     87  F   UNL     1       6.312  13.244 -13.710  1.00  0.00    -0.203 F 
ATOM     88  C   UNL     1       7.126  11.902 -11.954  1.00  0.00     0.198 A 
ATOM     89  C   UNL     1       6.962   9.513 -12.101  1.00  0.00     0.198 A 
ATOM     90  F   UNL     1       6.013   8.514 -14.011  1.00  0.00    -0.203 F 
ATOM     91  F   UNL     1       7.524  13.001 -11.299  1.00  0.00    -0.200 F 
ATOM     92  C   UNL     1       7.349  10.648 -11.405  1.00  0.00     0.200 A 
ATOM     93  F   UNL     1       7.166   8.300 -11.568  1.00  0.00    -0.200 F 
ATOM     94  F   UNL     1       7.947  10.534 -10.211  1.00  0.00    -0.200 F 
ENDBRANCH  60  84
BRANCH  72  95
ATOM     95  C   UNL     1       8.424  13.111 -20.114  1.00  0.00     0.064 A 
ATOM     96  C   UNL     1       9.554  12.296 -20.267  1.00  0.00     0.173 A 
ATOM     97  C   UNL     1       8.541  14.470 -20.445  1.00  0.00     0.173 A 
ATOM     98  F   UNL     1       9.495  10.994 -19.949  1.00  0.00    -0.203 F 
ATOM     99  C   UNL     1      10.760  12.825 -20.717  1.00  0.00     0.198 A 
ATOM    100  C   UNL     1       9.740  14.989 -20.922  1.00  0.00     0.198 A 
ATOM    101  F   UNL     1       7.486  15.290 -20.322  1.00  0.00    -0.203 F 
ATOM    102  F   UNL     1      11.839  12.037 -20.818  1.00  0.00    -0.200 F 
ATOM    103  C   UNL     1      10.850  14.168 -21.052  1.00  0.00     0.200 A 
ATOM    104  F   UNL     1       9.822  16.284 -21.258  1.00  0.00    -0.200 F 
ATOM    105  F   UNL     1      12.010  14.673 -21.495  1.00  0.00    -0.200 F 
ENDBRANCH  72  95
ENDBRANCH  46  47
ENDBRANCH  38  41
ENDBRANCH  36  37
ENDBRANCH  35  36
ENDBRANCH  34  35
ENDBRANCH  33  34
ENDBRANCH  31  33
ENDBRANCH   1  29
TORSDOF 21
