REMARK SMILES O=C(NCCCCNC(=O)[C@@H]1[C@H](C(=O)Nc2cccc(Cl)c2F)[C@@H]2C=C[C@H]1C2)c1ccc(-c2c3nc(c(-c4c(F)c(F)c(F)c(F)c4F)c4ccc([nH]4)c(-c4c(F)c(F)c(F)c(F)c4F)c4nc(c(-c5c(F)c(F)c(F)c(F)c5F)c5ccc2[nH]5)C=C4)C=C3)cc1
REMARK SMILES IDX 5 1 4 2 3 3 1 4 2 5 29 7 30 8 91 9 31 10 90 11 32 12 33 13
REMARK SMILES IDX 34 14 84 15 35 16 89 17 83 18 85 19 36 20 88 21 82 22 81 23
REMARK SMILES IDX 37 25 69 26 49 27 68 28 50 29 53 30 67 31 86 32 51 33 52 34
REMARK SMILES IDX 66 36 87 37 54 38 38 39 39 40 47 41 40 42 41 43 45 44 48 45
REMARK SMILES IDX 42 46 43 47 46 48 44 49 70 50 71 51 79 52 72 53 73 54 77 55
REMARK SMILES IDX 80 56 74 57 75 58 78 59 76 60 55 61 56 62 64 63 57 64 58 65
REMARK SMILES IDX 62 66 65 67 59 68 60 69 63 70 61 71 6 72 7 73 8 74 9 75
REMARK SMILES IDX 10 77 11 78 12 79 27 80 24 81 26 82 28 83 25 84 13 85 14 86
REMARK SMILES IDX 15 87 16 89 17 90 22 91 18 92 20 93 23 94 19 95 21 96
REMARK H PARENT 3 6 85 24 53 35 8 76 15 88
REMARK Flexibility Score: inf
ROOT
ATOM      1  C   UNL     1       4.487  -2.703  -0.621  1.00  0.00     0.023 C 
ENDROOT
BRANCH   1   2
ATOM      2  C   UNL     1       4.423  -1.192  -0.806  1.00  0.00     0.116 C 
BRANCH   2   3
ATOM      3  N   UNL     1       3.055  -0.703  -0.875  1.00  0.00    -0.352 N 
ATOM      4  O   UNL     1       1.181   0.315  -0.146  1.00  0.00    -0.269 OA
ATOM      5  C   UNL     1       2.391   0.168  -0.042  1.00  0.00     0.251 C 
ATOM      6  H   UNL     1       2.524  -1.048  -1.629  1.00  0.00     0.163 HD
BRANCH   5   7
ATOM      7  C   UNL     1       3.138   0.913   0.997  1.00  0.00     0.039 A 
ATOM      8  C   UNL     1       4.360   1.520   0.703  1.00  0.00     0.014 A 
ATOM      9  C   UNL     1       2.595   1.016   2.281  1.00  0.00     0.014 A 
ATOM     10  C   UNL     1       5.108   2.096   1.725  1.00  0.00     0.010 A 
ATOM     11  C   UNL     1       3.312   1.670   3.289  1.00  0.00     0.010 A 
ATOM     12  C   UNL     1       4.593   2.180   3.029  1.00  0.00    -0.014 A 
BRANCH  12  13
ATOM     13  C   UNL     1       5.407   2.828   4.090  1.00  0.00     0.031 A 
ATOM     14  C   UNL     1       5.928   2.041   5.261  1.00  0.00     0.074 A 
ATOM     15  C   UNL     1       5.715   4.134   3.967  1.00  0.00     0.049 A 
ATOM     16  N   UNL     1       6.701   2.435   6.243  1.00  0.00    -0.248 NA
ATOM     17  C   UNL     1       5.522   0.630   5.351  1.00  0.00     0.031 C 
ATOM     18  C   UNL     1       5.255   5.007   2.886  1.00  0.00     0.029 A 
ATOM     19  N   UNL     1       6.507   4.947   4.737  1.00  0.00    -0.354 N 
ATOM     20  C   UNL     1       6.855   1.333   7.075  1.00  0.00     0.074 A 
ATOM     21  C   UNL     1       6.075   0.259   6.497  1.00  0.00     0.031 C 
ATOM     22  C   UNL     1       5.816   6.216   3.029  1.00  0.00     0.029 A 
ATOM     23  C   UNL     1       6.634   6.220   4.237  1.00  0.00     0.049 A 
ATOM     24  H   UNL     1       6.942   4.647   5.568  1.00  0.00     0.167 HD
ATOM     25  C   UNL     1       7.587   1.226   8.210  1.00  0.00     0.037 A 
ATOM     26  C   UNL     1       7.331   7.274   4.700  1.00  0.00     0.037 A 
ATOM     27  C   UNL     1       8.388   2.288   8.765  1.00  0.00     0.049 A 
ATOM     28  C   UNL     1       8.140   7.123   5.956  1.00  0.00     0.074 A 
ATOM     29  C   UNL     1       9.203   2.260   9.885  1.00  0.00     0.029 A 
ATOM     30  N   UNL     1       8.475   3.569   8.241  1.00  0.00    -0.354 N 
ATOM     31  N   UNL     1       8.310   6.063   6.708  1.00  0.00    -0.248 NA
ATOM     32  C   UNL     1       8.854   8.317   6.427  1.00  0.00     0.031 C 
ATOM     33  C   UNL     1       9.749   3.536  10.062  1.00  0.00     0.029 A 
ATOM     34  C   UNL     1       9.313   4.346   9.026  1.00  0.00     0.049 A 
ATOM     35  H   UNL     1       8.009   3.881   7.432  1.00  0.00     0.167 HD
ATOM     36  C   UNL     1       9.167   6.454   7.727  1.00  0.00     0.074 A 
ATOM     37  C   UNL     1       9.496   7.844   7.486  1.00  0.00     0.031 C 
ATOM     38  C   UNL     1       9.636   5.727   8.770  1.00  0.00     0.037 A 
BRANCH  25  39
ATOM     39  C   UNL     1       7.548  -0.083   8.945  1.00  0.00     0.064 A 
ATOM     40  C   UNL     1       8.192  -1.227   8.452  1.00  0.00     0.173 A 
ATOM     41  C   UNL     1       6.896  -0.180  10.184  1.00  0.00     0.173 A 
ATOM     42  F   UNL     1       8.821  -1.190   7.268  1.00  0.00    -0.203 F 
ATOM     43  C   UNL     1       8.165  -2.426   9.161  1.00  0.00     0.198 A 
ATOM     44  C   UNL     1       6.894  -1.373  10.903  1.00  0.00     0.198 A 
ATOM     45  F   UNL     1       6.270   0.887  10.704  1.00  0.00    -0.203 F 
ATOM     46  F   UNL     1       8.753  -3.517   8.652  1.00  0.00    -0.200 F 
ATOM     47  C   UNL     1       7.522  -2.496  10.388  1.00  0.00     0.200 A 
ATOM     48  F   UNL     1       6.283  -1.435  12.094  1.00  0.00    -0.200 F 
ATOM     49  F   UNL     1       7.505  -3.648  11.072  1.00  0.00    -0.200 F 
ENDBRANCH  25  39
BRANCH  26  50
ATOM     50  C   UNL     1       7.309   8.557   3.953  1.00  0.00     0.064 A 
ATOM     51  C   UNL     1       8.449   9.016   3.279  1.00  0.00     0.173 A 
ATOM     52  C   UNL     1       6.149   9.341   3.887  1.00  0.00     0.173 A 
ATOM     53  F   UNL     1       9.587   8.309   3.329  1.00  0.00    -0.203 F 
ATOM     54  C   UNL     1       8.432  10.220   2.578  1.00  0.00     0.198 A 
ATOM     55  C   UNL     1       6.126  10.531   3.162  1.00  0.00     0.198 A 
ATOM     56  F   UNL     1       5.031   8.942   4.511  1.00  0.00    -0.203 F 
ATOM     57  F   UNL     1       9.546  10.656   1.975  1.00  0.00    -0.200 F 
ATOM     58  C   UNL     1       7.269  10.973   2.515  1.00  0.00     0.200 A 
ATOM     59  F   UNL     1       4.996  11.247   3.091  1.00  0.00    -0.200 F 
ATOM     60  F   UNL     1       7.252  12.127   1.834  1.00  0.00    -0.200 F 
ENDBRANCH  26  50
BRANCH  38  61
ATOM     61  C   UNL     1      10.583   6.414   9.708  1.00  0.00     0.064 A 
ATOM     62  C   UNL     1      10.143   7.396  10.609  1.00  0.00     0.173 A 
ATOM     63  C   UNL     1      11.944   6.075   9.717  1.00  0.00     0.173 A 
ATOM     64  F   UNL     1       8.854   7.766  10.627  1.00  0.00    -0.203 F 
ATOM     65  C   UNL     1      11.038   8.034  11.464  1.00  0.00     0.198 A 
ATOM     66  C   UNL     1      12.831   6.696  10.592  1.00  0.00     0.198 A 
ATOM     67  F   UNL     1      12.413   5.140   8.878  1.00  0.00    -0.203 F 
ATOM     68  F   UNL     1      10.605   9.006  12.279  1.00  0.00    -0.200 F 
ATOM     69  C   UNL     1      12.379   7.680  11.458  1.00  0.00     0.200 A 
ATOM     70  F   UNL     1      14.124   6.346  10.593  1.00  0.00    -0.200 F 
ATOM     71  F   UNL     1      13.239   8.296  12.281  1.00  0.00    -0.200 F 
ENDBRANCH  38  61
ENDBRANCH  12  13
ENDBRANCH   5   7
ENDBRANCH   2   3
ENDBRANCH   1   2
BRANCH   1  72
ATOM     72  C   UNL     1       3.949  -3.524  -1.796  1.00  0.00     0.023 C 
BRANCH  72  73
ATOM     73  C   UNL     1       4.581  -3.213  -3.155  1.00  0.00     0.116 C 
BRANCH  73  74
ATOM     74  N   UNL     1       6.019  -3.324  -3.092  1.00  0.00    -0.356 N 
ATOM     75  C   UNL     1       6.867  -4.181  -3.709  1.00  0.00     0.224 C 
ATOM     76  H   UNL     1       6.456  -2.668  -2.502  1.00  0.00     0.163 HD
ATOM     77  O   UNL     1       7.941  -4.390  -3.140  1.00  0.00    -0.275 OA
BRANCH  75  78
ATOM     78  C   UNL     1       6.463  -4.938  -4.948  1.00  0.00     0.098 C 
ATOM     79  C   UNL     1       7.633  -5.618  -5.718  1.00  0.00     0.099 C 
ATOM     80  C   UNL     1       5.636  -4.324  -6.111  1.00  0.00     0.025 C 
ATOM     81  C   UNL     1       7.210  -5.491  -7.208  1.00  0.00     0.025 C 
ATOM     82  C   UNL     1       6.408  -3.361  -6.978  1.00  0.00    -0.027 C 
ATOM     83  C   UNL     1       5.678  -5.523  -7.084  1.00  0.00     0.017 C 
ATOM     84  C   UNL     1       7.318  -4.067  -7.666  1.00  0.00    -0.027 C 
BRANCH  79  85
ATOM     85  C   UNL     1       9.119  -5.388  -5.399  1.00  0.00     0.228 C 
ATOM     86  O   UNL     1       9.751  -6.374  -4.973  1.00  0.00    -0.274 OA
ATOM     87  N   UNL     1       9.909  -4.319  -5.675  1.00  0.00    -0.323 N 
ATOM     88  H   UNL     1      10.858  -4.535  -5.527  1.00  0.00     0.170 HD
BRANCH  87  89
ATOM     89  C   UNL     1       9.760  -2.990  -6.111  1.00  0.00     0.078 A 
ATOM     90  C   UNL     1      10.659  -2.571  -7.104  1.00  0.00     0.029 A 
ATOM     91  C   UNL     1       8.888  -2.032  -5.591  1.00  0.00     0.165 A 
ATOM     92  C   UNL     1      10.599  -1.279  -7.641  1.00  0.00     0.004 A 
ATOM     93  C   UNL     1       8.823  -0.740  -6.122  1.00  0.00     0.078 A 
ATOM     94  F   UNL     1       8.157  -2.281  -4.508  1.00  0.00    -0.203 F 
ATOM     95  C   UNL     1       9.664  -0.365  -7.163  1.00  0.00     0.024 A 
ATOM     96  Cl  UNL     1       7.704   0.409  -5.485  1.00  0.00    -0.081 Cl
ENDBRANCH  87  89
ENDBRANCH  79  85
ENDBRANCH  75  78
ENDBRANCH  73  74
ENDBRANCH  72  73
ENDBRANCH   1  72
TORSDOF 13
