REMARK SMILES NS(=O)(=O)c1ccc(-n2nc(C(=O)NCCCCNC(=O)c3ccc(-c4c5nc(c(-c6c(F)c(F)c(F)c(F)c6F)c6ccc([nH]6)c(-c6c(F)c(F)c(F)c(F)c6F)c6nc(c(-c7c(F)c(F)c(F)c(F)c7F)c7ccc4[nH]7)C=C6)C=C5)cc3)cc2-c2ccc(Cl)s2)cc1
REMARK SMILES IDX 16 1 15 2 14 3 12 4 13 5 11 7 9 8 10 9 86 10 85 11 8 12 5 13
REMARK SMILES IDX 6 14 94 15 7 16 93 17 2 18 3 19 4 20 1 21 87 24 88 25 92 26
REMARK SMILES IDX 89 27 90 28 91 29 17 30 18 31 19 32 20 33 21 35 22 36 23 37
REMARK SMILES IDX 84 38 24 39 83 40 25 41 26 42 27 43 77 44 28 45 82 46 76 47
REMARK SMILES IDX 78 48 29 49 81 50 75 51 74 52 30 54 62 55 42 56 61 57 43 58
REMARK SMILES IDX 46 59 60 60 79 61 44 62 45 63 59 65 80 66 47 67 31 68 32 69
REMARK SMILES IDX 40 70 33 71 34 72 38 73 41 74 35 75 36 76 39 77 37 78 63 79
REMARK SMILES IDX 64 80 72 81 65 82 66 83 70 84 73 85 67 86 68 87 71 88 69 89
REMARK SMILES IDX 48 90 49 91 57 92 50 93 51 94 55 95 58 96 52 97 53 98 56 99
REMARK SMILES IDX 54 100
REMARK H PARENT 14 6 1 22 1 23 19 34 78 53 46 64
REMARK Flexibility Score: inf
ROOT
ATOM      1  C   UNL     1       2.501  -4.504 -11.104  1.00  0.00     0.023 C 
ENDROOT
BRANCH   1   2
ATOM      2  C   UNL     1       3.083  -5.558 -10.157  1.00  0.00     0.116 C 
BRANCH   2   3
ATOM      3  N   UNL     1       4.168  -5.040  -9.349  1.00  0.00    -0.351 N 
ATOM      4  C   UNL     1       4.247  -4.493  -8.085  1.00  0.00     0.271 C 
ATOM      5  O   UNL     1       5.384  -4.162  -7.737  1.00  0.00    -0.267 OA
ATOM      6  H   UNL     1       5.041  -5.088  -9.802  1.00  0.00     0.163 HD
BRANCH   4   7
ATOM      7  C   UNL     1       3.072  -4.332  -7.193  1.00  0.00     0.151 A 
ATOM      8  N   UNL     1       2.023  -3.857  -5.364  1.00  0.00    -0.231 N 
ATOM      9  N   UNL     1       3.217  -3.730  -5.989  1.00  0.00    -0.162 NA
ATOM     10  C   UNL     1       1.061  -4.380  -6.203  1.00  0.00     0.085 A 
ATOM     11  C   UNL     1       1.715  -4.691  -7.373  1.00  0.00     0.066 A 
BRANCH   8  12
ATOM     12  C   UNL     1       1.835  -3.411  -4.033  1.00  0.00     0.065 A 
ATOM     13  C   UNL     1       1.077  -2.358  -1.578  1.00  0.00     0.082 A 
ATOM     14  C   UNL     1       0.748  -3.681  -1.891  1.00  0.00     0.024 A 
ATOM     15  C   UNL     1       1.834  -1.579  -2.461  1.00  0.00     0.024 A 
ATOM     16  C   UNL     1       1.116  -4.205  -3.128  1.00  0.00     0.030 A 
ATOM     17  C   UNL     1       2.244  -2.119  -3.684  1.00  0.00     0.030 A 
BRANCH  13  18
ATOM     18  S   UNL     1       0.473  -1.712  -0.047  1.00  0.00     0.238 S 
ATOM     19  O   UNL     1       1.058  -2.489   1.031  1.00  0.00    -0.207 OA
ATOM     20  O   UNL     1      -0.942  -1.498  -0.172  1.00  0.00    -0.207 OA
BRANCH  18  21
ATOM     21  N   UNL     1       1.159  -0.185   0.084  1.00  0.00    -0.225 NA
ATOM     22  H   UNL     1       0.852   0.253   0.953  1.00  0.00     0.137 HD
ATOM     23  H   UNL     1       0.866   0.388  -0.708  1.00  0.00     0.137 HD
ENDBRANCH  18  21
ENDBRANCH  13  18
ENDBRANCH   8  12
BRANCH  10  24
ATOM     24  C   UNL     1      -0.348  -4.463  -5.957  1.00  0.00     0.054 A 
ATOM     25  C   UNL     1      -1.142  -5.588  -6.067  1.00  0.00     0.024 A 
ATOM     26  S   UNL     1      -1.278  -3.068  -5.588  1.00  0.00    -0.122 S 
ATOM     27  C   UNL     1      -2.520  -5.300  -5.831  1.00  0.00     0.033 A 
ATOM     28  C   UNL     1      -2.707  -3.970  -5.560  1.00  0.00     0.094 A 
ATOM     29  Cl  UNL     1      -4.200  -3.188  -5.236  1.00  0.00    -0.072 Cl
ENDBRANCH  10  24
ENDBRANCH   4   7
ENDBRANCH   2   3
ENDBRANCH   1   2
BRANCH   1  30
ATOM     30  C   UNL     1       3.307  -4.286 -12.396  1.00  0.00     0.023 C 
BRANCH  30  31
ATOM     31  C   UNL     1       3.365  -5.488 -13.338  1.00  0.00     0.116 C 
BRANCH  31  32
ATOM     32  N   UNL     1       2.049  -5.914 -13.815  1.00  0.00    -0.352 N 
ATOM     33  C   UNL     1       1.718  -7.093 -14.458  1.00  0.00     0.251 C 
ATOM     34  H   UNL     1       1.308  -5.285 -13.659  1.00  0.00     0.163 HD
ATOM     35  O   UNL     1       0.714  -7.179 -15.154  1.00  0.00    -0.269 OA
BRANCH  33  36
ATOM     36  C   UNL     1       2.591  -8.262 -14.272  1.00  0.00     0.039 A 
ATOM     37  C   UNL     1       2.969  -9.078 -15.342  1.00  0.00     0.014 A 
ATOM     38  C   UNL     1       3.061  -8.505 -12.984  1.00  0.00     0.014 A 
ATOM     39  C   UNL     1       3.899 -10.090 -15.117  1.00  0.00     0.010 A 
ATOM     40  C   UNL     1       4.080  -9.402 -12.793  1.00  0.00     0.010 A 
ATOM     41  C   UNL     1       4.467 -10.232 -13.841  1.00  0.00    -0.014 A 
BRANCH  41  42
ATOM     42  C   UNL     1       5.561 -11.168 -13.603  1.00  0.00     0.031 A 
ATOM     43  C   UNL     1       6.768 -10.942 -14.447  1.00  0.00     0.074 A 
ATOM     44  C   UNL     1       5.575 -11.995 -12.534  1.00  0.00     0.049 A 
ATOM     45  N   UNL     1       7.293 -11.744 -15.314  1.00  0.00    -0.248 NA
ATOM     46  C   UNL     1       7.405  -9.614 -14.410  1.00  0.00     0.031 C 
ATOM     47  C   UNL     1       4.594 -12.073 -11.443  1.00  0.00     0.029 A 
ATOM     48  N   UNL     1       6.537 -12.868 -12.128  1.00  0.00    -0.354 N 
ATOM     49  C   UNL     1       8.436 -11.104 -15.793  1.00  0.00     0.074 A 
ATOM     50  C   UNL     1       8.352  -9.741 -15.342  1.00  0.00     0.031 C 
ATOM     51  C   UNL     1       5.123 -12.752 -10.402  1.00  0.00     0.029 A 
ATOM     52  C   UNL     1       6.396 -13.308 -10.816  1.00  0.00     0.049 A 
ATOM     53  H   UNL     1       7.272 -13.164 -12.713  1.00  0.00     0.167 HD
ATOM     54  C   UNL     1       9.476 -11.821 -16.305  1.00  0.00     0.037 A 
ATOM     55  C   UNL     1       7.274 -14.059 -10.108  1.00  0.00     0.037 A 
ATOM     56  C   UNL     1       9.061 -13.166 -16.614  1.00  0.00     0.049 A 
ATOM     57  C   UNL     1       8.175 -14.715 -11.083  1.00  0.00     0.074 A 
ATOM     58  C   UNL     1       8.156 -13.739 -17.483  1.00  0.00     0.029 A 
ATOM     59  N   UNL     1       9.364 -14.131 -15.688  1.00  0.00    -0.354 N 
ATOM     60  N   UNL     1       7.788 -15.626 -11.930  1.00  0.00    -0.248 NA
ATOM     61  C   UNL     1       9.424 -14.048 -11.410  1.00  0.00     0.031 C 
ATOM     62  C   UNL     1       7.627 -14.864 -16.781  1.00  0.00     0.029 A 
ATOM     63  C   UNL     1       8.282 -14.957 -15.551  1.00  0.00     0.049 A 
ATOM     64  H   UNL     1      10.217 -14.216 -15.204  1.00  0.00     0.167 HD
ATOM     65  C   UNL     1       8.485 -15.340 -13.094  1.00  0.00     0.074 A 
ATOM     66  C   UNL     1       9.563 -14.447 -12.677  1.00  0.00     0.031 C 
ATOM     67  C   UNL     1       7.941 -15.622 -14.314  1.00  0.00     0.037 A 
BRANCH  54  68
ATOM     68  C   UNL     1      10.942 -11.469 -16.137  1.00  0.00     0.064 A 
ATOM     69  C   UNL     1      11.912 -12.286 -16.759  1.00  0.00     0.173 A 
ATOM     70  C   UNL     1      11.442 -10.588 -15.154  1.00  0.00     0.173 A 
ATOM     71  F   UNL     1      11.559 -13.169 -17.706  1.00  0.00    -0.203 F 
ATOM     72  C   UNL     1      13.250 -12.292 -16.352  1.00  0.00     0.198 A 
ATOM     73  C   UNL     1      12.788 -10.560 -14.788  1.00  0.00     0.198 A 
ATOM     74  F   UNL     1      10.645  -9.801 -14.424  1.00  0.00    -0.203 F 
ATOM     75  F   UNL     1      14.100 -13.187 -16.875  1.00  0.00    -0.200 F 
ATOM     76  C   UNL     1      13.684 -11.436 -15.359  1.00  0.00     0.200 A 
ATOM     77  F   UNL     1      13.185  -9.733 -13.810  1.00  0.00    -0.200 F 
ATOM     78  F   UNL     1      14.948 -11.488 -14.917  1.00  0.00    -0.200 F 
ENDBRANCH  54  68
BRANCH  55  79
ATOM     79  C   UNL     1       7.559 -14.028  -8.655  1.00  0.00     0.064 A 
ATOM     80  C   UNL     1       8.205 -15.099  -8.016  1.00  0.00     0.173 A 
ATOM     81  C   UNL     1       7.456 -12.830  -7.923  1.00  0.00     0.173 A 
ATOM     82  F   UNL     1       8.384 -16.260  -8.662  1.00  0.00    -0.203 F 
ATOM     83  C   UNL     1       8.738 -14.970  -6.729  1.00  0.00     0.198 A 
ATOM     84  C   UNL     1       7.984 -12.704  -6.637  1.00  0.00     0.198 A 
ATOM     85  F   UNL     1       6.925 -11.731  -8.479  1.00  0.00    -0.203 F 
ATOM     86  F   UNL     1       9.402 -15.994  -6.174  1.00  0.00    -0.200 F 
ATOM     87  C   UNL     1       8.637 -13.769  -6.045  1.00  0.00     0.200 A 
ATOM     88  F   UNL     1       7.914 -11.525  -6.003  1.00  0.00    -0.200 F 
ATOM     89  F   UNL     1       9.203 -13.625  -4.838  1.00  0.00    -0.200 F 
ENDBRANCH  55  79
BRANCH  67  90
ATOM     90  C   UNL     1       6.751 -16.542 -14.347  1.00  0.00     0.064 A 
ATOM     91  C   UNL     1       5.500 -16.250 -13.775  1.00  0.00     0.173 A 
ATOM     92  C   UNL     1       6.852 -17.717 -15.103  1.00  0.00     0.173 A 
ATOM     93  F   UNL     1       5.291 -15.104 -13.117  1.00  0.00    -0.203 F 
ATOM     94  C   UNL     1       4.417 -17.116 -13.921  1.00  0.00     0.198 A 
ATOM     95  C   UNL     1       5.760 -18.561 -15.280  1.00  0.00     0.198 A 
ATOM     96  F   UNL     1       8.007 -18.023 -15.715  1.00  0.00    -0.203 F 
ATOM     97  F   UNL     1       3.238 -16.821 -13.353  1.00  0.00    -0.200 F 
ATOM     98  C   UNL     1       4.546 -18.267 -14.680  1.00  0.00     0.200 A 
ATOM     99  F   UNL     1       5.878 -19.647 -16.055  1.00  0.00    -0.200 F 
ATOM    100  F   UNL     1       3.495 -19.080 -14.855  1.00  0.00    -0.200 F 
ENDBRANCH  67  90
ENDBRANCH  41  42
ENDBRANCH  33  36
ENDBRANCH  31  32
ENDBRANCH  30  31
ENDBRANCH   1  30
TORSDOF 15
