REMARK SMILES CSCC[C@@H]([NH2+]Cc1cccnc1)C(=O)NCCCCNC(=O)c1ccc(-c2c3nc(c(-c4c(F)c(F)c(F)c(F)c4F)c4ccc([nH]4)c(-c4c(F)c(F)c(F)c(F)c4F)c4nc(c(-c5c(F)c(F)c(F)c(F)c5F)c5ccc2[nH]5)C=C4)C=C3)cc1
REMARK SMILES IDX 18 1 17 2 16 3 14 4 15 5 5 7 4 8 3 9 2 10 1 11 6 12 7 15
REMARK SMILES IDX 8 16 9 17 13 18 10 19 12 20 11 21 19 22 20 23 21 24 22 25
REMARK SMILES IDX 23 27 24 28 25 29 86 30 26 31 85 32 27 33 28 34 29 35 79 36
REMARK SMILES IDX 30 37 84 38 78 39 80 40 31 41 83 42 77 43 76 44 32 46 64 47
REMARK SMILES IDX 44 48 63 49 45 50 48 51 62 52 81 53 46 54 47 55 61 57 82 58
REMARK SMILES IDX 49 59 33 60 34 61 42 62 35 63 36 64 40 65 43 66 37 67 38 68
REMARK SMILES IDX 41 69 39 70 65 71 66 72 74 73 67 74 68 75 72 76 75 77 69 78
REMARK SMILES IDX 70 79 73 80 71 81 50 82 51 83 59 84 52 85 53 86 57 87 60 88
REMARK SMILES IDX 54 89 55 90 58 91 56 92
REMARK H PARENT 16 6 6 13 6 14 21 26 80 45 48 56
REMARK Flexibility Score: inf
ROOT
ATOM      1  C   UNL     1       0.977  -0.346  -6.668  1.00  0.00     0.023 C 
ENDROOT
BRANCH   1   2
ATOM      2  C   UNL     1       1.734   0.545  -5.684  1.00  0.00     0.116 C 
BRANCH   2   3
ATOM      3  N   UNL     1       0.848   1.491  -5.032  1.00  0.00    -0.351 N 
ATOM      4  C   UNL     1       0.453   1.568  -3.728  1.00  0.00     0.278 C 
ATOM      5  O   UNL     1      -0.279   2.510  -3.412  1.00  0.00    -0.268 OA
ATOM      6  H   UNL     1       0.473   2.184  -5.622  1.00  0.00     0.163 HD
BRANCH   4   7
ATOM      7  C   UNL     1       0.917   0.538  -2.670  1.00  0.00     0.273 C 
BRANCH   7   8
ATOM      8  C   UNL     1       0.324  -0.850  -2.985  1.00  0.00     0.086 C 
BRANCH   8   9
ATOM      9  C   UNL     1       0.580  -1.952  -1.955  1.00  0.00     0.076 C 
BRANCH   9  10
ATOM     10  S   UNL     1      -0.688  -2.062  -0.653  1.00  0.00    -0.165 SA
ATOM     11  C   UNL     1      -0.004  -0.921   0.568  1.00  0.00     0.085 C 
ENDBRANCH   9  10
ENDBRANCH   8   9
ENDBRANCH   7   8
BRANCH   7  12
ATOM     12  N   UNL     1       2.398   0.523  -2.560  1.00  0.00    -0.332 N 
ATOM     13  H   UNL     1       2.786   0.276  -3.470  1.00  0.00     0.347 HD
ATOM     14  H   UNL     1       2.638  -0.156  -1.838  1.00  0.00     0.347 HD
BRANCH  12  15
ATOM     15  C   UNL     1       2.970   1.815  -2.146  1.00  0.00     0.299 C 
BRANCH  15  16
ATOM     16  C   UNL     1       2.613   2.238  -0.746  1.00  0.00     0.024 A 
ATOM     17  C   UNL     1       2.807   1.406   0.361  1.00  0.00     0.013 A 
ATOM     18  C   UNL     1       2.096   3.508  -0.502  1.00  0.00     0.120 A 
ATOM     19  C   UNL     1       2.446   1.845   1.632  1.00  0.00     0.021 A 
ATOM     20  N   UNL     1       1.757   3.968   0.725  1.00  0.00    -0.264 NA
ATOM     21  C   UNL     1       1.930   3.123   1.762  1.00  0.00     0.111 A 
ENDBRANCH  15  16
ENDBRANCH  12  15
ENDBRANCH   7  12
ENDBRANCH   4   7
ENDBRANCH   2   3
ENDBRANCH   1   2
BRANCH   1  22
ATOM     22  C   UNL     1       0.421   0.384  -7.892  1.00  0.00     0.023 C 
BRANCH  22  23
ATOM     23  C   UNL     1       1.449   1.161  -8.709  1.00  0.00     0.116 C 
BRANCH  23  24
ATOM     24  N   UNL     1       2.542   0.330  -9.194  1.00  0.00    -0.352 N 
ATOM     25  C   UNL     1       3.118   0.310 -10.441  1.00  0.00     0.251 C 
ATOM     26  H   UNL     1       2.919  -0.302  -8.540  1.00  0.00     0.163 HD
ATOM     27  O   UNL     1       3.967  -0.528 -10.728  1.00  0.00    -0.269 OA
BRANCH  25  28
ATOM     28  C   UNL     1       2.671   1.287 -11.453  1.00  0.00     0.039 A 
ATOM     29  C   UNL     1       2.229   0.818 -12.692  1.00  0.00     0.014 A 
ATOM     30  C   UNL     1       2.622   2.650 -11.148  1.00  0.00     0.014 A 
ATOM     31  C   UNL     1       1.644   1.707 -13.594  1.00  0.00     0.010 A 
ATOM     32  C   UNL     1       1.988   3.525 -12.024  1.00  0.00     0.010 A 
ATOM     33  C   UNL     1       1.472   3.056 -13.242  1.00  0.00    -0.014 A 
BRANCH  33  34
ATOM     34  C   UNL     1       0.695   3.983 -14.101  1.00  0.00     0.031 A 
ATOM     35  C   UNL     1       1.365   5.152 -14.756  1.00  0.00     0.074 A 
ATOM     36  C   UNL     1      -0.639   3.820 -14.202  1.00  0.00     0.049 A 
ATOM     37  N   UNL     1       0.834   6.131 -15.443  1.00  0.00    -0.248 NA
ATOM     38  C   UNL     1       2.824   5.250 -14.596  1.00  0.00     0.031 C 
ATOM     39  C   UNL     1      -1.411   2.749 -13.569  1.00  0.00     0.029 A 
ATOM     40  N   UNL     1      -1.586   4.569 -14.855  1.00  0.00    -0.354 N 
ATOM     41  C   UNL     1       1.887   6.966 -15.786  1.00  0.00     0.074 A 
ATOM     42  C   UNL     1       3.084   6.402 -15.199  1.00  0.00     0.031 C 
ATOM     43  C   UNL     1      -2.709   2.905 -13.870  1.00  0.00     0.029 A 
ATOM     44  C   UNL     1      -2.867   4.107 -14.683  1.00  0.00     0.049 A 
ATOM     45  H   UNL     1      -1.367   5.362 -15.396  1.00  0.00     0.167 HD
ATOM     46  C   UNL     1       1.858   8.092 -16.538  1.00  0.00     0.037 A 
ATOM     47  C   UNL     1      -4.040   4.606 -15.116  1.00  0.00     0.037 A 
ATOM     48  C   UNL     1       0.669   8.634 -17.141  1.00  0.00     0.049 A 
ATOM     49  C   UNL     1      -4.045   5.868 -15.932  1.00  0.00     0.074 A 
ATOM     50  C   UNL     1       0.552   9.719 -17.993  1.00  0.00     0.029 A 
ATOM     51  N   UNL     1      -0.611   8.137 -16.948  1.00  0.00    -0.354 N 
ATOM     52  N   UNL     1      -3.034   6.608 -16.314  1.00  0.00    -0.248 NA
ATOM     53  C   UNL     1      -5.356   6.367 -16.373  1.00  0.00     0.031 C 
ATOM     54  C   UNL     1      -0.804   9.904 -18.281  1.00  0.00     0.029 A 
ATOM     55  C   UNL     1      -1.528   8.912 -17.639  1.00  0.00     0.049 A 
ATOM     56  H   UNL     1      -0.835   7.350 -16.401  1.00  0.00     0.167 HD
ATOM     57  C   UNL     1      -3.580   7.650 -17.049  1.00  0.00     0.074 A 
ATOM     58  C   UNL     1      -5.013   7.437 -17.076  1.00  0.00     0.031 C 
ATOM     59  C   UNL     1      -2.951   8.692 -17.646  1.00  0.00     0.037 A 
BRANCH  46  60
ATOM     60  C   UNL     1       3.154   8.813 -16.757  1.00  0.00     0.064 A 
ATOM     61  C   UNL     1       4.148   8.295 -17.600  1.00  0.00     0.173 A 
ATOM     62  C   UNL     1       3.386  10.057 -16.152  1.00  0.00     0.173 A 
ATOM     63  F   UNL     1       3.977   7.103 -18.192  1.00  0.00    -0.203 F 
ATOM     64  C   UNL     1       5.338   8.986 -17.812  1.00  0.00     0.198 A 
ATOM     65  C   UNL     1       4.567  10.757 -16.386  1.00  0.00     0.198 A 
ATOM     66  F   UNL     1       2.465  10.598 -15.340  1.00  0.00    -0.203 F 
ATOM     67  F   UNL     1       6.290   8.453 -18.590  1.00  0.00    -0.200 F 
ATOM     68  C   UNL     1       5.543  10.219 -17.211  1.00  0.00     0.200 A 
ATOM     69  F   UNL     1       4.761  11.952 -15.812  1.00  0.00    -0.200 F 
ATOM     70  F   UNL     1       6.686  10.886 -17.422  1.00  0.00    -0.200 F 
ENDBRANCH  46  60
BRANCH  47  71
ATOM     71  C   UNL     1      -5.308   3.908 -14.785  1.00  0.00     0.064 A 
ATOM     72  C   UNL     1      -6.029   3.225 -15.773  1.00  0.00     0.173 A 
ATOM     73  C   UNL     1      -5.822   3.906 -13.480  1.00  0.00     0.173 A 
ATOM     74  F   UNL     1      -5.588   3.219 -17.040  1.00  0.00    -0.203 F 
ATOM     75  C   UNL     1      -7.225   2.576 -15.471  1.00  0.00     0.198 A 
ATOM     76  C   UNL     1      -7.005   3.236 -13.175  1.00  0.00     0.198 A 
ATOM     77  F   UNL     1      -5.166   4.543 -12.499  1.00  0.00    -0.203 F 
ATOM     78  F   UNL     1      -7.914   1.961 -16.442  1.00  0.00    -0.200 F 
ATOM     79  C   UNL     1      -7.708   2.577 -14.171  1.00  0.00     0.200 A 
ATOM     80  F   UNL     1      -7.463   3.229 -11.915  1.00  0.00    -0.200 F 
ATOM     81  F   UNL     1      -8.855   1.948 -13.881  1.00  0.00    -0.200 F 
ENDBRANCH  47  71
BRANCH  59  82
ATOM     82  C   UNL     1      -3.809   9.678 -18.380  1.00  0.00     0.064 A 
ATOM     83  C   UNL     1      -4.600  10.610 -17.692  1.00  0.00     0.173 A 
ATOM     84  C   UNL     1      -3.809   9.720 -19.782  1.00  0.00     0.173 A 
ATOM     85  F   UNL     1      -4.646  10.596 -16.352  1.00  0.00    -0.203 F 
ATOM     86  C   UNL     1      -5.373  11.539 -18.383  1.00  0.00     0.198 A 
ATOM     87  C   UNL     1      -4.564  10.666 -20.469  1.00  0.00     0.198 A 
ATOM     88  F   UNL     1      -3.066   8.851 -20.485  1.00  0.00    -0.203 F 
ATOM     89  F   UNL     1      -6.151  12.395 -17.707  1.00  0.00    -0.200 F 
ATOM     90  C   UNL     1      -5.349  11.571 -19.770  1.00  0.00     0.200 A 
ATOM     91  F   UNL     1      -4.533  10.703 -21.808  1.00  0.00    -0.200 F 
ATOM     92  F   UNL     1      -6.088  12.470 -20.433  1.00  0.00    -0.200 F 
ENDBRANCH  59  82
ENDBRANCH  33  34
ENDBRANCH  25  28
ENDBRANCH  23  24
ENDBRANCH  22  23
ENDBRANCH   1  22
TORSDOF 17
