REMARK SMILES C[C@H]1[C@@H](C(=O)NCCCCNC(=O)c2ccc(-c3c4nc(c(-c5c(F)c(F)c(F)c(F)c5F)c5ccc([nH]5)c(-c5c(F)c(F)c(F)c(F)c5F)c5nc(c(-c6c(F)c(F)c(F)c(F)c6F)c6ccc3[nH]6)C=C5)C=C4)cc2)CCN1C(=O)c1cc2cc(F)ccc2s1
REMARK SMILES IDX 8 1 7 2 6 3 4 4 5 5 3 7 1 8 2 9 79 10 77 11 78 12 80 13
REMARK SMILES IDX 81 14 82 15 83 16 91 17 84 18 90 19 85 20 89 21 86 22 88 23
REMARK SMILES IDX 87 24 9 25 10 26 11 27 12 28 13 30 14 31 15 32 76 33 16 34
REMARK SMILES IDX 75 35 17 36 18 37 19 38 69 39 20 40 74 41 68 42 70 43 21 44
REMARK SMILES IDX 73 45 67 46 66 47 22 49 54 50 34 51 53 52 35 53 38 54 52 55
REMARK SMILES IDX 71 56 36 57 37 58 51 60 72 61 39 62 23 63 24 64 32 65 25 66
REMARK SMILES IDX 26 67 30 68 33 69 27 70 28 71 31 72 29 73 55 74 56 75 64 76
REMARK SMILES IDX 57 77 58 78 62 79 65 80 59 81 60 82 63 83 61 84 40 85 41 86
REMARK SMILES IDX 49 87 42 88 43 89 47 90 50 91 44 92 45 93 48 94 46 95
REMARK H PARENT 6 6 11 29 70 48 38 59
REMARK Flexibility Score: inf
ROOT
ATOM      1  C   UNL     1       3.401   0.512  -1.836  1.00  0.00     0.023 C 
ENDROOT
BRANCH   1   2
ATOM      2  C   UNL     1       2.734   1.788  -1.318  1.00  0.00     0.116 C 
BRANCH   2   3
ATOM      3  N   UNL     1       1.401   1.862  -1.863  1.00  0.00    -0.356 N 
ATOM      4  C   UNL     1       0.234   1.374  -1.368  1.00  0.00     0.225 C 
ATOM      5  O   UNL     1      -0.692   1.291  -2.179  1.00  0.00    -0.275 OA
ATOM      6  H   UNL     1       1.326   2.336  -2.722  1.00  0.00     0.163 HD
BRANCH   4   7
ATOM      7  C   UNL     1       0.047   1.096   0.132  1.00  0.00     0.102 C 
ATOM      8  C   UNL     1       1.802  -0.856   0.519  1.00  0.00     0.032 C 
ATOM      9  C   UNL     1       0.434  -0.262   0.764  1.00  0.00     0.094 C 
ATOM     10  N   UNL     1      -0.681  -1.166   0.476  1.00  0.00    -0.334 N 
ATOM     11  C   UNL     1      -1.473   1.056   0.405  1.00  0.00     0.037 C 
ATOM     12  C   UNL     1      -1.830  -0.383   0.042  1.00  0.00     0.121 C 
BRANCH  10  13
ATOM     13  C   UNL     1      -0.923  -2.232   1.336  1.00  0.00     0.264 C 
ATOM     14  O   UNL     1      -1.825  -2.174   2.171  1.00  0.00    -0.268 OA
BRANCH  13  15
ATOM     15  C   UNL     1      -0.109  -3.422   1.201  1.00  0.00     0.093 A 
ATOM     16  C   UNL     1       0.389  -4.188   2.233  1.00  0.00     0.034 A 
ATOM     17  S   UNL     1       0.075  -4.215  -0.298  1.00  0.00    -0.130 S 
ATOM     18  C   UNL     1       0.463  -5.571   1.865  1.00  0.00    -0.004 A 
ATOM     19  C   UNL     1       0.250  -5.743   0.493  1.00  0.00     0.035 A 
ATOM     20  C   UNL     1       0.585  -6.717   2.682  1.00  0.00     0.048 A 
ATOM     21  C   UNL     1       0.146  -7.024  -0.083  1.00  0.00     0.022 A 
ATOM     22  C   UNL     1       0.393  -7.976   2.121  1.00  0.00     0.123 A 
ATOM     23  C   UNL     1       0.173  -8.136   0.763  1.00  0.00     0.041 A 
ATOM     24  F   UNL     1       0.376  -9.049   2.923  1.00  0.00    -0.207 F 
ENDBRANCH  13  15
ENDBRANCH  10  13
ENDBRANCH   4   7
ENDBRANCH   2   3
ENDBRANCH   1   2
BRANCH   1  25
ATOM     25  C   UNL     1       4.198   0.688  -3.118  1.00  0.00     0.023 C 
BRANCH  25  26
ATOM     26  C   UNL     1       5.494   1.453  -2.925  1.00  0.00     0.116 C 
BRANCH  26  27
ATOM     27  N   UNL     1       6.417   0.816  -1.995  1.00  0.00    -0.352 N 
ATOM     28  C   UNL     1       7.792   0.758  -2.063  1.00  0.00     0.251 C 
ATOM     29  H   UNL     1       6.006   0.370  -1.219  1.00  0.00     0.163 HD
ATOM     30  O   UNL     1       8.440   0.129  -1.245  1.00  0.00    -0.269 OA
BRANCH  28  31
ATOM     31  C   UNL     1       8.456   1.434  -3.195  1.00  0.00     0.039 A 
ATOM     32  C   UNL     1       9.325   0.697  -4.001  1.00  0.00     0.014 A 
ATOM     33  C   UNL     1       8.113   2.747  -3.521  1.00  0.00     0.014 A 
ATOM     34  C   UNL     1       9.779   1.254  -5.196  1.00  0.00     0.010 A 
ATOM     35  C   UNL     1       8.483   3.257  -4.756  1.00  0.00     0.010 A 
ATOM     36  C   UNL     1       9.319   2.516  -5.605  1.00  0.00    -0.014 A 
BRANCH  36  37
ATOM     37  C   UNL     1       9.704   3.096  -6.914  1.00  0.00     0.031 A 
ATOM     38  C   UNL     1      10.461   4.393  -6.952  1.00  0.00     0.074 A 
ATOM     39  C   UNL     1       9.291   2.513  -8.055  1.00  0.00     0.049 A 
ATOM     40  N   UNL     1      10.785   5.133  -7.981  1.00  0.00    -0.248 NA
ATOM     41  C   UNL     1      10.866   4.958  -5.655  1.00  0.00     0.031 C 
ATOM     42  C   UNL     1       8.487   1.292  -8.145  1.00  0.00     0.029 A 
ATOM     43  N   UNL     1       9.483   2.879  -9.364  1.00  0.00    -0.354 N 
ATOM     44  C   UNL     1      11.393   6.263  -7.451  1.00  0.00     0.074 A 
ATOM     45  C   UNL     1      11.345   6.139  -6.012  1.00  0.00     0.031 C 
ATOM     46  C   UNL     1       8.281   0.994  -9.438  1.00  0.00     0.029 A 
ATOM     47  C   UNL     1       8.910   2.018 -10.267  1.00  0.00     0.049 A 
ATOM     48  H   UNL     1       9.983   3.684  -9.630  1.00  0.00     0.167 HD
ATOM     49  C   UNL     1      11.967   7.297  -8.108  1.00  0.00     0.037 A 
ATOM     50  C   UNL     1       8.899   2.053 -11.613  1.00  0.00     0.037 A 
ATOM     51  C   UNL     1      12.072   7.382  -9.539  1.00  0.00     0.049 A 
ATOM     52  C   UNL     1       9.604   3.178 -12.320  1.00  0.00     0.074 A 
ATOM     53  C   UNL     1      12.709   8.343 -10.303  1.00  0.00     0.029 A 
ATOM     54  N   UNL     1      11.537   6.455 -10.421  1.00  0.00    -0.354 N 
ATOM     55  N   UNL     1      10.233   4.209 -11.810  1.00  0.00    -0.248 NA
ATOM     56  C   UNL     1       9.604   3.140 -13.789  1.00  0.00     0.031 C 
ATOM     57  C   UNL     1      12.539   8.009 -11.651  1.00  0.00     0.029 A 
ATOM     58  C   UNL     1      11.824   6.824 -11.723  1.00  0.00     0.049 A 
ATOM     59  H   UNL     1      11.027   5.654 -10.159  1.00  0.00     0.167 HD
ATOM     60  C   UNL     1      10.724   4.928 -12.890  1.00  0.00     0.074 A 
ATOM     61  C   UNL     1      10.330   4.209 -14.084  1.00  0.00     0.031 C 
ATOM     62  C   UNL     1      11.434   6.083 -12.894  1.00  0.00     0.037 A 
BRANCH  49  63
ATOM     63  C   UNL     1      12.541   8.406  -7.277  1.00  0.00     0.064 A 
ATOM     64  C   UNL     1      13.702   8.223  -6.510  1.00  0.00     0.173 A 
ATOM     65  C   UNL     1      11.930   9.668  -7.253  1.00  0.00     0.173 A 
ATOM     66  F   UNL     1      14.313   7.028  -6.486  1.00  0.00    -0.203 F 
ATOM     67  C   UNL     1      14.210   9.251  -5.723  1.00  0.00     0.198 A 
ATOM     68  C   UNL     1      12.457  10.703  -6.487  1.00  0.00     0.198 A 
ATOM     69  F   UNL     1      10.819   9.895  -7.969  1.00  0.00    -0.203 F 
ATOM     70  F   UNL     1      15.286   9.035  -4.954  1.00  0.00    -0.200 F 
ATOM     71  C   UNL     1      13.591  10.492  -5.715  1.00  0.00     0.200 A 
ATOM     72  F   UNL     1      11.863  11.905  -6.486  1.00  0.00    -0.200 F 
ATOM     73  F   UNL     1      14.081  11.482  -4.956  1.00  0.00    -0.200 F 
ENDBRANCH  49  63
BRANCH  50  74
ATOM     74  C   UNL     1       8.240   0.966 -12.379  1.00  0.00     0.064 A 
ATOM     75  C   UNL     1       9.004   0.017 -13.072  1.00  0.00     0.173 A 
ATOM     76  C   UNL     1       6.844   0.850 -12.436  1.00  0.00     0.173 A 
ATOM     77  F   UNL     1      10.343   0.100 -13.061  1.00  0.00    -0.203 F 
ATOM     78  C   UNL     1       8.397  -0.997 -13.810  1.00  0.00     0.198 A 
ATOM     79  C   UNL     1       6.238  -0.178 -13.156  1.00  0.00     0.198 A 
ATOM     80  F   UNL     1       6.070   1.729 -11.784  1.00  0.00    -0.203 F 
ATOM     81  F   UNL     1       9.151  -1.867 -14.495  1.00  0.00    -0.200 F 
ATOM     82  C   UNL     1       7.015  -1.097 -13.848  1.00  0.00     0.200 A 
ATOM     83  F   UNL     1       4.902  -0.279 -13.182  1.00  0.00    -0.200 F 
ATOM     84  F   UNL     1       6.431  -2.073 -14.556  1.00  0.00    -0.200 F 
ENDBRANCH  50  74
BRANCH  62  85
ATOM     85  C   UNL     1      11.857   6.621 -14.226  1.00  0.00     0.064 A 
ATOM     86  C   UNL     1      10.945   7.254 -15.082  1.00  0.00     0.173 A 
ATOM     87  C   UNL     1      13.199   6.545 -14.627  1.00  0.00     0.173 A 
ATOM     88  F   UNL     1       9.649   7.336 -14.746  1.00  0.00    -0.203 F 
ATOM     89  C   UNL     1      11.360   7.779 -16.302  1.00  0.00     0.198 A 
ATOM     90  C   UNL     1      13.614   7.091 -15.837  1.00  0.00     0.198 A 
ATOM     91  F   UNL     1      14.108   5.952 -13.838  1.00  0.00    -0.203 F 
ATOM     92  F   UNL     1      10.467   8.350 -17.122  1.00  0.00    -0.200 F 
ATOM     93  C   UNL     1      12.694   7.704 -16.675  1.00  0.00     0.200 A 
ATOM     94  F   UNL     1      14.905   7.027 -16.193  1.00  0.00    -0.200 F 
ATOM     95  F   UNL     1      13.092   8.217 -17.848  1.00  0.00    -0.200 F 
ENDBRANCH  62  85
ENDBRANCH  36  37
ENDBRANCH  28  31
ENDBRANCH  26  27
ENDBRANCH  25  26
ENDBRANCH   1  25
TORSDOF 13
