REMARK SMILES CC(C)[C@H](NC(=O)[C@H](Cc1ccccc1)n1c(=O)[nH]c2ccccc2c1=O)C(=O)NCCCCNC(=O)c1ccc(-c2c3nc(c(-c4c(F)c(F)c(F)c(F)c4F)c4ccc([nH]4)c(-c4c(F)c(F)c(F)c(F)c4F)c4nc(c(-c5c(F)c(F)c(F)c(F)c5F)c5ccc2[nH]5)C=C4)C=C3)cc1
REMARK SMILES IDX 31 1 30 2 28 3 29 4 4 6 2 7 1 8 3 9 5 10 6 11 7 13 8 14
REMARK SMILES IDX 16 15 17 16 26 17 18 18 19 19 25 20 27 21 20 22 24 24 21 25
REMARK SMILES IDX 23 26 22 27 9 28 10 29 11 30 15 31 12 32 14 33 13 34 32 35
REMARK SMILES IDX 33 36 34 37 35 38 36 39 37 41 38 42 39 43 100 44 40 45 99 46
REMARK SMILES IDX 41 47 42 48 43 49 93 50 44 51 98 52 92 53 94 54 45 55 97 56
REMARK SMILES IDX 91 57 90 58 46 60 78 61 58 62 77 63 59 64 62 65 76 66 95 67
REMARK SMILES IDX 60 68 61 69 75 71 96 72 63 73 47 74 48 75 56 76 49 77 50 78
REMARK SMILES IDX 54 79 57 80 51 81 52 82 55 83 53 84 79 85 80 86 88 87 81 88
REMARK SMILES IDX 82 89 86 90 89 91 83 92 84 93 87 94 85 95 64 96 65 97 73 98
REMARK SMILES IDX 66 99 67 100 71 101 74 102 68 103 69 104 72 105 70 106
REMARK H PARENT 30 5 5 12 19 23 35 40 94 59 62 70
REMARK Flexibility Score: inf
ROOT
ATOM      1  C   UNL     1      -3.799   2.431  -5.480  1.00  0.00     0.116 C 
ENDROOT
BRANCH   1   2
ATOM      2  N   UNL     1      -3.579   2.139  -4.083  1.00  0.00    -0.354 N 
ATOM      3  C   UNL     1      -2.629   1.382  -3.471  1.00  0.00     0.242 C 
ATOM      4  O   UNL     1      -2.428   1.610  -2.270  1.00  0.00    -0.273 OA
ATOM      5  H   UNL     1      -4.226   2.557  -3.470  1.00  0.00     0.163 HD
BRANCH   3   6
ATOM      6  C   UNL     1      -1.699   0.411  -4.248  1.00  0.00     0.173 C 
BRANCH   6   7
ATOM      7  C   UNL     1      -0.360   1.109  -4.677  1.00  0.00     0.015 C 
ATOM      8  C   UNL     1      -0.057   1.083  -6.178  1.00  0.00     0.010 C 
ATOM      9  C   UNL     1      -0.187   2.550  -4.168  1.00  0.00     0.010 C 
ENDBRANCH   6   7
BRANCH   6  10
ATOM     10  N   UNL     1      -2.381  -0.315  -5.335  1.00  0.00    -0.342 N 
ATOM     11  C   UNL     1      -3.173  -1.413  -5.429  1.00  0.00     0.244 C 
ATOM     12  H   UNL     1      -2.223   0.102  -6.212  1.00  0.00     0.164 HD
ATOM     13  O   UNL     1      -3.634  -1.595  -6.570  1.00  0.00    -0.273 OA
BRANCH  11  14
ATOM     14  C   UNL     1      -3.530  -2.438  -4.319  1.00  0.00     0.189 C 
BRANCH  14  15
ATOM     15  N   UNL     1      -2.915  -2.260  -3.005  1.00  0.00    -0.247 N 
ATOM     16  C   UNL     1      -3.429  -1.295  -2.160  1.00  0.00     0.329 A 
ATOM     17  C   UNL     1      -1.792  -3.031  -2.702  1.00  0.00     0.264 A 
ATOM     18  O   UNL     1      -4.301  -0.497  -2.499  1.00  0.00    -0.248 OA
ATOM     19  N   UNL     1      -2.865  -1.184  -0.927  1.00  0.00    -0.307 N 
ATOM     20  C   UNL     1      -1.186  -2.841  -1.371  1.00  0.00     0.064 A 
ATOM     21  O   UNL     1      -1.271  -3.829  -3.478  1.00  0.00    -0.268 OA
ATOM     22  C   UNL     1      -1.762  -1.917  -0.509  1.00  0.00     0.055 A 
ATOM     23  H   UNL     1      -3.262  -0.544  -0.293  1.00  0.00     0.171 HD
ATOM     24  C   UNL     1      -0.040  -3.544  -0.987  1.00  0.00     0.016 A 
ATOM     25  C   UNL     1      -1.208  -1.688   0.749  1.00  0.00     0.027 A 
ATOM     26  C   UNL     1       0.523  -3.312   0.268  1.00  0.00     0.001 A 
ATOM     27  C   UNL     1      -0.063  -2.388   1.135  1.00  0.00     0.002 A 
ENDBRANCH  14  15
BRANCH  14  28
ATOM     28  C   UNL     1      -5.075  -2.736  -4.354  1.00  0.00     0.071 C 
BRANCH  28  29
ATOM     29  C   UNL     1      -5.787  -2.951  -3.034  1.00  0.00    -0.045 A 
ATOM     30  C   UNL     1      -6.644  -1.951  -2.545  1.00  0.00     0.004 A 
ATOM     31  C   UNL     1      -5.507  -4.058  -2.225  1.00  0.00     0.004 A 
ATOM     32  C   UNL     1      -7.101  -1.986  -1.229  1.00  0.00     0.000 A 
ATOM     33  C   UNL     1      -5.990  -4.105  -0.915  1.00  0.00     0.000 A 
ATOM     34  C   UNL     1      -6.760  -3.057  -0.408  1.00  0.00     0.000 A 
ENDBRANCH  28  29
ENDBRANCH  14  28
ENDBRANCH  11  14
ENDBRANCH   6  10
ENDBRANCH   3   6
ENDBRANCH   1   2
BRANCH   1  35
ATOM     35  C   UNL     1      -5.075   1.823  -6.054  1.00  0.00     0.023 C 
BRANCH  35  36
ATOM     36  C   UNL     1      -6.379   2.145  -5.323  1.00  0.00     0.023 C 
BRANCH  36  37
ATOM     37  C   UNL     1      -6.575   3.583  -4.861  1.00  0.00     0.116 C 
BRANCH  37  38
ATOM     38  N   UNL     1      -6.389   4.578  -5.901  1.00  0.00    -0.352 N 
ATOM     39  C   UNL     1      -7.042   5.775  -6.088  1.00  0.00     0.251 C 
ATOM     40  H   UNL     1      -5.697   4.367  -6.569  1.00  0.00     0.163 HD
ATOM     41  O   UNL     1      -6.750   6.494  -7.030  1.00  0.00    -0.269 OA
BRANCH  39  42
ATOM     42  C   UNL     1      -8.146   6.160  -5.179  1.00  0.00     0.039 A 
ATOM     43  C   UNL     1      -9.350   6.578  -5.753  1.00  0.00     0.014 A 
ATOM     44  C   UNL     1      -8.017   6.084  -3.790  1.00  0.00     0.014 A 
ATOM     45  C   UNL     1     -10.451   6.843  -4.938  1.00  0.00     0.010 A 
ATOM     46  C   UNL     1      -9.134   6.286  -2.982  1.00  0.00     0.010 A 
ATOM     47  C   UNL     1     -10.363   6.658  -3.549  1.00  0.00    -0.014 A 
BRANCH  47  48
ATOM     48  C   UNL     1     -11.553   6.836  -2.680  1.00  0.00     0.031 A 
ATOM     49  C   UNL     1     -11.594   7.948  -1.672  1.00  0.00     0.074 A 
ATOM     50  C   UNL     1     -12.572   5.959  -2.760  1.00  0.00     0.049 A 
ATOM     51  N   UNL     1     -12.515   8.228  -0.785  1.00  0.00    -0.248 NA
ATOM     52  C   UNL     1     -10.434   8.852  -1.641  1.00  0.00     0.031 C 
ATOM     53  C   UNL     1     -12.631   4.813  -3.669  1.00  0.00     0.029 A 
ATOM     54  N   UNL     1     -13.750   5.889  -2.061  1.00  0.00    -0.354 N 
ATOM     55  C   UNL     1     -12.041   9.329  -0.085  1.00  0.00     0.074 A 
ATOM     56  C   UNL     1     -10.731   9.637  -0.616  1.00  0.00     0.031 C 
ATOM     57  C   UNL     1     -13.794   4.168  -3.488  1.00  0.00     0.029 A 
ATOM     58  C   UNL     1     -14.547   4.833  -2.429  1.00  0.00     0.049 A 
ATOM     59  H   UNL     1     -14.001   6.535  -1.362  1.00  0.00     0.167 HD
ATOM     60  C   UNL     1     -12.653  10.032   0.898  1.00  0.00     0.037 A 
ATOM     61  C   UNL     1     -15.748   4.443  -1.960  1.00  0.00     0.037 A 
ATOM     62  C   UNL     1     -13.968   9.738   1.408  1.00  0.00     0.049 A 
ATOM     63  C   UNL     1     -16.404   5.238  -0.865  1.00  0.00     0.074 A 
ATOM     64  C   UNL     1     -14.695  10.424   2.364  1.00  0.00     0.029 A 
ATOM     65  N   UNL     1     -14.748   8.668   1.001  1.00  0.00    -0.354 N 
ATOM     66  N   UNL     1     -15.973   6.313  -0.251  1.00  0.00    -0.248 NA
ATOM     67  C   UNL     1     -17.716   4.767  -0.401  1.00  0.00     0.031 C 
ATOM     68  C   UNL     1     -15.904   9.748   2.563  1.00  0.00     0.029 A 
ATOM     69  C   UNL     1     -15.947   8.664   1.700  1.00  0.00     0.049 A 
ATOM     70  H   UNL     1     -14.491   8.009   0.317  1.00  0.00     0.167 HD
ATOM     71  C   UNL     1     -16.968   6.663   0.650  1.00  0.00     0.074 A 
ATOM     72  C   UNL     1     -18.032   5.692   0.496  1.00  0.00     0.031 C 
ATOM     73  C   UNL     1     -16.998   7.696   1.527  1.00  0.00     0.037 A 
BRANCH  60  74
ATOM     74  C   UNL     1     -11.906  11.194   1.482  1.00  0.00     0.064 A 
ATOM     75  C   UNL     1     -11.700  12.374   0.753  1.00  0.00     0.173 A 
ATOM     76  C   UNL     1     -11.413  11.138   2.794  1.00  0.00     0.173 A 
ATOM     77  F   UNL     1     -12.142  12.473  -0.510  1.00  0.00    -0.203 F 
ATOM     78  C   UNL     1     -11.002  13.445   1.305  1.00  0.00     0.198 A 
ATOM     79  C   UNL     1     -10.739  12.221   3.352  1.00  0.00     0.198 A 
ATOM     80  F   UNL     1     -11.587  10.034   3.536  1.00  0.00    -0.203 F 
ATOM     81  F   UNL     1     -10.774  14.544   0.571  1.00  0.00    -0.200 F 
ATOM     82  C   UNL     1     -10.527  13.370   2.605  1.00  0.00     0.200 A 
ATOM     83  F   UNL     1     -10.290  12.152   4.614  1.00  0.00    -0.200 F 
ATOM     84  F   UNL     1      -9.858  14.403   3.136  1.00  0.00    -0.200 F 
ENDBRANCH  60  74
BRANCH  61  85
ATOM     85  C   UNL     1     -16.423   3.258  -2.547  1.00  0.00     0.064 A 
ATOM     86  C   UNL     1     -17.562   3.407  -3.351  1.00  0.00     0.173 A 
ATOM     87  C   UNL     1     -15.950   1.958  -2.319  1.00  0.00     0.173 A 
ATOM     88  F   UNL     1     -18.064   4.630  -3.579  1.00  0.00    -0.203 F 
ATOM     89  C   UNL     1     -18.212   2.300  -3.890  1.00  0.00     0.198 A 
ATOM     90  C   UNL     1     -16.587   0.852  -2.879  1.00  0.00     0.198 A 
ATOM     91  F   UNL     1     -14.862   1.763  -1.559  1.00  0.00    -0.203 F 
ATOM     92  F   UNL     1     -19.323   2.468  -4.621  1.00  0.00    -0.200 F 
ATOM     93  C   UNL     1     -17.721   1.024  -3.659  1.00  0.00     0.200 A 
ATOM     94  F   UNL     1     -16.104  -0.378  -2.662  1.00  0.00    -0.200 F 
ATOM     95  F   UNL     1     -18.346  -0.041  -4.180  1.00  0.00    -0.200 F 
ENDBRANCH  61  85
BRANCH  73  96
ATOM     96  C   UNL     1     -18.233   7.850   2.363  1.00  0.00     0.064 A 
ATOM     97  C   UNL     1     -18.508   6.986   3.435  1.00  0.00     0.173 A 
ATOM     98  C   UNL     1     -19.131   8.899   2.116  1.00  0.00     0.173 A 
ATOM     99  F   UNL     1     -17.686   5.959   3.699  1.00  0.00    -0.203 F 
ATOM    100  C   UNL     1     -19.648   7.155   4.214  1.00  0.00     0.198 A 
ATOM    101  C   UNL     1     -20.258   9.081   2.914  1.00  0.00     0.198 A 
ATOM    102  F   UNL     1     -18.910   9.754   1.107  1.00  0.00    -0.203 F 
ATOM    103  F   UNL     1     -19.912   6.295   5.206  1.00  0.00    -0.200 F 
ATOM    104  C   UNL     1     -20.518   8.206   3.958  1.00  0.00     0.200 A 
ATOM    105  F   UNL     1     -21.090  10.101   2.672  1.00  0.00    -0.200 F 
ATOM    106  F   UNL     1     -21.611   8.371   4.715  1.00  0.00    -0.200 F 
ENDBRANCH  73  96
ENDBRANCH  47  48
ENDBRANCH  39  42
ENDBRANCH  37  38
ENDBRANCH  36  37
ENDBRANCH  35  36
ENDBRANCH   1  35
TORSDOF 17
