REMARK SMILES O=C(NCCCCNC(=O)c1cc(-c2ccc(F)c(C(F)(F)F)c2)cnc1O)c1ccc(-c2c3nc(c(-c4c(F)c(F)c(F)c(F)c4F)c4ccc([nH]4)c(-c4c(F)c(F)c(F)c(F)c4F)c4nc(c(-c5c(F)c(F)c(F)c(F)c5F)c5ccc2[nH]5)C=C4)C=C3)cc1
REMARK SMILES IDX 5 1 4 2 3 3 1 4 2 5 29 7 30 8 91 9 31 10 90 11 32 12 33 13
REMARK SMILES IDX 34 14 84 15 35 16 89 17 83 18 85 19 36 20 88 21 82 22 81 23
REMARK SMILES IDX 37 25 69 26 49 27 68 28 50 29 53 30 67 31 86 32 51 33 52 34
REMARK SMILES IDX 66 36 87 37 54 38 38 39 39 40 47 41 40 42 41 43 45 44 48 45
REMARK SMILES IDX 42 46 43 47 46 48 44 49 70 50 71 51 79 52 72 53 73 54 77 55
REMARK SMILES IDX 80 56 74 57 75 58 78 59 76 60 55 61 56 62 64 63 57 64 58 65
REMARK SMILES IDX 62 66 65 67 59 68 60 69 63 70 61 71 6 72 7 73 8 74 9 75
REMARK SMILES IDX 10 77 11 78 12 79 27 80 13 81 26 82 25 83 28 84 14 86 15 87
REMARK SMILES IDX 24 88 16 89 19 90 17 91 18 92 20 93 21 94 22 95 23 96
REMARK H PARENT 3 6 85 24 53 35 8 76 28 85
REMARK Flexibility Score: inf
ROOT
ATOM      1  C   UNL     1       4.981   1.787  -1.879  1.00  0.00     0.023 C 
ENDROOT
BRANCH   1   2
ATOM      2  C   UNL     1       4.624   1.208  -0.514  1.00  0.00     0.116 C 
BRANCH   2   3
ATOM      3  N   UNL     1       3.192   1.153  -0.279  1.00  0.00    -0.352 N 
ATOM      4  O   UNL     1       1.180   0.226   0.106  1.00  0.00    -0.269 OA
ATOM      5  C   UNL     1       2.401   0.096   0.098  1.00  0.00     0.251 C 
ATOM      6  H   UNL     1       2.715   2.004  -0.409  1.00  0.00     0.163 HD
BRANCH   5   7
ATOM      7  C   UNL     1       3.000  -1.205   0.475  1.00  0.00     0.039 A 
ATOM      8  C   UNL     1       2.370  -2.377   0.046  1.00  0.00     0.014 A 
ATOM      9  C   UNL     1       4.140  -1.284   1.279  1.00  0.00     0.014 A 
ATOM     10  C   UNL     1       2.902  -3.621   0.390  1.00  0.00     0.010 A 
ATOM     11  C   UNL     1       4.717  -2.524   1.553  1.00  0.00     0.010 A 
ATOM     12  C   UNL     1       4.092  -3.706   1.131  1.00  0.00    -0.014 A 
BRANCH  12  13
ATOM     13  C   UNL     1       4.657  -5.027   1.514  1.00  0.00     0.031 A 
ATOM     14  C   UNL     1       4.724  -5.424   2.964  1.00  0.00     0.074 A 
ATOM     15  C   UNL     1       5.117  -5.864   0.564  1.00  0.00     0.049 A 
ATOM     16  N   UNL     1       5.191  -6.524   3.500  1.00  0.00    -0.248 NA
ATOM     17  C   UNL     1       4.219  -4.450   3.947  1.00  0.00     0.031 C 
ATOM     18  C   UNL     1       5.139  -5.583  -0.872  1.00  0.00     0.029 A 
ATOM     19  N   UNL     1       5.650  -7.127   0.662  1.00  0.00    -0.354 N 
ATOM     20  C   UNL     1       5.042  -6.369   4.872  1.00  0.00     0.074 A 
ATOM     21  C   UNL     1       4.499  -5.049   5.096  1.00  0.00     0.031 C 
ATOM     22  C   UNL     1       5.619  -6.654  -1.523  1.00  0.00     0.029 A 
ATOM     23  C   UNL     1       5.972  -7.686  -0.551  1.00  0.00     0.049 A 
ATOM     24  H   UNL     1       5.787  -7.588   1.521  1.00  0.00     0.167 HD
ATOM     25  C   UNL     1       5.302  -7.262   5.855  1.00  0.00     0.037 A 
ATOM     26  C   UNL     1       6.487  -8.896  -0.846  1.00  0.00     0.037 A 
ATOM     27  C   UNL     1       5.800  -8.591   5.631  1.00  0.00     0.049 A 
ATOM     28  C   UNL     1       6.776  -9.866   0.269  1.00  0.00     0.074 A 
ATOM     29  C   UNL     1       6.050  -9.584   6.562  1.00  0.00     0.029 A 
ATOM     30  N   UNL     1       6.115  -9.117   4.388  1.00  0.00    -0.354 N 
ATOM     31  N   UNL     1       6.581  -9.724   1.557  1.00  0.00    -0.248 NA
ATOM     32  C   UNL     1       7.352 -11.165  -0.109  1.00  0.00     0.031 C 
ATOM     33  C   UNL     1       6.553 -10.698   5.887  1.00  0.00     0.029 A 
ATOM     34  C   UNL     1       6.572 -10.416   4.530  1.00  0.00     0.049 A 
ATOM     35  H   UNL     1       6.027  -8.638   3.532  1.00  0.00     0.167 HD
ATOM     36  C   UNL     1       6.980 -10.921   2.138  1.00  0.00     0.074 A 
ATOM     37  C   UNL     1       7.420 -11.783   1.062  1.00  0.00     0.031 C 
ATOM     38  C   UNL     1       6.982 -11.270   3.446  1.00  0.00     0.037 A 
BRANCH  25  39
ATOM     39  C   UNL     1       5.024  -6.851   7.271  1.00  0.00     0.064 A 
ATOM     40  C   UNL     1       3.711  -6.734   7.751  1.00  0.00     0.173 A 
ATOM     41  C   UNL     1       6.075  -6.663   8.180  1.00  0.00     0.173 A 
ATOM     42  F   UNL     1       2.671  -6.894   6.919  1.00  0.00    -0.203 F 
ATOM     43  C   UNL     1       3.461  -6.436   9.087  1.00  0.00     0.198 A 
ATOM     44  C   UNL     1       5.822  -6.392   9.522  1.00  0.00     0.198 A 
ATOM     45  F   UNL     1       7.349  -6.770   7.772  1.00  0.00    -0.203 F 
ATOM     46  F   UNL     1       2.199  -6.303   9.518  1.00  0.00    -0.200 F 
ATOM     47  C   UNL     1       4.516  -6.276   9.974  1.00  0.00     0.200 A 
ATOM     48  F   UNL     1       6.841  -6.253  10.380  1.00  0.00    -0.200 F 
ATOM     49  F   UNL     1       4.273  -6.012  11.265  1.00  0.00    -0.200 F 
ENDBRANCH  25  39
BRANCH  26  50
ATOM     50  C   UNL     1       6.724  -9.275  -2.264  1.00  0.00     0.064 A 
ATOM     51  C   UNL     1       5.941 -10.259  -2.884  1.00  0.00     0.173 A 
ATOM     52  C   UNL     1       7.728  -8.664  -3.029  1.00  0.00     0.173 A 
ATOM     53  F   UNL     1       4.983 -10.888  -2.189  1.00  0.00    -0.203 F 
ATOM     54  C   UNL     1       6.163 -10.627  -4.210  1.00  0.00     0.198 A 
ATOM     55  C   UNL     1       7.931  -9.013  -4.363  1.00  0.00     0.198 A 
ATOM     56  F   UNL     1       8.503  -7.714  -2.484  1.00  0.00    -0.203 F 
ATOM     57  F   UNL     1       5.427 -11.599  -4.765  1.00  0.00    -0.200 F 
ATOM     58  C   UNL     1       7.153  -9.999  -4.950  1.00  0.00     0.200 A 
ATOM     59  F   UNL     1       8.879  -8.393  -5.079  1.00  0.00    -0.200 F 
ATOM     60  F   UNL     1       7.361 -10.348  -6.227  1.00  0.00    -0.200 F 
ENDBRANCH  26  50
BRANCH  38  61
ATOM     61  C   UNL     1       7.440 -12.652   3.805  1.00  0.00     0.064 A 
ATOM     62  C   UNL     1       8.797 -13.001   3.781  1.00  0.00     0.173 A 
ATOM     63  C   UNL     1       6.522 -13.601   4.281  1.00  0.00     0.173 A 
ATOM     64  F   UNL     1       9.710 -12.131   3.325  1.00  0.00    -0.203 F 
ATOM     65  C   UNL     1       9.220 -14.254   4.219  1.00  0.00     0.198 A 
ATOM     66  C   UNL     1       6.951 -14.842   4.743  1.00  0.00     0.198 A 
ATOM     67  F   UNL     1       5.214 -13.310   4.333  1.00  0.00    -0.203 F 
ATOM     68  F   UNL     1      10.520 -14.575   4.170  1.00  0.00    -0.200 F 
ATOM     69  C   UNL     1       8.299 -15.167   4.711  1.00  0.00     0.200 A 
ATOM     70  F   UNL     1       6.062 -15.716   5.234  1.00  0.00    -0.200 F 
ATOM     71  F   UNL     1       8.711 -16.362   5.156  1.00  0.00    -0.200 F 
ENDBRANCH  38  61
ENDBRANCH  12  13
ENDBRANCH   5   7
ENDBRANCH   2   3
ENDBRANCH   1   2
BRANCH   1  72
ATOM     72  C   UNL     1       4.490   3.212  -2.141  1.00  0.00     0.023 C 
BRANCH  72  73
ATOM     73  C   UNL     1       4.853   4.237  -1.070  1.00  0.00     0.116 C 
BRANCH  73  74
ATOM     74  N   UNL     1       6.295   4.375  -0.900  1.00  0.00    -0.352 N 
ATOM     75  C   UNL     1       7.069   5.496  -1.042  1.00  0.00     0.256 C 
ATOM     76  H   UNL     1       6.777   3.554  -0.650  1.00  0.00     0.163 HD
ATOM     77  O   UNL     1       8.298   5.412  -1.026  1.00  0.00    -0.269 OA
BRANCH  75  78
ATOM     78  C   UNL     1       6.436   6.809  -1.195  1.00  0.00     0.102 A 
ATOM     79  C   UNL     1       6.753   7.588  -2.313  1.00  0.00     0.029 A 
ATOM     80  C   UNL     1       5.540   7.312  -0.258  1.00  0.00     0.223 A 
ATOM     81  C   UNL     1       6.126   8.825  -2.492  1.00  0.00     0.001 A 
ATOM     82  N   UNL     1       4.896   8.482  -0.412  1.00  0.00    -0.221 NA
ATOM     83  C   UNL     1       5.198   9.203  -1.517  1.00  0.00     0.124 A 
BRANCH  80  84
ATOM     84  O   UNL     1       5.218   6.663   0.898  1.00  0.00    -0.493 OA
ATOM     85  H   UNL     1       5.615   5.838   1.098  1.00  0.00     0.295 HD
ENDBRANCH  80  84
BRANCH  81  86
ATOM     86  C   UNL     1       6.417   9.699  -3.631  1.00  0.00    -0.016 A 
ATOM     87  C   UNL     1       6.954  10.980  -3.420  1.00  0.00     0.012 A 
ATOM     88  C   UNL     1       6.124   9.306  -4.949  1.00  0.00     0.025 A 
ATOM     89  C   UNL     1       7.172  11.850  -4.488  1.00  0.00     0.040 A 
ATOM     90  C   UNL     1       6.335  10.180  -6.032  1.00  0.00     0.092 A 
ATOM     91  C   UNL     1       6.853  11.447  -5.779  1.00  0.00     0.135 A 
ATOM     92  F   UNL     1       7.040  12.308  -6.787  1.00  0.00    -0.206 F 
BRANCH  90  93
ATOM     93  C   UNL     1       5.977   9.806  -7.438  1.00  0.00     0.419 C 
ATOM     94  F   UNL     1       4.896  10.491  -7.902  1.00  0.00    -0.166 F 
ATOM     95  F   UNL     1       6.982  10.025  -8.329  1.00  0.00    -0.166 F 
ATOM     96  F   UNL     1       5.656   8.486  -7.569  1.00  0.00    -0.166 F 
ENDBRANCH  90  93
ENDBRANCH  81  86
ENDBRANCH  75  78
ENDBRANCH  73  74
ENDBRANCH  72  73
ENDBRANCH   1  72
TORSDOF 14
