REMARK SMILES CCS(=O)(=O)N1CCC[C@@H](C(=O)NCCCCNC(=O)c2ccc(-c3c4nc(c(-c5c(F)c(F)c(F)c(F)c5F)c5ccc([nH]5)c(-c5c(F)c(F)c(F)c(F)c5F)c5nc(c(-c6c(F)c(F)c(F)c(F)c6F)c6ccc3[nH]6)C=C5)C=C4)cc2)C1
REMARK SMILES IDX 15 1 14 2 13 3 11 4 12 5 10 7 6 8 7 9 84 10 8 11 9 12 3 13
REMARK SMILES IDX 4 14 5 15 2 16 1 17 16 18 17 19 18 20 19 21 20 23 21 24
REMARK SMILES IDX 22 25 83 26 23 27 82 28 24 29 25 30 26 31 76 32 27 33 81 34
REMARK SMILES IDX 75 35 77 36 28 37 80 38 74 39 73 40 29 42 61 43 41 44 60 45
REMARK SMILES IDX 42 46 45 47 59 48 78 49 43 50 44 51 58 53 79 54 46 55 30 56
REMARK SMILES IDX 31 57 39 58 32 59 33 60 37 61 40 62 34 63 35 64 38 65 36 66
REMARK SMILES IDX 62 67 63 68 71 69 64 70 65 71 69 72 72 73 66 74 67 75 70 76
REMARK SMILES IDX 68 77 47 78 48 79 56 80 49 81 50 82 54 83 57 84 51 85 52 86
REMARK SMILES IDX 55 87 53 88
REMARK H PARENT 13 6 18 22 77 41 45 52
REMARK Flexibility Score: inf
ROOT
ATOM      1  C   UNL     1       3.351   4.928  -4.547  1.00  0.00     0.023 C 
ENDROOT
BRANCH   1   2
ATOM      2  C   UNL     1       4.421   4.221  -3.721  1.00  0.00     0.116 C 
BRANCH   2   3
ATOM      3  N   UNL     1       5.102   5.133  -2.814  1.00  0.00    -0.356 N 
ATOM      4  C   UNL     1       5.345   5.050  -1.475  1.00  0.00     0.224 C 
ATOM      5  O   UNL     1       5.973   5.971  -0.951  1.00  0.00    -0.275 OA
ATOM      6  H   UNL     1       5.446   5.951  -3.240  1.00  0.00     0.163 HD
BRANCH   4   7
ATOM      7  C   UNL     1       4.879   3.859  -0.649  1.00  0.00     0.093 C 
ATOM      8  N   UNL     1       2.785   2.505  -0.128  1.00  0.00    -0.201 NA
ATOM      9  C   UNL     1       3.418   1.365  -0.840  1.00  0.00     0.102 C 
ATOM     10  C   UNL     1       3.349   3.826  -0.585  1.00  0.00     0.115 C 
ATOM     11  C   UNL     1       4.908   1.341  -0.536  1.00  0.00     0.018 C 
ATOM     12  C   UNL     1       5.580   2.576  -1.104  1.00  0.00     0.016 C 
BRANCH   8  13
ATOM     13  S   UNL     1       1.067   2.532  -0.197  1.00  0.00     0.213 S 
ATOM     14  O   UNL     1       0.691   2.273  -1.569  1.00  0.00    -0.212 OA
ATOM     15  O   UNL     1       0.645   3.758   0.454  1.00  0.00    -0.212 OA
BRANCH  13  16
ATOM     16  C   UNL     1       0.529   1.183   0.854  1.00  0.00     0.151 C 
ATOM     17  C   UNL     1       0.596  -0.198   0.236  1.00  0.00     0.022 C 
ENDBRANCH  13  16
ENDBRANCH   8  13
ENDBRANCH   4   7
ENDBRANCH   2   3
ENDBRANCH   1   2
BRANCH   1  18
ATOM     18  C   UNL     1       3.893   5.950  -5.545  1.00  0.00     0.023 C 
BRANCH  18  19
ATOM     19  C   UNL     1       4.930   5.410  -6.523  1.00  0.00     0.116 C 
BRANCH  19  20
ATOM     20  N   UNL     1       4.419   4.330  -7.354  1.00  0.00    -0.352 N 
ATOM     21  C   UNL     1       4.477   4.185  -8.719  1.00  0.00     0.251 C 
ATOM     22  H   UNL     1       3.969   3.600  -6.869  1.00  0.00     0.163 HD
ATOM     23  O   UNL     1       3.867   3.276  -9.273  1.00  0.00    -0.269 OA
BRANCH  21  24
ATOM     24  C   UNL     1       5.252   5.152  -9.524  1.00  0.00     0.039 A 
ATOM     25  C   UNL     1       4.668   5.697 -10.669  1.00  0.00     0.014 A 
ATOM     26  C   UNL     1       6.537   5.539  -9.136  1.00  0.00     0.014 A 
ATOM     27  C   UNL     1       5.347   6.685 -11.386  1.00  0.00     0.010 A 
ATOM     28  C   UNL     1       7.175   6.582  -9.800  1.00  0.00     0.010 A 
ATOM     29  C   UNL     1       6.587   7.165 -10.934  1.00  0.00    -0.014 A 
BRANCH  29  30
ATOM     30  C   UNL     1       7.280   8.280 -11.630  1.00  0.00     0.031 A 
ATOM     31  C   UNL     1       8.628   8.058 -12.259  1.00  0.00     0.074 A 
ATOM     32  C   UNL     1       6.724   9.507 -11.642  1.00  0.00     0.049 A 
ATOM     33  N   UNL     1       9.414   8.917 -12.859  1.00  0.00    -0.248 NA
ATOM     34  C   UNL     1       9.178   6.696 -12.181  1.00  0.00     0.031 C 
ATOM     35  C   UNL     1       5.444   9.862 -11.027  1.00  0.00     0.029 A 
ATOM     36  N   UNL     1       7.168  10.687 -12.187  1.00  0.00    -0.354 N 
ATOM     37  C   UNL     1      10.549   8.203 -13.218  1.00  0.00     0.074 A 
ATOM     38  C   UNL     1      10.380   6.858 -12.714  1.00  0.00     0.031 C 
ATOM     39  C   UNL     1       5.193  11.161 -11.251  1.00  0.00     0.029 A 
ATOM     40  C   UNL     1       6.312  11.743 -11.986  1.00  0.00     0.049 A 
ATOM     41  H   UNL     1       8.019  10.769 -12.675  1.00  0.00     0.167 HD
ATOM     42  C   UNL     1      11.624   8.624 -13.927  1.00  0.00     0.037 A 
ATOM     43  C   UNL     1       6.422  13.036 -12.346  1.00  0.00     0.037 A 
ATOM     44  C   UNL     1      11.783   9.960 -14.438  1.00  0.00     0.049 A 
ATOM     45  C   UNL     1       7.640  13.484 -13.109  1.00  0.00     0.074 A 
ATOM     46  C   UNL     1      12.809  10.471 -15.213  1.00  0.00     0.029 A 
ATOM     47  N   UNL     1      10.892  11.002 -14.218  1.00  0.00    -0.354 N 
ATOM     48  N   UNL     1       8.673  12.783 -13.508  1.00  0.00    -0.248 NA
ATOM     49  C   UNL     1       7.702  14.905 -13.480  1.00  0.00     0.031 C 
ATOM     50  C   UNL     1      12.571  11.835 -15.410  1.00  0.00     0.029 A 
ATOM     51  C   UNL     1      11.362  12.160 -14.818  1.00  0.00     0.049 A 
ATOM     52  H   UNL     1      10.051  10.929 -13.711  1.00  0.00     0.167 HD
ATOM     53  C   UNL     1       9.490  13.666 -14.202  1.00  0.00     0.074 A 
ATOM     54  C   UNL     1       8.824  14.951 -14.184  1.00  0.00     0.031 C 
ATOM     55  C   UNL     1      10.684  13.432 -14.800  1.00  0.00     0.037 A 
BRANCH  42  56
ATOM     56  C   UNL     1      12.718   7.627 -14.189  1.00  0.00     0.064 A 
ATOM     57  C   UNL     1      12.524   6.524 -15.036  1.00  0.00     0.173 A 
ATOM     58  C   UNL     1      13.987   7.793 -13.614  1.00  0.00     0.173 A 
ATOM     59  F   UNL     1      11.327   6.311 -15.604  1.00  0.00    -0.203 F 
ATOM     60  C   UNL     1      13.547   5.609 -15.270  1.00  0.00     0.198 A 
ATOM     61  C   UNL     1      15.019   6.896 -13.879  1.00  0.00     0.198 A 
ATOM     62  F   UNL     1      14.231   8.832 -12.802  1.00  0.00    -0.203 F 
ATOM     63  F   UNL     1      13.320   4.533 -16.037  1.00  0.00    -0.200 F 
ATOM     64  C   UNL     1      14.795   5.800 -14.698  1.00  0.00     0.200 A 
ATOM     65  F   UNL     1      16.229   7.091 -13.338  1.00  0.00    -0.200 F 
ATOM     66  F   UNL     1      15.782   4.923 -14.930  1.00  0.00    -0.200 F 
ENDBRANCH  42  56
BRANCH  43  67
ATOM     67  C   UNL     1       5.340  13.999 -12.005  1.00  0.00     0.064 A 
ATOM     68  C   UNL     1       4.548  14.577 -13.008  1.00  0.00     0.173 A 
ATOM     69  C   UNL     1       5.084  14.372 -10.678  1.00  0.00     0.173 A 
ATOM     70  F   UNL     1       4.767  14.269 -14.294  1.00  0.00    -0.203 F 
ATOM     71  C   UNL     1       3.559  15.509 -12.698  1.00  0.00     0.198 A 
ATOM     72  C   UNL     1       4.072  15.278 -10.366  1.00  0.00     0.198 A 
ATOM     73  F   UNL     1       5.809  13.845  -9.680  1.00  0.00    -0.203 F 
ATOM     74  F   UNL     1       2.854  16.085 -13.680  1.00  0.00    -0.200 F 
ATOM     75  C   UNL     1       3.318  15.854 -11.377  1.00  0.00     0.200 A 
ATOM     76  F   UNL     1       3.832  15.597  -9.087  1.00  0.00    -0.200 F 
ATOM     77  F   UNL     1       2.365  16.748 -11.079  1.00  0.00    -0.200 F 
ENDBRANCH  43  67
BRANCH  55  78
ATOM     78  C   UNL     1      11.330  14.579 -15.525  1.00  0.00     0.064 A 
ATOM     79  C   UNL     1      11.867  15.681 -14.841  1.00  0.00     0.173 A 
ATOM     80  C   UNL     1      11.447  14.557 -16.924  1.00  0.00     0.173 A 
ATOM     81  F   UNL     1      11.770  15.759 -13.505  1.00  0.00    -0.203 F 
ATOM     82  C   UNL     1      12.468  16.730 -15.533  1.00  0.00     0.198 A 
ATOM     83  C   UNL     1      12.081  15.589 -17.609  1.00  0.00     0.198 A 
ATOM     84  F   UNL     1      10.958  13.524 -17.627  1.00  0.00    -0.203 F 
ATOM     85  F   UNL     1      12.923  17.797 -14.863  1.00  0.00    -0.200 F 
ATOM     86  C   UNL     1      12.582  16.679 -16.914  1.00  0.00     0.200 A 
ATOM     87  F   UNL     1      12.206  15.529 -18.942  1.00  0.00    -0.200 F 
ATOM     88  F   UNL     1      13.169  17.685 -17.577  1.00  0.00    -0.200 F 
ENDBRANCH  55  78
ENDBRANCH  29  30
ENDBRANCH  21  24
ENDBRANCH  19  20
ENDBRANCH  18  19
ENDBRANCH   1  18
TORSDOF 13
