REMARK SMILES CC(C)[NH2+][C@@]1(C(=O)NCCCCNC(=O)c2ccc(-c3c4nc(c(-c5c(F)c(F)c(F)c(F)c5F)c5ccc([nH]5)c(-c5c(F)c(F)c(F)c(F)c5F)c5nc(c(-c6c(F)c(F)c(F)c(F)c6F)c6ccc3[nH]6)C=C5)C=C4)cc2)CC[C@@H](Sc2cccs2)C1
REMARK SMILES IDX 10 1 9 2 8 3 6 4 7 5 5 7 79 8 88 9 80 10 81 11 4 12 2 15
REMARK SMILES IDX 1 16 3 17 82 18 83 19 84 20 87 21 85 22 86 23 11 24 12 25
REMARK SMILES IDX 13 26 14 27 15 29 16 30 17 31 78 32 18 33 77 34 19 35 20 36
REMARK SMILES IDX 21 37 71 38 22 39 76 40 70 41 72 42 23 43 75 44 69 45 68 46
REMARK SMILES IDX 24 48 56 49 36 50 55 51 37 52 40 53 54 54 73 55 38 56 39 57
REMARK SMILES IDX 53 59 74 60 41 61 25 62 26 63 34 64 27 65 28 66 32 67 35 68
REMARK SMILES IDX 29 69 30 70 33 71 31 72 57 73 58 74 66 75 59 76 60 77 64 78
REMARK SMILES IDX 67 79 61 80 62 81 65 82 63 83 42 84 43 85 51 86 44 87 45 88
REMARK SMILES IDX 49 89 52 90 46 91 47 92 50 93 48 94
REMARK H PARENT 8 6 4 13 4 14 13 28 72 47 40 58
REMARK Flexibility Score: inf
ROOT
ATOM      1  C   UNL     1      -4.206   5.296   2.424  1.00  0.00     0.023 C 
ENDROOT
BRANCH   1   2
ATOM      2  C   UNL     1      -2.705   5.029   2.501  1.00  0.00     0.116 C 
BRANCH   2   3
ATOM      3  N   UNL     1      -2.382   3.630   2.625  1.00  0.00    -0.351 N 
ATOM      4  C   UNL     1      -1.764   2.744   1.791  1.00  0.00     0.281 C 
ATOM      5  O   UNL     1      -1.538   1.645   2.314  1.00  0.00    -0.268 OA
ATOM      6  H   UNL     1      -2.663   3.234   3.481  1.00  0.00     0.163 HD
BRANCH   4   7
ATOM      7  C   UNL     1      -1.410   3.051   0.274  1.00  0.00     0.176 C 
ATOM      8  C   UNL     1      -0.576   4.318   0.037  1.00  0.00     0.080 C 
ATOM      9  C   UNL     1      -2.714   3.249  -0.535  1.00  0.00     0.094 C 
ATOM     10  C   UNL     1      -1.431   5.361  -0.676  1.00  0.00     0.022 C 
ATOM     11  C   UNL     1      -2.775   4.710  -0.985  1.00  0.00     0.059 C 
BRANCH   7  12
ATOM     12  N   UNL     1      -0.741   1.852  -0.314  1.00  0.00    -0.332 N 
ATOM     13  H   UNL     1      -1.347   1.051  -0.138  1.00  0.00     0.347 HD
ATOM     14  H   UNL     1      -0.599   2.099  -1.294  1.00  0.00     0.347 HD
BRANCH  12  15
ATOM     15  C   UNL     1       0.601   1.495   0.166  1.00  0.00     0.176 C 
ATOM     16  C   UNL     1       0.664  -0.035   0.243  1.00  0.00     0.075 C 
ATOM     17  C   UNL     1       1.703   1.977  -0.790  1.00  0.00     0.075 C 
ENDBRANCH  12  15
ENDBRANCH   7  12
BRANCH  11  18
ATOM     18  S   UNL     1      -3.371   4.913  -2.705  1.00  0.00    -0.112 SA
BRANCH  18  19
ATOM     19  C   UNL     1      -1.911   4.684  -3.653  1.00  0.00     0.060 A 
ATOM     20  C   UNL     1      -1.235   3.502  -3.861  1.00  0.00     0.027 A 
ATOM     21  S   UNL     1      -1.151   5.995  -4.451  1.00  0.00    -0.137 S 
ATOM     22  C   UNL     1      -0.025   3.695  -4.590  1.00  0.00     0.013 A 
ATOM     23  C   UNL     1       0.155   5.011  -4.952  1.00  0.00     0.066 A 
ENDBRANCH  18  19
ENDBRANCH  11  18
ENDBRANCH   4   7
ENDBRANCH   2   3
ENDBRANCH   1   2
BRANCH   1  24
ATOM     24  C   UNL     1      -4.858   5.630   3.764  1.00  0.00     0.023 C 
BRANCH  24  25
ATOM     25  C   UNL     1      -4.253   6.814   4.513  1.00  0.00     0.116 C 
BRANCH  25  26
ATOM     26  N   UNL     1      -4.189   8.048   3.741  1.00  0.00    -0.352 N 
ATOM     27  C   UNL     1      -4.303   9.341   4.203  1.00  0.00     0.251 C 
ATOM     28  H   UNL     1      -4.046   7.945   2.772  1.00  0.00     0.163 HD
ATOM     29  O   UNL     1      -4.288  10.291   3.435  1.00  0.00    -0.269 OA
BRANCH  27  30
ATOM     30  C   UNL     1      -4.500   9.553   5.652  1.00  0.00     0.039 A 
ATOM     31  C   UNL     1      -5.618  10.269   6.083  1.00  0.00     0.014 A 
ATOM     32  C   UNL     1      -3.637   8.954   6.572  1.00  0.00     0.014 A 
ATOM     33  C   UNL     1      -5.923  10.307   7.444  1.00  0.00     0.010 A 
ATOM     34  C   UNL     1      -3.986   8.927   7.917  1.00  0.00     0.010 A 
ATOM     35  C   UNL     1      -5.138   9.594   8.364  1.00  0.00    -0.014 A 
BRANCH  35  36
ATOM     36  C   UNL     1      -5.507   9.518   9.800  1.00  0.00     0.031 A 
ATOM     37  C   UNL     1      -4.588  10.090  10.841  1.00  0.00     0.074 A 
ATOM     38  C   UNL     1      -6.622   8.858  10.169  1.00  0.00     0.049 A 
ATOM     39  N   UNL     1      -4.684  10.044  12.146  1.00  0.00    -0.248 NA
ATOM     40  C   UNL     1      -3.382  10.775  10.351  1.00  0.00     0.031 C 
ATOM     41  C   UNL     1      -7.562   8.203   9.257  1.00  0.00     0.029 A 
ATOM     42  N   UNL     1      -7.148   8.617  11.414  1.00  0.00    -0.354 N 
ATOM     43  C   UNL     1      -3.543  10.670  12.628  1.00  0.00     0.074 A 
ATOM     44  C   UNL     1      -2.744  11.040  11.480  1.00  0.00     0.031 C 
ATOM     45  C   UNL     1      -8.559   7.655   9.970  1.00  0.00     0.029 A 
ATOM     46  C   UNL     1      -8.313   7.890  11.390  1.00  0.00     0.049 A 
ATOM     47  H   UNL     1      -6.729   8.935  12.247  1.00  0.00     0.167 HD
ATOM     48  C   UNL     1      -3.204  10.935  13.912  1.00  0.00     0.037 A 
ATOM     49  C   UNL     1      -9.093   7.460  12.400  1.00  0.00     0.037 A 
ATOM     50  C   UNL     1      -4.021  10.603  15.048  1.00  0.00     0.049 A 
ATOM     51  C   UNL     1      -8.710   7.793  13.816  1.00  0.00     0.074 A 
ATOM     52  C   UNL     1      -3.804  10.897  16.383  1.00  0.00     0.029 A 
ATOM     53  N   UNL     1      -5.217   9.903  14.981  1.00  0.00    -0.354 N 
ATOM     54  N   UNL     1      -7.666   8.453  14.257  1.00  0.00    -0.248 NA
ATOM     55  C   UNL     1      -9.617   7.329  14.875  1.00  0.00     0.031 C 
ATOM     56  C   UNL     1      -4.851  10.344  17.128  1.00  0.00     0.029 A 
ATOM     57  C   UNL     1      -5.742   9.742  16.253  1.00  0.00     0.049 A 
ATOM     58  H   UNL     1      -5.631   9.571  14.152  1.00  0.00     0.167 HD
ATOM     59  C   UNL     1      -7.803   8.506  15.637  1.00  0.00     0.074 A 
ATOM     60  C   UNL     1      -9.039   7.824  15.960  1.00  0.00     0.031 C 
ATOM     61  C   UNL     1      -6.979   9.069  16.554  1.00  0.00     0.037 A 
BRANCH  48  62
ATOM     62  C   UNL     1      -1.897  11.631  14.152  1.00  0.00     0.064 A 
ATOM     63  C   UNL     1      -1.704  12.975  13.798  1.00  0.00     0.173 A 
ATOM     64  C   UNL     1      -0.832  10.954  14.764  1.00  0.00     0.173 A 
ATOM     65  F   UNL     1      -2.687  13.662  13.197  1.00  0.00    -0.203 F 
ATOM     66  C   UNL     1      -0.483  13.607  14.019  1.00  0.00     0.198 A 
ATOM     67  C   UNL     1       0.378  11.598  15.011  1.00  0.00     0.198 A 
ATOM     68  F   UNL     1      -0.964   9.669  15.125  1.00  0.00    -0.203 F 
ATOM     69  F   UNL     1      -0.306  14.875  13.624  1.00  0.00    -0.200 F 
ATOM     70  C   UNL     1       0.554  12.920  14.631  1.00  0.00     0.200 A 
ATOM     71  F   UNL     1       1.377  10.936  15.612  1.00  0.00    -0.200 F 
ATOM     72  F   UNL     1       1.728  13.530  14.847  1.00  0.00    -0.200 F 
ENDBRANCH  48  62
BRANCH  49  73
ATOM     73  C   UNL     1     -10.334   6.697  12.108  1.00  0.00     0.064 A 
ATOM     74  C   UNL     1     -11.595   7.276  12.306  1.00  0.00     0.173 A 
ATOM     75  C   UNL     1     -10.289   5.380  11.629  1.00  0.00     0.173 A 
ATOM     76  F   UNL     1     -11.689   8.527  12.782  1.00  0.00    -0.203 F 
ATOM     77  C   UNL     1     -12.764   6.561  12.057  1.00  0.00     0.198 A 
ATOM     78  C   UNL     1     -11.459   4.674  11.356  1.00  0.00     0.198 A 
ATOM     79  F   UNL     1      -9.107   4.782  11.418  1.00  0.00    -0.203 F 
ATOM     80  F   UNL     1     -13.956   7.124  12.296  1.00  0.00    -0.200 F 
ATOM     81  C   UNL     1     -12.695   5.262  11.576  1.00  0.00     0.200 A 
ATOM     82  F   UNL     1     -11.388   3.423  10.880  1.00  0.00    -0.200 F 
ATOM     83  F   UNL     1     -13.819   4.574  11.334  1.00  0.00    -0.200 F 
ENDBRANCH  49  73
BRANCH  61  84
ATOM     84  C   UNL     1      -7.402   9.001  17.991  1.00  0.00     0.064 A 
ATOM     85  C   UNL     1      -7.339   7.805  18.720  1.00  0.00     0.173 A 
ATOM     86  C   UNL     1      -7.832  10.158  18.659  1.00  0.00     0.173 A 
ATOM     87  F   UNL     1      -6.949   6.670  18.121  1.00  0.00    -0.203 F 
ATOM     88  C   UNL     1      -7.712   7.765  20.060  1.00  0.00     0.198 A 
ATOM     89  C   UNL     1      -8.178  10.120  20.006  1.00  0.00     0.198 A 
ATOM     90  F   UNL     1      -7.904  11.328  18.006  1.00  0.00    -0.203 F 
ATOM     91  F   UNL     1      -7.684   6.602  20.727  1.00  0.00    -0.200 F 
ATOM     92  C   UNL     1      -8.124   8.923  20.704  1.00  0.00     0.200 A 
ATOM     93  F   UNL     1      -8.564  11.241  20.629  1.00  0.00    -0.200 F 
ATOM     94  F   UNL     1      -8.475   8.883  21.997  1.00  0.00    -0.200 F 
ENDBRANCH  61  84
ENDBRANCH  35  36
ENDBRANCH  27  30
ENDBRANCH  25  26
ENDBRANCH  24  25
ENDBRANCH   1  24
TORSDOF 15
