REMARK SMILES O=C(C[C@@H](C(=O)NCCCCNC(=O)c1ccc(-c2c3nc(c(-c4c(F)c(F)c(F)c(F)c4F)c4ccc([nH]4)c(-c4c(F)c(F)c(F)c(F)c4F)c4nc(c(-c5c(F)c(F)c(F)c(F)c5F)c5ccc2[nH]5)C=C4)C=C3)cc1)c1ccccc1)Nc1cc(C(F)(F)F)ccc1-n1cncn1
REMARK SMILES IDX 8 1 7 2 5 3 6 4 4 6 3 7 2 8 1 9 84 10 85 12 86 13 94 14
REMARK SMILES IDX 87 15 93 16 92 17 95 18 96 19 99 20 97 21 98 22 88 23 89 24
REMARK SMILES IDX 90 25 91 26 78 27 79 28 83 29 80 30 82 31 81 32 9 33 10 34
REMARK SMILES IDX 11 35 12 36 13 37 14 39 15 40 16 41 77 42 17 43 76 44 18 45
REMARK SMILES IDX 19 46 20 47 70 48 21 49 75 50 69 51 71 52 22 53 74 54 68 55
REMARK SMILES IDX 67 56 23 58 55 59 35 60 54 61 36 62 39 63 53 64 72 65 37 66
REMARK SMILES IDX 38 67 52 69 73 70 40 71 24 72 25 73 33 74 26 75 27 76 31 77
REMARK SMILES IDX 34 78 28 79 29 80 32 81 30 82 56 83 57 84 65 85 58 86 59 87
REMARK SMILES IDX 63 88 66 89 60 90 61 91 64 92 62 93 41 94 42 95 50 96 43 97
REMARK SMILES IDX 44 98 48 99 51 100 45 101 46 102 49 103 47 104
REMARK H PARENT 7 5 84 11 12 38 71 57 39 68
REMARK Flexibility Score: inf
ROOT
ATOM      1  C   UNL     1       4.435   1.780  -2.474  1.00  0.00     0.116 C 
ENDROOT
BRANCH   1   2
ATOM      2  N   UNL     1       5.204   0.583  -2.185  1.00  0.00    -0.356 N 
ATOM      3  C   UNL     1       4.934  -0.127  -1.041  1.00  0.00     0.228 C 
ATOM      4  O   UNL     1       5.553   0.125  -0.007  1.00  0.00    -0.274 OA
ATOM      5  H   UNL     1       5.911   0.284  -2.801  1.00  0.00     0.163 HD
BRANCH   3   6
ATOM      6  C   UNL     1       3.902  -1.248  -1.145  1.00  0.00     0.118 C 
BRANCH   6   7
ATOM      7  C   UNL     1       3.080  -1.229   0.159  1.00  0.00     0.118 C 
BRANCH   7   8
ATOM      8  C   UNL     1       2.151  -0.030   0.270  1.00  0.00     0.225 C 
ATOM      9  O   UNL     1       1.087   0.014  -0.339  1.00  0.00    -0.275 OA
ATOM     10  N   UNL     1       2.611   0.975   1.110  1.00  0.00    -0.324 N 
ATOM     11  H   UNL     1       3.558   0.953   1.379  1.00  0.00     0.170 HD
BRANCH  10  12
ATOM     12  C   UNL     1       1.804   2.036   1.607  1.00  0.00     0.067 A 
ATOM     13  C   UNL     1       2.383   3.309   1.629  1.00  0.00     0.041 A 
ATOM     14  C   UNL     1       0.488   1.901   2.087  1.00  0.00     0.090 A 
ATOM     15  C   UNL     1       1.651   4.450   2.007  1.00  0.00     0.058 A 
ATOM     16  C   UNL     1      -0.280   3.044   2.392  1.00  0.00     0.031 A 
ATOM     17  C   UNL     1       0.303   4.312   2.352  1.00  0.00     0.015 A 
BRANCH  14  18
ATOM     18  N   UNL     1      -0.012   0.653   2.540  1.00  0.00    -0.219 N 
ATOM     19  C   UNL     1       0.719  -0.382   3.081  1.00  0.00     0.226 A 
ATOM     20  N   UNL     1      -1.331   0.412   2.752  1.00  0.00    -0.155 NA
ATOM     21  N   UNL     1      -0.071  -1.338   3.507  1.00  0.00    -0.223 NA
ATOM     22  C   UNL     1      -1.307  -0.818   3.269  1.00  0.00     0.246 A 
ENDBRANCH  14  18
BRANCH  15  23
ATOM     23  C   UNL     1       2.361   5.776   2.086  1.00  0.00     0.416 C 
ATOM     24  F   UNL     1       3.243   5.815   3.124  1.00  0.00    -0.166 F 
ATOM     25  F   UNL     1       3.107   6.033   0.978  1.00  0.00    -0.166 F 
ATOM     26  F   UNL     1       1.539   6.845   2.258  1.00  0.00    -0.166 F 
ENDBRANCH  15  23
ENDBRANCH  10  12
ENDBRANCH   7   8
ENDBRANCH   6   7
BRANCH   6  27
ATOM     27  C   UNL     1       4.587  -2.616  -1.351  1.00  0.00    -0.035 A 
ATOM     28  C   UNL     1       3.813  -3.787  -1.431  1.00  0.00     0.004 A 
ATOM     29  C   UNL     1       5.983  -2.756  -1.476  1.00  0.00     0.004 A 
ATOM     30  C   UNL     1       4.413  -5.043  -1.583  1.00  0.00     0.000 A 
ATOM     31  C   UNL     1       6.581  -4.009  -1.639  1.00  0.00     0.000 A 
ATOM     32  C   UNL     1       5.797  -5.154  -1.683  1.00  0.00     0.000 A 
ENDBRANCH   6  27
ENDBRANCH   3   6
ENDBRANCH   1   2
BRANCH   1  33
ATOM     33  C   UNL     1       4.558   2.785  -1.323  1.00  0.00     0.023 C 
BRANCH  33  34
ATOM     34  C   UNL     1       4.515   4.268  -1.677  1.00  0.00     0.023 C 
BRANCH  34  35
ATOM     35  C   UNL     1       3.465   4.660  -2.707  1.00  0.00     0.116 C 
BRANCH  35  36
ATOM     36  N   UNL     1       2.157   4.973  -2.163  1.00  0.00    -0.352 N 
ATOM     37  C   UNL     1       1.559   6.130  -1.700  1.00  0.00     0.251 C 
ATOM     38  H   UNL     1       1.564   4.189  -2.113  1.00  0.00     0.163 HD
ATOM     39  O   UNL     1       0.382   6.076  -1.386  1.00  0.00    -0.269 OA
BRANCH  37  40
ATOM     40  C   UNL     1       2.308   7.401  -1.466  1.00  0.00     0.039 A 
ATOM     41  C   UNL     1       1.842   8.255  -0.450  1.00  0.00     0.014 A 
ATOM     42  C   UNL     1       3.455   7.766  -2.153  1.00  0.00     0.014 A 
ATOM     43  C   UNL     1       2.582   9.378  -0.052  1.00  0.00     0.010 A 
ATOM     44  C   UNL     1       4.245   8.815  -1.699  1.00  0.00     0.010 A 
ATOM     45  C   UNL     1       3.817   9.640  -0.649  1.00  0.00    -0.014 A 
BRANCH  45  46
ATOM     46  C   UNL     1       4.659  10.818  -0.319  1.00  0.00     0.031 A 
ATOM     47  C   UNL     1       4.970  11.793  -1.422  1.00  0.00     0.074 A 
ATOM     48  C   UNL     1       5.254  10.940   0.882  1.00  0.00     0.049 A 
ATOM     49  N   UNL     1       5.910  12.699  -1.498  1.00  0.00    -0.248 NA
ATOM     50  C   UNL     1       4.148  11.677  -2.640  1.00  0.00     0.031 C 
ATOM     51  C   UNL     1       5.063  10.050   2.027  1.00  0.00     0.029 A 
ATOM     52  N   UNL     1       6.179  11.855   1.322  1.00  0.00    -0.354 N 
ATOM     53  C   UNL     1       5.829  13.210  -2.787  1.00  0.00     0.074 A 
ATOM     54  C   UNL     1       4.793  12.474  -3.475  1.00  0.00     0.031 C 
ATOM     55  C   UNL     1       5.846  10.464   3.040  1.00  0.00     0.029 A 
ATOM     56  C   UNL     1       6.627  11.617   2.600  1.00  0.00     0.049 A 
ATOM     57  H   UNL     1       6.493  12.610   0.774  1.00  0.00     0.167 HD
ATOM     58  C   UNL     1       6.536  14.224  -3.339  1.00  0.00     0.037 A 
ATOM     59  C   UNL     1       7.576  12.250   3.317  1.00  0.00     0.037 A 
ATOM     60  C   UNL     1       7.507  15.004  -2.623  1.00  0.00     0.049 A 
ATOM     61  C   UNL     1       8.319  13.406   2.694  1.00  0.00     0.074 A 
ATOM     62  C   UNL     1       8.232  16.097  -3.063  1.00  0.00     0.029 A 
ATOM     63  N   UNL     1       7.866  14.787  -1.301  1.00  0.00    -0.354 N 
ATOM     64  N   UNL     1       8.219  13.905   1.486  1.00  0.00    -0.248 NA
ATOM     65  C   UNL     1       9.309  14.091   3.540  1.00  0.00     0.031 C 
ATOM     66  C   UNL     1       9.047  16.529  -2.011  1.00  0.00     0.029 A 
ATOM     67  C   UNL     1       8.799  15.729  -0.907  1.00  0.00     0.049 A 
ATOM     68  H   UNL     1       7.510  14.069  -0.729  1.00  0.00     0.167 HD
ATOM     69  C   UNL     1       9.097  14.980   1.440  1.00  0.00     0.074 A 
ATOM     70  C   UNL     1       9.717  15.069   2.745  1.00  0.00     0.031 C 
ATOM     71  C   UNL     1       9.372  15.818   0.411  1.00  0.00     0.037 A 
BRANCH  58  72
ATOM     72  C   UNL     1       6.261  14.558  -4.775  1.00  0.00     0.064 A 
ATOM     73  C   UNL     1       5.040  15.120  -5.178  1.00  0.00     0.173 A 
ATOM     74  C   UNL     1       7.234  14.329  -5.760  1.00  0.00     0.173 A 
ATOM     75  F   UNL     1       4.070  15.344  -4.278  1.00  0.00    -0.203 F 
ATOM     76  C   UNL     1       4.787  15.403  -6.517  1.00  0.00     0.198 A 
ATOM     77  C   UNL     1       6.991  14.647  -7.094  1.00  0.00     0.198 A 
ATOM     78  F   UNL     1       8.420  13.796  -5.430  1.00  0.00    -0.203 F 
ATOM     79  F   UNL     1       3.590  15.878  -6.885  1.00  0.00    -0.200 F 
ATOM     80  C   UNL     1       5.765  15.174  -7.473  1.00  0.00     0.200 A 
ATOM     81  F   UNL     1       7.941  14.436  -8.015  1.00  0.00    -0.200 F 
ATOM     82  F   UNL     1       5.523  15.452  -8.761  1.00  0.00    -0.200 F 
ENDBRANCH  58  72
BRANCH  59  83
ATOM     83  C   UNL     1       7.876  11.829   4.712  1.00  0.00     0.064 A 
ATOM     84  C   UNL     1       7.553  12.663   5.793  1.00  0.00     0.173 A 
ATOM     85  C   UNL     1       8.530  10.622   4.994  1.00  0.00     0.173 A 
ATOM     86  F   UNL     1       6.949  13.840   5.572  1.00  0.00    -0.203 F 
ATOM     87  C   UNL     1       7.903  12.322   7.098  1.00  0.00     0.198 A 
ATOM     88  C   UNL     1       8.854  10.268   6.304  1.00  0.00     0.198 A 
ATOM     89  F   UNL     1       8.861   9.787   3.998  1.00  0.00    -0.203 F 
ATOM     90  F   UNL     1       7.640  13.169   8.103  1.00  0.00    -0.200 F 
ATOM     91  C   UNL     1       8.552  11.124   7.353  1.00  0.00     0.200 A 
ATOM     92  F   UNL     1       9.473   9.105   6.548  1.00  0.00    -0.200 F 
ATOM     93  F   UNL     1       8.899  10.801   8.606  1.00  0.00    -0.200 F 
ENDBRANCH  59  83
BRANCH  71  94
ATOM     94  C   UNL     1      10.333  16.942   0.668  1.00  0.00     0.064 A 
ATOM     95  C   UNL     1      11.710  16.719   0.798  1.00  0.00     0.173 A 
ATOM     96  C   UNL     1       9.871  18.266   0.721  1.00  0.00     0.173 A 
ATOM     97  F   UNL     1      12.198  15.469   0.767  1.00  0.00    -0.203 F 
ATOM     98  C   UNL     1      12.590  17.780   0.992  1.00  0.00     0.198 A 
ATOM     99  C   UNL     1      10.756  19.327   0.886  1.00  0.00     0.198 A 
ATOM    100  F   UNL     1       8.562  18.531   0.592  1.00  0.00    -0.203 F 
ATOM    101  F   UNL     1      13.899  17.542   1.154  1.00  0.00    -0.200 F 
ATOM    102  C   UNL     1      12.113  19.083   1.027  1.00  0.00     0.200 A 
ATOM    103  F   UNL     1      10.295  20.585   0.903  1.00  0.00    -0.200 F 
ATOM    104  F   UNL     1      12.963  20.104   1.200  1.00  0.00    -0.200 F 
ENDBRANCH  71  94
ENDBRANCH  45  46
ENDBRANCH  37  40
ENDBRANCH  35  36
ENDBRANCH  34  35
ENDBRANCH  33  34
ENDBRANCH   1  33
TORSDOF 17
