REMARK SMILES CC1(C)CCN(S(=O)(=O)c2ccc(O)c(C(=O)NCCCCNC(=O)c3ccc(-c4c5nc(c(-c6c(F)c(F)c(F)c(F)c6F)c6ccc([nH]6)c(-c6c(F)c(F)c(F)c(F)c6F)c6nc(c(-c7c(F)c(F)c(F)c(F)c7F)c7ccc4[nH]7)C=C6)C=C5)cc3)c2)C1
REMARK SMILES IDX 20 1 19 2 18 3 16 4 17 5 15 7 10 8 11 9 89 10 12 11 13 12
REMARK SMILES IDX 7 13 8 14 9 15 6 16 1 17 2 18 3 19 4 20 90 21 5 22 14 23
REMARK SMILES IDX 21 25 22 26 23 27 24 28 25 30 26 31 27 32 88 33 28 34 87 35
REMARK SMILES IDX 29 36 30 37 31 38 81 39 32 40 86 41 80 42 82 43 33 44 85 45
REMARK SMILES IDX 79 46 78 47 34 49 66 50 46 51 65 52 47 53 50 54 64 55 83 56
REMARK SMILES IDX 48 57 49 58 63 60 84 61 51 62 35 63 36 64 44 65 37 66 38 67
REMARK SMILES IDX 42 68 45 69 39 70 40 71 43 72 41 73 67 74 68 75 76 76 69 77
REMARK SMILES IDX 70 78 74 79 77 80 71 81 72 82 75 83 73 84 52 85 53 86 61 87
REMARK SMILES IDX 54 88 55 89 59 90 62 91 56 92 57 93 60 94 58 95
REMARK H PARENT 18 6 14 24 23 29 82 48 50 59
REMARK Flexibility Score: inf
ROOT
ATOM      1  C   UNL     1       3.866   9.102   1.374  1.00  0.00     0.023 C 
ENDROOT
BRANCH   1   2
ATOM      2  C   UNL     1       3.864   8.345   0.041  1.00  0.00     0.116 C 
BRANCH   2   3
ATOM      3  N   UNL     1       4.787   7.236   0.076  1.00  0.00    -0.352 N 
ATOM      4  C   UNL     1       4.655   5.916   0.417  1.00  0.00     0.255 C 
ATOM      5  O   UNL     1       5.693   5.252   0.320  1.00  0.00    -0.269 OA
ATOM      6  H   UNL     1       5.700   7.477  -0.203  1.00  0.00     0.163 HD
BRANCH   4   7
ATOM      7  C   UNL     1       3.406   5.208   0.867  1.00  0.00     0.082 A 
ATOM      8  C   UNL     1       2.455   2.975   1.251  1.00  0.00     0.083 A 
ATOM      9  C   UNL     1       1.363   3.537   1.904  1.00  0.00     0.025 A 
ATOM     10  C   UNL     1       3.465   3.798   0.738  1.00  0.00     0.039 A 
ATOM     11  C   UNL     1       1.251   4.915   1.989  1.00  0.00     0.048 A 
ATOM     12  C   UNL     1       2.267   5.743   1.493  1.00  0.00     0.128 A 
BRANCH   8  13
ATOM     13  S   UNL     1       2.645   1.206   1.264  1.00  0.00     0.243 S 
ATOM     14  O   UNL     1       2.219   0.742   2.571  1.00  0.00    -0.207 OA
ATOM     15  O   UNL     1       3.958   0.885   0.755  1.00  0.00    -0.207 OA
BRANCH  13  16
ATOM     16  N   UNL     1       1.505   0.641   0.125  1.00  0.00    -0.197 NA
ATOM     17  C   UNL     1      -0.999  -0.157  -1.639  1.00  0.00     0.012 C 
ATOM     18  C   UNL     1      -0.740  -0.218  -0.128  1.00  0.00    -0.020 C 
ATOM     19  C   UNL     1      -2.078  -0.309   0.613  1.00  0.00     0.012 C 
ATOM     20  C   UNL     1       0.194  -1.370   0.241  1.00  0.00     0.024 C 
ATOM     21  C   UNL     1       0.074   0.987   0.357  1.00  0.00     0.109 C 
ATOM     22  C   UNL     1       1.581  -0.837  -0.100  1.00  0.00     0.103 C 
ENDBRANCH  13  16
ENDBRANCH   8  13
BRANCH  12  23
ATOM     23  O   UNL     1       2.090   7.072   1.721  1.00  0.00    -0.507 OA
ATOM     24  H   UNL     1       1.311   7.375   2.143  1.00  0.00     0.293 HD
ENDBRANCH  12  23
ENDBRANCH   4   7
ENDBRANCH   2   3
ENDBRANCH   1   2
BRANCH   1  25
ATOM     25  C   UNL     1       4.933  10.185   1.508  1.00  0.00     0.023 C 
BRANCH  25  26
ATOM     26  C   UNL     1       4.769  11.357   0.552  1.00  0.00     0.116 C 
BRANCH  26  27
ATOM     27  N   UNL     1       3.481  12.028   0.660  1.00  0.00    -0.352 N 
ATOM     28  C   UNL     1       3.182  13.337   0.365  1.00  0.00     0.251 C 
ATOM     29  H   UNL     1       2.732  11.477   0.985  1.00  0.00     0.163 HD
ATOM     30  O   UNL     1       2.063  13.792   0.576  1.00  0.00    -0.269 OA
BRANCH  28  31
ATOM     31  C   UNL     1       4.252  14.204  -0.162  1.00  0.00     0.039 A 
ATOM     32  C   UNL     1       4.516  15.414   0.483  1.00  0.00     0.014 A 
ATOM     33  C   UNL     1       5.035  13.786  -1.241  1.00  0.00     0.014 A 
ATOM     34  C   UNL     1       5.618  16.174   0.090  1.00  0.00     0.010 A 
ATOM     35  C   UNL     1       6.172  14.505  -1.582  1.00  0.00     0.010 A 
ATOM     36  C   UNL     1       6.475  15.704  -0.918  1.00  0.00    -0.014 A 
BRANCH  36  37
ATOM     37  C   UNL     1       7.694  16.453  -1.305  1.00  0.00     0.031 A 
ATOM     38  C   UNL     1       7.802  17.034  -2.686  1.00  0.00     0.074 A 
ATOM     39  C   UNL     1       8.727  16.538  -0.446  1.00  0.00     0.049 A 
ATOM     40  N   UNL     1       8.816  17.632  -3.255  1.00  0.00    -0.248 NA
ATOM     41  C   UNL     1       6.621  16.894  -3.553  1.00  0.00     0.031 C 
ATOM     42  C   UNL     1       8.758  15.968   0.902  1.00  0.00     0.029 A 
ATOM     43  N   UNL     1       9.960  17.124  -0.588  1.00  0.00    -0.354 N 
ATOM     44  C   UNL     1       8.404  17.919  -4.549  1.00  0.00     0.074 A 
ATOM     45  C   UNL     1       7.067  17.388  -4.698  1.00  0.00     0.031 C 
ATOM     46  C   UNL     1       9.942  16.247   1.470  1.00  0.00     0.029 A 
ATOM     47  C   UNL     1      10.765  16.985   0.516  1.00  0.00     0.049 A 
ATOM     48  H   UNL     1      10.240  17.598  -1.403  1.00  0.00     0.167 HD
ATOM     49  C   UNL     1       9.074  18.586  -5.518  1.00  0.00     0.037 A 
ATOM     50  C   UNL     1      12.027  17.404   0.729  1.00  0.00     0.037 A 
ATOM     51  C   UNL     1      10.388  19.145  -5.353  1.00  0.00     0.049 A 
ATOM     52  C   UNL     1      12.740  18.161  -0.358  1.00  0.00     0.074 A 
ATOM     53  C   UNL     1      11.129  19.890  -6.252  1.00  0.00     0.029 A 
ATOM     54  N   UNL     1      11.156  19.022  -4.204  1.00  0.00    -0.354 N 
ATOM     55  N   UNL     1      12.318  18.482  -1.556  1.00  0.00    -0.248 NA
ATOM     56  C   UNL     1      14.103  18.622  -0.059  1.00  0.00     0.031 C 
ATOM     57  C   UNL     1      12.359  20.193  -5.659  1.00  0.00     0.029 A 
ATOM     58  C   UNL     1      12.368  19.670  -4.375  1.00  0.00     0.049 A 
ATOM     59  H   UNL     1      10.881  18.544  -3.388  1.00  0.00     0.167 HD
ATOM     60  C   UNL     1      13.347  19.205  -2.143  1.00  0.00     0.074 A 
ATOM     61  C   UNL     1      14.412  19.285  -1.165  1.00  0.00     0.031 C 
ATOM     62  C   UNL     1      13.406  19.753  -3.381  1.00  0.00     0.037 A 
BRANCH  49  63
ATOM     63  C   UNL     1       8.387  18.758  -6.840  1.00  0.00     0.064 A 
ATOM     64  C   UNL     1       7.294  19.624  -6.991  1.00  0.00     0.173 A 
ATOM     65  C   UNL     1       8.844  18.073  -7.975  1.00  0.00     0.173 A 
ATOM     66  F   UNL     1       6.809  20.290  -5.931  1.00  0.00    -0.203 F 
ATOM     67  C   UNL     1       6.667  19.777  -8.224  1.00  0.00     0.198 A 
ATOM     68  C   UNL     1       8.232  18.250  -9.213  1.00  0.00     0.198 A 
ATOM     69  F   UNL     1       9.888  17.235  -7.885  1.00  0.00    -0.203 F 
ATOM     70  F   UNL     1       5.595  20.574  -8.334  1.00  0.00    -0.200 F 
ATOM     71  C   UNL     1       7.140  19.096  -9.335  1.00  0.00     0.200 A 
ATOM     72  F   UNL     1       8.697  17.599 -10.289  1.00  0.00    -0.200 F 
ATOM     73  F   UNL     1       6.539  19.250 -10.523  1.00  0.00    -0.200 F 
ENDBRANCH  49  63
BRANCH  50  74
ATOM     74  C   UNL     1      12.686  17.145   2.034  1.00  0.00     0.064 A 
ATOM     75  C   UNL     1      12.928  18.192   2.934  1.00  0.00     0.173 A 
ATOM     76  C   UNL     1      13.094  15.856   2.406  1.00  0.00     0.173 A 
ATOM     77  F   UNL     1      12.574  19.445   2.614  1.00  0.00    -0.203 F 
ATOM     78  C   UNL     1      13.572  17.963   4.149  1.00  0.00     0.198 A 
ATOM     79  C   UNL     1      13.715  15.624   3.631  1.00  0.00     0.198 A 
ATOM     80  F   UNL     1      12.880  14.820   1.581  1.00  0.00    -0.203 F 
ATOM     81  F   UNL     1      13.830  18.989   4.971  1.00  0.00    -0.200 F 
ATOM     82  C   UNL     1      13.961  16.679   4.498  1.00  0.00     0.200 A 
ATOM     83  F   UNL     1      14.080  14.380   3.971  1.00  0.00    -0.200 F 
ATOM     84  F   UNL     1      14.580  16.459   5.666  1.00  0.00    -0.200 F 
ENDBRANCH  50  74
BRANCH  62  85
ATOM     85  C   UNL     1      14.642  20.524  -3.733  1.00  0.00     0.064 A 
ATOM     86  C   UNL     1      15.854  19.878  -4.018  1.00  0.00     0.173 A 
ATOM     87  C   UNL     1      14.599  21.922  -3.834  1.00  0.00     0.173 A 
ATOM     88  F   UNL     1      15.947  18.544  -3.920  1.00  0.00    -0.203 F 
ATOM     89  C   UNL     1      16.984  20.609  -4.375  1.00  0.00     0.198 A 
ATOM     90  C   UNL     1      15.724  22.647  -4.216  1.00  0.00     0.198 A 
ATOM     91  F   UNL     1      13.460  22.584  -3.577  1.00  0.00    -0.203 F 
ATOM     92  F   UNL     1      18.142  19.976  -4.606  1.00  0.00    -0.200 F 
ATOM     93  C   UNL     1      16.916  21.990  -4.480  1.00  0.00     0.200 A 
ATOM     94  F   UNL     1      15.654  23.980  -4.329  1.00  0.00    -0.200 F 
ATOM     95  F   UNL     1      18.003  22.690  -4.832  1.00  0.00    -0.200 F 
ENDBRANCH  62  85
ENDBRANCH  36  37
ENDBRANCH  28  31
ENDBRANCH  26  27
ENDBRANCH  25  26
ENDBRANCH   1  25
TORSDOF 14
