REMARK SMILES CS(=O)(=O)c1ccc(N2N=C(C(=O)NCCCCNC(=O)c3ccc(-c4c5nc(c(-c6c(F)c(F)c(F)c(F)c6F)c6ccc([nH]6)c(-c6c(F)c(F)c(F)c(F)c6F)c6nc(c(-c7c(F)c(F)c(F)c(F)c7F)c7ccc4[nH]7)C=C6)C=C5)cc3)C[C@H]2c2cccs2)cc1
REMARK SMILES IDX 16 1 15 2 14 3 12 4 13 5 11 7 9 8 10 9 86 10 85 11 8 12 5 13
REMARK SMILES IDX 6 14 93 15 7 16 92 17 2 18 1 19 3 20 4 21 87 22 88 23 91 24
REMARK SMILES IDX 89 25 90 26 17 27 18 28 19 29 20 30 21 32 22 33 23 34 84 35
REMARK SMILES IDX 24 36 83 37 25 38 26 39 27 40 77 41 28 42 82 43 76 44 78 45
REMARK SMILES IDX 29 46 81 47 75 48 74 49 30 51 62 52 42 53 61 54 43 55 46 56
REMARK SMILES IDX 60 57 79 58 44 59 45 60 59 62 80 63 47 64 31 65 32 66 40 67
REMARK SMILES IDX 33 68 34 69 38 70 41 71 35 72 36 73 39 74 37 75 63 76 64 77
REMARK SMILES IDX 72 78 65 79 66 80 70 81 73 82 67 83 68 84 71 85 69 86 48 87
REMARK SMILES IDX 49 88 57 89 50 90 51 91 55 92 58 93 52 94 53 95 56 96 54 97
REMARK H PARENT 14 6 19 31 78 50 46 61
REMARK Flexibility Score: inf
ROOT
ATOM      1  C   UNL     1       1.845   4.384  11.472  1.00  0.00     0.023 C 
ENDROOT
BRANCH   1   2
ATOM      2  C   UNL     1       2.439   5.172  10.313  1.00  0.00     0.116 C 
BRANCH   2   3
ATOM      3  N   UNL     1       3.492   4.433   9.647  1.00  0.00    -0.351 N 
ATOM      4  C   UNL     1       3.643   3.900   8.392  1.00  0.00     0.267 C 
ATOM      5  O   UNL     1       4.659   3.241   8.179  1.00  0.00    -0.268 OA
ATOM      6  H   UNL     1       4.274   4.278  10.225  1.00  0.00     0.163 HD
BRANCH   4   7
ATOM      7  C   UNL     1       2.661   4.111   7.248  1.00  0.00     0.128 C 
ATOM      8  N   UNL     1       1.935   4.130   5.239  1.00  0.00    -0.256 N 
ATOM      9  N   UNL     1       2.905   3.643   6.060  1.00  0.00    -0.171 NA
ATOM     10  C   UNL     1       0.913   4.917   5.934  1.00  0.00     0.154 C 
ATOM     11  C   UNL     1       1.356   4.817   7.393  1.00  0.00     0.097 C 
BRANCH   8  12
ATOM     12  C   UNL     1       1.639   3.510   4.027  1.00  0.00     0.060 A 
ATOM     13  C   UNL     1       0.853   2.307   1.611  1.00  0.00     0.067 A 
ATOM     14  C   UNL     1       1.170   1.508   2.711  1.00  0.00     0.022 A 
ATOM     15  C   UNL     1       0.968   3.694   1.692  1.00  0.00     0.022 A 
ATOM     16  C   UNL     1       1.575   2.114   3.908  1.00  0.00     0.029 A 
ATOM     17  C   UNL     1       1.361   4.282   2.893  1.00  0.00     0.029 A 
BRANCH  13  18
ATOM     18  S   UNL     1       0.298   1.616   0.074  1.00  0.00     0.175 S 
ATOM     19  C   UNL     1       1.025   0.010  -0.060  1.00  0.00     0.163 C 
ATOM     20  O   UNL     1       0.874   2.429  -0.985  1.00  0.00    -0.224 OA
ATOM     21  O   UNL     1      -1.137   1.455   0.193  1.00  0.00    -0.224 OA
ENDBRANCH  13  18
ENDBRANCH   8  12
BRANCH  10  22
ATOM     22  C   UNL     1       0.704   6.346   5.462  1.00  0.00     0.030 A 
ATOM     23  C   UNL     1      -0.260   6.794   4.574  1.00  0.00     0.017 A 
ATOM     24  S   UNL     1       1.711   7.648   5.963  1.00  0.00    -0.147 S 
ATOM     25  C   UNL     1      -0.193   8.197   4.344  1.00  0.00     0.012 A 
ATOM     26  C   UNL     1       0.799   8.792   5.087  1.00  0.00     0.065 A 
ENDBRANCH  10  22
ENDBRANCH   4   7
ENDBRANCH   2   3
ENDBRANCH   1   2
BRANCH   1  27
ATOM     27  C   UNL     1       2.731   4.330  12.712  1.00  0.00     0.023 C 
BRANCH  27  28
ATOM     28  C   UNL     1       3.164   5.689  13.249  1.00  0.00     0.116 C 
BRANCH  28  29
ATOM     29  N   UNL     1       2.048   6.586  13.519  1.00  0.00    -0.352 N 
ATOM     30  C   UNL     1       1.812   7.355  14.633  1.00  0.00     0.251 C 
ATOM     31  H   UNL     1       1.372   6.650  12.806  1.00  0.00     0.163 HD
ATOM     32  O   UNL     1       0.755   7.963  14.759  1.00  0.00    -0.269 OA
BRANCH  30  33
ATOM     33  C   UNL     1       2.834   7.407  15.695  1.00  0.00     0.039 A 
ATOM     34  C   UNL     1       2.448   7.180  17.017  1.00  0.00     0.014 A 
ATOM     35  C   UNL     1       4.177   7.617  15.373  1.00  0.00     0.014 A 
ATOM     36  C   UNL     1       3.425   7.085  18.009  1.00  0.00     0.010 A 
ATOM     37  C   UNL     1       5.153   7.430  16.344  1.00  0.00     0.010 A 
ATOM     38  C   UNL     1       4.787   7.163  17.672  1.00  0.00    -0.014 A 
BRANCH  38  39
ATOM     39  C   UNL     1       5.844   6.966  18.696  1.00  0.00     0.031 A 
ATOM     40  C   UNL     1       6.803   8.080  19.011  1.00  0.00     0.074 A 
ATOM     41  C   UNL     1       5.981   5.765  19.291  1.00  0.00     0.049 A 
ATOM     42  N   UNL     1       7.828   8.085  19.825  1.00  0.00    -0.248 NA
ATOM     43  C   UNL     1       6.602   9.349  18.294  1.00  0.00     0.031 C 
ATOM     44  C   UNL     1       5.147   4.590  19.029  1.00  0.00     0.029 A 
ATOM     45  N   UNL     1       6.879   5.330  20.233  1.00  0.00    -0.354 N 
ATOM     46  C   UNL     1       8.397   9.345  19.707  1.00  0.00     0.074 A 
ATOM     47  C   UNL     1       7.645  10.058  18.698  1.00  0.00     0.031 C 
ATOM     48  C   UNL     1       5.555   3.578  19.810  1.00  0.00     0.029 A 
ATOM     49  C   UNL     1       6.704   4.016  20.596  1.00  0.00     0.049 A 
ATOM     50  H   UNL     1       7.582   5.904  20.614  1.00  0.00     0.167 HD
ATOM     51  C   UNL     1       9.437   9.870  20.397  1.00  0.00     0.037 A 
ATOM     52  C   UNL     1       7.400   3.249  21.457  1.00  0.00     0.037 A 
ATOM     53  C   UNL     1      10.169   9.163  21.415  1.00  0.00     0.049 A 
ATOM     54  C   UNL     1       8.561   3.854  22.201  1.00  0.00     0.074 A 
ATOM     55  C   UNL     1      11.197   9.626  22.216  1.00  0.00     0.029 A 
ATOM     56  N   UNL     1       9.954   7.838  21.765  1.00  0.00    -0.354 N 
ATOM     57  N   UNL     1       9.039   5.073  22.142  1.00  0.00    -0.248 NA
ATOM     58  C   UNL     1       9.274   2.977  23.140  1.00  0.00     0.031 C 
ATOM     59  C   UNL     1      11.646   8.565  23.008  1.00  0.00     0.029 A 
ATOM     60  C   UNL     1      10.852   7.458  22.750  1.00  0.00     0.049 A 
ATOM     61  H   UNL     1       9.267   7.253  21.372  1.00  0.00     0.167 HD
ATOM     62  C   UNL     1      10.085   5.119  23.054  1.00  0.00     0.074 A 
ATOM     63  C   UNL     1      10.160   3.809  23.667  1.00  0.00     0.031 C 
ATOM     64  C   UNL     1      10.909   6.152  23.357  1.00  0.00     0.037 A 
BRANCH  51  65
ATOM     65  C   UNL     1       9.846  11.280  20.075  1.00  0.00     0.064 A 
ATOM     66  C   UNL     1       9.025  12.376  20.381  1.00  0.00     0.173 A 
ATOM     67  C   UNL     1      11.093  11.540  19.485  1.00  0.00     0.173 A 
ATOM     68  F   UNL     1       7.818  12.183  20.934  1.00  0.00    -0.203 F 
ATOM     69  C   UNL     1       9.423  13.677  20.080  1.00  0.00     0.198 A 
ATOM     70  C   UNL     1      11.502  12.844  19.219  1.00  0.00     0.198 A 
ATOM     71  F   UNL     1      11.920  10.531  19.176  1.00  0.00    -0.203 F 
ATOM     72  F   UNL     1       8.598  14.702  20.331  1.00  0.00    -0.200 F 
ATOM     73  C   UNL     1      10.664  13.910  19.508  1.00  0.00     0.200 A 
ATOM     74  F   UNL     1      12.708  13.069  18.679  1.00  0.00    -0.200 F 
ATOM     75  F   UNL     1      11.049  15.163  19.228  1.00  0.00    -0.200 F 
ENDBRANCH  51  65
BRANCH  52  76
ATOM     76  C   UNL     1       7.010   1.831  21.677  1.00  0.00     0.064 A 
ATOM     77  C   UNL     1       6.492   1.406  22.909  1.00  0.00     0.173 A 
ATOM     78  C   UNL     1       7.161   0.867  20.669  1.00  0.00     0.173 A 
ATOM     79  F   UNL     1       6.345   2.285  23.912  1.00  0.00    -0.203 F 
ATOM     80  C   UNL     1       6.166   0.070  23.132  1.00  0.00     0.198 A 
ATOM     81  C   UNL     1       6.803  -0.463  20.882  1.00  0.00     0.198 A 
ATOM     82  F   UNL     1       7.646   1.220  19.469  1.00  0.00    -0.203 F 
ATOM     83  F   UNL     1       5.725  -0.317  24.337  1.00  0.00    -0.200 F 
ATOM     84  C   UNL     1       6.317  -0.862  22.117  1.00  0.00     0.200 A 
ATOM     85  F   UNL     1       6.934  -1.357  19.893  1.00  0.00    -0.200 F 
ATOM     86  F   UNL     1       6.001  -2.147  22.332  1.00  0.00    -0.200 F 
ENDBRANCH  52  76
BRANCH  64  87
ATOM     87  C   UNL     1      11.938   5.924  24.428  1.00  0.00     0.064 A 
ATOM     88  C   UNL     1      13.041   5.080  24.229  1.00  0.00     0.173 A 
ATOM     89  C   UNL     1      11.838   6.592  25.659  1.00  0.00     0.173 A 
ATOM     90  F   UNL     1      13.177   4.407  23.076  1.00  0.00    -0.203 F 
ATOM     91  C   UNL     1      13.987   4.890  25.232  1.00  0.00     0.198 A 
ATOM     92  C   UNL     1      12.805   6.428  26.646  1.00  0.00     0.198 A 
ATOM     93  F   UNL     1      10.807   7.417  25.899  1.00  0.00    -0.203 F 
ATOM     94  F   UNL     1      15.002   4.037  25.040  1.00  0.00    -0.200 F 
ATOM     95  C   UNL     1      13.874   5.570  26.436  1.00  0.00     0.200 A 
ATOM     96  F   UNL     1      12.702   7.100  27.800  1.00  0.00    -0.200 F 
ATOM     97  F   UNL     1      14.791   5.393  27.396  1.00  0.00    -0.200 F 
ENDBRANCH  64  87
ENDBRANCH  38  39
ENDBRANCH  30  33
ENDBRANCH  28  29
ENDBRANCH  27  28
ENDBRANCH   1  27
TORSDOF 14
